MODEL 1
REMARK VINA RESULT:     -13.9      0.000      0.000
REMARK SMILES CC1=Nc2c(c(C)nn2-c2ccc(F)cc2)[C@H](c2ccc(C(=O)NCCCCCCNC(=O)c3ccc(-c4c5nc(c(-c6c(F)c(F)c(F)c(F)c6F)c6ccc([nH]6)c(-c6c(F)c(F)c(F)c(F)c6F)c6nc(c(-c7c(F)c(F)c(F)c(F)c7F)c7ccc4[nH]7)C=C6)C=C5)cc3)cc2)S1
REMARK SMILES IDX 27 1 26 2 25 3 24 4 22 5 23 6 21 8 18 9 19 10 98 11 20 12
REMARK SMILES IDX 97 13 17 14 1 15 2 16 3 17 99 18 4 19 5 20 9 21 6 22 8 23
REMARK SMILES IDX 7 24 10 25 11 26 16 27 12 28 15 29 13 30 14 31 28 32 29 33
REMARK SMILES IDX 30 34 31 35 32 36 33 38 34 39 35 40 96 41 36 42 95 43 37 44
REMARK SMILES IDX 38 45 39 46 89 47 40 48 94 49 88 50 90 51 41 52 93 53 87 54
REMARK SMILES IDX 86 55 42 57 74 58 54 59 73 60 55 61 58 62 72 63 91 64 56 65
REMARK SMILES IDX 57 66 71 68 92 69 59 70 43 71 44 72 52 73 45 74 46 75 50 76
REMARK SMILES IDX 53 77 47 78 48 79 51 80 49 81 75 82 76 83 84 84 77 85 78 86
REMARK SMILES IDX 82 87 85 88 79 89 80 90 83 91 81 92 60 93 61 94 69 95 62 96
REMARK SMILES IDX 63 97 67 98 70 99 64 100 65 101 68 102 66 103
REMARK H PARENT 24 7 31 37 90 56 58 67
REMARK Flexibility Score: inf
ROOT
ATOM      1  C   UNL A   1      33.288  29.053  26.356  1.00  0.00     0.002 C 
ENDROOT
BRANCH   1   2
ATOM      2  C   UNL A   1      32.875  29.743  25.049  1.00  0.00     0.021 C 
BRANCH   2   3
ATOM      3  C   UNL A   1      31.363  29.936  24.922  1.00  0.00     0.116 C 
BRANCH   3   4
ATOM      4  N   UNL A   1      30.893  29.333  23.690  1.00  0.00    -0.352 N 
ATOM      5  C   UNL A   1      31.030  28.070  23.179  1.00  0.00     0.251 C 
ATOM      6  O   UNL A   1      30.528  27.827  22.082  1.00  0.00    -0.269 OA
ATOM      7  H   UNL A   1      30.381  29.945  23.114  1.00  0.00     0.163 HD
BRANCH   5   8
ATOM      8  C   UNL A   1      31.682  26.974  23.936  1.00  0.00     0.039 A 
ATOM      9  C   UNL A   1      32.851  24.981  25.570  1.00  0.00    -0.030 A 
ATOM     10  C   UNL A   1      31.632  25.583  25.923  1.00  0.00     0.006 A 
ATOM     11  C   UNL A   1      33.442  25.363  24.352  1.00  0.00     0.006 A 
ATOM     12  C   UNL A   1      31.050  26.558  25.112  1.00  0.00     0.014 A 
ATOM     13  C   UNL A   1      32.853  26.333  23.534  1.00  0.00     0.014 A 
BRANCH   9  14
ATOM     14  C   UNL A   1      33.431  23.902  26.474  1.00  0.00     0.119 C 
ATOM     15  C   UNL A   1      37.038  23.091  24.670  1.00  0.00     0.075 C 
ATOM     16  C   UNL A   1      35.688  22.828  25.285  1.00  0.00     0.074 C 
ATOM     17  N   UNL A   1      34.968  21.869  24.793  1.00  0.00    -0.227 NA
ATOM     18  S   UNL A   1      35.249  23.930  26.584  1.00  0.00    -0.098 SA
ATOM     19  C   UNL A   1      33.693  21.732  25.233  1.00  0.00     0.161 A 
ATOM     20  C   UNL A   1      32.918  22.619  25.946  1.00  0.00     0.038 A 
ATOM     21  N   UNL A   1      32.859  20.678  24.894  1.00  0.00    -0.215 N 
ATOM     22  C   UNL A   1      31.623  22.040  25.974  1.00  0.00     0.067 A 
ATOM     23  N   UNL A   1      31.570  20.915  25.251  1.00  0.00    -0.171 NA
ATOM     24  C   UNL A   1      30.391  22.549  26.627  1.00  0.00     0.069 C 
BRANCH  21  25
ATOM     25  C   UNL A   1      33.220  19.466  24.261  1.00  0.00     0.067 A 
ATOM     26  C   UNL A   1      32.450  18.981  23.194  1.00  0.00     0.031 A 
ATOM     27  C   UNL A   1      34.350  18.766  24.703  1.00  0.00     0.031 A 
ATOM     28  C   UNL A   1      32.814  17.791  22.568  1.00  0.00     0.041 A 
ATOM     29  C   UNL A   1      34.674  17.548  24.105  1.00  0.00     0.041 A 
ATOM     30  C   UNL A   1      33.911  17.077  23.040  1.00  0.00     0.123 A 
ATOM     31  F   UNL A   1      34.235  15.915  22.458  1.00  0.00    -0.207 F 
ENDBRANCH  21  25
ENDBRANCH   9  14
ENDBRANCH   5   8
ENDBRANCH   3   4
ENDBRANCH   2   3
ENDBRANCH   1   2
BRANCH   1  32
ATOM     32  C   UNL A   1      34.132  29.911  27.313  1.00  0.00     0.002 C 
BRANCH  32  33
ATOM     33  C   UNL A   1      33.663  31.361  27.509  1.00  0.00     0.021 C 
BRANCH  33  34
ATOM     34  C   UNL A   1      34.769  32.290  27.981  1.00  0.00     0.116 C 
BRANCH  34  35
ATOM     35  N   UNL A   1      34.646  32.610  29.406  1.00  0.00    -0.352 N 
ATOM     36  C   UNL A   1      35.351  32.083  30.463  1.00  0.00     0.251 C 
ATOM     37  H   UNL A   1      33.974  33.290  29.636  1.00  0.00     0.163 HD
ATOM     38  O   UNL A   1      34.912  32.148  31.617  1.00  0.00    -0.269 OA
BRANCH  36  39
ATOM     39  C   UNL A   1      36.647  31.447  30.205  1.00  0.00     0.039 A 
ATOM     40  C   UNL A   1      37.808  32.190  29.982  1.00  0.00     0.014 A 
ATOM     41  C   UNL A   1      36.681  30.055  30.218  1.00  0.00     0.014 A 
ATOM     42  C   UNL A   1      39.017  31.514  29.841  1.00  0.00     0.010 A 
ATOM     43  C   UNL A   1      37.882  29.409  30.276  1.00  0.00     0.010 A 
ATOM     44  C   UNL A   1      39.042  30.120  30.004  1.00  0.00    -0.014 A 
BRANCH  44  45
ATOM     45  C   UNL A   1      40.291  29.372  29.989  1.00  0.00     0.031 A 
ATOM     46  C   UNL A   1      40.900  29.176  31.331  1.00  0.00     0.074 A 
ATOM     47  C   UNL A   1      40.715  28.713  28.887  1.00  0.00     0.049 A 
ATOM     48  N   UNL A   1      42.030  29.628  31.762  1.00  0.00    -0.248 NA
ATOM     49  C   UNL A   1      40.092  28.509  32.367  1.00  0.00     0.031 C 
ATOM     50  C   UNL A   1      40.032  28.557  27.594  1.00  0.00     0.029 A 
ATOM     51  N   UNL A   1      41.823  27.943  28.724  1.00  0.00    -0.354 N 
ATOM     52  C   UNL A   1      42.169  29.142  33.060  1.00  0.00     0.074 A 
ATOM     53  C   UNL A   1      40.881  28.624  33.438  1.00  0.00     0.031 C 
ATOM     54  C   UNL A   1      40.619  27.572  26.881  1.00  0.00     0.029 A 
ATOM     55  C   UNL A   1      41.820  27.156  27.577  1.00  0.00     0.049 A 
ATOM     56  H   UNL A   1      42.569  27.940  29.367  1.00  0.00     0.167 HD
ATOM     57  C   UNL A   1      43.402  28.983  33.616  1.00  0.00     0.037 A 
ATOM     58  C   UNL A   1      42.738  26.218  27.237  1.00  0.00     0.037 A 
ATOM     59  C   UNL A   1      44.392  29.732  32.886  1.00  0.00     0.049 A 
ATOM     60  C   UNL A   1      43.956  26.500  28.035  1.00  0.00     0.074 A 
ATOM     61  C   UNL A   1      44.598  31.070  32.622  1.00  0.00     0.029 A 
ATOM     62  N   UNL A   1      45.146  29.047  31.966  1.00  0.00    -0.354 N 
ATOM     63  N   UNL A   1      44.688  27.570  27.887  1.00  0.00    -0.248 NA
ATOM     64  C   UNL A   1      44.093  25.817  29.310  1.00  0.00     0.031 C 
ATOM     65  C   UNL A   1      45.077  31.113  31.280  1.00  0.00     0.029 A 
ATOM     66  C   UNL A   1      45.209  29.800  30.823  1.00  0.00     0.049 A 
ATOM     67  H   UNL A   1      45.568  28.168  32.103  1.00  0.00     0.167 HD
ATOM     68  C   UNL A   1      45.043  27.933  29.178  1.00  0.00     0.074 A 
ATOM     69  C   UNL A   1      44.724  26.768  30.001  1.00  0.00     0.031 C 
ATOM     70  C   UNL A   1      45.287  29.239  29.493  1.00  0.00     0.037 A 
BRANCH  57  71
ATOM     71  C   UNL A   1      43.780  27.866  34.564  1.00  0.00     0.064 A 
ATOM     72  C   UNL A   1      43.933  28.026  35.958  1.00  0.00     0.173 A 
ATOM     73  C   UNL A   1      43.695  26.531  34.117  1.00  0.00     0.173 A 
ATOM     74  F   UNL A   1      43.931  29.228  36.547  1.00  0.00    -0.203 F 
ATOM     75  C   UNL A   1      43.978  26.944  36.836  1.00  0.00     0.198 A 
ATOM     76  C   UNL A   1      43.684  25.451  35.005  1.00  0.00     0.198 A 
ATOM     77  F   UNL A   1      43.526  26.255  32.815  1.00  0.00    -0.203 F 
ATOM     78  F   UNL A   1      44.092  27.169  38.152  1.00  0.00    -0.200 F 
ATOM     79  C   UNL A   1      43.822  25.659  36.364  1.00  0.00     0.200 A 
ATOM     80  F   UNL A   1      43.472  24.212  34.543  1.00  0.00    -0.200 F 
ATOM     81  F   UNL A   1      43.755  24.633  37.222  1.00  0.00    -0.200 F 
ENDBRANCH  57  71
BRANCH  58  82
ATOM     82  C   UNL A   1      42.529  24.924  26.544  1.00  0.00     0.064 A 
ATOM     83  C   UNL A   1      41.785  23.889  27.144  1.00  0.00     0.173 A 
ATOM     84  C   UNL A   1      43.301  24.569  25.425  1.00  0.00     0.173 A 
ATOM     85  F   UNL A   1      41.078  24.114  28.262  1.00  0.00    -0.203 F 
ATOM     86  C   UNL A   1      41.833  22.576  26.672  1.00  0.00     0.198 A 
ATOM     87  C   UNL A   1      43.350  23.252  24.955  1.00  0.00     0.198 A 
ATOM     88  F   UNL A   1      44.074  25.485  24.823  1.00  0.00    -0.203 F 
ATOM     89  F   UNL A   1      41.160  21.612  27.318  1.00  0.00    -0.200 F 
ATOM     90  C   UNL A   1      42.627  22.254  25.586  1.00  0.00     0.200 A 
ATOM     91  F   UNL A   1      44.150  22.939  23.925  1.00  0.00    -0.200 F 
ATOM     92  F   UNL A   1      42.727  20.981  25.178  1.00  0.00    -0.200 F 
ENDBRANCH  58  82
BRANCH  70  93
ATOM     93  C   UNL A   1      45.430  30.223  28.362  1.00  0.00     0.064 A 
ATOM     94  C   UNL A   1      46.724  30.561  27.947  1.00  0.00     0.173 A 
ATOM     95  C   UNL A   1      44.365  30.960  27.813  1.00  0.00     0.173 A 
ATOM     96  F   UNL A   1      47.783  29.923  28.471  1.00  0.00    -0.203 F 
ATOM     97  C   UNL A   1      46.949  31.597  27.046  1.00  0.00     0.198 A 
ATOM     98  C   UNL A   1      44.589  31.975  26.883  1.00  0.00     0.198 A 
ATOM     99  F   UNL A   1      43.106  30.759  28.215  1.00  0.00    -0.203 F 
ATOM    100  F   UNL A   1      48.204  31.940  26.726  1.00  0.00    -0.200 F 
ATOM    101  C   UNL A   1      45.882  32.301  26.510  1.00  0.00     0.200 A 
ATOM    102  F   UNL A   1      43.556  32.667  26.378  1.00  0.00    -0.200 F 
ATOM    103  F   UNL A   1      46.104  33.313  25.659  1.00  0.00    -0.200 F 
ENDBRANCH  70  93
ENDBRANCH  44  45
ENDBRANCH  36  39
ENDBRANCH  34  35
ENDBRANCH  33  34
ENDBRANCH  32  33
ENDBRANCH   1  32
TORSDOF 15
ENDMDL
MODEL 2
REMARK VINA RESULT:     -13.9      3.524      9.027
REMARK SMILES CC1=Nc2c(c(C)nn2-c2ccc(F)cc2)[C@H](c2ccc(C(=O)NCCCCCCNC(=O)c3ccc(-c4c5nc(c(-c6c(F)c(F)c(F)c(F)c6F)c6ccc([nH]6)c(-c6c(F)c(F)c(F)c(F)c6F)c6nc(c(-c7c(F)c(F)c(F)c(F)c7F)c7ccc4[nH]7)C=C6)C=C5)cc3)cc2)S1
REMARK SMILES IDX 27 1 26 2 25 3 24 4 22 5 23 6 21 8 18 9 19 10 98 11 20 12
REMARK SMILES IDX 97 13 17 14 1 15 2 16 3 17 99 18 4 19 5 20 9 21 6 22 8 23
REMARK SMILES IDX 7 24 10 25 11 26 16 27 12 28 15 29 13 30 14 31 28 32 29 33
REMARK SMILES IDX 30 34 31 35 32 36 33 38 34 39 35 40 96 41 36 42 95 43 37 44
REMARK SMILES IDX 38 45 39 46 89 47 40 48 94 49 88 50 90 51 41 52 93 53 87 54
REMARK SMILES IDX 86 55 42 57 74 58 54 59 73 60 55 61 58 62 72 63 91 64 56 65
REMARK SMILES IDX 57 66 71 68 92 69 59 70 43 71 44 72 52 73 45 74 46 75 50 76
REMARK SMILES IDX 53 77 47 78 48 79 51 80 49 81 75 82 76 83 84 84 77 85 78 86
REMARK SMILES IDX 82 87 85 88 79 89 80 90 83 91 81 92 60 93 61 94 69 95 62 96
REMARK SMILES IDX 63 97 67 98 70 99 64 100 65 101 68 102 66 103
REMARK H PARENT 24 7 31 37 90 56 58 67
REMARK Flexibility Score: inf
ROOT
ATOM      1  C   UNL A   1      40.638  22.163  26.480  1.00  0.00     0.002 C 
ENDROOT
BRANCH   1   2
ATOM      2  C   UNL A   1      39.443  23.037  26.883  1.00  0.00     0.021 C 
BRANCH   2   3
ATOM      3  C   UNL A   1      38.203  22.798  26.019  1.00  0.00     0.116 C 
BRANCH   3   4
ATOM      4  N   UNL A   1      38.215  21.442  25.507  1.00  0.00    -0.352 N 
ATOM      5  C   UNL A   1      37.227  20.653  24.981  1.00  0.00     0.251 C 
ATOM      6  O   UNL A   1      37.520  19.512  24.626  1.00  0.00    -0.269 OA
ATOM      7  H   UNL A   1      39.098  21.009  25.543  1.00  0.00     0.163 HD
BRANCH   5   8
ATOM      8  C   UNL A   1      35.851  21.153  24.750  1.00  0.00     0.039 A 
ATOM      9  C   UNL A   1      33.308  22.318  24.314  1.00  0.00    -0.030 A 
ATOM     10  C   UNL A   1      34.470  22.893  23.772  1.00  0.00     0.006 A 
ATOM     11  C   UNL A   1      33.445  21.117  25.033  1.00  0.00     0.006 A 
ATOM     12  C   UNL A   1      35.723  22.313  23.979  1.00  0.00     0.014 A 
ATOM     13  C   UNL A   1      34.699  20.530  25.231  1.00  0.00     0.014 A 
BRANCH   9  14
ATOM     14  C   UNL A   1      31.962  22.973  24.036  1.00  0.00     0.119 C 
ATOM     15  C   UNL A   1      32.904  25.705  21.108  1.00  0.00     0.075 C 
ATOM     16  C   UNL A   1      32.337  25.173  22.398  1.00  0.00     0.074 C 
ATOM     17  N   UNL A   1      32.366  25.940  23.443  1.00  0.00    -0.227 NA
ATOM     18  S   UNL A   1      31.748  23.517  22.311  1.00  0.00    -0.098 SA
ATOM     19  C   UNL A   1      32.006  25.412  24.638  1.00  0.00     0.161 A 
ATOM     20  C   UNL A   1      31.855  24.092  24.997  1.00  0.00     0.038 A 
ATOM     21  N   UNL A   1      31.865  26.147  25.805  1.00  0.00    -0.215 N 
ATOM     22  C   UNL A   1      31.650  24.110  26.400  1.00  0.00     0.067 A 
ATOM     23  N   UNL A   1      31.756  25.348  26.898  1.00  0.00    -0.171 NA
ATOM     24  C   UNL A   1      31.405  22.970  27.319  1.00  0.00     0.069 C 
BRANCH  21  25
ATOM     25  C   UNL A   1      31.821  27.555  25.934  1.00  0.00     0.067 A 
ATOM     26  C   UNL A   1      31.395  28.339  24.853  1.00  0.00     0.031 A 
ATOM     27  C   UNL A   1      32.194  28.150  27.146  1.00  0.00     0.031 A 
ATOM     28  C   UNL A   1      31.345  29.725  24.986  1.00  0.00     0.041 A 
ATOM     29  C   UNL A   1      32.192  29.541  27.251  1.00  0.00     0.041 A 
ATOM     30  C   UNL A   1      31.760  30.314  26.176  1.00  0.00     0.123 A 
ATOM     31  F   UNL A   1      31.744  31.648  26.287  1.00  0.00    -0.207 F 
ENDBRANCH  21  25
ENDBRANCH   9  14
ENDBRANCH   5   8
ENDBRANCH   3   4
ENDBRANCH   2   3
ENDBRANCH   1   2
BRANCH   1  32
ATOM     32  C   UNL A   1      41.337  21.433  27.639  1.00  0.00     0.002 C 
BRANCH  32  33
ATOM     33  C   UNL A   1      42.193  20.218  27.250  1.00  0.00     0.021 C 
BRANCH  33  34
ATOM     34  C   UNL A   1      42.282  20.003  25.748  1.00  0.00     0.116 C 
BRANCH  34  35
ATOM     35  N   UNL A   1      43.663  19.797  25.304  1.00  0.00    -0.352 N 
ATOM     36  C   UNL A   1      44.599  20.742  24.956  1.00  0.00     0.251 C 
ATOM     37  H   UNL A   1      43.960  18.860  25.250  1.00  0.00     0.163 HD
ATOM     38  O   UNL A   1      45.574  20.446  24.256  1.00  0.00    -0.269 OA
BRANCH  36  39
ATOM     39  C   UNL A   1      44.430  22.117  25.438  1.00  0.00     0.039 A 
ATOM     40  C   UNL A   1      43.599  23.035  24.791  1.00  0.00     0.014 A 
ATOM     41  C   UNL A   1      45.118  22.469  26.596  1.00  0.00     0.014 A 
ATOM     42  C   UNL A   1      43.416  24.290  25.365  1.00  0.00     0.010 A 
ATOM     43  C   UNL A   1      44.787  23.617  27.256  1.00  0.00     0.010 A 
ATOM     44  C   UNL A   1      44.007  24.565  26.608  1.00  0.00    -0.014 A 
BRANCH  44  45
ATOM     45  C   UNL A   1      43.754  25.812  27.315  1.00  0.00     0.031 A 
ATOM     46  C   UNL A   1      44.684  26.915  26.955  1.00  0.00     0.074 A 
ATOM     47  C   UNL A   1      42.628  26.008  28.037  1.00  0.00     0.049 A 
ATOM     48  N   UNL A   1      45.538  27.512  27.718  1.00  0.00    -0.248 NA
ATOM     49  C   UNL A   1      44.771  27.313  25.539  1.00  0.00     0.031 C 
ATOM     50  C   UNL A   1      41.476  25.109  28.197  1.00  0.00     0.029 A 
ATOM     51  N   UNL A   1      42.226  27.117  28.713  1.00  0.00    -0.354 N 
ATOM     52  C   UNL A   1      46.136  28.494  26.931  1.00  0.00     0.074 A 
ATOM     53  C   UNL A   1      45.765  28.204  25.571  1.00  0.00     0.031 C 
ATOM     54  C   UNL A   1      40.431  25.789  28.716  1.00  0.00     0.029 A 
ATOM     55  C   UNL A   1      40.889  27.110  29.095  1.00  0.00     0.049 A 
ATOM     56  H   UNL A   1      42.833  27.866  28.915  1.00  0.00     0.167 HD
ATOM     57  C   UNL A   1      46.680  29.606  27.498  1.00  0.00     0.037 A 
ATOM     58  C   UNL A   1      40.208  28.132  29.671  1.00  0.00     0.037 A 
ATOM     59  C   UNL A   1      46.901  29.405  28.907  1.00  0.00     0.049 A 
ATOM     60  C   UNL A   1      41.219  29.057  30.237  1.00  0.00     0.074 A 
ATOM     61  C   UNL A   1      47.680  28.546  29.656  1.00  0.00     0.029 A 
ATOM     62  N   UNL A   1      45.955  29.901  29.769  1.00  0.00    -0.354 N 
ATOM     63  N   UNL A   1      42.008  28.750  31.230  1.00  0.00    -0.248 NA
ATOM     64  C   UNL A   1      41.666  30.155  29.397  1.00  0.00     0.031 C 
ATOM     65  C   UNL A   1      46.880  28.213  30.788  1.00  0.00     0.029 A 
ATOM     66  C   UNL A   1      45.691  28.940  30.710  1.00  0.00     0.049 A 
ATOM     67  H   UNL A   1      45.538  30.792  29.721  1.00  0.00     0.167 HD
ATOM     68  C   UNL A   1      43.231  29.311  30.892  1.00  0.00     0.074 A 
ATOM     69  C   UNL A   1      42.935  30.237  29.801  1.00  0.00     0.031 C 
ATOM     70  C   UNL A   1      44.398  28.756  31.332  1.00  0.00     0.037 A 
BRANCH  57  71
ATOM     71  C   UNL A   1      46.654  30.987  26.881  1.00  0.00     0.064 A 
ATOM     72  C   UNL A   1      45.472  31.692  26.562  1.00  0.00     0.173 A 
ATOM     73  C   UNL A   1      47.834  31.759  26.880  1.00  0.00     0.173 A 
ATOM     74  F   UNL A   1      44.262  31.124  26.616  1.00  0.00    -0.203 F 
ATOM     75  C   UNL A   1      45.467  33.058  26.286  1.00  0.00     0.198 A 
ATOM     76  C   UNL A   1      47.817  33.138  26.657  1.00  0.00     0.198 A 
ATOM     77  F   UNL A   1      49.015  31.203  27.189  1.00  0.00    -0.203 F 
ATOM     78  F   UNL A   1      44.304  33.671  26.024  1.00  0.00    -0.200 F 
ATOM     79  C   UNL A   1      46.633  33.787  26.364  1.00  0.00     0.200 A 
ATOM     80  F   UNL A   1      48.945  33.849  26.794  1.00  0.00    -0.200 F 
ATOM     81  F   UNL A   1      46.604  35.117  26.207  1.00  0.00    -0.200 F 
ENDBRANCH  57  71
BRANCH  58  82
ATOM     82  C   UNL A   1      38.793  28.531  29.474  1.00  0.00     0.064 A 
ATOM     83  C   UNL A   1      38.332  28.979  28.221  1.00  0.00     0.173 A 
ATOM     84  C   UNL A   1      37.949  28.769  30.572  1.00  0.00     0.173 A 
ATOM     85  F   UNL A   1      39.101  28.866  27.128  1.00  0.00    -0.203 F 
ATOM     86  C   UNL A   1      37.115  29.649  28.079  1.00  0.00     0.198 A 
ATOM     87  C   UNL A   1      36.731  29.442  30.428  1.00  0.00     0.198 A 
ATOM     88  F   UNL A   1      38.334  28.414  31.806  1.00  0.00    -0.203 F 
ATOM     89  F   UNL A   1      36.750  30.117  26.876  1.00  0.00    -0.200 F 
ATOM     90  C   UNL A   1      36.321  29.893  29.184  1.00  0.00     0.200 A 
ATOM     91  F   UNL A   1      35.983  29.709  31.508  1.00  0.00    -0.200 F 
ATOM     92  F   UNL A   1      35.188  30.598  29.058  1.00  0.00    -0.200 F 
ENDBRANCH  58  82
BRANCH  70  93
ATOM     93  C   UNL A   1      44.319  27.700  32.403  1.00  0.00     0.064 A 
ATOM     94  C   UNL A   1      44.513  28.099  33.732  1.00  0.00     0.173 A 
ATOM     95  C   UNL A   1      44.242  26.319  32.150  1.00  0.00     0.173 A 
ATOM     96  F   UNL A   1      44.641  29.402  34.028  1.00  0.00    -0.203 F 
ATOM     97  C   UNL A   1      44.645  27.167  34.756  1.00  0.00     0.198 A 
ATOM     98  C   UNL A   1      44.338  25.387  33.183  1.00  0.00     0.198 A 
ATOM     99  F   UNL A   1      44.140  25.850  30.902  1.00  0.00    -0.203 F 
ATOM    100  F   UNL A   1      44.901  27.582  36.004  1.00  0.00    -0.200 F 
ATOM    101  C   UNL A   1      44.553  25.811  34.483  1.00  0.00     0.200 A 
ATOM    102  F   UNL A   1      44.266  24.074  32.915  1.00  0.00    -0.200 F 
ATOM    103  F   UNL A   1      44.703  24.916  35.469  1.00  0.00    -0.200 F 
ENDBRANCH  70  93
ENDBRANCH  44  45
ENDBRANCH  36  39
ENDBRANCH  34  35
ENDBRANCH  33  34
ENDBRANCH  32  33
ENDBRANCH   1  32
TORSDOF 15
ENDMDL
MODEL 3
REMARK VINA RESULT:     -13.9      1.769      2.446
REMARK SMILES CC1=Nc2c(c(C)nn2-c2ccc(F)cc2)[C@H](c2ccc(C(=O)NCCCCCCNC(=O)c3ccc(-c4c5nc(c(-c6c(F)c(F)c(F)c(F)c6F)c6ccc([nH]6)c(-c6c(F)c(F)c(F)c(F)c6F)c6nc(c(-c7c(F)c(F)c(F)c(F)c7F)c7ccc4[nH]7)C=C6)C=C5)cc3)cc2)S1
REMARK SMILES IDX 27 1 26 2 25 3 24 4 22 5 23 6 21 8 18 9 19 10 98 11 20 12
REMARK SMILES IDX 97 13 17 14 1 15 2 16 3 17 99 18 4 19 5 20 9 21 6 22 8 23
REMARK SMILES IDX 7 24 10 25 11 26 16 27 12 28 15 29 13 30 14 31 28 32 29 33
REMARK SMILES IDX 30 34 31 35 32 36 33 38 34 39 35 40 96 41 36 42 95 43 37 44
REMARK SMILES IDX 38 45 39 46 89 47 40 48 94 49 88 50 90 51 41 52 93 53 87 54
REMARK SMILES IDX 86 55 42 57 74 58 54 59 73 60 55 61 58 62 72 63 91 64 56 65
REMARK SMILES IDX 57 66 71 68 92 69 59 70 43 71 44 72 52 73 45 74 46 75 50 76
REMARK SMILES IDX 53 77 47 78 48 79 51 80 49 81 75 82 76 83 84 84 77 85 78 86
REMARK SMILES IDX 82 87 85 88 79 89 80 90 83 91 81 92 60 93 61 94 69 95 62 96
REMARK SMILES IDX 63 97 67 98 70 99 64 100 65 101 68 102 66 103
REMARK H PARENT 24 7 31 37 90 56 58 67
REMARK Flexibility Score: inf
ROOT
ATOM      1  C   UNL A   1      33.068  28.053  25.402  1.00  0.00     0.002 C 
ENDROOT
BRANCH   1   2
ATOM      2  C   UNL A   1      32.631  29.299  24.621  1.00  0.00     0.021 C 
BRANCH   2   3
ATOM      3  C   UNL A   1      31.217  29.766  24.972  1.00  0.00     0.116 C 
BRANCH   3   4
ATOM      4  N   UNL A   1      30.429  29.898  23.762  1.00  0.00    -0.352 N 
ATOM      5  C   UNL A   1      30.087  28.997  22.790  1.00  0.00     0.251 C 
ATOM      6  O   UNL A   1      29.402  29.389  21.847  1.00  0.00    -0.269 OA
ATOM      7  H   UNL A   1      30.074  30.803  23.612  1.00  0.00     0.163 HD
BRANCH   5   8
ATOM      8  C   UNL A   1      30.441  27.559  22.880  1.00  0.00     0.039 A 
ATOM      9  C   UNL A   1      31.071  24.829  23.275  1.00  0.00    -0.030 A 
ATOM     10  C   UNL A   1      30.058  25.453  24.022  1.00  0.00     0.006 A 
ATOM     11  C   UNL A   1      31.723  25.591  22.290  1.00  0.00     0.006 A 
ATOM     12  C   UNL A   1      29.740  26.796  23.820  1.00  0.00     0.014 A 
ATOM     13  C   UNL A   1      31.396  26.935  22.080  1.00  0.00     0.014 A 
BRANCH   9  14
ATOM     14  C   UNL A   1      31.361  23.353  23.513  1.00  0.00     0.119 C 
ATOM     15  C   UNL A   1      31.861  23.204  27.594  1.00  0.00     0.075 C 
ATOM     16  C   UNL A   1      32.172  22.992  26.135  1.00  0.00     0.074 C 
ATOM     17  N   UNL A   1      33.410  23.057  25.757  1.00  0.00    -0.227 NA
ATOM     18  S   UNL A   1      30.761  22.732  25.117  1.00  0.00    -0.098 SA
ATOM     19  C   UNL A   1      33.678  23.026  24.429  1.00  0.00     0.161 A 
ATOM     20  C   UNL A   1      32.825  23.202  23.363  1.00  0.00     0.038 A 
ATOM     21  N   UNL A   1      34.955  22.955  23.891  1.00  0.00    -0.215 N 
ATOM     22  C   UNL A   1      33.663  23.251  22.220  1.00  0.00     0.067 A 
ATOM     23  N   UNL A   1      34.957  23.201  22.556  1.00  0.00    -0.171 NA
ATOM     24  C   UNL A   1      33.282  23.402  20.794  1.00  0.00     0.069 C 
BRANCH  21  25
ATOM     25  C   UNL A   1      36.159  22.660  24.573  1.00  0.00     0.067 A 
ATOM     26  C   UNL A   1      36.664  21.353  24.557  1.00  0.00     0.031 A 
ATOM     27  C   UNL A   1      36.838  23.682  25.249  1.00  0.00     0.031 A 
ATOM     28  C   UNL A   1      37.855  21.068  25.222  1.00  0.00     0.041 A 
ATOM     29  C   UNL A   1      38.000  23.375  25.957  1.00  0.00     0.041 A 
ATOM     30  C   UNL A   1      38.501  22.076  25.930  1.00  0.00     0.123 A 
ATOM     31  F   UNL A   1      39.626  21.789  26.598  1.00  0.00    -0.207 F 
ENDBRANCH  21  25
ENDBRANCH   9  14
ENDBRANCH   5   8
ENDBRANCH   3   4
ENDBRANCH   2   3
ENDBRANCH   1   2
BRANCH   1  32
ATOM     32  C   UNL A   1      34.196  28.281  26.423  1.00  0.00     0.002 C 
BRANCH  32  33
ATOM     33  C   UNL A   1      33.970  29.415  27.434  1.00  0.00     0.021 C 
BRANCH  33  34
ATOM     34  C   UNL A   1      34.974  30.547  27.298  1.00  0.00     0.116 C 
BRANCH  34  35
ATOM     35  N   UNL A   1      34.787  31.573  28.327  1.00  0.00    -0.352 N 
ATOM     36  C   UNL A   1      35.354  31.642  29.578  1.00  0.00     0.251 C 
ATOM     37  H   UNL A   1      34.178  32.309  28.092  1.00  0.00     0.163 HD
ATOM     38  O   UNL A   1      34.845  32.328  30.472  1.00  0.00    -0.269 OA
BRANCH  36  39
ATOM     39  C   UNL A   1      36.588  30.894  29.839  1.00  0.00     0.039 A 
ATOM     40  C   UNL A   1      36.579  29.536  30.165  1.00  0.00     0.014 A 
ATOM     41  C   UNL A   1      37.787  31.592  29.721  1.00  0.00     0.014 A 
ATOM     42  C   UNL A   1      37.797  28.874  30.302  1.00  0.00     0.010 A 
ATOM     43  C   UNL A   1      38.966  30.906  29.662  1.00  0.00     0.010 A 
ATOM     44  C   UNL A   1      38.986  29.570  30.034  1.00  0.00    -0.014 A 
BRANCH  44  45
ATOM     45  C   UNL A   1      40.279  28.902  30.042  1.00  0.00     0.031 A 
ATOM     46  C   UNL A   1      40.892  28.777  31.390  1.00  0.00     0.074 A 
ATOM     47  C   UNL A   1      40.749  28.243  28.958  1.00  0.00     0.049 A 
ATOM     48  N   UNL A   1      41.989  29.309  31.814  1.00  0.00    -0.248 NA
ATOM     49  C   UNL A   1      40.122  28.086  32.440  1.00  0.00     0.031 C 
ATOM     50  C   UNL A   1      40.085  28.014  27.667  1.00  0.00     0.029 A 
ATOM     51  N   UNL A   1      41.904  27.540  28.818  1.00  0.00    -0.354 N 
ATOM     52  C   UNL A   1      42.151  28.864  33.124  1.00  0.00     0.074 A 
ATOM     53  C   UNL A   1      40.896  28.276  33.510  1.00  0.00     0.031 C 
ATOM     54  C   UNL A   1      40.735  27.050  26.980  1.00  0.00     0.029 A 
ATOM     55  C   UNL A   1      41.956  26.727  27.691  1.00  0.00     0.049 A 
ATOM     56  H   UNL A   1      42.646  27.600  29.464  1.00  0.00     0.167 HD
ATOM     57  C   UNL A   1      43.389  28.796  33.690  1.00  0.00     0.037 A 
ATOM     58  C   UNL A   1      42.933  25.840  27.377  1.00  0.00     0.037 A 
ATOM     59  C   UNL A   1      44.334  29.587  32.945  1.00  0.00     0.049 A 
ATOM     60  C   UNL A   1      44.127  26.218  28.173  1.00  0.00     0.074 A 
ATOM     61  C   UNL A   1      44.458  30.930  32.649  1.00  0.00     0.029 A 
ATOM     62  N   UNL A   1      45.135  28.929  32.044  1.00  0.00    -0.354 N 
ATOM     63  N   UNL A   1      44.792  27.327  28.001  1.00  0.00    -0.248 NA
ATOM     64  C   UNL A   1      44.299  25.575  29.465  1.00  0.00     0.031 C 
ATOM     65  C   UNL A   1      44.940  30.969  31.307  1.00  0.00     0.029 A 
ATOM     66  C   UNL A   1      45.157  29.657  30.884  1.00  0.00     0.049 A 
ATOM     67  H   UNL A   1      45.610  28.082  32.205  1.00  0.00     0.167 HD
ATOM     68  C   UNL A   1      45.116  27.744  29.284  1.00  0.00     0.074 A 
ATOM     69  C   UNL A   1      44.866  26.581  30.135  1.00  0.00     0.031 C 
ATOM     70  C   UNL A   1      45.276  29.069  29.568  1.00  0.00     0.037 A 
BRANCH  57  71
ATOM     71  C   UNL A   1      43.831  27.729  34.665  1.00  0.00     0.064 A 
ATOM     72  C   UNL A   1      44.006  27.942  36.050  1.00  0.00     0.173 A 
ATOM     73  C   UNL A   1      43.790  26.376  34.266  1.00  0.00     0.173 A 
ATOM     74  F   UNL A   1      43.967  29.163  36.598  1.00  0.00    -0.203 F 
ATOM     75  C   UNL A   1      44.112  26.894  36.963  1.00  0.00     0.198 A 
ATOM     76  C   UNL A   1      43.842  25.329  35.189  1.00  0.00     0.198 A 
ATOM     77  F   UNL A   1      43.607  26.049  32.978  1.00  0.00    -0.203 F 
ATOM     78  F   UNL A   1      44.244  27.169  38.268  1.00  0.00    -0.200 F 
ATOM     79  C   UNL A   1      43.998  25.589  36.538  1.00  0.00     0.200 A 
ATOM     80  F   UNL A   1      43.670  24.066  34.774  1.00  0.00    -0.200 F 
ATOM     81  F   UNL A   1      43.991  24.591  37.431  1.00  0.00    -0.200 F 
ENDBRANCH  57  71
BRANCH  58  82
ATOM     82  C   UNL A   1      42.809  24.519  26.716  1.00  0.00     0.064 A 
ATOM     83  C   UNL A   1      42.444  23.372  27.446  1.00  0.00     0.173 A 
ATOM     84  C   UNL A   1      43.336  24.301  25.432  1.00  0.00     0.173 A 
ATOM     85  F   UNL A   1      42.004  23.475  28.709  1.00  0.00    -0.203 F 
ATOM     86  C   UNL A   1      42.622  22.084  26.935  1.00  0.00     0.198 A 
ATOM     87  C   UNL A   1      43.516  23.010  24.922  1.00  0.00     0.198 A 
ATOM     88  F   UNL A   1      43.750  25.337  24.689  1.00  0.00    -0.203 F 
ATOM     89  F   UNL A   1      42.323  21.020  27.695  1.00  0.00    -0.200 F 
ATOM     90  C   UNL A   1      43.171  21.903  25.679  1.00  0.00     0.200 A 
ATOM     91  F   UNL A   1      44.083  22.839  23.720  1.00  0.00    -0.200 F 
ATOM     92  F   UNL A   1      43.408  20.666  25.219  1.00  0.00    -0.200 F 
ENDBRANCH  58  82
BRANCH  70  93
ATOM     93  C   UNL A   1      45.363  30.033  28.413  1.00  0.00     0.064 A 
ATOM     94  C   UNL A   1      46.636  30.436  27.992  1.00  0.00     0.173 A 
ATOM     95  C   UNL A   1      44.258  30.692  27.847  1.00  0.00     0.173 A 
ATOM     96  F   UNL A   1      47.730  29.874  28.531  1.00  0.00    -0.203 F 
ATOM     97  C   UNL A   1      46.802  31.462  27.066  1.00  0.00     0.198 A 
ATOM     98  C   UNL A   1      44.424  31.695  26.892  1.00  0.00     0.198 A 
ATOM     99  F   UNL A   1      43.012  30.427  28.253  1.00  0.00    -0.203 F 
ATOM    100  F   UNL A   1      48.035  31.870  26.738  1.00  0.00    -0.200 F 
ATOM    101  C   UNL A   1      45.696  32.088  26.512  1.00  0.00     0.200 A 
ATOM    102  F   UNL A   1      43.353  32.313  26.370  1.00  0.00    -0.200 F 
ATOM    103  F   UNL A   1      45.860  33.090  25.638  1.00  0.00    -0.200 F 
ENDBRANCH  70  93
ENDBRANCH  44  45
ENDBRANCH  36  39
ENDBRANCH  34  35
ENDBRANCH  33  34
ENDBRANCH  32  33
ENDBRANCH   1  32
TORSDOF 15
ENDMDL
