MODEL 1
REMARK VINA RESULT:     -12.1      0.000      0.000
REMARK SMILES Cc1[nH]c2ccc(Br)cc2c(=O)c1CCC(=O)NCCCCCCNC(=O)c1ccc(-c2c3nc(c(-c4c(F)c(F)c(F)c(F)c4F)c4ccc([nH]4)c(-c4c(F)c(F)c(F)c(F)c4F)c4nc(c(-c5c(F)c(F)c(F)c(F)c5F)c5ccc2[nH]5)C=C4)C=C3)cc1
REMARK SMILES IDX 21 1 20 2 19 3 18 4 16 5 17 6 15 8 14 9 13 10 1 11 2 12 3 13
REMARK SMILES IDX 4 14 11 16 5 17 10 18 12 19 6 20 9 21 7 22 8 23 22 24 23 25
REMARK SMILES IDX 24 26 25 27 26 28 27 30 28 31 29 32 90 33 30 34 89 35 31 36
REMARK SMILES IDX 32 37 33 38 83 39 34 40 88 41 82 42 84 43 35 44 87 45 81 46
REMARK SMILES IDX 80 47 36 49 68 50 48 51 67 52 49 53 52 54 66 55 85 56 50 57
REMARK SMILES IDX 51 58 65 60 86 61 53 62 37 63 38 64 46 65 39 66 40 67 44 68
REMARK SMILES IDX 47 69 41 70 42 71 45 72 43 73 69 74 70 75 78 76 71 77 72 78
REMARK SMILES IDX 76 79 79 80 73 81 74 82 77 83 75 84 54 85 55 86 63 87 56 88
REMARK SMILES IDX 57 89 61 90 64 91 58 92 59 93 62 94 60 95
REMARK H PARENT 18 7 3 15 25 29 84 48 52 59
REMARK Flexibility Score: inf
ROOT
ATOM      1  C   UNL A   1      32.575  26.103  26.216  1.00  0.00     0.002 C 
ENDROOT
BRANCH   1   2
ATOM      2  C   UNL A   1      34.002  25.911  25.694  1.00  0.00     0.021 C 
BRANCH   2   3
ATOM      3  C   UNL A   1      34.573  24.495  25.786  1.00  0.00     0.116 C 
BRANCH   3   4
ATOM      4  N   UNL A   1      35.572  24.265  24.755  1.00  0.00    -0.356 N 
ATOM      5  C   UNL A   1      35.606  23.368  23.730  1.00  0.00     0.220 C 
ATOM      6  O   UNL A   1      36.626  23.308  23.040  1.00  0.00    -0.275 OA
ATOM      7  H   UNL A   1      36.358  24.857  24.806  1.00  0.00     0.163 HD
BRANCH   5   8
ATOM      8  C   UNL A   1      34.404  22.504  23.399  1.00  0.00     0.105 C 
BRANCH   8   9
ATOM      9  C   UNL A   1      33.517  23.098  22.300  1.00  0.00     0.051 C 
BRANCH   9  10
ATOM     10  C   UNL A   1      32.387  23.937  22.852  1.00  0.00     0.020 A 
ATOM     11  C   UNL A   1      31.363  22.112  24.253  1.00  0.00     0.064 C 
ATOM     12  C   UNL A   1      31.414  23.514  23.692  1.00  0.00     0.019 A 
ATOM     13  N   UNL A   1      30.372  24.331  24.091  1.00  0.00    -0.358 N 
ATOM     14  C   UNL A   1      30.228  25.642  23.638  1.00  0.00     0.050 A 
ATOM     15  H   UNL A   1      29.706  23.973  24.722  1.00  0.00     0.166 HD
ATOM     16  C   UNL A   1      32.389  25.385  22.463  1.00  0.00     0.192 A 
ATOM     17  C   UNL A   1      29.091  26.393  23.942  1.00  0.00     0.028 A 
ATOM     18  C   UNL A   1      31.214  26.211  22.823  1.00  0.00     0.047 A 
ATOM     19  O   UNL A   1      33.315  25.883  21.833  1.00  0.00    -0.289 OA
ATOM     20  C   UNL A   1      28.953  27.693  23.446  1.00  0.00     0.018 A 
ATOM     21  C   UNL A   1      31.080  27.506  22.313  1.00  0.00     0.030 A 
ATOM     22  C   UNL A   1      29.941  28.239  22.627  1.00  0.00     0.018 A 
ATOM     23  Br  UNL A   1      29.712  29.971  21.907  1.00  0.00    -0.051 Br
ENDBRANCH   9  10
ENDBRANCH   8   9
ENDBRANCH   5   8
ENDBRANCH   3   4
ENDBRANCH   2   3
ENDBRANCH   1   2
BRANCH   1  24
ATOM     24  C   UNL A   1      32.264  27.462  26.851  1.00  0.00     0.002 C 
BRANCH  24  25
ATOM     25  C   UNL A   1      31.848  28.587  25.896  1.00  0.00     0.021 C 
BRANCH  25  26
ATOM     26  C   UNL A   1      32.891  29.673  25.627  1.00  0.00     0.116 C 
BRANCH  26  27
ATOM     27  N   UNL A   1      32.554  30.964  26.207  1.00  0.00    -0.352 N 
ATOM     28  C   UNL A   1      33.226  31.728  27.138  1.00  0.00     0.251 C 
ATOM     29  H   UNL A   1      31.712  31.356  25.882  1.00  0.00     0.163 HD
ATOM     30  O   UNL A   1      32.729  32.765  27.556  1.00  0.00    -0.269 OA
BRANCH  28  31
ATOM     31  C   UNL A   1      34.531  31.279  27.681  1.00  0.00     0.039 A 
ATOM     32  C   UNL A   1      34.773  29.938  27.981  1.00  0.00     0.014 A 
ATOM     33  C   UNL A   1      35.538  32.225  27.893  1.00  0.00     0.014 A 
ATOM     34  C   UNL A   1      35.943  29.569  28.649  1.00  0.00     0.010 A 
ATOM     35  C   UNL A   1      36.737  31.844  28.508  1.00  0.00     0.010 A 
ATOM     36  C   UNL A   1      36.924  30.524  28.951  1.00  0.00    -0.014 A 
BRANCH  36  37
ATOM     37  C   UNL A   1      38.096  30.171  29.803  1.00  0.00     0.031 A 
ATOM     38  C   UNL A   1      39.166  29.253  29.262  1.00  0.00     0.074 A 
ATOM     39  C   UNL A   1      38.237  30.686  31.041  1.00  0.00     0.049 A 
ATOM     40  N   UNL A   1      40.220  28.759  29.864  1.00  0.00    -0.248 NA
ATOM     41  C   UNL A   1      39.033  28.835  27.857  1.00  0.00     0.031 C 
ATOM     42  C   UNL A   1      37.307  31.613  31.682  1.00  0.00     0.029 A 
ATOM     43  N   UNL A   1      39.223  30.500  31.980  1.00  0.00    -0.354 N 
ATOM     44  C   UNL A   1      40.852  27.953  28.925  1.00  0.00     0.074 A 
ATOM     45  C   UNL A   1      40.057  28.007  27.718  1.00  0.00     0.031 C 
ATOM     46  C   UNL A   1      37.776  31.934  32.899  1.00  0.00     0.029 A 
ATOM     47  C   UNL A   1      39.010  31.191  33.148  1.00  0.00     0.049 A 
ATOM     48  H   UNL A   1      40.009  29.926  31.830  1.00  0.00     0.167 HD
ATOM     49  C   UNL A   1      41.998  27.241  29.052  1.00  0.00     0.037 A 
ATOM     50  C   UNL A   1      39.711  31.207  34.299  1.00  0.00     0.037 A 
ATOM     51  C   UNL A   1      42.817  27.210  30.234  1.00  0.00     0.049 A 
ATOM     52  C   UNL A   1      40.951  30.363  34.432  1.00  0.00     0.074 A 
ATOM     53  C   UNL A   1      44.008  26.532  30.439  1.00  0.00     0.029 A 
ATOM     54  N   UNL A   1      42.539  27.891  31.408  1.00  0.00    -0.354 N 
ATOM     55  N   UNL A   1      41.531  29.596  33.541  1.00  0.00    -0.248 NA
ATOM     56  C   UNL A   1      41.630  30.379  35.737  1.00  0.00     0.031 C 
ATOM     57  C   UNL A   1      44.431  26.773  31.748  1.00  0.00     0.029 A 
ATOM     58  C   UNL A   1      43.528  27.636  32.345  1.00  0.00     0.049 A 
ATOM     59  H   UNL A   1      41.756  28.468  31.555  1.00  0.00     0.167 HD
ATOM     60  C   UNL A   1      42.644  29.054  34.170  1.00  0.00     0.074 A 
ATOM     61  C   UNL A   1      42.674  29.594  35.512  1.00  0.00     0.031 C 
ATOM     62  C   UNL A   1      43.557  28.184  33.676  1.00  0.00     0.037 A 
BRANCH  49  63
ATOM     63  C   UNL A   1      42.452  26.424  27.878  1.00  0.00     0.064 A 
ATOM     64  C   UNL A   1      41.975  25.122  27.663  1.00  0.00     0.173 A 
ATOM     65  C   UNL A   1      43.299  26.983  26.910  1.00  0.00     0.173 A 
ATOM     66  F   UNL A   1      41.172  24.539  28.566  1.00  0.00    -0.203 F 
ATOM     67  C   UNL A   1      42.337  24.408  26.523  1.00  0.00     0.198 A 
ATOM     68  C   UNL A   1      43.638  26.277  25.759  1.00  0.00     0.198 A 
ATOM     69  F   UNL A   1      43.775  28.228  27.066  1.00  0.00    -0.203 F 
ATOM     70  F   UNL A   1      41.889  23.158  26.350  1.00  0.00    -0.200 F 
ATOM     71  C   UNL A   1      43.158  24.990  25.568  1.00  0.00     0.200 A 
ATOM     72  F   UNL A   1      44.420  26.844  24.830  1.00  0.00    -0.200 F 
ATOM     73  F   UNL A   1      43.486  24.308  24.462  1.00  0.00    -0.200 F 
ENDBRANCH  49  63
BRANCH  50  74
ATOM     74  C   UNL A   1      39.248  32.046  35.435  1.00  0.00     0.064 A 
ATOM     75  C   UNL A   1      39.630  33.391  35.537  1.00  0.00     0.173 A 
ATOM     76  C   UNL A   1      38.424  31.522  36.441  1.00  0.00     0.173 A 
ATOM     77  F   UNL A   1      40.441  33.929  34.615  1.00  0.00    -0.203 F 
ATOM     78  C   UNL A   1      39.211  34.177  36.609  1.00  0.00     0.198 A 
ATOM     79  C   UNL A   1      37.983  32.317  37.497  1.00  0.00     0.198 A 
ATOM     80  F   UNL A   1      38.036  30.239  36.391  1.00  0.00    -0.203 F 
ATOM     81  F   UNL A   1      39.623  35.449  36.704  1.00  0.00    -0.200 F 
ATOM     82  C   UNL A   1      38.382  33.642  37.583  1.00  0.00     0.200 A 
ATOM     83  F   UNL A   1      37.172  31.799  38.430  1.00  0.00    -0.200 F 
ATOM     84  F   UNL A   1      37.973  34.401  38.609  1.00  0.00    -0.200 F 
ENDBRANCH  50  74
BRANCH  62  85
ATOM     85  C   UNL A   1      44.685  27.768  34.574  1.00  0.00     0.064 A 
ATOM     86  C   UNL A   1      45.866  28.519  34.662  1.00  0.00     0.173 A 
ATOM     87  C   UNL A   1      44.555  26.647  35.408  1.00  0.00     0.173 A 
ATOM     88  F   UNL A   1      46.042  29.592  33.876  1.00  0.00    -0.203 F 
ATOM     89  C   UNL A   1      46.881  28.156  35.543  1.00  0.00     0.198 A 
ATOM     90  C   UNL A   1      45.560  26.302  36.306  1.00  0.00     0.198 A 
ATOM     91  F   UNL A   1      43.441  25.901  35.368  1.00  0.00    -0.203 F 
ATOM     92  F   UNL A   1      48.013  28.871  35.589  1.00  0.00    -0.200 F 
ATOM     93  C   UNL A   1      46.724  27.053  36.371  1.00  0.00     0.200 A 
ATOM     94  F   UNL A   1      45.401  25.245  37.115  1.00  0.00    -0.200 F 
ATOM     95  F   UNL A   1      47.696  26.714  37.229  1.00  0.00    -0.200 F 
ENDBRANCH  62  85
ENDBRANCH  36  37
ENDBRANCH  28  31
ENDBRANCH  26  27
ENDBRANCH  25  26
ENDBRANCH  24  25
ENDBRANCH   1  24
TORSDOF 15
ENDMDL
MODEL 2
REMARK VINA RESULT:     -12.0      1.994      7.746
REMARK SMILES Cc1[nH]c2ccc(Br)cc2c(=O)c1CCC(=O)NCCCCCCNC(=O)c1ccc(-c2c3nc(c(-c4c(F)c(F)c(F)c(F)c4F)c4ccc([nH]4)c(-c4c(F)c(F)c(F)c(F)c4F)c4nc(c(-c5c(F)c(F)c(F)c(F)c5F)c5ccc2[nH]5)C=C4)C=C3)cc1
REMARK SMILES IDX 21 1 20 2 19 3 18 4 16 5 17 6 15 8 14 9 13 10 1 11 2 12 3 13
REMARK SMILES IDX 4 14 11 16 5 17 10 18 12 19 6 20 9 21 7 22 8 23 22 24 23 25
REMARK SMILES IDX 24 26 25 27 26 28 27 30 28 31 29 32 90 33 30 34 89 35 31 36
REMARK SMILES IDX 32 37 33 38 83 39 34 40 88 41 82 42 84 43 35 44 87 45 81 46
REMARK SMILES IDX 80 47 36 49 68 50 48 51 67 52 49 53 52 54 66 55 85 56 50 57
REMARK SMILES IDX 51 58 65 60 86 61 53 62 37 63 38 64 46 65 39 66 40 67 44 68
REMARK SMILES IDX 47 69 41 70 42 71 45 72 43 73 69 74 70 75 78 76 71 77 72 78
REMARK SMILES IDX 76 79 79 80 73 81 74 82 77 83 75 84 54 85 55 86 63 87 56 88
REMARK SMILES IDX 57 89 61 90 64 91 58 92 59 93 62 94 60 95
REMARK H PARENT 18 7 3 15 25 29 84 48 52 59
REMARK Flexibility Score: inf
ROOT
ATOM      1  C   UNL A   1      32.278  29.364  26.711  1.00  0.00     0.002 C 
ENDROOT
BRANCH   1   2
ATOM      2  C   UNL A   1      31.398  28.117  26.833  1.00  0.00     0.021 C 
BRANCH   2   3
ATOM      3  C   UNL A   1      31.986  26.815  26.286  1.00  0.00     0.116 C 
BRANCH   3   4
ATOM      4  N   UNL A   1      31.407  25.658  26.950  1.00  0.00    -0.356 N 
ATOM      5  C   UNL A   1      31.188  24.390  26.502  1.00  0.00     0.220 C 
ATOM      6  O   UNL A   1      30.585  23.607  27.238  1.00  0.00    -0.275 OA
ATOM      7  H   UNL A   1      31.124  25.818  27.879  1.00  0.00     0.163 HD
BRANCH   5   8
ATOM      8  C   UNL A   1      31.721  23.925  25.160  1.00  0.00     0.105 C 
BRANCH   8   9
ATOM      9  C   UNL A   1      30.706  24.072  24.022  1.00  0.00     0.051 C 
BRANCH   9  10
ATOM     10  C   UNL A   1      30.775  25.425  23.350  1.00  0.00     0.020 A 
ATOM     11  C   UNL A   1      32.908  24.985  22.086  1.00  0.00     0.064 C 
ATOM     12  C   UNL A   1      31.750  25.855  22.517  1.00  0.00     0.019 A 
ATOM     13  N   UNL A   1      31.773  27.138  22.002  1.00  0.00    -0.358 N 
ATOM     14  C   UNL A   1      30.812  28.096  22.326  1.00  0.00     0.050 A 
ATOM     15  H   UNL A   1      32.497  27.385  21.382  1.00  0.00     0.166 HD
ATOM     16  C   UNL A   1      29.619  26.346  23.603  1.00  0.00     0.192 A 
ATOM     17  C   UNL A   1      30.942  29.422  21.910  1.00  0.00     0.028 A 
ATOM     18  C   UNL A   1      29.717  27.743  23.123  1.00  0.00     0.047 A 
ATOM     19  O   UNL A   1      28.625  25.981  24.220  1.00  0.00    -0.289 OA
ATOM     20  C   UNL A   1      29.985  30.373  22.277  1.00  0.00     0.018 A 
ATOM     21  C   UNL A   1      28.759  28.689  23.505  1.00  0.00     0.030 A 
ATOM     22  C   UNL A   1      28.905  30.004  23.080  1.00  0.00     0.018 A 
ATOM     23  Br  UNL A   1      27.654  31.311  23.627  1.00  0.00    -0.051 Br
ENDBRANCH   9  10
ENDBRANCH   8   9
ENDBRANCH   5   8
ENDBRANCH   3   4
ENDBRANCH   2   3
ENDBRANCH   1   2
BRANCH   1  24
ATOM     24  C   UNL A   1      31.741  30.487  25.817  1.00  0.00     0.002 C 
BRANCH  24  25
ATOM     25  C   UNL A   1      31.442  31.825  26.502  1.00  0.00     0.021 C 
BRANCH  25  26
ATOM     26  C   UNL A   1      32.608  32.495  27.228  1.00  0.00     0.116 C 
BRANCH  26  27
ATOM     27  N   UNL A   1      32.345  33.874  27.611  1.00  0.00    -0.352 N 
ATOM     28  C   UNL A   1      32.992  34.689  28.517  1.00  0.00     0.251 C 
ATOM     29  H   UNL A   1      31.583  34.293  27.149  1.00  0.00     0.163 HD
ATOM     30  O   UNL A   1      32.560  35.810  28.752  1.00  0.00    -0.269 OA
BRANCH  28  31
ATOM     31  C   UNL A   1      34.183  34.201  29.254  1.00  0.00     0.039 A 
ATOM     32  C   UNL A   1      35.474  34.401  28.765  1.00  0.00     0.014 A 
ATOM     33  C   UNL A   1      34.002  33.529  30.465  1.00  0.00     0.014 A 
ATOM     34  C   UNL A   1      36.563  33.785  29.386  1.00  0.00     0.010 A 
ATOM     35  C   UNL A   1      35.100  32.962  31.121  1.00  0.00     0.010 A 
ATOM     36  C   UNL A   1      36.384  33.029  30.554  1.00  0.00    -0.014 A 
BRANCH  36  37
ATOM     37  C   UNL A   1      37.508  32.237  31.131  1.00  0.00     0.031 A 
ATOM     38  C   UNL A   1      37.958  32.498  32.548  1.00  0.00     0.074 A 
ATOM     39  C   UNL A   1      38.111  31.265  30.419  1.00  0.00     0.049 A 
ATOM     40  N   UNL A   1      38.965  31.980  33.210  1.00  0.00    -0.248 NA
ATOM     41  C   UNL A   1      37.173  33.471  33.325  1.00  0.00     0.031 C 
ATOM     42  C   UNL A   1      37.760  30.874  29.054  1.00  0.00     0.029 A 
ATOM     43  N   UNL A   1      39.147  30.425  30.750  1.00  0.00    -0.354 N 
ATOM     44  C   UNL A   1      38.950  32.585  34.461  1.00  0.00     0.074 A 
ATOM     45  C   UNL A   1      37.849  33.523  34.464  1.00  0.00     0.031 C 
ATOM     46  C   UNL A   1      38.551  29.858  28.673  1.00  0.00     0.029 A 
ATOM     47  C   UNL A   1      39.503  29.562  29.741  1.00  0.00     0.049 A 
ATOM     48  H   UNL A   1      39.594  30.441  31.628  1.00  0.00     0.167 HD
ATOM     49  C   UNL A   1      39.772  32.371  35.516  1.00  0.00     0.037 A 
ATOM     50  C   UNL A   1      40.496  28.654  29.673  1.00  0.00     0.037 A 
ATOM     51  C   UNL A   1      40.846  31.415  35.538  1.00  0.00     0.049 A 
ATOM     52  C   UNL A   1      41.430  28.475  30.841  1.00  0.00     0.074 A 
ATOM     53  C   UNL A   1      41.714  31.118  36.577  1.00  0.00     0.029 A 
ATOM     54  N   UNL A   1      41.196  30.594  34.479  1.00  0.00    -0.354 N 
ATOM     55  N   UNL A   1      41.412  29.062  32.012  1.00  0.00    -0.248 NA
ATOM     56  C   UNL A   1      42.530  27.513  30.672  1.00  0.00     0.031 C 
ATOM     57  C   UNL A   1      42.612  30.144  36.134  1.00  0.00     0.029 A 
ATOM     58  C   UNL A   1      42.276  29.802  34.835  1.00  0.00     0.049 A 
ATOM     59  H   UNL A   1      40.746  30.576  33.604  1.00  0.00     0.167 HD
ATOM     60  C   UNL A   1      42.482  28.533  32.721  1.00  0.00     0.074 A 
ATOM     61  C   UNL A   1      43.119  27.561  31.858  1.00  0.00     0.031 C 
ATOM     62  C   UNL A   1      42.899  28.830  33.975  1.00  0.00     0.037 A 
BRANCH  49  63
ATOM     63  C   UNL A   1      39.551  33.187  36.756  1.00  0.00     0.064 A 
ATOM     64  C   UNL A   1      40.172  34.432  36.935  1.00  0.00     0.173 A 
ATOM     65  C   UNL A   1      38.637  32.761  37.731  1.00  0.00     0.173 A 
ATOM     66  F   UNL A   1      41.063  34.877  36.035  1.00  0.00    -0.203 F 
ATOM     67  C   UNL A   1      39.890  35.218  38.049  1.00  0.00     0.198 A 
ATOM     68  C   UNL A   1      38.338  33.561  38.831  1.00  0.00     0.198 A 
ATOM     69  F   UNL A   1      38.011  31.582  37.602  1.00  0.00    -0.203 F 
ATOM     70  F   UNL A   1      40.513  36.393  38.211  1.00  0.00    -0.200 F 
ATOM     71  C   UNL A   1      38.966  34.787  38.990  1.00  0.00     0.200 A 
ATOM     72  F   UNL A   1      37.434  33.150  39.732  1.00  0.00    -0.200 F 
ATOM     73  F   UNL A   1      38.680  35.556  40.050  1.00  0.00    -0.200 F 
ENDBRANCH  49  63
BRANCH  50  74
ATOM     74  C   UNL A   1      40.673  27.844  28.439  1.00  0.00     0.064 A 
ATOM     75  C   UNL A   1      40.063  26.588  28.310  1.00  0.00     0.173 A 
ATOM     76  C   UNL A   1      41.457  28.303  27.371  1.00  0.00     0.173 A 
ATOM     77  F   UNL A   1      39.329  26.094  29.317  1.00  0.00    -0.203 F 
ATOM     78  C   UNL A   1      40.240  25.819  27.161  1.00  0.00     0.198 A 
ATOM     79  C   UNL A   1      41.609  27.545  26.212  1.00  0.00     0.198 A 
ATOM     80  F   UNL A   1      42.065  29.496  27.448  1.00  0.00    -0.203 F 
ATOM     81  F   UNL A   1      39.678  24.605  27.080  1.00  0.00    -0.200 F 
ATOM     82  C   UNL A   1      41.005  26.301  26.110  1.00  0.00     0.200 A 
ATOM     83  F   UNL A   1      42.340  28.021  25.194  1.00  0.00    -0.200 F 
ATOM     84  F   UNL A   1      41.167  25.564  25.003  1.00  0.00    -0.200 F 
ENDBRANCH  50  74
BRANCH  62  85
ATOM     85  C   UNL A   1      44.087  28.087  34.512  1.00  0.00     0.064 A 
ATOM     86  C   UNL A   1      45.380  28.623  34.441  1.00  0.00     0.173 A 
ATOM     87  C   UNL A   1      43.920  26.857  35.168  1.00  0.00     0.173 A 
ATOM     88  F   UNL A   1      45.593  29.790  33.814  1.00  0.00    -0.203 F 
ATOM     89  C   UNL A   1      46.466  27.951  34.997  1.00  0.00     0.198 A 
ATOM     90  C   UNL A   1      45.003  26.200  35.745  1.00  0.00     0.198 A 
ATOM     91  F   UNL A   1      42.702  26.306  35.271  1.00  0.00    -0.203 F 
ATOM     92  F   UNL A   1      47.697  28.468  34.891  1.00  0.00    -0.200 F 
ATOM     93  C   UNL A   1      46.275  26.745  35.656  1.00  0.00     0.200 A 
ATOM     94  F   UNL A   1      44.815  25.042  36.395  1.00  0.00    -0.200 F 
ATOM     95  F   UNL A   1      47.319  26.107  36.203  1.00  0.00    -0.200 F 
ENDBRANCH  62  85
ENDBRANCH  36  37
ENDBRANCH  28  31
ENDBRANCH  26  27
ENDBRANCH  25  26
ENDBRANCH  24  25
ENDBRANCH   1  24
TORSDOF 15
ENDMDL
MODEL 3
REMARK VINA RESULT:     -11.9      2.164      3.195
REMARK SMILES Cc1[nH]c2ccc(Br)cc2c(=O)c1CCC(=O)NCCCCCCNC(=O)c1ccc(-c2c3nc(c(-c4c(F)c(F)c(F)c(F)c4F)c4ccc([nH]4)c(-c4c(F)c(F)c(F)c(F)c4F)c4nc(c(-c5c(F)c(F)c(F)c(F)c5F)c5ccc2[nH]5)C=C4)C=C3)cc1
REMARK SMILES IDX 21 1 20 2 19 3 18 4 16 5 17 6 15 8 14 9 13 10 1 11 2 12 3 13
REMARK SMILES IDX 4 14 11 16 5 17 10 18 12 19 6 20 9 21 7 22 8 23 22 24 23 25
REMARK SMILES IDX 24 26 25 27 26 28 27 30 28 31 29 32 90 33 30 34 89 35 31 36
REMARK SMILES IDX 32 37 33 38 83 39 34 40 88 41 82 42 84 43 35 44 87 45 81 46
REMARK SMILES IDX 80 47 36 49 68 50 48 51 67 52 49 53 52 54 66 55 85 56 50 57
REMARK SMILES IDX 51 58 65 60 86 61 53 62 37 63 38 64 46 65 39 66 40 67 44 68
REMARK SMILES IDX 47 69 41 70 42 71 45 72 43 73 69 74 70 75 78 76 71 77 72 78
REMARK SMILES IDX 76 79 79 80 73 81 74 82 77 83 75 84 54 85 55 86 63 87 56 88
REMARK SMILES IDX 57 89 61 90 64 91 58 92 59 93 62 94 60 95
REMARK H PARENT 18 7 3 15 25 29 84 48 52 59
REMARK Flexibility Score: inf
ROOT
ATOM      1  C   UNL A   1      31.912  29.055  27.238  1.00  0.00     0.002 C 
ENDROOT
BRANCH   1   2
ATOM      2  C   UNL A   1      32.804  27.818  27.097  1.00  0.00     0.021 C 
BRANCH   2   3
ATOM      3  C   UNL A   1      32.324  26.743  26.121  1.00  0.00     0.116 C 
BRANCH   3   4
ATOM      4  N   UNL A   1      31.472  25.772  26.788  1.00  0.00    -0.356 N 
ATOM      5  C   UNL A   1      31.042  24.541  26.391  1.00  0.00     0.220 C 
ATOM      6  O   UNL A   1      30.236  23.946  27.107  1.00  0.00    -0.275 OA
ATOM      7  H   UNL A   1      31.151  26.050  27.676  1.00  0.00     0.163 HD
BRANCH   5   8
ATOM      8  C   UNL A   1      31.582  23.886  25.133  1.00  0.00     0.105 C 
BRANCH   8   9
ATOM      9  C   UNL A   1      30.639  24.014  23.932  1.00  0.00     0.051 C 
BRANCH   9  10
ATOM     10  C   UNL A   1      30.712  25.374  23.277  1.00  0.00     0.020 A 
ATOM     11  C   UNL A   1      32.836  24.940  21.998  1.00  0.00     0.064 C 
ATOM     12  C   UNL A   1      31.684  25.811  22.444  1.00  0.00     0.019 A 
ATOM     13  N   UNL A   1      31.712  27.100  21.945  1.00  0.00    -0.358 N 
ATOM     14  C   UNL A   1      30.757  28.058  22.285  1.00  0.00     0.050 A 
ATOM     15  H   UNL A   1      32.434  27.351  21.325  1.00  0.00     0.166 HD
ATOM     16  C   UNL A   1      29.561  26.298  23.546  1.00  0.00     0.192 A 
ATOM     17  C   UNL A   1      30.891  29.388  21.884  1.00  0.00     0.028 A 
ATOM     18  C   UNL A   1      29.663  27.700  23.082  1.00  0.00     0.047 A 
ATOM     19  O   UNL A   1      28.568  25.930  24.163  1.00  0.00    -0.289 OA
ATOM     20  C   UNL A   1      29.939  30.339  22.268  1.00  0.00     0.018 A 
ATOM     21  C   UNL A   1      28.712  28.646  23.480  1.00  0.00     0.030 A 
ATOM     22  C   UNL A   1      28.862  29.966  23.071  1.00  0.00     0.018 A 
ATOM     23  Br  UNL A   1      27.619  31.271  23.639  1.00  0.00    -0.051 Br
ENDBRANCH   9  10
ENDBRANCH   8   9
ENDBRANCH   5   8
ENDBRANCH   3   4
ENDBRANCH   2   3
ENDBRANCH   1   2
BRANCH   1  24
ATOM     24  C   UNL A   1      32.077  30.136  26.165  1.00  0.00     0.002 C 
BRANCH  24  25
ATOM     25  C   UNL A   1      31.716  31.568  26.572  1.00  0.00     0.021 C 
BRANCH  25  26
ATOM     26  C   UNL A   1      32.786  32.351  27.334  1.00  0.00     0.116 C 
BRANCH  26  27
ATOM     27  N   UNL A   1      32.435  33.744  27.571  1.00  0.00    -0.352 N 
ATOM     28  C   UNL A   1      33.004  34.678  28.411  1.00  0.00     0.251 C 
ATOM     29  H   UNL A   1      31.669  34.072  27.047  1.00  0.00     0.163 HD
ATOM     30  O   UNL A   1      32.504  35.790  28.521  1.00  0.00    -0.269 OA
BRANCH  28  31
ATOM     31  C   UNL A   1      34.193  34.333  29.228  1.00  0.00     0.039 A 
ATOM     32  C   UNL A   1      35.486  34.447  28.717  1.00  0.00     0.014 A 
ATOM     33  C   UNL A   1      34.007  33.887  30.539  1.00  0.00     0.014 A 
ATOM     34  C   UNL A   1      36.573  33.954  29.443  1.00  0.00     0.010 A 
ATOM     35  C   UNL A   1      35.103  33.448  31.291  1.00  0.00     0.010 A 
ATOM     36  C   UNL A   1      36.389  33.417  30.726  1.00  0.00    -0.014 A 
BRANCH  36  37
ATOM     37  C   UNL A   1      37.513  32.744  31.439  1.00  0.00     0.031 A 
ATOM     38  C   UNL A   1      38.245  31.604  30.776  1.00  0.00     0.074 A 
ATOM     39  C   UNL A   1      37.911  33.160  32.658  1.00  0.00     0.049 A 
ATOM     40  N   UNL A   1      39.193  30.834  31.253  1.00  0.00    -0.248 NA
ATOM     41  C   UNL A   1      37.862  31.285  29.390  1.00  0.00     0.031 C 
ATOM     42  C   UNL A   1      37.325  34.271  33.406  1.00  0.00     0.029 A 
ATOM     43  N   UNL A   1      38.908  32.694  33.480  1.00  0.00    -0.354 N 
ATOM     44  C   UNL A   1      39.493  29.927  30.243  1.00  0.00     0.074 A 
ATOM     45  C   UNL A   1      38.617  30.227  29.132  1.00  0.00     0.031 C 
ATOM     46  C   UNL A   1      37.986  34.415  34.566  1.00  0.00     0.029 A 
ATOM     47  C   UNL A   1      39.005  33.373  34.671  1.00  0.00     0.049 A 
ATOM     48  H   UNL A   1      39.499  31.943  33.239  1.00  0.00     0.167 HD
ATOM     49  C   UNL A   1      40.422  28.942  30.237  1.00  0.00     0.037 A 
ATOM     50  C   UNL A   1      39.803  33.166  35.738  1.00  0.00     0.037 A 
ATOM     51  C   UNL A   1      41.325  28.658  31.320  1.00  0.00     0.049 A 
ATOM     52  C   UNL A   1      40.790  32.028  35.725  1.00  0.00     0.074 A 
ATOM     53  C   UNL A   1      42.314  27.691  31.386  1.00  0.00     0.029 A 
ATOM     54  N   UNL A   1      41.357  29.344  32.523  1.00  0.00    -0.354 N 
ATOM     55  N   UNL A   1      41.054  31.172  34.769  1.00  0.00    -0.248 NA
ATOM     56  C   UNL A   1      41.583  31.822  36.947  1.00  0.00     0.031 C 
ATOM     57  C   UNL A   1      42.920  27.767  32.642  1.00  0.00     0.029 A 
ATOM     58  C   UNL A   1      42.339  28.811  33.342  1.00  0.00     0.049 A 
ATOM     59  H   UNL A   1      40.770  30.097  32.761  1.00  0.00     0.167 HD
ATOM     60  C   UNL A   1      42.049  30.340  35.266  1.00  0.00     0.074 A 
ATOM     61  C   UNL A   1      42.358  30.804  36.601  1.00  0.00     0.031 C 
ATOM     62  C   UNL A   1      42.648  29.284  34.667  1.00  0.00     0.037 A 
BRANCH  49  63
ATOM     63  C   UNL A   1      40.523  28.079  29.013  1.00  0.00     0.064 A 
ATOM     64  C   UNL A   1      39.771  26.903  28.881  1.00  0.00     0.173 A 
ATOM     65  C   UNL A   1      41.310  28.483  27.924  1.00  0.00     0.173 A 
ATOM     66  F   UNL A   1      39.013  26.469  29.899  1.00  0.00    -0.203 F 
ATOM     67  C   UNL A   1      39.808  26.158  27.704  1.00  0.00     0.198 A 
ATOM     68  C   UNL A   1      41.326  27.751  26.739  1.00  0.00     0.198 A 
ATOM     69  F   UNL A   1      42.041  29.605  27.998  1.00  0.00    -0.203 F 
ATOM     70  F   UNL A   1      39.100  25.025  27.609  1.00  0.00    -0.200 F 
ATOM     71  C   UNL A   1      40.576  26.589  26.631  1.00  0.00     0.200 A 
ATOM     72  F   UNL A   1      42.056  28.174  25.699  1.00  0.00    -0.200 F 
ATOM     73  F   UNL A   1      40.592  25.883  25.493  1.00  0.00    -0.200 F 
ENDBRANCH  49  63
BRANCH  50  74
ATOM     74  C   UNL A   1      39.695  34.054  36.925  1.00  0.00     0.064 A 
ATOM     75  C   UNL A   1      38.879  33.707  38.009  1.00  0.00     0.173 A 
ATOM     76  C   UNL A   1      40.396  35.266  36.995  1.00  0.00     0.173 A 
ATOM     77  F   UNL A   1      38.165  32.571  37.974  1.00  0.00    -0.203 F 
ATOM     78  C   UNL A   1      38.761  34.544  39.117  1.00  0.00     0.198 A 
ATOM     79  C   UNL A   1      40.300  36.089  38.116  1.00  0.00     0.198 A 
ATOM     80  F   UNL A   1      41.186  35.646  35.980  1.00  0.00    -0.203 F 
ATOM     81  F   UNL A   1      37.943  34.207  40.124  1.00  0.00    -0.200 F 
ATOM     82  C   UNL A   1      39.478  35.730  39.173  1.00  0.00     0.200 A 
ATOM     83  F   UNL A   1      41.003  37.228  38.170  1.00  0.00    -0.200 F 
ATOM     84  F   UNL A   1      39.371  36.530  40.242  1.00  0.00    -0.200 F 
ENDBRANCH  50  74
BRANCH  62  85
ATOM     85  C   UNL A   1      43.719  28.560  35.430  1.00  0.00     0.064 A 
ATOM     86  C   UNL A   1      45.065  28.943  35.346  1.00  0.00     0.173 A 
ATOM     87  C   UNL A   1      43.384  27.519  36.310  1.00  0.00     0.173 A 
ATOM     88  F   UNL A   1      45.435  29.925  34.510  1.00  0.00    -0.203 F 
ATOM     89  C   UNL A   1      46.040  28.302  36.106  1.00  0.00     0.198 A 
ATOM     90  C   UNL A   1      44.358  26.898  37.087  1.00  0.00     0.198 A 
ATOM     91  F   UNL A   1      42.110  27.121  36.434  1.00  0.00    -0.203 F 
ATOM     92  F   UNL A   1      47.324  28.665  35.987  1.00  0.00    -0.200 F 
ATOM     93  C   UNL A   1      45.685  27.287  36.982  1.00  0.00     0.200 A 
ATOM     94  F   UNL A   1      44.011  25.927  37.944  1.00  0.00    -0.200 F 
ATOM     95  F   UNL A   1      46.623  26.681  37.723  1.00  0.00    -0.200 F 
ENDBRANCH  62  85
ENDBRANCH  36  37
ENDBRANCH  28  31
ENDBRANCH  26  27
ENDBRANCH  25  26
ENDBRANCH  24  25
ENDBRANCH   1  24
TORSDOF 15
ENDMDL
