MODEL 1
REMARK VINA RESULT:     -12.6      0.000      0.000
REMARK SMILES O=C(CCc1nc(-c2ccccc2)c(-c2ccccc2)o1)NCCCCCCNC(=O)c1ccc(-c2c3nc(c(-c4c(F)c(F)c(F)c(F)c4F)c4ccc([nH]4)c(-c4c(F)c(F)c(F)c(F)c4F)c4nc(c(-c5c(F)c(F)c(F)c(F)c5F)c5ccc2[nH]5)C=C4)C=C3)cc1
REMARK SMILES IDX 25 1 24 2 23 3 22 4 1 5 2 6 3 8 4 9 5 10 6 11 21 12 7 13
REMARK SMILES IDX 14 14 8 15 9 16 13 17 10 18 12 19 11 20 15 21 16 22 20 23
REMARK SMILES IDX 17 24 19 25 18 26 26 27 27 28 28 29 29 30 30 31 31 33 32 34
REMARK SMILES IDX 33 35 94 36 34 37 93 38 35 39 36 40 37 41 87 42 38 43 92 44
REMARK SMILES IDX 86 45 88 46 39 47 91 48 85 49 84 50 40 52 72 53 52 54 71 55
REMARK SMILES IDX 53 56 56 57 70 58 89 59 54 60 55 61 69 63 90 64 57 65 41 66
REMARK SMILES IDX 42 67 50 68 43 69 44 70 48 71 51 72 45 73 46 74 49 75 47 76
REMARK SMILES IDX 73 77 74 78 82 79 75 80 76 81 80 82 83 83 77 84 78 85 81 86
REMARK SMILES IDX 79 87 58 88 59 89 67 90 60 91 61 92 65 93 68 94 62 95 63 96
REMARK SMILES IDX 66 97 64 98
REMARK H PARENT 22 7 29 32 88 51 56 62
REMARK Flexibility Score: inf
ROOT
ATOM      1  C   UNL A   1      33.335  29.565  26.404  1.00  0.00     0.002 C 
ENDROOT
BRANCH   1   2
ATOM      2  C   UNL A   1      33.633  28.397  25.455  1.00  0.00     0.021 C 
BRANCH   2   3
ATOM      3  C   UNL A   1      33.763  27.034  26.140  1.00  0.00     0.116 C 
BRANCH   3   4
ATOM      4  N   UNL A   1      32.746  26.116  25.674  1.00  0.00    -0.356 N 
ATOM      5  O   UNL A   1      31.054  26.842  27.043  1.00  0.00    -0.275 OA
ATOM      6  C   UNL A   1      31.470  26.081  26.176  1.00  0.00     0.220 C 
ATOM      7  H   UNL A   1      32.983  25.482  24.958  1.00  0.00     0.163 HD
BRANCH   6   8
ATOM      8  C   UNL A   1      30.611  24.978  25.591  1.00  0.00     0.110 C 
BRANCH   8   9
ATOM      9  C   UNL A   1      30.546  23.742  26.479  1.00  0.00     0.107 C 
BRANCH   9  10
ATOM     10  C   UNL A   1      31.472  22.660  26.049  1.00  0.00     0.196 A 
ATOM     11  N   UNL A   1      31.168  21.475  25.564  1.00  0.00    -0.213 NA
ATOM     12  O   UNL A   1      32.815  22.933  26.080  1.00  0.00    -0.440 OA
ATOM     13  C   UNL A   1      32.390  20.901  25.297  1.00  0.00     0.117 A 
ATOM     14  C   UNL A   1      33.404  21.802  25.571  1.00  0.00     0.162 A 
BRANCH  13  15
ATOM     15  C   UNL A   1      32.542  19.575  24.730  1.00  0.00     0.004 A 
ATOM     16  C   UNL A   1      32.843  18.470  25.538  1.00  0.00     0.010 A 
ATOM     17  C   UNL A   1      32.421  19.394  23.348  1.00  0.00     0.010 A 
ATOM     18  C   UNL A   1      33.072  17.217  24.965  1.00  0.00     0.001 A 
ATOM     19  C   UNL A   1      32.665  18.144  22.773  1.00  0.00     0.001 A 
ATOM     20  C   UNL A   1      32.998  17.059  23.583  1.00  0.00     0.000 A 
ENDBRANCH  13  15
BRANCH  14  21
ATOM     21  C   UNL A   1      34.845  21.851  25.360  1.00  0.00     0.020 A 
ATOM     22  C   UNL A   1      35.591  20.695  25.114  1.00  0.00     0.012 A 
ATOM     23  C   UNL A   1      35.513  23.084  25.377  1.00  0.00     0.012 A 
ATOM     24  C   UNL A   1      36.970  20.780  24.884  1.00  0.00     0.001 A 
ATOM     25  C   UNL A   1      36.890  23.170  25.172  1.00  0.00     0.001 A 
ATOM     26  C   UNL A   1      37.619  22.014  24.920  1.00  0.00     0.000 A 
ENDBRANCH  14  21
ENDBRANCH   9  10
ENDBRANCH   8   9
ENDBRANCH   6   8
ENDBRANCH   3   4
ENDBRANCH   2   3
ENDBRANCH   1   2
BRANCH   1  27
ATOM     27  C   UNL A   1      32.157  30.439  25.977  1.00  0.00     0.002 C 
BRANCH  27  28
ATOM     28  C   UNL A   1      31.750  31.524  26.966  1.00  0.00     0.021 C 
BRANCH  28  29
ATOM     29  C   UNL A   1      32.887  32.445  27.391  1.00  0.00     0.116 C 
BRANCH  29  30
ATOM     30  N   UNL A   1      32.467  33.826  27.606  1.00  0.00    -0.352 N 
ATOM     31  C   UNL A   1      32.984  34.761  28.472  1.00  0.00     0.251 C 
ATOM     32  H   UNL A   1      31.711  34.131  27.054  1.00  0.00     0.163 HD
ATOM     33  O   UNL A   1      32.453  35.858  28.607  1.00  0.00    -0.269 OA
BRANCH  31  34
ATOM     34  C   UNL A   1      34.173  34.407  29.272  1.00  0.00     0.039 A 
ATOM     35  C   UNL A   1      34.000  33.816  30.527  1.00  0.00     0.014 A 
ATOM     36  C   UNL A   1      35.451  34.585  28.741  1.00  0.00     0.014 A 
ATOM     37  C   UNL A   1      35.112  33.315  31.209  1.00  0.00     0.010 A 
ATOM     38  C   UNL A   1      36.542  34.010  29.380  1.00  0.00     0.010 A 
ATOM     39  C   UNL A   1      36.383  33.363  30.616  1.00  0.00    -0.014 A 
BRANCH  39  40
ATOM     40  C   UNL A   1      37.573  32.745  31.254  1.00  0.00     0.031 A 
ATOM     41  C   UNL A   1      38.251  31.581  30.585  1.00  0.00     0.074 A 
ATOM     42  C   UNL A   1      37.968  33.149  32.478  1.00  0.00     0.049 A 
ATOM     43  N   UNL A   1      39.190  30.794  31.043  1.00  0.00    -0.248 NA
ATOM     44  C   UNL A   1      37.782  31.233  29.234  1.00  0.00     0.031 C 
ATOM     45  C   UNL A   1      37.358  34.231  33.255  1.00  0.00     0.029 A 
ATOM     46  N   UNL A   1      38.964  32.677  33.298  1.00  0.00    -0.354 N 
ATOM     47  C   UNL A   1      39.392  29.837  30.058  1.00  0.00     0.074 A 
ATOM     48  C   UNL A   1      38.456  30.118  28.992  1.00  0.00     0.031 C 
ATOM     49  C   UNL A   1      38.001  34.349  34.428  1.00  0.00     0.029 A 
ATOM     50  C   UNL A   1      39.038  33.325  34.508  1.00  0.00     0.049 A 
ATOM     51  H   UNL A   1      39.569  31.943  33.042  1.00  0.00     0.167 HD
ATOM     52  C   UNL A   1      40.291  28.826  30.038  1.00  0.00     0.037 A 
ATOM     53  C   UNL A   1      39.842  33.105  35.566  1.00  0.00     0.037 A 
ATOM     54  C   UNL A   1      41.264  28.591  31.069  1.00  0.00     0.049 A 
ATOM     55  C   UNL A   1      40.853  31.991  35.500  1.00  0.00     0.074 A 
ATOM     56  C   UNL A   1      42.284  27.656  31.094  1.00  0.00     0.029 A 
ATOM     57  N   UNL A   1      41.344  29.305  32.255  1.00  0.00    -0.354 N 
ATOM     58  N   UNL A   1      41.087  31.141  34.529  1.00  0.00    -0.248 NA
ATOM     59  C   UNL A   1      41.713  31.805  36.677  1.00  0.00     0.031 C 
ATOM     60  C   UNL A   1      42.957  27.779  32.313  1.00  0.00     0.029 A 
ATOM     61  C   UNL A   1      42.385  28.817  33.027  1.00  0.00     0.049 A 
ATOM     62  H   UNL A   1      40.749  30.047  32.511  1.00  0.00     0.167 HD
ATOM     63  C   UNL A   1      42.143  30.351  34.960  1.00  0.00     0.074 A 
ATOM     64  C   UNL A   1      42.510  30.823  36.278  1.00  0.00     0.031 C 
ATOM     65  C   UNL A   1      42.754  29.323  34.323  1.00  0.00     0.037 A 
BRANCH  52  66
ATOM     66  C   UNL A   1      40.279  27.899  28.860  1.00  0.00     0.064 A 
ATOM     67  C   UNL A   1      41.026  28.169  27.704  1.00  0.00     0.173 A 
ATOM     68  C   UNL A   1      39.564  26.693  28.915  1.00  0.00     0.173 A 
ATOM     69  F   UNL A   1      41.716  29.314  27.597  1.00  0.00    -0.203 F 
ATOM     70  C   UNL A   1      41.043  27.273  26.638  1.00  0.00     0.198 A 
ATOM     71  C   UNL A   1      39.605  25.787  27.860  1.00  0.00     0.198 A 
ATOM     72  F   UNL A   1      38.838  26.387  30.001  1.00  0.00    -0.203 F 
ATOM     73  F   UNL A   1      41.735  27.567  25.529  1.00  0.00    -0.200 F 
ATOM     74  C   UNL A   1      40.341  26.079  26.722  1.00  0.00     0.200 A 
ATOM     75  F   UNL A   1      38.937  24.628  27.946  1.00  0.00    -0.200 F 
ATOM     76  F   UNL A   1      40.373  25.210  25.701  1.00  0.00    -0.200 F 
ENDBRANCH  52  66
BRANCH  53  77
ATOM     77  C   UNL A   1      39.744  33.960  36.778  1.00  0.00     0.064 A 
ATOM     78  C   UNL A   1      38.926  33.586  37.854  1.00  0.00     0.173 A 
ATOM     79  C   UNL A   1      40.428  35.180  36.874  1.00  0.00     0.173 A 
ATOM     80  F   UNL A   1      38.233  32.438  37.800  1.00  0.00    -0.203 F 
ATOM     81  C   UNL A   1      38.770  34.413  38.963  1.00  0.00     0.198 A 
ATOM     82  C   UNL A   1      40.293  35.994  37.996  1.00  0.00     0.198 A 
ATOM     83  F   UNL A   1      41.227  35.582  35.875  1.00  0.00    -0.203 F 
ATOM     84  F   UNL A   1      37.935  34.058  39.950  1.00  0.00    -0.200 F 
ATOM     85  C   UNL A   1      39.456  35.616  39.035  1.00  0.00     0.200 A 
ATOM     86  F   UNL A   1      40.967  37.150  38.068  1.00  0.00    -0.200 F 
ATOM     87  F   UNL A   1      39.300  36.416  40.099  1.00  0.00    -0.200 F 
ENDBRANCH  53  77
BRANCH  65  88
ATOM     88  C   UNL A   1      43.918  28.677  35.011  1.00  0.00     0.064 A 
ATOM     89  C   UNL A   1      43.752  27.578  35.864  1.00  0.00     0.173 A 
ATOM     90  C   UNL A   1      45.223  29.130  34.764  1.00  0.00     0.173 A 
ATOM     91  F   UNL A   1      42.523  27.118  36.142  1.00  0.00    -0.203 F 
ATOM     92  C   UNL A   1      44.852  26.965  36.460  1.00  0.00     0.198 A 
ATOM     93  C   UNL A   1      46.321  28.498  35.340  1.00  0.00     0.198 A 
ATOM     94  F   UNL A   1      45.434  30.175  33.949  1.00  0.00    -0.203 F 
ATOM     95  F   UNL A   1      44.669  25.938  37.302  1.00  0.00    -0.200 F 
ATOM     96  C   UNL A   1      46.134  27.420  36.191  1.00  0.00     0.200 A 
ATOM     97  F   UNL A   1      47.561  28.930  35.068  1.00  0.00    -0.200 F 
ATOM     98  F   UNL A   1      47.191  26.820  36.756  1.00  0.00    -0.200 F 
ENDBRANCH  65  88
ENDBRANCH  39  40
ENDBRANCH  31  34
ENDBRANCH  29  30
ENDBRANCH  28  29
ENDBRANCH  27  28
ENDBRANCH   1  27
TORSDOF 17
ENDMDL
MODEL 2
REMARK VINA RESULT:     -12.5      0.392      7.203
REMARK SMILES O=C(CCc1nc(-c2ccccc2)c(-c2ccccc2)o1)NCCCCCCNC(=O)c1ccc(-c2c3nc(c(-c4c(F)c(F)c(F)c(F)c4F)c4ccc([nH]4)c(-c4c(F)c(F)c(F)c(F)c4F)c4nc(c(-c5c(F)c(F)c(F)c(F)c5F)c5ccc2[nH]5)C=C4)C=C3)cc1
REMARK SMILES IDX 25 1 24 2 23 3 22 4 1 5 2 6 3 8 4 9 5 10 6 11 21 12 7 13
REMARK SMILES IDX 14 14 8 15 9 16 13 17 10 18 12 19 11 20 15 21 16 22 20 23
REMARK SMILES IDX 17 24 19 25 18 26 26 27 27 28 28 29 29 30 30 31 31 33 32 34
REMARK SMILES IDX 33 35 94 36 34 37 93 38 35 39 36 40 37 41 87 42 38 43 92 44
REMARK SMILES IDX 86 45 88 46 39 47 91 48 85 49 84 50 40 52 72 53 52 54 71 55
REMARK SMILES IDX 53 56 56 57 70 58 89 59 54 60 55 61 69 63 90 64 57 65 41 66
REMARK SMILES IDX 42 67 50 68 43 69 44 70 48 71 51 72 45 73 46 74 49 75 47 76
REMARK SMILES IDX 73 77 74 78 82 79 75 80 76 81 80 82 83 83 77 84 78 85 81 86
REMARK SMILES IDX 79 87 58 88 59 89 67 90 60 91 61 92 65 93 68 94 62 95 63 96
REMARK SMILES IDX 66 97 64 98
REMARK H PARENT 22 7 29 32 88 51 56 62
REMARK Flexibility Score: inf
ROOT
ATOM      1  C   UNL A   1      32.758  29.808  26.719  1.00  0.00     0.002 C 
ENDROOT
BRANCH   1   2
ATOM      2  C   UNL A   1      33.277  28.725  25.763  1.00  0.00     0.021 C 
BRANCH   2   3
ATOM      3  C   UNL A   1      33.509  27.358  26.413  1.00  0.00     0.116 C 
BRANCH   3   4
ATOM      4  N   UNL A   1      32.619  26.360  25.859  1.00  0.00    -0.356 N 
ATOM      5  O   UNL A   1      30.754  26.938  27.064  1.00  0.00    -0.275 OA
ATOM      6  C   UNL A   1      31.310  26.217  26.243  1.00  0.00     0.220 C 
ATOM      7  H   UNL A   1      32.973  25.750  25.171  1.00  0.00     0.163 HD
BRANCH   6   8
ATOM      8  C   UNL A   1      30.604  25.048  25.586  1.00  0.00     0.110 C 
BRANCH   8   9
ATOM      9  C   UNL A   1      30.540  23.815  26.480  1.00  0.00     0.107 C 
BRANCH   9  10
ATOM     10  C   UNL A   1      31.473  22.735  26.060  1.00  0.00     0.196 A 
ATOM     11  N   UNL A   1      31.178  21.557  25.552  1.00  0.00    -0.213 NA
ATOM     12  O   UNL A   1      32.815  23.003  26.128  1.00  0.00    -0.440 OA
ATOM     13  C   UNL A   1      32.404  20.982  25.308  1.00  0.00     0.117 A 
ATOM     14  C   UNL A   1      33.414  21.876  25.619  1.00  0.00     0.162 A 
BRANCH  13  15
ATOM     15  C   UNL A   1      32.566  19.663  24.729  1.00  0.00     0.004 A 
ATOM     16  C   UNL A   1      32.833  18.545  25.532  1.00  0.00     0.010 A 
ATOM     17  C   UNL A   1      32.489  19.501  23.341  1.00  0.00     0.010 A 
ATOM     18  C   UNL A   1      33.072  17.299  24.949  1.00  0.00     0.001 A 
ATOM     19  C   UNL A   1      32.744  18.258  22.759  1.00  0.00     0.001 A 
ATOM     20  C   UNL A   1      33.043  17.160  23.564  1.00  0.00     0.000 A 
ENDBRANCH  13  15
BRANCH  14  21
ATOM     21  C   UNL A   1      34.859  21.923  25.445  1.00  0.00     0.020 A 
ATOM     22  C   UNL A   1      35.588  20.798  25.048  1.00  0.00     0.012 A 
ATOM     23  C   UNL A   1      35.551  23.125  25.654  1.00  0.00     0.012 A 
ATOM     24  C   UNL A   1      36.973  20.885  24.860  1.00  0.00     0.001 A 
ATOM     25  C   UNL A   1      36.934  23.209  25.490  1.00  0.00     0.001 A 
ATOM     26  C   UNL A   1      37.645  22.086  25.087  1.00  0.00     0.000 A 
ENDBRANCH  14  21
ENDBRANCH   9  10
ENDBRANCH   8   9
ENDBRANCH   6   8
ENDBRANCH   3   4
ENDBRANCH   2   3
ENDBRANCH   1   2
BRANCH   1  27
ATOM     27  C   UNL A   1      31.786  30.799  26.080  1.00  0.00     0.002 C 
BRANCH  27  28
ATOM     28  C   UNL A   1      31.475  32.040  26.906  1.00  0.00     0.021 C 
BRANCH  28  29
ATOM     29  C   UNL A   1      32.703  32.823  27.352  1.00  0.00     0.116 C 
BRANCH  29  30
ATOM     30  N   UNL A   1      32.420  34.218  27.674  1.00  0.00    -0.352 N 
ATOM     31  C   UNL A   1      32.998  35.017  28.632  1.00  0.00     0.251 C 
ATOM     32  H   UNL A   1      31.719  34.645  27.131  1.00  0.00     0.163 HD
ATOM     33  O   UNL A   1      32.578  36.149  28.847  1.00  0.00    -0.269 OA
BRANCH  31  34
ATOM     34  C   UNL A   1      34.115  34.475  29.430  1.00  0.00     0.039 A 
ATOM     35  C   UNL A   1      33.839  33.809  30.627  1.00  0.00     0.014 A 
ATOM     36  C   UNL A   1      35.423  34.555  28.947  1.00  0.00     0.014 A 
ATOM     37  C   UNL A   1      34.868  33.139  31.293  1.00  0.00     0.010 A 
ATOM     38  C   UNL A   1      36.425  33.817  29.564  1.00  0.00     0.010 A 
ATOM     39  C   UNL A   1      36.157  33.096  30.738  1.00  0.00    -0.014 A 
BRANCH  39  40
ATOM     40  C   UNL A   1      37.252  32.304  31.354  1.00  0.00     0.031 A 
ATOM     41  C   UNL A   1      37.766  32.686  32.714  1.00  0.00     0.074 A 
ATOM     42  C   UNL A   1      37.857  31.328  30.649  1.00  0.00     0.049 A 
ATOM     43  N   UNL A   1      38.815  32.242  33.359  1.00  0.00    -0.248 NA
ATOM     44  C   UNL A   1      37.023  33.736  33.430  1.00  0.00     0.031 C 
ATOM     45  C   UNL A   1      37.486  30.899  29.298  1.00  0.00     0.029 A 
ATOM     46  N   UNL A   1      38.932  30.532  30.962  1.00  0.00    -0.354 N 
ATOM     47  C   UNL A   1      38.879  32.985  34.530  1.00  0.00     0.074 A 
ATOM     48  C   UNL A   1      37.787  33.933  34.494  1.00  0.00     0.031 C 
ATOM     49  C   UNL A   1      38.309  29.912  28.907  1.00  0.00     0.029 A 
ATOM     50  C   UNL A   1      39.292  29.667  29.957  1.00  0.00     0.049 A 
ATOM     51  H   UNL A   1      39.401  30.578  31.827  1.00  0.00     0.167 HD
ATOM     52  C   UNL A   1      39.760  32.874  35.550  1.00  0.00     0.037 A 
ATOM     53  C   UNL A   1      40.310  28.788  29.888  1.00  0.00     0.037 A 
ATOM     54  C   UNL A   1      40.802  31.886  35.612  1.00  0.00     0.049 A 
ATOM     55  C   UNL A   1      41.255  28.666  31.053  1.00  0.00     0.074 A 
ATOM     56  C   UNL A   1      41.682  31.626  36.648  1.00  0.00     0.029 A 
ATOM     57  N   UNL A   1      41.100  30.990  34.597  1.00  0.00    -0.354 N 
ATOM     58  N   UNL A   1      41.258  29.321  32.189  1.00  0.00    -0.248 NA
ATOM     59  C   UNL A   1      42.339  27.681  30.929  1.00  0.00     0.031 C 
ATOM     60  C   UNL A   1      42.537  30.597  36.245  1.00  0.00     0.029 A 
ATOM     61  C   UNL A   1      42.163  30.188  34.977  1.00  0.00     0.049 A 
ATOM     62  H   UNL A   1      40.627  30.933  33.735  1.00  0.00     0.167 HD
ATOM     63  C   UNL A   1      42.313  28.802  32.926  1.00  0.00     0.074 A 
ATOM     64  C   UNL A   1      42.926  27.773  32.114  1.00  0.00     0.031 C 
ATOM     65  C   UNL A   1      42.738  29.147  34.165  1.00  0.00     0.037 A 
BRANCH  52  66
ATOM     66  C   UNL A   1      39.633  33.833  36.695  1.00  0.00     0.064 A 
ATOM     67  C   UNL A   1      38.864  33.531  37.827  1.00  0.00     0.173 A 
ATOM     68  C   UNL A   1      40.345  35.042  36.688  1.00  0.00     0.173 A 
ATOM     69  F   UNL A   1      38.154  32.393  37.878  1.00  0.00    -0.203 F 
ATOM     70  C   UNL A   1      38.796  34.412  38.903  1.00  0.00     0.198 A 
ATOM     71  C   UNL A   1      40.298  35.908  37.776  1.00  0.00     0.198 A 
ATOM     72  F   UNL A   1      41.099  35.377  35.629  1.00  0.00    -0.203 F 
ATOM     73  F   UNL A   1      38.027  34.118  39.960  1.00  0.00    -0.200 F 
ATOM     74  C   UNL A   1      39.522  35.594  38.881  1.00  0.00     0.200 A 
ATOM     75  F   UNL A   1      41.009  37.044  37.759  1.00  0.00    -0.200 F 
ATOM     76  F   UNL A   1      39.470  36.433  39.925  1.00  0.00    -0.200 F 
ENDBRANCH  52  66
BRANCH  53  77
ATOM     77  C   UNL A   1      40.491  27.937  28.682  1.00  0.00     0.064 A 
ATOM     78  C   UNL A   1      41.242  28.394  27.589  1.00  0.00     0.173 A 
ATOM     79  C   UNL A   1      39.890  26.674  28.577  1.00  0.00     0.173 A 
ATOM     80  F   UNL A   1      41.817  29.605  27.633  1.00  0.00    -0.203 F 
ATOM     81  C   UNL A   1      41.357  27.636  26.426  1.00  0.00     0.198 A 
ATOM     82  C   UNL A   1      40.029  25.905  27.424  1.00  0.00     0.198 A 
ATOM     83  F   UNL A   1      39.165  26.189  29.595  1.00  0.00    -0.203 F 
ATOM     84  F   UNL A   1      42.031  28.123  25.375  1.00  0.00    -0.200 F 
ATOM     85  C   UNL A   1      40.754  26.390  26.345  1.00  0.00     0.200 A 
ATOM     86  F   UNL A   1      39.455  24.696  27.354  1.00  0.00    -0.200 F 
ATOM     87  F   UNL A   1      40.858  25.664  25.223  1.00  0.00    -0.200 F 
ENDBRANCH  53  77
BRANCH  65  88
ATOM     88  C   UNL A   1      43.881  28.371  34.745  1.00  0.00     0.064 A 
ATOM     89  C   UNL A   1      43.677  27.178  35.453  1.00  0.00     0.173 A 
ATOM     90  C   UNL A   1      45.202  28.797  34.536  1.00  0.00     0.173 A 
ATOM     91  F   UNL A   1      42.432  26.739  35.691  1.00  0.00    -0.203 F 
ATOM     92  C   UNL A   1      44.755  26.449  35.947  1.00  0.00     0.198 A 
ATOM     93  C   UNL A   1      46.278  28.050  35.008  1.00  0.00     0.198 A 
ATOM     94  F   UNL A   1      45.449  29.928  33.859  1.00  0.00    -0.203 F 
ATOM     95  F   UNL A   1      44.537  25.331  36.654  1.00  0.00    -0.200 F 
ATOM     96  C   UNL A   1      46.053  26.881  35.717  1.00  0.00     0.200 A 
ATOM     97  F   UNL A   1      47.532  28.462  34.773  1.00  0.00    -0.200 F 
ATOM     98  F   UNL A   1      47.089  26.170  36.183  1.00  0.00    -0.200 F 
ENDBRANCH  65  88
ENDBRANCH  39  40
ENDBRANCH  31  34
ENDBRANCH  29  30
ENDBRANCH  28  29
ENDBRANCH  27  28
ENDBRANCH   1  27
TORSDOF 17
ENDMDL
MODEL 3
REMARK VINA RESULT:     -12.5      1.069      7.230
REMARK SMILES O=C(CCc1nc(-c2ccccc2)c(-c2ccccc2)o1)NCCCCCCNC(=O)c1ccc(-c2c3nc(c(-c4c(F)c(F)c(F)c(F)c4F)c4ccc([nH]4)c(-c4c(F)c(F)c(F)c(F)c4F)c4nc(c(-c5c(F)c(F)c(F)c(F)c5F)c5ccc2[nH]5)C=C4)C=C3)cc1
REMARK SMILES IDX 25 1 24 2 23 3 22 4 1 5 2 6 3 8 4 9 5 10 6 11 21 12 7 13
REMARK SMILES IDX 14 14 8 15 9 16 13 17 10 18 12 19 11 20 15 21 16 22 20 23
REMARK SMILES IDX 17 24 19 25 18 26 26 27 27 28 28 29 29 30 30 31 31 33 32 34
REMARK SMILES IDX 33 35 94 36 34 37 93 38 35 39 36 40 37 41 87 42 38 43 92 44
REMARK SMILES IDX 86 45 88 46 39 47 91 48 85 49 84 50 40 52 72 53 52 54 71 55
REMARK SMILES IDX 53 56 56 57 70 58 89 59 54 60 55 61 69 63 90 64 57 65 41 66
REMARK SMILES IDX 42 67 50 68 43 69 44 70 48 71 51 72 45 73 46 74 49 75 47 76
REMARK SMILES IDX 73 77 74 78 82 79 75 80 76 81 80 82 83 83 77 84 78 85 81 86
REMARK SMILES IDX 79 87 58 88 59 89 67 90 60 91 61 92 65 93 68 94 62 95 63 96
REMARK SMILES IDX 66 97 64 98
REMARK H PARENT 22 7 29 32 88 51 56 62
REMARK Flexibility Score: inf
ROOT
ATOM      1  C   UNL A   1      32.474  29.866  27.267  1.00  0.00     0.002 C 
ENDROOT
BRANCH   1   2
ATOM      2  C   UNL A   1      32.729  28.413  26.841  1.00  0.00     0.021 C 
BRANCH   2   3
ATOM      3  C   UNL A   1      31.467  27.619  26.496  1.00  0.00     0.116 C 
BRANCH   3   4
ATOM      4  N   UNL A   1      31.599  26.958  25.215  1.00  0.00    -0.356 N 
ATOM      5  O   UNL A   1      30.346  28.444  23.996  1.00  0.00    -0.275 OA
ATOM      6  C   UNL A   1      31.011  27.417  24.064  1.00  0.00     0.220 C 
ATOM      7  H   UNL A   1      32.139  26.136  25.168  1.00  0.00     0.163 HD
BRANCH   6   8
ATOM      8  C   UNL A   1      31.221  26.511  22.867  1.00  0.00     0.110 C 
BRANCH   8   9
ATOM      9  C   UNL A   1      30.482  25.184  22.989  1.00  0.00     0.107 C 
BRANCH   9  10
ATOM     10  C   UNL A   1      31.357  24.062  23.423  1.00  0.00     0.196 A 
ATOM     11  N   UNL A   1      31.103  22.771  23.384  1.00  0.00    -0.213 NA
ATOM     12  O   UNL A   1      32.620  24.379  23.850  1.00  0.00    -0.440 OA
ATOM     13  C   UNL A   1      32.257  22.189  23.859  1.00  0.00     0.117 A 
ATOM     14  C   UNL A   1      33.207  23.164  24.109  1.00  0.00     0.162 A 
BRANCH  13  15
ATOM     15  C   UNL A   1      32.436  20.756  23.983  1.00  0.00     0.004 A 
ATOM     16  C   UNL A   1      32.275  19.906  22.880  1.00  0.00     0.010 A 
ATOM     17  C   UNL A   1      32.742  20.201  25.231  1.00  0.00     0.010 A 
ATOM     18  C   UNL A   1      32.365  18.522  23.037  1.00  0.00     0.001 A 
ATOM     19  C   UNL A   1      32.817  18.815  25.390  1.00  0.00     0.001 A 
ATOM     20  C   UNL A   1      32.621  17.977  24.293  1.00  0.00     0.000 A 
ENDBRANCH  13  15
BRANCH  14  21
ATOM     21  C   UNL A   1      34.620  23.180  24.462  1.00  0.00     0.020 A 
ATOM     22  C   UNL A   1      35.066  23.689  25.685  1.00  0.00     0.012 A 
ATOM     23  C   UNL A   1      35.570  22.655  23.574  1.00  0.00     0.012 A 
ATOM     24  C   UNL A   1      36.428  23.661  26.007  1.00  0.00     0.001 A 
ATOM     25  C   UNL A   1      36.930  22.646  23.881  1.00  0.00     0.001 A 
ATOM     26  C   UNL A   1      37.359  23.147  25.104  1.00  0.00     0.000 A 
ENDBRANCH  14  21
ENDBRANCH   9  10
ENDBRANCH   8   9
ENDBRANCH   6   8
ENDBRANCH   3   4
ENDBRANCH   2   3
ENDBRANCH   1   2
BRANCH   1  27
ATOM     27  C   UNL A   1      31.718  30.701  26.235  1.00  0.00     0.002 C 
BRANCH  27  28
ATOM     28  C   UNL A   1      31.460  32.151  26.625  1.00  0.00     0.021 C 
BRANCH  28  29
ATOM     29  C   UNL A   1      32.635  32.836  27.312  1.00  0.00     0.116 C 
BRANCH  29  30
ATOM     30  N   UNL A   1      32.384  34.236  27.637  1.00  0.00    -0.352 N 
ATOM     31  C   UNL A   1      32.992  35.025  28.585  1.00  0.00     0.251 C 
ATOM     32  H   UNL A   1      31.683  34.676  27.104  1.00  0.00     0.163 HD
ATOM     33  O   UNL A   1      32.597  36.165  28.805  1.00  0.00    -0.269 OA
BRANCH  31  34
ATOM     34  C   UNL A   1      34.110  34.461  29.367  1.00  0.00     0.039 A 
ATOM     35  C   UNL A   1      33.832  33.723  30.520  1.00  0.00     0.014 A 
ATOM     36  C   UNL A   1      35.421  34.596  28.908  1.00  0.00     0.014 A 
ATOM     37  C   UNL A   1      34.867  33.038  31.162  1.00  0.00     0.010 A 
ATOM     38  C   UNL A   1      36.431  33.845  29.496  1.00  0.00     0.010 A 
ATOM     39  C   UNL A   1      36.163  33.053  30.624  1.00  0.00    -0.014 A 
BRANCH  39  40
ATOM     40  C   UNL A   1      37.267  32.250  31.209  1.00  0.00     0.031 A 
ATOM     41  C   UNL A   1      37.794  32.601  32.573  1.00  0.00     0.074 A 
ATOM     42  C   UNL A   1      37.868  31.292  30.475  1.00  0.00     0.049 A 
ATOM     43  N   UNL A   1      38.851  32.145  33.196  1.00  0.00    -0.248 NA
ATOM     44  C   UNL A   1      37.055  33.632  33.321  1.00  0.00     0.031 C 
ATOM     45  C   UNL A   1      37.483  30.895  29.118  1.00  0.00     0.029 A 
ATOM     46  N   UNL A   1      38.948  30.493  30.758  1.00  0.00    -0.354 N 
ATOM     47  C   UNL A   1      38.925  32.861  34.383  1.00  0.00     0.074 A 
ATOM     48  C   UNL A   1      37.830  33.806  34.381  1.00  0.00     0.031 C 
ATOM     49  C   UNL A   1      38.305  29.920  28.695  1.00  0.00     0.029 A 
ATOM     50  C   UNL A   1      39.300  29.653  29.730  1.00  0.00     0.049 A 
ATOM     51  H   UNL A   1      39.426  30.520  31.619  1.00  0.00     0.167 HD
ATOM     52  C   UNL A   1      39.817  32.728  35.391  1.00  0.00     0.037 A 
ATOM     53  C   UNL A   1      40.320  28.779  29.628  1.00  0.00     0.037 A 
ATOM     54  C   UNL A   1      40.863  31.743  35.419  1.00  0.00     0.049 A 
ATOM     55  C   UNL A   1      41.278  28.633  30.781  1.00  0.00     0.074 A 
ATOM     56  C   UNL A   1      41.754  31.461  36.440  1.00  0.00     0.029 A 
ATOM     57  N   UNL A   1      41.153  30.872  34.380  1.00  0.00    -0.354 N 
ATOM     58  N   UNL A   1      41.290  29.261  31.932  1.00  0.00    -0.248 NA
ATOM     59  C   UNL A   1      42.363  27.655  30.622  1.00  0.00     0.031 C 
ATOM     60  C   UNL A   1      42.608  30.444  36.004  1.00  0.00     0.029 A 
ATOM     61  C   UNL A   1      42.222  30.064  34.730  1.00  0.00     0.049 A 
ATOM     62  H   UNL A   1      40.671  30.834  33.522  1.00  0.00     0.167 HD
ATOM     63  C   UNL A   1      42.355  28.728  32.646  1.00  0.00     0.074 A 
ATOM     64  C   UNL A   1      42.962  27.721  31.803  1.00  0.00     0.031 C 
ATOM     65  C   UNL A   1      42.791  29.045  33.888  1.00  0.00     0.037 A 
BRANCH  52  66
ATOM     66  C   UNL A   1      39.699  33.660  36.561  1.00  0.00     0.064 A 
ATOM     67  C   UNL A   1      40.326  34.914  36.570  1.00  0.00     0.173 A 
ATOM     68  C   UNL A   1      38.893  33.319  37.658  1.00  0.00     0.173 A 
ATOM     69  F   UNL A   1      41.118  35.281  35.551  1.00  0.00    -0.203 F 
ATOM     70  C   UNL A   1      40.165  35.786  37.643  1.00  0.00     0.198 A 
ATOM     71  C   UNL A   1      38.711  34.204  38.716  1.00  0.00     0.198 A 
ATOM     72  F   UNL A   1      38.268  32.132  37.695  1.00  0.00    -0.203 F 
ATOM     73  F   UNL A   1      40.802  36.965  37.646  1.00  0.00    -0.200 F 
ATOM     74  C   UNL A   1      39.350  35.435  38.709  1.00  0.00     0.200 A 
ATOM     75  F   UNL A   1      37.914  33.869  39.740  1.00  0.00    -0.200 F 
ATOM     76  F   UNL A   1      39.182  36.283  39.733  1.00  0.00    -0.200 F 
ENDBRANCH  52  66
BRANCH  53  77
ATOM     77  C   UNL A   1      40.491  27.958  28.401  1.00  0.00     0.064 A 
ATOM     78  C   UNL A   1      39.930  26.675  28.313  1.00  0.00     0.173 A 
ATOM     79  C   UNL A   1      41.245  28.415  27.310  1.00  0.00     0.173 A 
ATOM     80  F   UNL A   1      39.220  26.185  29.341  1.00  0.00    -0.203 F 
ATOM     81  C   UNL A   1      40.144  25.869  27.198  1.00  0.00     0.198 A 
ATOM     82  C   UNL A   1      41.435  27.618  26.183  1.00  0.00     0.198 A 
ATOM     83  F   UNL A   1      41.799  29.636  27.341  1.00  0.00    -0.203 F 
ATOM     84  F   UNL A   1      39.646  24.625  27.168  1.00  0.00    -0.200 F 
ATOM     85  C   UNL A   1      40.894  26.342  26.132  1.00  0.00     0.200 A 
ATOM     86  F   UNL A   1      42.150  28.083  25.150  1.00  0.00    -0.200 F 
ATOM     87  F   UNL A   1      41.107  25.564  25.062  1.00  0.00    -0.200 F 
ENDBRANCH  53  77
BRANCH  65  88
ATOM     88  C   UNL A   1      43.943  28.259  34.438  1.00  0.00     0.064 A 
ATOM     89  C   UNL A   1      45.265  28.708  34.319  1.00  0.00     0.173 A 
ATOM     90  C   UNL A   1      43.711  27.069  35.145  1.00  0.00     0.173 A 
ATOM     91  F   UNL A   1      45.537  29.832  33.639  1.00  0.00    -0.203 F 
ATOM     92  C   UNL A   1      46.317  27.985  34.874  1.00  0.00     0.198 A 
ATOM     93  C   UNL A   1      44.762  26.363  35.721  1.00  0.00     0.198 A 
ATOM     94  F   UNL A   1      42.462  26.601  35.292  1.00  0.00    -0.203 F 
ATOM     95  F   UNL A   1      47.578  28.412  34.717  1.00  0.00    -0.200 F 
ATOM     96  C   UNL A   1      46.064  26.818  35.581  1.00  0.00     0.200 A 
ATOM     97  F   UNL A   1      44.515  25.243  36.416  1.00  0.00    -0.200 F 
ATOM     98  F   UNL A   1      47.078  26.130  36.125  1.00  0.00    -0.200 F 
ENDBRANCH  65  88
ENDBRANCH  39  40
ENDBRANCH  31  34
ENDBRANCH  29  30
ENDBRANCH  28  29
ENDBRANCH  27  28
ENDBRANCH   1  27
TORSDOF 17
ENDMDL
