MODEL 1
REMARK VINA RESULT:     -13.0      0.000      0.000
REMARK SMILES CCc1cc(Nc2ccc(C(=O)NCCCCCCNC(=O)c3ccc(-c4c5nc(c(-c6c(F)c(F)c(F)c(F)c6F)c6ccc([nH]6)c(-c6c(F)c(F)c(F)c(F)c6F)c6nc(c(-c7c(F)c(F)c(F)c(F)c7F)c7ccc4[nH]7)C=C6)C=C5)cc3)cc2)nc(C(C)C)n1
REMARK SMILES IDX 16 1 15 2 14 3 13 4 11 5 12 6 10 8 7 9 8 10 87 11 9 12 86 13
REMARK SMILES IDX 6 14 5 16 3 17 4 18 93 19 89 20 88 21 2 22 1 23 90 24 91 25
REMARK SMILES IDX 92 26 17 27 18 28 19 29 20 30 21 31 22 33 23 34 24 35 85 36
REMARK SMILES IDX 25 37 84 38 26 39 27 40 28 41 78 42 29 43 83 44 77 45 79 46
REMARK SMILES IDX 30 47 82 48 76 49 75 50 31 52 63 53 43 54 62 55 44 56 47 57
REMARK SMILES IDX 61 58 80 59 45 60 46 61 60 63 81 64 48 65 32 66 33 67 41 68
REMARK SMILES IDX 34 69 35 70 39 71 42 72 36 73 37 74 40 75 38 76 64 77 65 78
REMARK SMILES IDX 73 79 66 80 67 81 71 82 74 83 68 84 69 85 72 86 70 87 49 88
REMARK SMILES IDX 50 89 58 90 51 91 52 92 56 93 59 94 53 95 54 96 57 97 55 98
REMARK H PARENT 13 7 6 15 20 32 79 51 47 62
REMARK Flexibility Score: inf
ROOT
ATOM      1  C   UNL A   1      31.407  29.578  25.428  1.00  0.00     0.002 C 
ENDROOT
BRANCH   1   2
ATOM      2  C   UNL A   1      32.606  28.988  24.673  1.00  0.00     0.021 C 
BRANCH   2   3
ATOM      3  C   UNL A   1      32.185  28.144  23.467  1.00  0.00     0.116 C 
BRANCH   3   4
ATOM      4  N   UNL A   1      30.742  28.010  23.453  1.00  0.00    -0.352 N 
ATOM      5  C   UNL A   1      29.907  26.963  23.749  1.00  0.00     0.251 C 
ATOM      6  O   UNL A   1      28.698  27.132  23.583  1.00  0.00    -0.269 OA
ATOM      7  H   UNL A   1      30.269  28.829  23.179  1.00  0.00     0.163 HD
BRANCH   5   8
ATOM      8  C   UNL A   1      30.388  25.680  24.328  1.00  0.00     0.039 A 
ATOM      9  C   UNL A   1      31.085  23.114  25.269  1.00  0.00     0.040 A 
ATOM     10  C   UNL A   1      30.995  23.361  23.896  1.00  0.00     0.027 A 
ATOM     11  C   UNL A   1      30.877  24.169  26.156  1.00  0.00     0.027 A 
ATOM     12  C   UNL A   1      30.637  24.630  23.430  1.00  0.00     0.016 A 
ATOM     13  C   UNL A   1      30.593  25.454  25.689  1.00  0.00     0.016 A 
BRANCH   9  14
ATOM     14  N   UNL A   1      31.350  21.830  25.755  1.00  0.00    -0.340 N 
ATOM     15  H   UNL A   1      30.735  21.483  26.442  1.00  0.00     0.168 HD
BRANCH  14  16
ATOM     16  C   UNL A   1      32.401  20.978  25.364  1.00  0.00     0.134 A 
ATOM     17  C   UNL A   1      34.713  20.645  24.993  1.00  0.00     0.046 A 
ATOM     18  C   UNL A   1      33.688  21.482  25.389  1.00  0.00     0.071 A 
ATOM     19  N   UNL A   1      34.482  19.369  24.626  1.00  0.00    -0.238 NA
ATOM     20  C   UNL A   1      33.205  18.944  24.644  1.00  0.00     0.133 A 
ATOM     21  N   UNL A   1      32.157  19.704  25.011  1.00  0.00    -0.216 NA
BRANCH  17  22
ATOM     22  C   UNL A   1      36.154  21.091  24.990  1.00  0.00     0.053 C 
ATOM     23  C   UNL A   1      36.477  22.204  24.000  1.00  0.00     0.011 C 
ENDBRANCH  17  22
BRANCH  20  24
ATOM     24  C   UNL A   1      32.915  17.527  24.197  1.00  0.00     0.051 C 
ATOM     25  C   UNL A   1      34.103  16.944  23.429  1.00  0.00     0.016 C 
ATOM     26  C   UNL A   1      32.540  16.632  25.379  1.00  0.00     0.016 C 
ENDBRANCH  20  24
ENDBRANCH  14  16
ENDBRANCH   9  14
ENDBRANCH   5   8
ENDBRANCH   3   4
ENDBRANCH   2   3
ENDBRANCH   1   2
BRANCH   1  27
ATOM     27  C   UNL A   1      31.772  30.303  26.730  1.00  0.00     0.002 C 
BRANCH  27  28
ATOM     28  C   UNL A   1      31.676  31.829  26.656  1.00  0.00     0.021 C 
BRANCH  28  29
ATOM     29  C   UNL A   1      32.842  32.552  27.320  1.00  0.00     0.116 C 
BRANCH  29  30
ATOM     30  N   UNL A   1      32.538  33.957  27.551  1.00  0.00    -0.352 N 
ATOM     31  C   UNL A   1      33.026  34.803  28.517  1.00  0.00     0.251 C 
ATOM     32  H   UNL A   1      31.890  34.357  26.927  1.00  0.00     0.163 HD
ATOM     33  O   UNL A   1      32.490  35.880  28.735  1.00  0.00    -0.269 OA
BRANCH  31  34
ATOM     34  C   UNL A   1      34.203  34.388  29.307  1.00  0.00     0.039 A 
ATOM     35  C   UNL A   1      34.008  33.800  30.559  1.00  0.00     0.014 A 
ATOM     36  C   UNL A   1      35.491  34.559  28.795  1.00  0.00     0.014 A 
ATOM     37  C   UNL A   1      35.107  33.306  31.263  1.00  0.00     0.010 A 
ATOM     38  C   UNL A   1      36.576  34.003  29.464  1.00  0.00     0.010 A 
ATOM     39  C   UNL A   1      36.392  33.359  30.697  1.00  0.00    -0.014 A 
BRANCH  39  40
ATOM     40  C   UNL A   1      37.553  32.706  31.353  1.00  0.00     0.031 A 
ATOM     41  C   UNL A   1      38.240  31.544  30.697  1.00  0.00     0.074 A 
ATOM     42  C   UNL A   1      37.926  33.110  32.583  1.00  0.00     0.049 A 
ATOM     43  N   UNL A   1      39.196  30.780  31.160  1.00  0.00    -0.248 NA
ATOM     44  C   UNL A   1      37.774  31.176  29.350  1.00  0.00     0.031 C 
ATOM     45  C   UNL A   1      37.308  34.201  33.338  1.00  0.00     0.029 A 
ATOM     46  N   UNL A   1      38.900  32.636  33.426  1.00  0.00    -0.354 N 
ATOM     47  C   UNL A   1      39.438  29.838  30.169  1.00  0.00     0.074 A 
ATOM     48  C   UNL A   1      38.497  30.094  29.101  1.00  0.00     0.031 C 
ATOM     49  C   UNL A   1      37.926  34.324  34.522  1.00  0.00     0.029 A 
ATOM     50  C   UNL A   1      38.949  33.288  34.633  1.00  0.00     0.049 A 
ATOM     51  H   UNL A   1      39.508  31.899  33.187  1.00  0.00     0.167 HD
ATOM     52  C   UNL A   1      40.378  28.862  30.148  1.00  0.00     0.037 A 
ATOM     53  C   UNL A   1      39.714  33.062  35.718  1.00  0.00     0.037 A 
ATOM     54  C   UNL A   1      41.318  28.622  31.211  1.00  0.00     0.049 A 
ATOM     55  C   UNL A   1      40.716  31.940  35.686  1.00  0.00     0.074 A 
ATOM     56  C   UNL A   1      42.350  27.701  31.257  1.00  0.00     0.029 A 
ATOM     57  N   UNL A   1      41.333  29.299  32.422  1.00  0.00    -0.354 N 
ATOM     58  N   UNL A   1      40.992  31.106  34.713  1.00  0.00    -0.248 NA
ATOM     59  C   UNL A   1      41.511  31.724  36.903  1.00  0.00     0.031 C 
ATOM     60  C   UNL A   1      42.947  27.777  32.518  1.00  0.00     0.029 A 
ATOM     61  C   UNL A   1      42.329  28.787  33.239  1.00  0.00     0.049 A 
ATOM     62  H   UNL A   1      40.726  30.035  32.665  1.00  0.00     0.167 HD
ATOM     63  C   UNL A   1      42.002  30.281  35.191  1.00  0.00     0.074 A 
ATOM     64  C   UNL A   1      42.306  30.730  36.534  1.00  0.00     0.031 C 
ATOM     65  C   UNL A   1      42.618  29.244  34.574  1.00  0.00     0.037 A 
BRANCH  52  66
ATOM     66  C   UNL A   1      40.432  27.973  28.939  1.00  0.00     0.064 A 
ATOM     67  C   UNL A   1      39.680  26.790  28.859  1.00  0.00     0.173 A 
ATOM     68  C   UNL A   1      41.207  28.331  27.825  1.00  0.00     0.173 A 
ATOM     69  F   UNL A   1      38.928  26.397  29.898  1.00  0.00    -0.203 F 
ATOM     70  C   UNL A   1      39.726  25.986  27.723  1.00  0.00     0.198 A 
ATOM     71  C   UNL A   1      41.225  27.542  26.679  1.00  0.00     0.198 A 
ATOM     72  F   UNL A   1      41.940  29.455  27.845  1.00  0.00    -0.203 F 
ATOM     73  F   UNL A   1      39.037  24.837  27.689  1.00  0.00    -0.200 F 
ATOM     74  C   UNL A   1      40.491  26.367  26.632  1.00  0.00     0.200 A 
ATOM     75  F   UNL A   1      41.952  27.920  25.618  1.00  0.00    -0.200 F 
ATOM     76  F   UNL A   1      40.526  25.597  25.534  1.00  0.00    -0.200 F 
ENDBRANCH  52  66
BRANCH  53  77
ATOM     77  C   UNL A   1      39.559  33.912  36.929  1.00  0.00     0.064 A 
ATOM     78  C   UNL A   1      38.771  33.491  38.009  1.00  0.00     0.173 A 
ATOM     79  C   UNL A   1      40.189  35.162  37.030  1.00  0.00     0.173 A 
ATOM     80  F   UNL A   1      38.131  32.314  37.951  1.00  0.00    -0.203 F 
ATOM     81  C   UNL A   1      38.600  34.296  39.133  1.00  0.00     0.198 A 
ATOM     82  C   UNL A   1      40.045  35.951  38.168  1.00  0.00     0.198 A 
ATOM     83  F   UNL A   1      40.959  35.611  36.027  1.00  0.00    -0.203 F 
ATOM     84  F   UNL A   1      37.801  33.892  40.129  1.00  0.00    -0.200 F 
ATOM     85  C   UNL A   1      39.243  35.522  39.215  1.00  0.00     0.200 A 
ATOM     86  F   UNL A   1      40.681  37.127  38.250  1.00  0.00    -0.200 F 
ATOM     87  F   UNL A   1      39.083  36.294  40.299  1.00  0.00    -0.200 F 
ENDBRANCH  53  77
BRANCH  65  88
ATOM     88  C   UNL A   1      43.692  28.525  35.338  1.00  0.00     0.064 A 
ATOM     89  C   UNL A   1      45.031  28.942  35.291  1.00  0.00     0.173 A 
ATOM     90  C   UNL A   1      43.371  27.445  36.175  1.00  0.00     0.173 A 
ATOM     91  F   UNL A   1      45.392  29.959  34.493  1.00  0.00    -0.203 F 
ATOM     92  C   UNL A   1      46.009  28.294  36.037  1.00  0.00     0.198 A 
ATOM     93  C   UNL A   1      44.347  26.819  36.946  1.00  0.00     0.198 A 
ATOM     94  F   UNL A   1      42.105  27.009  36.261  1.00  0.00    -0.203 F 
ATOM     95  F   UNL A   1      47.288  28.683  35.945  1.00  0.00    -0.200 F 
ATOM     96  C   UNL A   1      45.666  27.241  36.873  1.00  0.00     0.200 A 
ATOM     97  F   UNL A   1      44.010  25.813  37.763  1.00  0.00    -0.200 F 
ATOM     98  F   UNL A   1      46.608  26.629  37.604  1.00  0.00    -0.200 F 
ENDBRANCH  65  88
ENDBRANCH  39  40
ENDBRANCH  31  34
ENDBRANCH  29  30
ENDBRANCH  28  29
ENDBRANCH  27  28
ENDBRANCH   1  27
TORSDOF 17
ENDMDL
MODEL 2
REMARK VINA RESULT:     -12.5      3.551      8.549
REMARK SMILES CCc1cc(Nc2ccc(C(=O)NCCCCCCNC(=O)c3ccc(-c4c5nc(c(-c6c(F)c(F)c(F)c(F)c6F)c6ccc([nH]6)c(-c6c(F)c(F)c(F)c(F)c6F)c6nc(c(-c7c(F)c(F)c(F)c(F)c7F)c7ccc4[nH]7)C=C6)C=C5)cc3)cc2)nc(C(C)C)n1
REMARK SMILES IDX 16 1 15 2 14 3 13 4 11 5 12 6 10 8 7 9 8 10 87 11 9 12 86 13
REMARK SMILES IDX 6 14 5 16 3 17 4 18 93 19 89 20 88 21 2 22 1 23 90 24 91 25
REMARK SMILES IDX 92 26 17 27 18 28 19 29 20 30 21 31 22 33 23 34 24 35 85 36
REMARK SMILES IDX 25 37 84 38 26 39 27 40 28 41 78 42 29 43 83 44 77 45 79 46
REMARK SMILES IDX 30 47 82 48 76 49 75 50 31 52 63 53 43 54 62 55 44 56 47 57
REMARK SMILES IDX 61 58 80 59 45 60 46 61 60 63 81 64 48 65 32 66 33 67 41 68
REMARK SMILES IDX 34 69 35 70 39 71 42 72 36 73 37 74 40 75 38 76 64 77 65 78
REMARK SMILES IDX 73 79 66 80 67 81 71 82 74 83 68 84 69 85 72 86 70 87 49 88
REMARK SMILES IDX 50 89 58 90 51 91 52 92 56 93 59 94 53 95 54 96 57 97 55 98
REMARK H PARENT 13 7 6 15 20 32 79 51 47 62
REMARK Flexibility Score: inf
ROOT
ATOM      1  C   UNL A   1      33.484  28.449  23.432  1.00  0.00     0.002 C 
ENDROOT
BRANCH   1   2
ATOM      2  C   UNL A   1      32.106  28.656  22.789  1.00  0.00     0.021 C 
BRANCH   2   3
ATOM      3  C   UNL A   1      31.066  29.178  23.782  1.00  0.00     0.116 C 
BRANCH   3   4
ATOM      4  N   UNL A   1      29.856  28.385  23.674  1.00  0.00    -0.352 N 
ATOM      5  C   UNL A   1      29.603  27.053  23.872  1.00  0.00     0.251 C 
ATOM      6  O   UNL A   1      28.463  26.647  23.641  1.00  0.00    -0.269 OA
ATOM      7  H   UNL A   1      29.063  28.904  23.408  1.00  0.00     0.163 HD
BRANCH   5   8
ATOM      8  C   UNL A   1      30.612  26.108  24.424  1.00  0.00     0.039 A 
ATOM      9  C   UNL A   1      32.618  24.541  25.638  1.00  0.00     0.040 A 
ATOM     10  C   UNL A   1      31.691  25.232  26.424  1.00  0.00     0.027 A 
ATOM     11  C   UNL A   1      32.498  24.600  24.250  1.00  0.00     0.027 A 
ATOM     12  C   UNL A   1      30.704  26.019  25.821  1.00  0.00     0.016 A 
ATOM     13  C   UNL A   1      31.467  25.325  23.649  1.00  0.00     0.016 A 
BRANCH   9  14
ATOM     14  N   UNL A   1      33.667  23.826  26.223  1.00  0.00    -0.340 N 
ATOM     15  H   UNL A   1      34.078  24.223  27.026  1.00  0.00     0.168 HD
BRANCH  14  16
ATOM     16  C   UNL A   1      34.199  22.597  25.786  1.00  0.00     0.134 A 
ATOM     17  C   UNL A   1      33.864  20.324  25.224  1.00  0.00     0.046 A 
ATOM     18  C   UNL A   1      33.334  21.530  25.641  1.00  0.00     0.071 A 
ATOM     19  N   UNL A   1      35.173  20.192  24.932  1.00  0.00    -0.238 NA
ATOM     20  C   UNL A   1      35.952  21.281  25.080  1.00  0.00     0.133 A 
ATOM     21  N   UNL A   1      35.506  22.483  25.488  1.00  0.00    -0.216 NA
BRANCH  17  22
ATOM     22  C   UNL A   1      33.008  19.099  25.026  1.00  0.00     0.053 C 
ATOM     23  C   UNL A   1      33.628  18.020  24.145  1.00  0.00     0.011 C 
ENDBRANCH  17  22
BRANCH  20  24
ATOM     24  C   UNL A   1      37.433  21.146  24.798  1.00  0.00     0.051 C 
ATOM     25  C   UNL A   1      38.248  22.052  25.722  1.00  0.00     0.016 C 
ATOM     26  C   UNL A   1      37.895  19.693  24.914  1.00  0.00     0.016 C 
ENDBRANCH  20  24
ENDBRANCH  14  16
ENDBRANCH   9  14
ENDBRANCH   5   8
ENDBRANCH   3   4
ENDBRANCH   2   3
ENDBRANCH   1   2
BRANCH   1  27
ATOM     27  C   UNL A   1      33.631  29.063  24.831  1.00  0.00     0.002 C 
BRANCH  27  28
ATOM     28  C   UNL A   1      33.962  28.056  25.934  1.00  0.00     0.021 C 
BRANCH  28  29
ATOM     29  C   UNL A   1      33.491  28.484  27.319  1.00  0.00     0.116 C 
BRANCH  29  30
ATOM     30  N   UNL A   1      33.552  29.930  27.483  1.00  0.00    -0.352 N 
ATOM     31  C   UNL A   1      34.532  30.697  28.063  1.00  0.00     0.251 C 
ATOM     32  H   UNL A   1      32.781  30.427  27.127  1.00  0.00     0.163 HD
ATOM     33  O   UNL A   1      34.324  31.869  28.346  1.00  0.00    -0.269 OA
BRANCH  31  34
ATOM     34  C   UNL A   1      35.843  30.084  28.359  1.00  0.00     0.039 A 
ATOM     35  C   UNL A   1      36.846  30.123  27.389  1.00  0.00     0.014 A 
ATOM     36  C   UNL A   1      36.081  29.497  29.605  1.00  0.00     0.014 A 
ATOM     37  C   UNL A   1      38.120  29.644  27.700  1.00  0.00     0.010 A 
ATOM     38  C   UNL A   1      37.367  29.088  29.936  1.00  0.00     0.010 A 
ATOM     39  C   UNL A   1      38.402  29.171  28.992  1.00  0.00    -0.014 A 
BRANCH  39  40
ATOM     40  C   UNL A   1      39.782  28.800  29.396  1.00  0.00     0.031 A 
ATOM     41  C   UNL A   1      40.611  29.743  30.217  1.00  0.00     0.074 A 
ATOM     42  C   UNL A   1      40.313  27.648  28.940  1.00  0.00     0.049 A 
ATOM     43  N   UNL A   1      41.865  29.644  30.574  1.00  0.00    -0.248 NA
ATOM     44  C   UNL A   1      39.949  30.974  30.679  1.00  0.00     0.031 C 
ATOM     45  C   UNL A   1      39.618  26.671  28.101  1.00  0.00     0.029 A 
ATOM     46  N   UNL A   1      41.567  27.114  29.101  1.00  0.00    -0.354 N 
ATOM     47  C   UNL A   1      42.145  30.800  31.292  1.00  0.00     0.074 A 
ATOM     48  C   UNL A   1      40.945  31.608  31.278  1.00  0.00     0.031 C 
ATOM     49  C   UNL A   1      40.447  25.650  27.835  1.00  0.00     0.029 A 
ATOM     50  C   UNL A   1      41.747  25.924  28.439  1.00  0.00     0.049 A 
ATOM     51  H   UNL A   1      42.270  27.541  29.642  1.00  0.00     0.167 HD
ATOM     52  C   UNL A   1      43.294  31.141  31.923  1.00  0.00     0.037 A 
ATOM     53  C   UNL A   1      42.843  25.153  28.310  1.00  0.00     0.037 A 
ATOM     54  C   UNL A   1      44.479  30.324  31.941  1.00  0.00     0.049 A 
ATOM     55  C   UNL A   1      44.121  25.581  28.981  1.00  0.00     0.074 A 
ATOM     56  C   UNL A   1      45.672  30.551  32.606  1.00  0.00     0.029 A 
ATOM     57  N   UNL A   1      44.627  29.128  31.254  1.00  0.00    -0.354 N 
ATOM     58  N   UNL A   1      44.352  26.636  29.724  1.00  0.00    -0.248 NA
ATOM     59  C   UNL A   1      45.292  24.713  28.792  1.00  0.00     0.031 C 
ATOM     60  C   UNL A   1      46.561  29.527  32.269  1.00  0.00     0.029 A 
ATOM     61  C   UNL A   1      45.905  28.628  31.443  1.00  0.00     0.049 A 
ATOM     62  H   UNL A   1      43.927  28.698  30.711  1.00  0.00     0.167 HD
ATOM     63  C   UNL A   1      45.684  26.550  30.106  1.00  0.00     0.074 A 
ATOM     64  C   UNL A   1      46.205  25.327  29.532  1.00  0.00     0.031 C 
ATOM     65  C   UNL A   1      46.410  27.409  30.862  1.00  0.00     0.037 A 
BRANCH  52  66
ATOM     66  C   UNL A   1      43.330  32.460  32.641  1.00  0.00     0.064 A 
ATOM     67  C   UNL A   1      42.998  32.569  34.000  1.00  0.00     0.173 A 
ATOM     68  C   UNL A   1      43.750  33.622  31.975  1.00  0.00     0.173 A 
ATOM     69  F   UNL A   1      42.583  31.491  34.683  1.00  0.00    -0.203 F 
ATOM     70  C   UNL A   1      43.056  33.795  34.657  1.00  0.00     0.198 A 
ATOM     71  C   UNL A   1      43.838  34.840  32.642  1.00  0.00     0.198 A 
ATOM     72  F   UNL A   1      44.087  33.573  30.677  1.00  0.00    -0.203 F 
ATOM     73  F   UNL A   1      42.687  33.884  35.942  1.00  0.00    -0.200 F 
ATOM     74  C   UNL A   1      43.483  34.927  33.980  1.00  0.00     0.200 A 
ATOM     75  F   UNL A   1      44.267  35.930  31.991  1.00  0.00    -0.200 F 
ATOM     76  F   UNL A   1      43.549  36.106  34.615  1.00  0.00    -0.200 F 
ENDBRANCH  52  66
BRANCH  53  77
ATOM     77  C   UNL A   1      42.784  23.900  27.511  1.00  0.00     0.064 A 
ATOM     78  C   UNL A   1      42.380  22.692  28.096  1.00  0.00     0.173 A 
ATOM     79  C   UNL A   1      43.133  23.882  26.153  1.00  0.00     0.173 A 
ATOM     80  F   UNL A   1      42.056  22.653  29.396  1.00  0.00    -0.203 F 
ATOM     81  C   UNL A   1      42.349  21.509  27.359  1.00  0.00     0.198 A 
ATOM     82  C   UNL A   1      43.071  22.707  25.408  1.00  0.00     0.198 A 
ATOM     83  F   UNL A   1      43.522  25.012  25.542  1.00  0.00    -0.203 F 
ATOM     84  F   UNL A   1      42.009  20.360  27.955  1.00  0.00    -0.200 F 
ATOM     85  C   UNL A   1      42.688  21.519  26.014  1.00  0.00     0.200 A 
ATOM     86  F   UNL A   1      43.383  22.724  24.105  1.00  0.00    -0.200 F 
ATOM     87  F   UNL A   1      42.655  20.383  25.304  1.00  0.00    -0.200 F 
ENDBRANCH  53  77
BRANCH  65  88
ATOM     88  C   UNL A   1      47.845  27.056  31.124  1.00  0.00     0.064 A 
ATOM     89  C   UNL A   1      48.208  26.169  32.149  1.00  0.00     0.173 A 
ATOM     90  C   UNL A   1      48.865  27.562  30.303  1.00  0.00     0.173 A 
ATOM     91  F   UNL A   1      47.273  25.671  32.972  1.00  0.00    -0.203 F 
ATOM     92  C   UNL A   1      49.538  25.817  32.353  1.00  0.00     0.198 A 
ATOM     93  C   UNL A   1      50.191  27.181  30.489  1.00  0.00     0.198 A 
ATOM     94  F   UNL A   1      48.573  28.410  29.305  1.00  0.00    -0.203 F 
ATOM     95  F   UNL A   1      49.866  25.001  33.364  1.00  0.00    -0.200 F 
ATOM     96  C   UNL A   1      50.528  26.313  31.516  1.00  0.00     0.200 A 
ATOM     97  F   UNL A   1      51.143  27.651  29.670  1.00  0.00    -0.200 F 
ATOM     98  F   UNL A   1      51.806  25.959  31.704  1.00  0.00    -0.200 F 
ENDBRANCH  65  88
ENDBRANCH  39  40
ENDBRANCH  31  34
ENDBRANCH  29  30
ENDBRANCH  28  29
ENDBRANCH  27  28
ENDBRANCH   1  27
TORSDOF 17
ENDMDL
MODEL 3
REMARK VINA RESULT:     -12.4      3.433      8.461
REMARK SMILES CCc1cc(Nc2ccc(C(=O)NCCCCCCNC(=O)c3ccc(-c4c5nc(c(-c6c(F)c(F)c(F)c(F)c6F)c6ccc([nH]6)c(-c6c(F)c(F)c(F)c(F)c6F)c6nc(c(-c7c(F)c(F)c(F)c(F)c7F)c7ccc4[nH]7)C=C6)C=C5)cc3)cc2)nc(C(C)C)n1
REMARK SMILES IDX 16 1 15 2 14 3 13 4 11 5 12 6 10 8 7 9 8 10 87 11 9 12 86 13
REMARK SMILES IDX 6 14 5 16 3 17 4 18 93 19 89 20 88 21 2 22 1 23 90 24 91 25
REMARK SMILES IDX 92 26 17 27 18 28 19 29 20 30 21 31 22 33 23 34 24 35 85 36
REMARK SMILES IDX 25 37 84 38 26 39 27 40 28 41 78 42 29 43 83 44 77 45 79 46
REMARK SMILES IDX 30 47 82 48 76 49 75 50 31 52 63 53 43 54 62 55 44 56 47 57
REMARK SMILES IDX 61 58 80 59 45 60 46 61 60 63 81 64 48 65 32 66 33 67 41 68
REMARK SMILES IDX 34 69 35 70 39 71 42 72 36 73 37 74 40 75 38 76 64 77 65 78
REMARK SMILES IDX 73 79 66 80 67 81 71 82 74 83 68 84 69 85 72 86 70 87 49 88
REMARK SMILES IDX 50 89 58 90 51 91 52 92 56 93 59 94 53 95 54 96 57 97 55 98
REMARK H PARENT 13 7 6 15 20 32 79 51 47 62
REMARK Flexibility Score: inf
ROOT
ATOM      1  C   UNL A   1      33.543  28.298  23.486  1.00  0.00     0.002 C 
ENDROOT
BRANCH   1   2
ATOM      2  C   UNL A   1      32.165  28.510  22.844  1.00  0.00     0.021 C 
BRANCH   2   3
ATOM      3  C   UNL A   1      31.172  29.188  23.791  1.00  0.00     0.116 C 
BRANCH   3   4
ATOM      4  N   UNL A   1      29.841  28.668  23.547  1.00  0.00    -0.352 N 
ATOM      5  C   UNL A   1      29.294  27.420  23.695  1.00  0.00     0.251 C 
ATOM      6  O   UNL A   1      28.124  27.263  23.341  1.00  0.00    -0.269 OA
ATOM      7  H   UNL A   1      29.207  29.342  23.210  1.00  0.00     0.163 HD
BRANCH   5   8
ATOM      8  C   UNL A   1      30.019  26.285  24.330  1.00  0.00     0.039 A 
ATOM      9  C   UNL A   1      31.183  23.958  25.416  1.00  0.00     0.040 A 
ATOM     10  C   UNL A   1      30.910  24.036  24.047  1.00  0.00     0.027 A 
ATOM     11  C   UNL A   1      30.919  25.068  26.218  1.00  0.00     0.027 A 
ATOM     12  C   UNL A   1      30.320  25.186  23.511  1.00  0.00     0.016 A 
ATOM     13  C   UNL A   1      30.400  26.242  25.670  1.00  0.00     0.016 A 
BRANCH   9  14
ATOM     14  N   UNL A   1      31.685  22.783  25.985  1.00  0.00    -0.340 N 
ATOM     15  H   UNL A   1      31.217  22.445  26.783  1.00  0.00     0.168 HD
BRANCH  14  16
ATOM     16  C   UNL A   1      32.788  22.031  25.536  1.00  0.00     0.134 A 
ATOM     17  C   UNL A   1      33.671  19.965  24.796  1.00  0.00     0.046 A 
ATOM     18  C   UNL A   1      32.583  20.700  25.224  1.00  0.00     0.071 A 
ATOM     19  N   UNL A   1      34.888  20.525  24.650  1.00  0.00    -0.238 NA
ATOM     20  C   UNL A   1      35.007  21.831  24.955  1.00  0.00     0.133 A 
ATOM     21  N   UNL A   1      33.994  22.606  25.384  1.00  0.00    -0.216 NA
BRANCH  17  22
ATOM     22  C   UNL A   1      33.556  18.509  24.423  1.00  0.00     0.053 C 
ATOM     23  C   UNL A   1      34.875  17.744  24.414  1.00  0.00     0.011 C 
ENDBRANCH  17  22
BRANCH  20  24
ATOM     24  C   UNL A   1      36.374  22.472  24.839  1.00  0.00     0.051 C 
ATOM     25  C   UNL A   1      36.718  22.761  23.377  1.00  0.00     0.016 C 
ATOM     26  C   UNL A   1      36.468  23.745  25.682  1.00  0.00     0.016 C 
ENDBRANCH  20  24
ENDBRANCH  14  16
ENDBRANCH   9  14
ENDBRANCH   5   8
ENDBRANCH   3   4
ENDBRANCH   2   3
ENDBRANCH   1   2
BRANCH   1  27
ATOM     27  C   UNL A   1      33.685  28.888  24.895  1.00  0.00     0.002 C 
BRANCH  27  28
ATOM     28  C   UNL A   1      33.744  27.849  26.017  1.00  0.00     0.021 C 
BRANCH  28  29
ATOM     29  C   UNL A   1      33.339  28.392  27.382  1.00  0.00     0.116 C 
BRANCH  29  30
ATOM     30  N   UNL A   1      33.397  29.847  27.418  1.00  0.00    -0.352 N 
ATOM     31  C   UNL A   1      34.383  30.664  27.912  1.00  0.00     0.251 C 
ATOM     32  H   UNL A   1      32.617  30.310  27.034  1.00  0.00     0.163 HD
ATOM     33  O   UNL A   1      34.176  31.855  28.096  1.00  0.00    -0.269 OA
BRANCH  31  34
ATOM     34  C   UNL A   1      35.702  30.083  28.238  1.00  0.00     0.039 A 
ATOM     35  C   UNL A   1      36.703  30.083  27.265  1.00  0.00     0.014 A 
ATOM     36  C   UNL A   1      35.948  29.563  29.511  1.00  0.00     0.014 A 
ATOM     37  C   UNL A   1      37.983  29.636  27.598  1.00  0.00     0.010 A 
ATOM     38  C   UNL A   1      37.239  29.186  29.861  1.00  0.00     0.010 A 
ATOM     39  C   UNL A   1      38.272  29.233  28.913  1.00  0.00    -0.014 A 
BRANCH  39  40
ATOM     40  C   UNL A   1      39.656  28.900  29.333  1.00  0.00     0.031 A 
ATOM     41  C   UNL A   1      40.455  29.871  30.151  1.00  0.00     0.074 A 
ATOM     42  C   UNL A   1      40.219  27.756  28.895  1.00  0.00     0.049 A 
ATOM     43  N   UNL A   1      41.708  29.806  30.521  1.00  0.00    -0.248 NA
ATOM     44  C   UNL A   1      39.760  31.090  30.593  1.00  0.00     0.031 C 
ATOM     45  C   UNL A   1      39.555  26.753  28.060  1.00  0.00     0.029 A 
ATOM     46  N   UNL A   1      41.483  27.253  29.073  1.00  0.00    -0.354 N 
ATOM     47  C   UNL A   1      41.954  30.975  31.228  1.00  0.00     0.074 A 
ATOM     48  C   UNL A   1      40.736  31.755  31.194  1.00  0.00     0.031 C 
ATOM     49  C   UNL A   1      40.410  25.750  27.813  1.00  0.00     0.029 A 
ATOM     50  C   UNL A   1      41.698  26.061  28.425  1.00  0.00     0.049 A 
ATOM     51  H   UNL A   1      42.171  27.703  29.615  1.00  0.00     0.167 HD
ATOM     52  C   UNL A   1      43.089  31.351  31.865  1.00  0.00     0.037 A 
ATOM     53  C   UNL A   1      42.813  25.315  28.315  1.00  0.00     0.037 A 
ATOM     54  C   UNL A   1      44.293  30.562  31.903  1.00  0.00     0.049 A 
ATOM     55  C   UNL A   1      44.074  25.780  28.993  1.00  0.00     0.074 A 
ATOM     56  C   UNL A   1      45.473  30.825  32.576  1.00  0.00     0.029 A 
ATOM     57  N   UNL A   1      44.475  29.363  31.230  1.00  0.00    -0.354 N 
ATOM     58  N   UNL A   1      44.273  26.849  29.726  1.00  0.00    -0.248 NA
ATOM     59  C   UNL A   1      45.267  24.939  28.825  1.00  0.00     0.031 C 
ATOM     60  C   UNL A   1      46.390  29.819  32.258  1.00  0.00     0.029 A 
ATOM     61  C   UNL A   1      45.763  28.895  31.437  1.00  0.00     0.049 A 
ATOM     62  H   UNL A   1      43.790  28.911  30.686  1.00  0.00     0.167 HD
ATOM     63  C   UNL A   1      45.603  26.798  30.121  1.00  0.00     0.074 A 
ATOM     64  C   UNL A   1      46.158  25.582  29.565  1.00  0.00     0.031 C 
ATOM     65  C   UNL A   1      46.302  27.683  30.874  1.00  0.00     0.037 A 
BRANCH  52  66
ATOM     66  C   UNL A   1      43.087  32.678  32.568  1.00  0.00     0.064 A 
ATOM     67  C   UNL A   1      43.447  33.863  31.908  1.00  0.00     0.173 A 
ATOM     68  C   UNL A   1      42.673  32.774  33.906  1.00  0.00     0.173 A 
ATOM     69  F   UNL A   1      43.858  33.827  30.631  1.00  0.00    -0.203 F 
ATOM     70  C   UNL A   1      43.422  35.089  32.568  1.00  0.00     0.198 A 
ATOM     71  C   UNL A   1      42.617  34.006  34.553  1.00  0.00     0.198 A 
ATOM     72  F   UNL A   1      42.311  31.674  34.583  1.00  0.00    -0.203 F 
ATOM     73  F   UNL A   1      43.817  36.199  31.931  1.00  0.00    -0.200 F 
ATOM     74  C   UNL A   1      42.999  35.160  33.887  1.00  0.00     0.200 A 
ATOM     75  F   UNL A   1      42.193  34.075  35.822  1.00  0.00    -0.200 F 
ATOM     76  F   UNL A   1      42.965  36.342  34.519  1.00  0.00    -0.200 F 
ENDBRANCH  52  66
BRANCH  53  77
ATOM     77  C   UNL A   1      42.791  24.052  27.530  1.00  0.00     0.064 A 
ATOM     78  C   UNL A   1      42.458  22.833  28.136  1.00  0.00     0.173 A 
ATOM     79  C   UNL A   1      43.105  24.036  26.163  1.00  0.00     0.173 A 
ATOM     80  F   UNL A   1      42.171  22.792  29.445  1.00  0.00    -0.203 F 
ATOM     81  C   UNL A   1      42.463  21.643  27.411  1.00  0.00     0.198 A 
ATOM     82  C   UNL A   1      43.077  22.851  25.431  1.00  0.00     0.198 A 
ATOM     83  F   UNL A   1      43.425  25.176  25.532  1.00  0.00    -0.203 F 
ATOM     84  F   UNL A   1      42.192  20.484  28.027  1.00  0.00    -0.200 F 
ATOM     85  C   UNL A   1      42.766  21.654  26.058  1.00  0.00     0.200 A 
ATOM     86  F   UNL A   1      43.354  22.869  24.121  1.00  0.00    -0.200 F 
ATOM     87  F   UNL A   1      42.767  20.510  25.359  1.00  0.00    -0.200 F 
ENDBRANCH  53  77
BRANCH  65  88
ATOM     88  C   UNL A   1      47.743  27.366  31.152  1.00  0.00     0.064 A 
ATOM     89  C   UNL A   1      48.776  27.895  30.365  1.00  0.00     0.173 A 
ATOM     90  C   UNL A   1      48.098  26.573  32.255  1.00  0.00     0.173 A 
ATOM     91  F   UNL A   1      48.488  28.645  29.290  1.00  0.00    -0.203 F 
ATOM     92  C   UNL A   1      50.109  27.629  30.660  1.00  0.00     0.198 A 
ATOM     93  C   UNL A   1      49.434  26.336  32.567  1.00  0.00     0.198 A 
ATOM     94  F   UNL A   1      47.149  26.047  33.043  1.00  0.00    -0.203 F 
ATOM     95  F   UNL A   1      51.078  28.111  29.870  1.00  0.00    -0.200 F 
ATOM     96  C   UNL A   1      50.438  26.859  31.767  1.00  0.00     0.200 A 
ATOM     97  F   UNL A   1      49.749  25.605  33.645  1.00  0.00    -0.200 F 
ATOM     98  F   UNL A   1      51.723  26.618  32.059  1.00  0.00    -0.200 F 
ENDBRANCH  65  88
ENDBRANCH  39  40
ENDBRANCH  31  34
ENDBRANCH  29  30
ENDBRANCH  28  29
ENDBRANCH  27  28
ENDBRANCH   1  27
TORSDOF 17
ENDMDL
