MODEL 1
REMARK VINA RESULT:     -12.1      0.000      0.000
REMARK SMILES CCCN1CCC[C@@]2(CCN(c3ccc(C(=O)NCCCCCCNC(=O)c4ccc(-c5c6nc(c(-c7c(F)c(F)c(F)c(F)c7F)c7ccc([nH]7)c(-c7c(F)c(F)c(F)c(F)c7F)c7nc(c(-c8c(F)c(F)c(F)c(F)c8F)c8ccc5[nH]8)C=C7)C=C6)cc4)cn3)C2)C1=O
REMARK SMILES IDX 21 1 20 2 19 3 18 4 16 5 17 6 15 8 12 9 13 10 92 11 14 12
REMARK SMILES IDX 91 13 11 14 4 15 5 16 94 17 6 18 8 19 95 20 7 21 9 22 93 23
REMARK SMILES IDX 10 24 3 25 2 26 1 27 22 28 23 29 24 30 25 31 26 32 27 34
REMARK SMILES IDX 28 35 29 36 90 37 30 38 89 39 31 40 32 41 33 42 83 43 34 44
REMARK SMILES IDX 88 45 82 46 84 47 35 48 87 49 81 50 80 51 36 53 68 54 48 55
REMARK SMILES IDX 67 56 49 57 52 58 66 59 85 60 50 61 51 62 65 64 86 65 53 66
REMARK SMILES IDX 37 67 38 68 46 69 39 70 40 71 44 72 47 73 41 74 42 75 45 76
REMARK SMILES IDX 43 77 69 78 70 79 78 80 71 81 72 82 76 83 79 84 73 85 74 86
REMARK SMILES IDX 77 87 75 88 54 89 55 90 63 91 56 92 57 93 61 94 64 95 58 96
REMARK SMILES IDX 59 97 62 98 60 99
REMARK H PARENT 18 7 25 33 84 52 52 63
REMARK Flexibility Score: inf
ROOT
ATOM      1  C   UNL A   1      29.984  31.540  24.601  1.00  0.00     0.002 C 
ENDROOT
BRANCH   1   2
ATOM      2  C   UNL A   1      28.923  32.259  23.756  1.00  0.00     0.021 C 
BRANCH   2   3
ATOM      3  C   UNL A   1      28.487  31.442  22.536  1.00  0.00     0.116 C 
BRANCH   3   4
ATOM      4  N   UNL A   1      27.502  30.451  22.923  1.00  0.00    -0.352 N 
ATOM      5  C   UNL A   1      27.560  29.095  23.117  1.00  0.00     0.252 C 
ATOM      6  O   UNL A   1      26.514  28.531  23.441  1.00  0.00    -0.269 OA
ATOM      7  H   UNL A   1      26.607  30.830  23.078  1.00  0.00     0.163 HD
BRANCH   5   8
ATOM      8  C   UNL A   1      28.802  28.290  23.003  1.00  0.00     0.058 A 
ATOM      9  C   UNL A   1      31.045  26.642  23.062  1.00  0.00     0.128 A 
ATOM     10  C   UNL A   1      31.077  27.849  22.373  1.00  0.00     0.048 A 
ATOM     11  N   UNL A   1      29.922  26.221  23.667  1.00  0.00    -0.239 NA
ATOM     12  C   UNL A   1      29.940  28.645  22.295  1.00  0.00     0.019 A 
ATOM     13  C   UNL A   1      28.842  27.056  23.647  1.00  0.00     0.127 A 
BRANCH   9  14
ATOM     14  N   UNL A   1      32.187  25.887  23.086  1.00  0.00    -0.356 N 
ATOM     15  N   UNL A   1      33.106  22.328  25.258  1.00  0.00    -0.342 N 
ATOM     16  C   UNL A   1      34.130  22.584  26.260  1.00  0.00     0.119 C 
ATOM     17  C   UNL A   1      33.234  22.836  23.966  1.00  0.00     0.230 C 
ATOM     18  C   UNL A   1      34.607  24.025  26.264  1.00  0.00     0.023 C 
ATOM     19  C   UNL A   1      33.743  24.282  23.911  1.00  0.00     0.069 C 
ATOM     20  O   UNL A   1      32.805  22.249  22.976  1.00  0.00    -0.274 OA
ATOM     21  C   UNL A   1      34.942  24.479  24.848  1.00  0.00     0.021 C 
ATOM     22  C   UNL A   1      34.063  24.722  22.467  1.00  0.00     0.040 C 
ATOM     23  C   UNL A   1      32.555  25.197  24.313  1.00  0.00     0.135 C 
ATOM     24  C   UNL A   1      32.720  25.220  21.921  1.00  0.00     0.119 C 
BRANCH  15  25
ATOM     25  C   UNL A   1      31.936  21.509  25.573  1.00  0.00     0.119 C 
BRANCH  25  26
ATOM     26  C   UNL A   1      30.592  22.217  25.737  1.00  0.00     0.018 C 
ATOM     27  C   UNL A   1      30.556  23.246  26.858  1.00  0.00     0.006 C 
ENDBRANCH  25  26
ENDBRANCH  15  25
ENDBRANCH   9  14
ENDBRANCH   5   8
ENDBRANCH   3   4
ENDBRANCH   2   3
ENDBRANCH   1   2
BRANCH   1  28
ATOM     28  C   UNL A   1      30.663  32.423  25.656  1.00  0.00     0.002 C 
BRANCH  28  29
ATOM     29  C   UNL A   1      31.491  31.659  26.691  1.00  0.00     0.021 C 
BRANCH  29  30
ATOM     30  C   UNL A   1      32.756  32.391  27.123  1.00  0.00     0.116 C 
BRANCH  30  31
ATOM     31  N   UNL A   1      32.481  33.785  27.438  1.00  0.00    -0.352 N 
ATOM     32  C   UNL A   1      33.002  34.563  28.440  1.00  0.00     0.251 C 
ATOM     33  H   UNL A   1      31.831  34.232  26.849  1.00  0.00     0.163 HD
ATOM     34  O   UNL A   1      32.489  35.636  28.731  1.00  0.00    -0.269 OA
BRANCH  32  35
ATOM     35  C   UNL A   1      34.192  34.087  29.172  1.00  0.00     0.039 A 
ATOM     36  C   UNL A   1      34.025  33.256  30.282  1.00  0.00     0.014 A 
ATOM     37  C   UNL A   1      35.470  34.464  28.752  1.00  0.00     0.014 A 
ATOM     38  C   UNL A   1      35.149  32.755  30.941  1.00  0.00     0.010 A 
ATOM     39  C   UNL A   1      36.586  33.904  29.360  1.00  0.00     0.010 A 
ATOM     40  C   UNL A   1      36.437  33.051  30.465  1.00  0.00    -0.014 A 
BRANCH  40  41
ATOM     41  C   UNL A   1      37.655  32.500  31.106  1.00  0.00     0.031 A 
ATOM     42  C   UNL A   1      38.410  31.390  30.431  1.00  0.00     0.074 A 
ATOM     43  C   UNL A   1      38.021  32.928  32.330  1.00  0.00     0.049 A 
ATOM     44  N   UNL A   1      39.403  30.667  30.883  1.00  0.00    -0.248 NA
ATOM     45  C   UNL A   1      37.968  31.023  29.075  1.00  0.00     0.031 C 
ATOM     46  C   UNL A   1      37.351  33.980  33.094  1.00  0.00     0.029 A 
ATOM     47  N   UNL A   1      39.037  32.513  33.155  1.00  0.00    -0.354 N 
ATOM     48  C   UNL A   1      39.685  29.749  29.880  1.00  0.00     0.074 A 
ATOM     49  C   UNL A   1      38.730  29.972  28.817  1.00  0.00     0.031 C 
ATOM     50  C   UNL A   1      37.979  34.136  34.271  1.00  0.00     0.029 A 
ATOM     51  C   UNL A   1      39.061  33.162  34.366  1.00  0.00     0.049 A 
ATOM     52  H   UNL A   1      39.686  31.817  32.903  1.00  0.00     0.167 HD
ATOM     53  C   UNL A   1      40.666  28.816  29.845  1.00  0.00     0.037 A 
ATOM     54  C   UNL A   1      39.854  32.975  35.438  1.00  0.00     0.037 A 
ATOM     55  C   UNL A   1      41.627  28.620  30.898  1.00  0.00     0.049 A 
ATOM     56  C   UNL A   1      40.920  31.912  35.385  1.00  0.00     0.074 A 
ATOM     57  C   UNL A   1      42.693  27.741  30.938  1.00  0.00     0.029 A 
ATOM     58  N   UNL A   1      41.633  29.314  32.100  1.00  0.00    -0.354 N 
ATOM     59  N   UNL A   1      41.214  31.084  34.411  1.00  0.00    -0.248 NA
ATOM     60  C   UNL A   1      41.767  31.758  36.576  1.00  0.00     0.031 C 
ATOM     61  C   UNL A   1      43.309  27.859  32.187  1.00  0.00     0.029 A 
ATOM     62  C   UNL A   1      42.671  28.863  32.898  1.00  0.00     0.049 A 
ATOM     63  H   UNL A   1      40.994  30.021  32.349  1.00  0.00     0.167 HD
ATOM     64  C   UNL A   1      42.304  30.346  34.853  1.00  0.00     0.074 A 
ATOM     65  C   UNL A   1      42.618  30.820  36.184  1.00  0.00     0.031 C 
ATOM     66  C   UNL A   1      42.987  29.369  34.209  1.00  0.00     0.037 A 
BRANCH  53  67
ATOM     67  C   UNL A   1      40.746  27.931  28.635  1.00  0.00     0.064 A 
ATOM     68  C   UNL A   1      40.044  26.718  28.559  1.00  0.00     0.173 A 
ATOM     69  C   UNL A   1      41.502  28.321  27.519  1.00  0.00     0.173 A 
ATOM     70  F   UNL A   1      39.315  26.292  29.601  1.00  0.00    -0.203 F 
ATOM     71  C   UNL A   1      40.120  25.916  27.423  1.00  0.00     0.198 A 
ATOM     72  C   UNL A   1      41.546  27.533  26.371  1.00  0.00     0.198 A 
ATOM     73  F   UNL A   1      42.188  29.474  27.535  1.00  0.00    -0.203 F 
ATOM     74  F   UNL A   1      39.482  24.737  27.393  1.00  0.00    -0.200 F 
ATOM     75  C   UNL A   1      40.863  26.329  26.327  1.00  0.00     0.200 A 
ATOM     76  F   UNL A   1      42.252  27.943  25.308  1.00  0.00    -0.200 F 
ATOM     77  F   UNL A   1      40.926  25.561  25.231  1.00  0.00    -0.200 F 
ENDBRANCH  53  67
BRANCH  54  78
ATOM     78  C   UNL A   1      39.680  33.820  36.649  1.00  0.00     0.064 A 
ATOM     79  C   UNL A   1      38.870  33.395  37.712  1.00  0.00     0.173 A 
ATOM     80  C   UNL A   1      40.310  35.068  36.770  1.00  0.00     0.173 A 
ATOM     81  F   UNL A   1      38.232  32.218  37.636  1.00  0.00    -0.203 F 
ATOM     82  C   UNL A   1      38.678  34.195  38.837  1.00  0.00     0.198 A 
ATOM     83  C   UNL A   1      40.143  35.852  37.909  1.00  0.00     0.198 A 
ATOM     84  F   UNL A   1      41.101  35.520  35.785  1.00  0.00    -0.203 F 
ATOM     85  F   UNL A   1      37.858  33.785  39.814  1.00  0.00    -0.200 F 
ATOM     86  C   UNL A   1      39.318  35.421  38.937  1.00  0.00     0.200 A 
ATOM     87  F   UNL A   1      40.777  37.028  38.008  1.00  0.00    -0.200 F 
ATOM     88  F   UNL A   1      39.135  36.189  40.020  1.00  0.00    -0.200 F 
ENDBRANCH  54  78
BRANCH  66  89
ATOM     89  C   UNL A   1      44.189  28.787  34.895  1.00  0.00     0.064 A 
ATOM     90  C   UNL A   1      45.461  29.364  34.782  1.00  0.00     0.173 A 
ATOM     91  C   UNL A   1      44.041  27.682  35.751  1.00  0.00     0.173 A 
ATOM     92  F   UNL A   1      45.659  30.410  33.967  1.00  0.00    -0.203 F 
ATOM     93  C   UNL A   1      46.544  28.850  35.491  1.00  0.00     0.198 A 
ATOM     94  C   UNL A   1      45.117  27.192  36.482  1.00  0.00     0.198 A 
ATOM     95  F   UNL A   1      42.842  27.099  35.899  1.00  0.00    -0.203 F 
ATOM     96  F   UNL A   1      47.759  29.395  35.343  1.00  0.00    -0.200 F 
ATOM     97  C   UNL A   1      46.369  27.773  36.350  1.00  0.00     0.200 A 
ATOM     98  F   UNL A   1      44.941  26.164  37.324  1.00  0.00    -0.200 F 
ATOM     99  F   UNL A   1      47.408  27.296  37.048  1.00  0.00    -0.200 F 
ENDBRANCH  66  89
ENDBRANCH  40  41
ENDBRANCH  32  35
ENDBRANCH  30  31
ENDBRANCH  29  30
ENDBRANCH  28  29
ENDBRANCH   1  28
TORSDOF 16
ENDMDL
MODEL 2
REMARK VINA RESULT:     -11.9      5.297     11.110
REMARK SMILES CCCN1CCC[C@@]2(CCN(c3ccc(C(=O)NCCCCCCNC(=O)c4ccc(-c5c6nc(c(-c7c(F)c(F)c(F)c(F)c7F)c7ccc([nH]7)c(-c7c(F)c(F)c(F)c(F)c7F)c7nc(c(-c8c(F)c(F)c(F)c(F)c8F)c8ccc5[nH]8)C=C7)C=C6)cc4)cn3)C2)C1=O
REMARK SMILES IDX 21 1 20 2 19 3 18 4 16 5 17 6 15 8 12 9 13 10 92 11 14 12
REMARK SMILES IDX 91 13 11 14 4 15 5 16 94 17 6 18 8 19 95 20 7 21 9 22 93 23
REMARK SMILES IDX 10 24 3 25 2 26 1 27 22 28 23 29 24 30 25 31 26 32 27 34
REMARK SMILES IDX 28 35 29 36 90 37 30 38 89 39 31 40 32 41 33 42 83 43 34 44
REMARK SMILES IDX 88 45 82 46 84 47 35 48 87 49 81 50 80 51 36 53 68 54 48 55
REMARK SMILES IDX 67 56 49 57 52 58 66 59 85 60 50 61 51 62 65 64 86 65 53 66
REMARK SMILES IDX 37 67 38 68 46 69 39 70 40 71 44 72 47 73 41 74 42 75 45 76
REMARK SMILES IDX 43 77 69 78 70 79 78 80 71 81 72 82 76 83 79 84 73 85 74 86
REMARK SMILES IDX 77 87 75 88 54 89 55 90 63 91 56 92 57 93 61 94 64 95 58 96
REMARK SMILES IDX 59 97 62 98 60 99
REMARK H PARENT 18 7 25 33 84 52 52 63
REMARK Flexibility Score: inf
ROOT
ATOM      1  C   UNL A   1      35.765  20.161  25.003  1.00  0.00     0.002 C 
ENDROOT
BRANCH   1   2
ATOM      2  C   UNL A   1      35.567  18.703  24.562  1.00  0.00     0.021 C 
BRANCH   2   3
ATOM      3  C   UNL A   1      34.175  18.166  24.905  1.00  0.00     0.116 C 
BRANCH   3   4
ATOM      4  N   UNL A   1      33.293  18.297  23.762  1.00  0.00    -0.352 N 
ATOM      5  C   UNL A   1      32.592  19.349  23.231  1.00  0.00     0.252 C 
ATOM      6  O   UNL A   1      31.907  19.118  22.233  1.00  0.00    -0.269 OA
ATOM      7  H   UNL A   1      33.171  17.455  23.265  1.00  0.00     0.163 HD
BRANCH   5   8
ATOM      8  C   UNL A   1      32.648  20.736  23.757  1.00  0.00     0.058 A 
ATOM      9  C   UNL A   1      32.510  23.255  24.933  1.00  0.00     0.128 A 
ATOM     10  C   UNL A   1      33.042  23.103  23.658  1.00  0.00     0.048 A 
ATOM     11  N   UNL A   1      32.101  22.191  25.644  1.00  0.00    -0.239 NA
ATOM     12  C   UNL A   1      33.164  21.838  23.093  1.00  0.00     0.019 A 
ATOM     13  C   UNL A   1      32.155  20.969  25.038  1.00  0.00     0.127 A 
BRANCH   9  14
ATOM     14  N   UNL A   1      32.435  24.521  25.450  1.00  0.00    -0.356 N 
ATOM     15  N   UNL A   1      31.573  28.243  23.544  1.00  0.00    -0.342 N 
ATOM     16  C   UNL A   1      32.746  29.104  23.538  1.00  0.00     0.119 C 
ATOM     17  C   UNL A   1      31.215  27.540  24.693  1.00  0.00     0.230 C 
ATOM     18  C   UNL A   1      33.950  28.470  24.212  1.00  0.00     0.023 C 
ATOM     19  C   UNL A   1      32.399  26.903  25.432  1.00  0.00     0.069 C 
ATOM     20  O   UNL A   1      30.047  27.297  24.985  1.00  0.00    -0.274 OA
ATOM     21  C   UNL A   1      33.560  27.897  25.569  1.00  0.00     0.021 C 
ATOM     22  C   UNL A   1      31.976  26.320  26.796  1.00  0.00     0.040 C 
ATOM     23  C   UNL A   1      32.820  25.650  24.618  1.00  0.00     0.135 C 
ATOM     24  C   UNL A   1      31.481  24.908  26.463  1.00  0.00     0.119 C 
BRANCH  15  25
ATOM     25  C   UNL A   1      30.729  28.117  22.356  1.00  0.00     0.119 C 
BRANCH  25  26
ATOM     26  C   UNL A   1      29.848  29.308  21.979  1.00  0.00     0.018 C 
ATOM     27  C   UNL A   1      28.468  29.297  22.620  1.00  0.00     0.006 C 
ENDBRANCH  25  26
ENDBRANCH  15  25
ENDBRANCH   9  14
ENDBRANCH   5   8
ENDBRANCH   3   4
ENDBRANCH   2   3
ENDBRANCH   1   2
BRANCH   1  28
ATOM     28  C   UNL A   1      37.198  20.685  24.843  1.00  0.00     0.002 C 
BRANCH  28  29
ATOM     29  C   UNL A   1      38.287  19.619  24.981  1.00  0.00     0.021 C 
BRANCH  29  30
ATOM     30  C   UNL A   1      39.415  20.016  25.925  1.00  0.00     0.116 C 
BRANCH  30  31
ATOM     31  N   UNL A   1      40.436  18.982  25.996  1.00  0.00    -0.352 N 
ATOM     32  C   UNL A   1      41.799  19.118  26.076  1.00  0.00     0.251 C 
ATOM     33  H   UNL A   1      40.103  18.056  25.986  1.00  0.00     0.163 HD
ATOM     34  O   UNL A   1      42.536  18.162  25.875  1.00  0.00    -0.269 OA
BRANCH  32  35
ATOM     35  C   UNL A   1      42.370  20.439  26.403  1.00  0.00     0.039 A 
ATOM     36  C   UNL A   1      42.942  21.208  25.387  1.00  0.00     0.014 A 
ATOM     37  C   UNL A   1      42.331  20.913  27.717  1.00  0.00     0.014 A 
ATOM     38  C   UNL A   1      43.429  22.483  25.680  1.00  0.00     0.010 A 
ATOM     39  C   UNL A   1      42.745  22.210  27.991  1.00  0.00     0.010 A 
ATOM     40  C   UNL A   1      43.304  23.004  26.978  1.00  0.00    -0.014 A 
BRANCH  40  41
ATOM     41  C   UNL A   1      43.764  24.372  27.320  1.00  0.00     0.031 A 
ATOM     42  C   UNL A   1      42.771  25.385  27.815  1.00  0.00     0.074 A 
ATOM     43  C   UNL A   1      45.044  24.726  27.094  1.00  0.00     0.049 A 
ATOM     44  N   UNL A   1      42.928  26.667  28.025  1.00  0.00    -0.248 NA
ATOM     45  C   UNL A   1      41.408  24.895  28.080  1.00  0.00     0.031 C 
ATOM     46  C   UNL A   1      46.091  23.837  26.591  1.00  0.00     0.029 A 
ATOM     47  N   UNL A   1      45.676  25.936  27.239  1.00  0.00    -0.354 N 
ATOM     48  C   UNL A   1      41.683  27.137  28.422  1.00  0.00     0.074 A 
ATOM     49  C   UNL A   1      40.770  26.017  28.376  1.00  0.00     0.031 C 
ATOM     50  C   UNL A   1      47.238  24.528  26.479  1.00  0.00     0.029 A 
ATOM     51  C   UNL A   1      46.994  25.917  26.852  1.00  0.00     0.049 A 
ATOM     52  H   UNL A   1      45.227  26.740  27.587  1.00  0.00     0.167 HD
ATOM     53  C   UNL A   1      41.340  28.390  28.807  1.00  0.00     0.037 A 
ATOM     54  C   UNL A   1      47.896  26.915  26.786  1.00  0.00     0.037 A 
ATOM     55  C   UNL A   1      42.263  29.491  28.872  1.00  0.00     0.049 A 
ATOM     56  C   UNL A   1      47.482  28.305  27.192  1.00  0.00     0.074 A 
ATOM     57  C   UNL A   1      42.030  30.786  29.300  1.00  0.00     0.029 A 
ATOM     58  N   UNL A   1      43.597  29.427  28.494  1.00  0.00    -0.354 N 
ATOM     59  N   UNL A   1      46.317  28.730  27.616  1.00  0.00    -0.248 NA
ATOM     60  C   UNL A   1      48.508  29.355  27.114  1.00  0.00     0.031 C 
ATOM     61  C   UNL A   1      43.206  31.521  29.125  1.00  0.00     0.029 A 
ATOM     62  C   UNL A   1      44.192  30.667  28.655  1.00  0.00     0.049 A 
ATOM     63  H   UNL A   1      44.053  28.621  28.160  1.00  0.00     0.167 HD
ATOM     64  C   UNL A   1      46.481  30.080  27.898  1.00  0.00     0.074 A 
ATOM     65  C   UNL A   1      47.858  30.406  27.594  1.00  0.00     0.031 C 
ATOM     66  C   UNL A   1      45.573  30.966  28.375  1.00  0.00     0.037 A 
BRANCH  53  67
ATOM     67  C   UNL A   1      39.907  28.639  29.178  1.00  0.00     0.064 A 
ATOM     68  C   UNL A   1      39.436  28.439  30.485  1.00  0.00     0.173 A 
ATOM     69  C   UNL A   1      39.002  29.128  28.223  1.00  0.00     0.173 A 
ATOM     70  F   UNL A   1      40.256  27.964  31.434  1.00  0.00    -0.203 F 
ATOM     71  C   UNL A   1      38.106  28.689  30.814  1.00  0.00     0.198 A 
ATOM     72  C   UNL A   1      37.682  29.411  28.565  1.00  0.00     0.198 A 
ATOM     73  F   UNL A   1      39.400  29.344  26.960  1.00  0.00    -0.203 F 
ATOM     74  F   UNL A   1      37.667  28.441  32.055  1.00  0.00    -0.200 F 
ATOM     75  C   UNL A   1      37.233  29.183  29.856  1.00  0.00     0.200 A 
ATOM     76  F   UNL A   1      36.845  29.904  27.642  1.00  0.00    -0.200 F 
ATOM     77  F   UNL A   1      35.957  29.434  30.177  1.00  0.00    -0.200 F 
ENDBRANCH  53  67
BRANCH  54  78
ATOM     78  C   UNL A   1      49.283  26.636  26.328  1.00  0.00     0.064 A 
ATOM     79  C   UNL A   1      50.252  26.158  27.220  1.00  0.00     0.173 A 
ATOM     80  C   UNL A   1      49.672  26.845  24.996  1.00  0.00     0.173 A 
ATOM     81  F   UNL A   1      49.936  25.960  28.509  1.00  0.00    -0.203 F 
ATOM     82  C   UNL A   1      51.562  25.922  26.805  1.00  0.00     0.198 A 
ATOM     83  C   UNL A   1      50.973  26.579  24.574  1.00  0.00     0.198 A 
ATOM     84  F   UNL A   1      48.782  27.295  24.098  1.00  0.00    -0.203 F 
ATOM     85  F   UNL A   1      52.480  25.515  27.692  1.00  0.00    -0.200 F 
ATOM     86  C   UNL A   1      51.920  26.129  25.481  1.00  0.00     0.200 A 
ATOM     87  F   UNL A   1      51.309  26.763  23.291  1.00  0.00    -0.200 F 
ATOM     88  F   UNL A   1      53.178  25.900  25.081  1.00  0.00    -0.200 F 
ENDBRANCH  54  78
BRANCH  66  89
ATOM     89  C   UNL A   1      46.044  32.361  28.669  1.00  0.00     0.064 A 
ATOM     90  C   UNL A   1      45.963  33.389  27.720  1.00  0.00     0.173 A 
ATOM     91  C   UNL A   1      46.504  32.688  29.956  1.00  0.00     0.173 A 
ATOM     92  F   UNL A   1      45.545  33.125  26.473  1.00  0.00    -0.203 F 
ATOM     93  C   UNL A   1      46.334  34.691  28.044  1.00  0.00     0.198 A 
ATOM     94  C   UNL A   1      46.843  33.995  30.286  1.00  0.00     0.198 A 
ATOM     95  F   UNL A   1      46.593  31.740  30.902  1.00  0.00    -0.203 F 
ATOM     96  F   UNL A   1      46.280  35.652  27.113  1.00  0.00    -0.200 F 
ATOM     97  C   UNL A   1      46.762  34.996  29.330  1.00  0.00     0.200 A 
ATOM     98  F   UNL A   1      47.238  34.290  31.532  1.00  0.00    -0.200 F 
ATOM     99  F   UNL A   1      47.096  36.254  29.645  1.00  0.00    -0.200 F 
ENDBRANCH  66  89
ENDBRANCH  40  41
ENDBRANCH  32  35
ENDBRANCH  30  31
ENDBRANCH  29  30
ENDBRANCH  28  29
ENDBRANCH   1  28
TORSDOF 16
ENDMDL
MODEL 3
REMARK VINA RESULT:     -11.9      5.133     11.845
REMARK SMILES CCCN1CCC[C@@]2(CCN(c3ccc(C(=O)NCCCCCCNC(=O)c4ccc(-c5c6nc(c(-c7c(F)c(F)c(F)c(F)c7F)c7ccc([nH]7)c(-c7c(F)c(F)c(F)c(F)c7F)c7nc(c(-c8c(F)c(F)c(F)c(F)c8F)c8ccc5[nH]8)C=C7)C=C6)cc4)cn3)C2)C1=O
REMARK SMILES IDX 21 1 20 2 19 3 18 4 16 5 17 6 15 8 12 9 13 10 92 11 14 12
REMARK SMILES IDX 91 13 11 14 4 15 5 16 94 17 6 18 8 19 95 20 7 21 9 22 93 23
REMARK SMILES IDX 10 24 3 25 2 26 1 27 22 28 23 29 24 30 25 31 26 32 27 34
REMARK SMILES IDX 28 35 29 36 90 37 30 38 89 39 31 40 32 41 33 42 83 43 34 44
REMARK SMILES IDX 88 45 82 46 84 47 35 48 87 49 81 50 80 51 36 53 68 54 48 55
REMARK SMILES IDX 67 56 49 57 52 58 66 59 85 60 50 61 51 62 65 64 86 65 53 66
REMARK SMILES IDX 37 67 38 68 46 69 39 70 40 71 44 72 47 73 41 74 42 75 45 76
REMARK SMILES IDX 43 77 69 78 70 79 78 80 71 81 72 82 76 83 79 84 73 85 74 86
REMARK SMILES IDX 77 87 75 88 54 89 55 90 63 91 56 92 57 93 61 94 64 95 58 96
REMARK SMILES IDX 59 97 62 98 60 99
REMARK H PARENT 18 7 25 33 84 52 52 63
REMARK Flexibility Score: inf
ROOT
ATOM      1  C   UNL A   1      36.708  32.249  31.982  1.00  0.00     0.002 C 
ENDROOT
BRANCH   1   2
ATOM      2  C   UNL A   1      37.173  31.024  32.782  1.00  0.00     0.021 C 
BRANCH   2   3
ATOM      3  C   UNL A   1      37.628  31.382  34.200  1.00  0.00     0.116 C 
BRANCH   3   4
ATOM      4  N   UNL A   1      38.850  32.160  34.153  1.00  0.00    -0.352 N 
ATOM      5  C   UNL A   1      40.172  31.845  34.333  1.00  0.00     0.252 C 
ATOM      6  O   UNL A   1      40.986  32.766  34.233  1.00  0.00    -0.269 OA
ATOM      7  H   UNL A   1      38.699  33.112  33.949  1.00  0.00     0.163 HD
BRANCH   5   8
ATOM      8  C   UNL A   1      40.673  30.472  34.594  1.00  0.00     0.058 A 
ATOM      9  C   UNL A   1      41.378  27.796  34.892  1.00  0.00     0.128 A 
ATOM     10  C   UNL A   1      41.702  28.722  35.877  1.00  0.00     0.048 A 
ATOM     11  N   UNL A   1      40.768  28.178  33.756  1.00  0.00    -0.239 NA
ATOM     12  C   UNL A   1      41.400  30.068  35.703  1.00  0.00     0.019 A 
ATOM     13  C   UNL A   1      40.410  29.490  33.643  1.00  0.00     0.127 A 
BRANCH   9  14
ATOM     14  N   UNL A   1      41.719  26.487  35.105  1.00  0.00    -0.356 N 
ATOM     15  N   UNL A   1      45.551  24.674  35.617  1.00  0.00    -0.342 N 
ATOM     16  C   UNL A   1      45.868  23.809  34.490  1.00  0.00     0.119 C 
ATOM     17  C   UNL A   1      44.285  24.644  36.200  1.00  0.00     0.230 C 
ATOM     18  C   UNL A   1      44.765  23.767  33.447  1.00  0.00     0.023 C 
ATOM     19  C   UNL A   1      43.132  24.570  35.190  1.00  0.00     0.069 C 
ATOM     20  O   UNL A   1      44.101  24.845  37.398  1.00  0.00    -0.274 OA
ATOM     21  C   UNL A   1      43.415  23.519  34.109  1.00  0.00     0.021 C 
ATOM     22  C   UNL A   1      41.776  24.332  35.886  1.00  0.00     0.040 C 
ATOM     23  C   UNL A   1      42.978  25.987  34.574  1.00  0.00     0.135 C 
ATOM     24  C   UNL A   1      41.296  25.737  36.265  1.00  0.00     0.119 C 
BRANCH  15  25
ATOM     25  C   UNL A   1      46.559  25.571  36.181  1.00  0.00     0.119 C 
BRANCH  25  26
ATOM     26  C   UNL A   1      47.152  26.642  35.266  1.00  0.00     0.018 C 
ATOM     27  C   UNL A   1      46.145  27.662  34.756  1.00  0.00     0.006 C 
ENDBRANCH  25  26
ENDBRANCH  15  25
ENDBRANCH   9  14
ENDBRANCH   5   8
ENDBRANCH   3   4
ENDBRANCH   2   3
ENDBRANCH   1   2
BRANCH   1  28
ATOM     28  C   UNL A   1      35.195  32.313  31.739  1.00  0.00     0.002 C 
BRANCH  28  29
ATOM     29  C   UNL A   1      34.773  33.212  30.575  1.00  0.00     0.021 C 
BRANCH  29  30
ATOM     30  C   UNL A   1      35.277  32.734  29.219  1.00  0.00     0.116 C 
BRANCH  30  31
ATOM     31  N   UNL A   1      34.427  31.685  28.675  1.00  0.00    -0.352 N 
ATOM     32  C   UNL A   1      34.782  30.463  28.165  1.00  0.00     0.251 C 
ATOM     33  H   UNL A   1      33.462  31.881  28.675  1.00  0.00     0.163 HD
ATOM     34  O   UNL A   1      33.983  29.799  27.517  1.00  0.00    -0.269 OA
BRANCH  32  35
ATOM     35  C   UNL A   1      36.148  29.958  28.399  1.00  0.00     0.039 A 
ATOM     36  C   UNL A   1      37.118  30.119  27.408  1.00  0.00     0.014 A 
ATOM     37  C   UNL A   1      36.464  29.328  29.606  1.00  0.00     0.014 A 
ATOM     38  C   UNL A   1      38.426  29.696  27.650  1.00  0.00     0.010 A 
ATOM     39  C   UNL A   1      37.781  28.978  29.875  1.00  0.00     0.010 A 
ATOM     40  C   UNL A   1      38.773  29.152  28.897  1.00  0.00    -0.014 A 
BRANCH  40  41
ATOM     41  C   UNL A   1      40.161  28.736  29.211  1.00  0.00     0.031 A 
ATOM     42  C   UNL A   1      41.081  29.694  29.913  1.00  0.00     0.074 A 
ATOM     43  C   UNL A   1      40.617  27.543  28.783  1.00  0.00     0.049 A 
ATOM     44  N   UNL A   1      42.365  29.592  30.146  1.00  0.00    -0.248 NA
ATOM     45  C   UNL A   1      40.482  30.952  30.388  1.00  0.00     0.031 C 
ATOM     46  C   UNL A   1      39.825  26.541  28.069  1.00  0.00     0.029 A 
ATOM     47  N   UNL A   1      41.867  26.981  28.867  1.00  0.00    -0.354 N 
ATOM     48  C   UNL A   1      42.727  30.778  30.772  1.00  0.00     0.074 A 
ATOM     49  C   UNL A   1      41.543  31.605  30.837  1.00  0.00     0.031 C 
ATOM     50  C   UNL A   1      40.604  25.482  27.790  1.00  0.00     0.029 A 
ATOM     51  C   UNL A   1      41.960  25.753  28.257  1.00  0.00     0.049 A 
ATOM     52  H   UNL A   1      42.625  27.417  29.320  1.00  0.00     0.167 HD
ATOM     53  C   UNL A   1      43.938  31.134  31.262  1.00  0.00     0.037 A 
ATOM     54  C   UNL A   1      43.025  24.948  28.078  1.00  0.00     0.037 A 
ATOM     55  C   UNL A   1      45.105  30.294  31.213  1.00  0.00     0.049 A 
ATOM     56  C   UNL A   1      44.367  25.380  28.608  1.00  0.00     0.074 A 
ATOM     57  C   UNL A   1      46.364  30.537  31.728  1.00  0.00     0.029 A 
ATOM     58  N   UNL A   1      45.152  29.045  30.607  1.00  0.00    -0.354 N 
ATOM     59  N   UNL A   1      44.689  26.480  29.245  1.00  0.00    -0.248 NA
ATOM     60  C   UNL A   1      45.493  24.460  28.398  1.00  0.00     0.031 C 
ATOM     61  C   UNL A   1      47.191  29.464  31.384  1.00  0.00     0.029 A 
ATOM     62  C   UNL A   1      46.429  28.519  30.716  1.00  0.00     0.049 A 
ATOM     63  H   UNL A   1      44.393  28.600  30.166  1.00  0.00     0.167 HD
ATOM     64  C   UNL A   1      46.039  26.363  29.551  1.00  0.00     0.074 A 
ATOM     65  C   UNL A   1      46.478  25.087  29.027  1.00  0.00     0.031 C 
ATOM     66  C   UNL A   1      46.839  27.232  30.214  1.00  0.00     0.037 A 
BRANCH  53  67
ATOM     67  C   UNL A   1      44.068  32.494  31.885  1.00  0.00     0.064 A 
ATOM     68  C   UNL A   1      44.070  32.672  33.277  1.00  0.00     0.173 A 
ATOM     69  C   UNL A   1      44.236  33.631  31.080  1.00  0.00     0.173 A 
ATOM     70  F   UNL A   1      43.902  31.621  34.094  1.00  0.00    -0.203 F 
ATOM     71  C   UNL A   1      44.205  33.940  33.838  1.00  0.00     0.198 A 
ATOM     72  C   UNL A   1      44.407  34.892  31.645  1.00  0.00     0.198 A 
ATOM     73  F   UNL A   1      44.249  33.517  29.743  1.00  0.00    -0.203 F 
ATOM     74  F   UNL A   1      44.151  34.091  35.169  1.00  0.00    -0.200 F 
ATOM     75  C   UNL A   1      44.382  35.047  33.021  1.00  0.00     0.200 A 
ATOM     76  F   UNL A   1      44.595  35.958  30.854  1.00  0.00    -0.200 F 
ATOM     77  F   UNL A   1      44.523  36.264  33.563  1.00  0.00    -0.200 F 
ENDBRANCH  53  67
BRANCH  54  78
ATOM     78  C   UNL A   1      42.865  23.647  27.376  1.00  0.00     0.064 A 
ATOM     79  C   UNL A   1      43.263  23.498  26.040  1.00  0.00     0.173 A 
ATOM     80  C   UNL A   1      42.308  22.530  28.018  1.00  0.00     0.173 A 
ATOM     81  F   UNL A   1      43.783  24.541  25.377  1.00  0.00    -0.203 F 
ATOM     82  C   UNL A   1      43.088  22.290  25.366  1.00  0.00     0.198 A 
ATOM     83  C   UNL A   1      42.164  21.315  27.353  1.00  0.00     0.198 A 
ATOM     84  F   UNL A   1      41.917  22.617  29.298  1.00  0.00    -0.203 F 
ATOM     85  F   UNL A   1      43.430  22.192  24.074  1.00  0.00    -0.200 F 
ATOM     86  C   UNL A   1      42.543  21.198  26.024  1.00  0.00     0.200 A 
ATOM     87  F   UNL A   1      41.653  20.258  27.999  1.00  0.00    -0.200 F 
ATOM     88  F   UNL A   1      42.377  20.037  25.378  1.00  0.00    -0.200 F 
ENDBRANCH  54  78
BRANCH  66  89
ATOM     89  C   UNL A   1      48.257  26.815  30.480  1.00  0.00     0.064 A 
ATOM     90  C   UNL A   1      48.592  25.947  31.528  1.00  0.00     0.173 A 
ATOM     91  C   UNL A   1      49.282  27.226  29.612  1.00  0.00     0.173 A 
ATOM     92  F   UNL A   1      47.652  25.538  32.393  1.00  0.00    -0.203 F 
ATOM     93  C   UNL A   1      49.904  25.513  31.705  1.00  0.00     0.198 A 
ATOM     94  C   UNL A   1      50.584  26.765  29.772  1.00  0.00     0.198 A 
ATOM     95  F   UNL A   1      49.011  28.050  28.589  1.00  0.00    -0.203 F 
ATOM     96  F   UNL A   1      50.208  24.710  32.733  1.00  0.00    -0.200 F 
ATOM     97  C   UNL A   1      50.896  25.912  30.820  1.00  0.00     0.200 A 
ATOM     98  F   UNL A   1      51.537  27.137  28.906  1.00  0.00    -0.200 F 
ATOM     99  F   UNL A   1      52.152  25.475  30.979  1.00  0.00    -0.200 F 
ENDBRANCH  66  89
ENDBRANCH  40  41
ENDBRANCH  32  35
ENDBRANCH  30  31
ENDBRANCH  29  30
ENDBRANCH  28  29
ENDBRANCH   1  28
TORSDOF 16
ENDMDL
