MODEL 1
REMARK VINA RESULT:     -12.5      0.000      0.000
REMARK SMILES O=C(NCCCCCCNC(=O)[C@H]1CS[C@]2(c3ccccc3)CCC(=O)N12)c1ccc(-c2c3nc(c(-c4c(F)c(F)c(F)c(F)c4F)c4ccc([nH]4)c(-c4c(F)c(F)c(F)c(F)c4F)c4nc(c(-c5c(F)c(F)c(F)c(F)c5F)c5ccc2[nH]5)C=C4)C=C3)cc1
REMARK SMILES IDX 6 1 5 2 4 3 3 4 1 5 2 6 28 8 29 9 90 10 30 11 89 12 31 13
REMARK SMILES IDX 32 14 33 15 83 16 34 17 88 18 82 19 84 20 35 21 87 22 81 23
REMARK SMILES IDX 80 24 36 26 68 27 48 28 67 29 49 30 52 31 66 32 85 33 50 34
REMARK SMILES IDX 51 35 65 37 86 38 53 39 37 40 38 41 46 42 39 43 40 44 44 45
REMARK SMILES IDX 47 46 41 47 42 48 45 49 43 50 69 51 70 52 78 53 71 54 72 55
REMARK SMILES IDX 76 56 79 57 73 58 74 59 77 60 75 61 54 62 55 63 63 64 56 65
REMARK SMILES IDX 57 66 61 67 64 68 58 69 59 70 62 71 60 72 7 73 8 74 9 75
REMARK SMILES IDX 10 76 11 77 12 79 13 80 14 81 27 82 15 83 16 84 25 85 23 86
REMARK SMILES IDX 24 87 26 88 17 89 18 90 22 91 19 92 21 93 20 94
REMARK H PARENT 3 7 84 25 52 36 10 78
REMARK Flexibility Score: inf
ROOT
ATOM      1  C   UNL A   1      31.479  30.834  26.168  1.00  0.00     0.002 C 
ENDROOT
BRANCH   1   2
ATOM      2  C   UNL A   1      31.370  32.315  26.531  1.00  0.00     0.021 C 
BRANCH   2   3
ATOM      3  C   UNL A   1      32.629  32.931  27.128  1.00  0.00     0.116 C 
BRANCH   3   4
ATOM      4  N   UNL A   1      32.405  34.272  27.638  1.00  0.00    -0.352 N 
ATOM      5  O   UNL A   1      32.594  35.994  29.084  1.00  0.00    -0.269 OA
ATOM      6  C   UNL A   1      33.016  34.912  28.688  1.00  0.00     0.251 C 
ATOM      7  H   UNL A   1      31.717  34.796  27.165  1.00  0.00     0.163 HD
BRANCH   6   8
ATOM      8  C   UNL A   1      34.180  34.289  29.358  1.00  0.00     0.039 A 
ATOM      9  C   UNL A   1      34.004  33.390  30.415  1.00  0.00     0.014 A 
ATOM     10  C   UNL A   1      35.466  34.580  28.893  1.00  0.00     0.014 A 
ATOM     11  C   UNL A   1      35.114  32.865  31.071  1.00  0.00     0.010 A 
ATOM     12  C   UNL A   1      36.577  33.996  29.506  1.00  0.00     0.010 A 
ATOM     13  C   UNL A   1      36.410  33.144  30.608  1.00  0.00    -0.014 A 
BRANCH  13  14
ATOM     14  C   UNL A   1      37.566  32.445  31.222  1.00  0.00     0.031 A 
ATOM     15  C   UNL A   1      38.062  32.806  32.591  1.00  0.00     0.074 A 
ATOM     16  C   UNL A   1      38.165  31.465  30.517  1.00  0.00     0.049 A 
ATOM     17  N   UNL A   1      39.056  32.288  33.269  1.00  0.00    -0.248 NA
ATOM     18  C   UNL A   1      37.362  33.892  33.293  1.00  0.00     0.031 C 
ATOM     19  C   UNL A   1      37.783  31.050  29.165  1.00  0.00     0.029 A 
ATOM     20  N   UNL A   1      39.212  30.638  30.835  1.00  0.00    -0.354 N 
ATOM     21  C   UNL A   1      39.113  32.990  34.464  1.00  0.00     0.074 A 
ATOM     22  C   UNL A   1      38.062  33.987  34.416  1.00  0.00     0.031 C 
ATOM     23  C   UNL A   1      38.560  30.027  28.784  1.00  0.00     0.029 A 
ATOM     24  C   UNL A   1      39.528  29.749  29.838  1.00  0.00     0.049 A 
ATOM     25  H   UNL A   1      39.690  30.679  31.695  1.00  0.00     0.167 HD
ATOM     26  C   UNL A   1      39.962  32.813  35.504  1.00  0.00     0.037 A 
ATOM     27  C   UNL A   1      40.501  28.824  29.771  1.00  0.00     0.037 A 
ATOM     28  C   UNL A   1      40.990  31.803  35.553  1.00  0.00     0.049 A 
ATOM     29  C   UNL A   1      41.430  28.658  30.939  1.00  0.00     0.074 A 
ATOM     30  C   UNL A   1      41.857  31.505  36.591  1.00  0.00     0.029 A 
ATOM     31  N   UNL A   1      41.291  30.931  34.518  1.00  0.00    -0.354 N 
ATOM     32  N   UNL A   1      41.436  29.293  32.084  1.00  0.00    -0.248 NA
ATOM     33  C   UNL A   1      42.488  27.648  30.803  1.00  0.00     0.031 C 
ATOM     34  C   UNL A   1      42.712  30.482  36.167  1.00  0.00     0.029 A 
ATOM     35  C   UNL A   1      42.351  30.114  34.881  1.00  0.00     0.049 A 
ATOM     36  H   UNL A   1      40.824  30.898  33.652  1.00  0.00     0.167 HD
ATOM     37  C   UNL A   1      42.490  28.759  32.809  1.00  0.00     0.074 A 
ATOM     38  C   UNL A   1      43.084  27.727  31.984  1.00  0.00     0.031 C 
ATOM     39  C   UNL A   1      42.932  29.098  34.044  1.00  0.00     0.037 A 
BRANCH  26  40
ATOM     40  C   UNL A   1      39.833  33.729  36.685  1.00  0.00     0.064 A 
ATOM     41  C   UNL A   1      40.508  34.956  36.739  1.00  0.00     0.173 A 
ATOM     42  C   UNL A   1      38.953  33.415  37.731  1.00  0.00     0.173 A 
ATOM     43  F   UNL A   1      41.367  35.299  35.767  1.00  0.00    -0.203 F 
ATOM     44  C   UNL A   1      40.312  35.834  37.803  1.00  0.00     0.198 A 
ATOM     45  C   UNL A   1      38.744  34.304  38.783  1.00  0.00     0.198 A 
ATOM     46  F   UNL A   1      38.278  32.255  37.722  1.00  0.00    -0.203 F 
ATOM     47  F   UNL A   1      40.982  36.994  37.846  1.00  0.00    -0.200 F 
ATOM     48  C   UNL A   1      39.423  35.511  38.819  1.00  0.00     0.200 A 
ATOM     49  F   UNL A   1      37.876  33.995  39.757  1.00  0.00    -0.200 F 
ATOM     50  F   UNL A   1      39.223  36.365  39.832  1.00  0.00    -0.200 F 
ENDBRANCH  26  40
BRANCH  27  51
ATOM     51  C   UNL A   1      40.651  27.996  28.547  1.00  0.00     0.064 A 
ATOM     52  C   UNL A   1      41.415  28.443  27.461  1.00  0.00     0.173 A 
ATOM     53  C   UNL A   1      40.038  26.740  28.443  1.00  0.00     0.173 A 
ATOM     54  F   UNL A   1      42.004  29.648  27.507  1.00  0.00    -0.203 F 
ATOM     55  C   UNL A   1      41.545  27.671  26.309  1.00  0.00     0.198 A 
ATOM     56  C   UNL A   1      40.192  25.956  27.302  1.00  0.00     0.198 A 
ATOM     57  F   UNL A   1      39.300  26.266  29.457  1.00  0.00    -0.203 F 
ATOM     58  F   UNL A   1      42.245  28.140  25.267  1.00  0.00    -0.200 F 
ATOM     59  C   UNL A   1      40.939  26.426  26.232  1.00  0.00     0.200 A 
ATOM     60  F   UNL A   1      39.617  24.747  27.240  1.00  0.00    -0.200 F 
ATOM     61  F   UNL A   1      41.068  25.682  25.126  1.00  0.00    -0.200 F 
ENDBRANCH  27  51
BRANCH  39  62
ATOM     62  C   UNL A   1      44.110  28.337  34.574  1.00  0.00     0.064 A 
ATOM     63  C   UNL A   1      43.947  27.128  35.265  1.00  0.00     0.173 A 
ATOM     64  C   UNL A   1      45.414  28.812  34.372  1.00  0.00     0.173 A 
ATOM     65  F   UNL A   1      42.718  26.644  35.496  1.00  0.00    -0.203 F 
ATOM     66  C   UNL A   1      45.048  26.433  35.757  1.00  0.00     0.198 A 
ATOM     67  C   UNL A   1      46.513  28.102  34.844  1.00  0.00     0.198 A 
ATOM     68  F   UNL A   1      45.621  29.964  33.715  1.00  0.00    -0.203 F 
ATOM     69  F   UNL A   1      44.867  25.304  36.454  1.00  0.00    -0.200 F 
ATOM     70  C   UNL A   1      46.330  26.917  35.541  1.00  0.00     0.200 A 
ATOM     71  F   UNL A   1      47.752  28.566  34.628  1.00  0.00    -0.200 F 
ATOM     72  F   UNL A   1      47.389  26.247  36.016  1.00  0.00    -0.200 F 
ENDBRANCH  39  62
ENDBRANCH  13  14
ENDBRANCH   6   8
ENDBRANCH   3   4
ENDBRANCH   2   3
ENDBRANCH   1   2
BRANCH   1  73
ATOM     73  C   UNL A   1      32.279  29.964  27.142  1.00  0.00     0.002 C 
BRANCH  73  74
ATOM     74  C   UNL A   1      31.648  28.619  27.530  1.00  0.00     0.021 C 
BRANCH  74  75
ATOM     75  C   UNL A   1      31.673  27.548  26.443  1.00  0.00     0.116 C 
BRANCH  75  76
ATOM     76  N   UNL A   1      33.006  27.034  26.212  1.00  0.00    -0.354 N 
ATOM     77  C   UNL A   1      33.431  25.950  25.508  1.00  0.00     0.243 C 
ATOM     78  H   UNL A   1      33.726  27.556  26.635  1.00  0.00     0.163 HD
ATOM     79  O   UNL A   1      34.653  25.824  25.398  1.00  0.00    -0.273 OA
BRANCH  77  80
ATOM     80  C   UNL A   1      32.435  24.923  24.922  1.00  0.00     0.186 C 
ATOM     81  C   UNL A   1      32.541  24.830  23.391  1.00  0.00     0.107 C 
ATOM     82  N   UNL A   1      32.544  23.563  25.484  1.00  0.00    -0.311 N 
ATOM     83  S   UNL A   1      32.306  23.074  22.959  1.00  0.00    -0.126 SA
ATOM     84  C   UNL A   1      32.933  22.479  24.580  1.00  0.00     0.115 C 
ATOM     85  C   UNL A   1      31.492  23.181  26.325  1.00  0.00     0.224 C 
ATOM     86  C   UNL A   1      32.117  21.278  25.103  1.00  0.00     0.055 C 
ATOM     87  C   UNL A   1      30.952  21.862  25.861  1.00  0.00     0.104 C 
ATOM     88  O   UNL A   1      30.935  23.880  27.159  1.00  0.00    -0.275 OA
BRANCH  84  89
ATOM     89  C   UNL A   1      34.439  22.153  24.493  1.00  0.00    -0.012 A 
ATOM     90  C   UNL A   1      35.326  22.885  23.688  1.00  0.00     0.007 A 
ATOM     91  C   UNL A   1      35.005  21.048  25.169  1.00  0.00     0.007 A 
ATOM     92  C   UNL A   1      36.690  22.576  23.593  1.00  0.00     0.000 A 
ATOM     93  C   UNL A   1      36.371  20.742  25.093  1.00  0.00     0.000 A 
ATOM     94  C   UNL A   1      37.216  21.511  24.306  1.00  0.00     0.000 A 
ENDBRANCH  84  89
ENDBRANCH  77  80
ENDBRANCH  75  76
ENDBRANCH  74  75
ENDBRANCH  73  74
ENDBRANCH   1  73
TORSDOF 14
ENDMDL
MODEL 2
REMARK VINA RESULT:     -12.4      0.662      7.377
REMARK SMILES O=C(NCCCCCCNC(=O)[C@H]1CS[C@]2(c3ccccc3)CCC(=O)N12)c1ccc(-c2c3nc(c(-c4c(F)c(F)c(F)c(F)c4F)c4ccc([nH]4)c(-c4c(F)c(F)c(F)c(F)c4F)c4nc(c(-c5c(F)c(F)c(F)c(F)c5F)c5ccc2[nH]5)C=C4)C=C3)cc1
REMARK SMILES IDX 6 1 5 2 4 3 3 4 1 5 2 6 28 8 29 9 90 10 30 11 89 12 31 13
REMARK SMILES IDX 32 14 33 15 83 16 34 17 88 18 82 19 84 20 35 21 87 22 81 23
REMARK SMILES IDX 80 24 36 26 68 27 48 28 67 29 49 30 52 31 66 32 85 33 50 34
REMARK SMILES IDX 51 35 65 37 86 38 53 39 37 40 38 41 46 42 39 43 40 44 44 45
REMARK SMILES IDX 47 46 41 47 42 48 45 49 43 50 69 51 70 52 78 53 71 54 72 55
REMARK SMILES IDX 76 56 79 57 73 58 74 59 77 60 75 61 54 62 55 63 63 64 56 65
REMARK SMILES IDX 57 66 61 67 64 68 58 69 59 70 62 71 60 72 7 73 8 74 9 75
REMARK SMILES IDX 10 76 11 77 12 79 13 80 14 81 27 82 15 83 16 84 25 85 23 86
REMARK SMILES IDX 24 87 26 88 17 89 18 90 22 91 19 92 21 93 20 94
REMARK H PARENT 3 7 84 25 52 36 10 78
REMARK Flexibility Score: inf
ROOT
ATOM      1  C   UNL A   1      31.538  30.812  26.145  1.00  0.00     0.002 C 
ENDROOT
BRANCH   1   2
ATOM      2  C   UNL A   1      31.386  32.251  26.642  1.00  0.00     0.021 C 
BRANCH   2   3
ATOM      3  C   UNL A   1      32.648  32.872  27.225  1.00  0.00     0.116 C 
BRANCH   3   4
ATOM      4  N   UNL A   1      32.446  34.243  27.658  1.00  0.00    -0.352 N 
ATOM      5  O   UNL A   1      32.649  36.036  29.012  1.00  0.00    -0.269 OA
ATOM      6  C   UNL A   1      33.054  34.926  28.683  1.00  0.00     0.251 C 
ATOM      7  H   UNL A   1      31.778  34.755  27.145  1.00  0.00     0.163 HD
BRANCH   6   8
ATOM      8  C   UNL A   1      34.191  34.315  29.406  1.00  0.00     0.039 A 
ATOM      9  C   UNL A   1      33.982  33.530  30.544  1.00  0.00     0.014 A 
ATOM     10  C   UNL A   1      35.486  34.500  28.912  1.00  0.00     0.014 A 
ATOM     11  C   UNL A   1      35.070  33.018  31.244  1.00  0.00     0.010 A 
ATOM     12  C   UNL A   1      36.574  33.926  29.576  1.00  0.00     0.010 A 
ATOM     13  C   UNL A   1      36.375  33.191  30.754  1.00  0.00    -0.014 A 
BRANCH  13  14
ATOM     14  C   UNL A   1      37.501  32.500  31.429  1.00  0.00     0.031 A 
ATOM     15  C   UNL A   1      38.220  31.354  30.781  1.00  0.00     0.074 A 
ATOM     16  C   UNL A   1      37.872  32.933  32.651  1.00  0.00     0.049 A 
ATOM     17  N   UNL A   1      39.225  30.650  31.238  1.00  0.00    -0.248 NA
ATOM     18  C   UNL A   1      37.750  30.935  29.452  1.00  0.00     0.031 C 
ATOM     19  C   UNL A   1      37.225  34.022  33.387  1.00  0.00     0.029 A 
ATOM     20  N   UNL A   1      38.879  32.520  33.485  1.00  0.00    -0.354 N 
ATOM     21  C   UNL A   1      39.498  29.697  30.266  1.00  0.00     0.074 A 
ATOM     22  C   UNL A   1      38.542  29.900  29.197  1.00  0.00     0.031 C 
ATOM     23  C   UNL A   1      37.871  34.213  34.546  1.00  0.00     0.029 A 
ATOM     24  C   UNL A   1      38.941  33.229  34.659  1.00  0.00     0.049 A 
ATOM     25  H   UNL A   1      39.498  31.787  33.262  1.00  0.00     0.167 HD
ATOM     26  C   UNL A   1      40.463  28.746  30.269  1.00  0.00     0.037 A 
ATOM     27  C   UNL A   1      39.756  33.090  35.720  1.00  0.00     0.037 A 
ATOM     28  C   UNL A   1      41.426  28.566  31.326  1.00  0.00     0.049 A 
ATOM     29  C   UNL A   1      40.810  32.021  35.693  1.00  0.00     0.074 A 
ATOM     30  C   UNL A   1      42.481  27.672  31.389  1.00  0.00     0.029 A 
ATOM     31  N   UNL A   1      41.447  29.292  32.509  1.00  0.00    -0.354 N 
ATOM     32  N   UNL A   1      41.091  31.164  34.743  1.00  0.00    -0.248 NA
ATOM     33  C   UNL A   1      41.657  31.899  36.886  1.00  0.00     0.031 C 
ATOM     34  C   UNL A   1      43.114  27.826  32.627  1.00  0.00     0.029 A 
ATOM     35  C   UNL A   1      42.479  28.845  33.319  1.00  0.00     0.049 A 
ATOM     36  H   UNL A   1      40.821  30.015  32.739  1.00  0.00     0.167 HD
ATOM     37  C   UNL A   1      42.150  30.405  35.218  1.00  0.00     0.074 A 
ATOM     38  C   UNL A   1      42.479  30.923  36.530  1.00  0.00     0.031 C 
ATOM     39  C   UNL A   1      42.787  29.368  34.624  1.00  0.00     0.037 A 
BRANCH  26  40
ATOM     40  C   UNL A   1      40.536  27.811  29.098  1.00  0.00     0.064 A 
ATOM     41  C   UNL A   1      41.434  28.023  28.044  1.00  0.00     0.173 A 
ATOM     42  C   UNL A   1      39.762  26.641  29.078  1.00  0.00     0.173 A 
ATOM     43  F   UNL A   1      42.192  29.131  28.014  1.00  0.00    -0.203 F 
ATOM     44  C   UNL A   1      41.551  27.100  27.007  1.00  0.00     0.198 A 
ATOM     45  C   UNL A   1      39.895  25.712  28.050  1.00  0.00     0.198 A 
ATOM     46  F   UNL A   1      38.891  26.389  30.068  1.00  0.00    -0.203 F 
ATOM     47  F   UNL A   1      42.402  27.332  25.998  1.00  0.00    -0.200 F 
ATOM     48  C   UNL A   1      40.787  25.942  27.015  1.00  0.00     0.200 A 
ATOM     49  F   UNL A   1      39.165  24.587  28.067  1.00  0.00    -0.200 F 
ATOM     50  F   UNL A   1      40.913  25.047  26.025  1.00  0.00    -0.200 F 
ENDBRANCH  26  40
BRANCH  27  51
ATOM     51  C   UNL A   1      39.593  33.979  36.898  1.00  0.00     0.064 A 
ATOM     52  C   UNL A   1      38.821  33.586  37.999  1.00  0.00     0.173 A 
ATOM     53  C   UNL A   1      40.212  35.236  36.947  1.00  0.00     0.173 A 
ATOM     54  F   UNL A   1      38.194  32.400  37.988  1.00  0.00    -0.203 F 
ATOM     55  C   UNL A   1      38.660  34.427  39.098  1.00  0.00     0.198 A 
ATOM     56  C   UNL A   1      40.074  36.063  38.059  1.00  0.00     0.198 A 
ATOM     57  F   UNL A   1      40.965  35.655  35.920  1.00  0.00    -0.203 F 
ATOM     58  F   UNL A   1      37.882  34.046  40.120  1.00  0.00    -0.200 F 
ATOM     59  C   UNL A   1      39.291  35.661  39.131  1.00  0.00     0.200 A 
ATOM     60  F   UNL A   1      40.699  37.248  38.092  1.00  0.00    -0.200 F 
ATOM     61  F   UNL A   1      39.140  36.466  40.191  1.00  0.00    -0.200 F 
ENDBRANCH  27  51
BRANCH  39  62
ATOM     62  C   UNL A   1      43.908  28.733  35.391  1.00  0.00     0.064 A 
ATOM     63  C   UNL A   1      45.229  29.184  35.260  1.00  0.00     0.173 A 
ATOM     64  C   UNL A   1      43.656  27.677  36.279  1.00  0.00     0.173 A 
ATOM     65  F   UNL A   1      45.520  30.180  34.409  1.00  0.00    -0.203 F 
ATOM     66  C   UNL A   1      46.263  28.584  35.973  1.00  0.00     0.198 A 
ATOM     67  C   UNL A   1      44.688  27.097  37.009  1.00  0.00     0.198 A 
ATOM     68  F   UNL A   1      42.407  27.213  36.440  1.00  0.00    -0.203 F 
ATOM     69  F   UNL A   1      47.524  29.000  35.798  1.00  0.00    -0.200 F 
ATOM     70  C   UNL A   1      45.990  27.545  36.850  1.00  0.00     0.200 A 
ATOM     71  F   UNL A   1      44.423  26.098  37.864  1.00  0.00    -0.200 F 
ATOM     72  F   UNL A   1      46.987  26.968  37.537  1.00  0.00    -0.200 F 
ENDBRANCH  39  62
ENDBRANCH  13  14
ENDBRANCH   6   8
ENDBRANCH   3   4
ENDBRANCH   2   3
ENDBRANCH   1   2
BRANCH   1  73
ATOM     73  C   UNL A   1      32.287  29.858  27.079  1.00  0.00     0.002 C 
BRANCH  73  74
ATOM     74  C   UNL A   1      31.603  28.515  27.371  1.00  0.00     0.021 C 
BRANCH  74  75
ATOM     75  C   UNL A   1      31.440  27.589  26.169  1.00  0.00     0.116 C 
BRANCH  75  76
ATOM     76  N   UNL A   1      32.706  27.281  25.540  1.00  0.00    -0.354 N 
ATOM     77  C   UNL A   1      33.063  26.261  24.713  1.00  0.00     0.243 C 
ATOM     78  H   UNL A   1      33.430  27.916  25.744  1.00  0.00     0.163 HD
ATOM     79  O   UNL A   1      34.202  26.323  24.242  1.00  0.00    -0.273 OA
BRANCH  77  80
ATOM     80  C   UNL A   1      32.107  25.082  24.422  1.00  0.00     0.186 C 
ATOM     81  C   UNL A   1      32.126  24.682  22.937  1.00  0.00     0.107 C 
ATOM     82  N   UNL A   1      32.344  23.876  25.237  1.00  0.00    -0.311 N 
ATOM     83  S   UNL A   1      31.987  22.864  22.887  1.00  0.00    -0.126 SA
ATOM     84  C   UNL A   1      32.752  22.652  24.544  1.00  0.00     0.115 C 
ATOM     85  C   UNL A   1      31.374  23.617  26.213  1.00  0.00     0.224 C 
ATOM     86  C   UNL A   1      32.054  21.541  25.358  1.00  0.00     0.055 C 
ATOM     87  C   UNL A   1      30.899  22.203  26.067  1.00  0.00     0.104 C 
ATOM     88  O   UNL A   1      30.821  24.441  26.927  1.00  0.00    -0.275 OA
BRANCH  84  89
ATOM     89  C   UNL A   1      34.269  22.399  24.414  1.00  0.00    -0.012 A 
ATOM     90  C   UNL A   1      35.070  23.074  23.480  1.00  0.00     0.007 A 
ATOM     91  C   UNL A   1      34.932  21.417  25.185  1.00  0.00     0.007 A 
ATOM     92  C   UNL A   1      36.444  22.830  23.348  1.00  0.00     0.000 A 
ATOM     93  C   UNL A   1      36.308  21.177  25.071  1.00  0.00     0.000 A 
ATOM     94  C   UNL A   1      37.067  21.889  24.153  1.00  0.00     0.000 A 
ENDBRANCH  84  89
ENDBRANCH  77  80
ENDBRANCH  75  76
ENDBRANCH  74  75
ENDBRANCH  73  74
ENDBRANCH   1  73
TORSDOF 14
ENDMDL
MODEL 3
REMARK VINA RESULT:     -12.4      5.124     10.456
REMARK SMILES O=C(NCCCCCCNC(=O)[C@H]1CS[C@]2(c3ccccc3)CCC(=O)N12)c1ccc(-c2c3nc(c(-c4c(F)c(F)c(F)c(F)c4F)c4ccc([nH]4)c(-c4c(F)c(F)c(F)c(F)c4F)c4nc(c(-c5c(F)c(F)c(F)c(F)c5F)c5ccc2[nH]5)C=C4)C=C3)cc1
REMARK SMILES IDX 6 1 5 2 4 3 3 4 1 5 2 6 28 8 29 9 90 10 30 11 89 12 31 13
REMARK SMILES IDX 32 14 33 15 83 16 34 17 88 18 82 19 84 20 35 21 87 22 81 23
REMARK SMILES IDX 80 24 36 26 68 27 48 28 67 29 49 30 52 31 66 32 85 33 50 34
REMARK SMILES IDX 51 35 65 37 86 38 53 39 37 40 38 41 46 42 39 43 40 44 44 45
REMARK SMILES IDX 47 46 41 47 42 48 45 49 43 50 69 51 70 52 78 53 71 54 72 55
REMARK SMILES IDX 76 56 79 57 73 58 74 59 77 60 75 61 54 62 55 63 63 64 56 65
REMARK SMILES IDX 57 66 61 67 64 68 58 69 59 70 62 71 60 72 7 73 8 74 9 75
REMARK SMILES IDX 10 76 11 77 12 79 13 80 14 81 27 82 15 83 16 84 25 85 23 86
REMARK SMILES IDX 24 87 26 88 17 89 18 90 22 91 19 92 21 93 20 94
REMARK H PARENT 3 7 84 25 52 36 10 78
REMARK Flexibility Score: inf
ROOT
ATOM      1  C   UNL A   1      37.328  20.944  24.622  1.00  0.00     0.002 C 
ENDROOT
BRANCH   1   2
ATOM      2  C   UNL A   1      38.198  19.740  24.986  1.00  0.00     0.021 C 
BRANCH   2   3
ATOM      3  C   UNL A   1      39.283  20.012  26.018  1.00  0.00     0.116 C 
BRANCH   3   4
ATOM      4  N   UNL A   1      40.404  19.095  25.903  1.00  0.00    -0.352 N 
ATOM      5  O   UNL A   1      42.568  18.488  25.702  1.00  0.00    -0.269 OA
ATOM      6  C   UNL A   1      41.750  19.359  25.979  1.00  0.00     0.251 C 
ATOM      7  H   UNL A   1      40.165  18.152  25.747  1.00  0.00     0.163 HD
BRANCH   6   8
ATOM      8  C   UNL A   1      42.218  20.705  26.381  1.00  0.00     0.039 A 
ATOM      9  C   UNL A   1      42.567  21.661  25.423  1.00  0.00     0.014 A 
ATOM     10  C   UNL A   1      42.269  21.026  27.741  1.00  0.00     0.014 A 
ATOM     11  C   UNL A   1      43.064  22.897  25.824  1.00  0.00     0.010 A 
ATOM     12  C   UNL A   1      42.701  22.292  28.142  1.00  0.00     0.010 A 
ATOM     13  C   UNL A   1      43.113  23.234  27.187  1.00  0.00    -0.014 A 
BRANCH  13  14
ATOM     14  C   UNL A   1      43.495  24.613  27.580  1.00  0.00     0.031 A 
ATOM     15  C   UNL A   1      44.931  25.040  27.646  1.00  0.00     0.074 A 
ATOM     16  C   UNL A   1      42.511  25.485  27.876  1.00  0.00     0.049 A 
ATOM     17  N   UNL A   1      45.427  26.209  27.968  1.00  0.00    -0.248 NA
ATOM     18  C   UNL A   1      45.946  24.028  27.318  1.00  0.00     0.031 C 
ATOM     19  C   UNL A   1      41.080  25.169  27.872  1.00  0.00     0.029 A 
ATOM     20  N   UNL A   1      42.557  26.808  28.231  1.00  0.00    -0.354 N 
ATOM     21  C   UNL A   1      46.807  26.072  27.898  1.00  0.00     0.074 A 
ATOM     22  C   UNL A   1      47.074  24.699  27.518  1.00  0.00     0.031 C 
ATOM     23  C   UNL A   1      40.385  26.275  28.174  1.00  0.00     0.029 A 
ATOM     24  C   UNL A   1      41.319  27.361  28.446  1.00  0.00     0.049 A 
ATOM     25  H   UNL A   1      43.397  27.314  28.322  1.00  0.00     0.167 HD
ATOM     26  C   UNL A   1      47.757  27.010  28.124  1.00  0.00     0.037 A 
ATOM     27  C   UNL A   1      40.972  28.600  28.837  1.00  0.00     0.037 A 
ATOM     28  C   UNL A   1      47.482  28.380  28.478  1.00  0.00     0.049 A 
ATOM     29  C   UNL A   1      42.051  29.613  29.087  1.00  0.00     0.074 A 
ATOM     30  C   UNL A   1      48.377  29.419  28.665  1.00  0.00     0.029 A 
ATOM     31  N   UNL A   1      46.215  28.899  28.703  1.00  0.00    -0.354 N 
ATOM     32  N   UNL A   1      43.348  29.483  28.962  1.00  0.00    -0.248 NA
ATOM     33  C   UNL A   1      41.617  30.943  29.534  1.00  0.00     0.031 C 
ATOM     34  C   UNL A   1      47.656  30.556  29.046  1.00  0.00     0.029 A 
ATOM     35  C   UNL A   1      46.308  30.236  29.056  1.00  0.00     0.049 A 
ATOM     36  H   UNL A   1      45.375  28.392  28.626  1.00  0.00     0.167 HD
ATOM     37  C   UNL A   1      43.888  30.713  29.308  1.00  0.00     0.074 A 
ATOM     38  C   UNL A   1      42.774  31.585  29.620  1.00  0.00     0.031 C 
ATOM     39  C   UNL A   1      45.189  31.085  29.369  1.00  0.00     0.037 A 
BRANCH  26  40
ATOM     40  C   UNL A   1      49.195  26.600  28.006  1.00  0.00     0.064 A 
ATOM     41  C   UNL A   1      49.835  26.516  26.762  1.00  0.00     0.173 A 
ATOM     42  C   UNL A   1      49.964  26.379  29.159  1.00  0.00     0.173 A 
ATOM     43  F   UNL A   1      49.142  26.713  25.631  1.00  0.00    -0.203 F 
ATOM     44  C   UNL A   1      51.194  26.218  26.676  1.00  0.00     0.198 A 
ATOM     45  C   UNL A   1      51.326  26.100  29.069  1.00  0.00     0.198 A 
ATOM     46  F   UNL A   1      49.400  26.454  30.374  1.00  0.00    -0.203 F 
ATOM     47  F   UNL A   1      51.782  26.123  25.475  1.00  0.00    -0.200 F 
ATOM     48  C   UNL A   1      51.939  26.019  27.829  1.00  0.00     0.200 A 
ATOM     49  F   UNL A   1      52.047  25.920  30.185  1.00  0.00    -0.200 F 
ATOM     50  F   UNL A   1      53.249  25.750  27.743  1.00  0.00    -0.200 F 
ENDBRANCH  26  40
BRANCH  27  51
ATOM     51  C   UNL A   1      39.539  28.941  29.028  1.00  0.00     0.064 A 
ATOM     52  C   UNL A   1      38.756  29.396  27.960  1.00  0.00     0.173 A 
ATOM     53  C   UNL A   1      38.926  28.812  30.282  1.00  0.00     0.173 A 
ATOM     54  F   UNL A   1      39.305  29.555  26.747  1.00  0.00    -0.203 F 
ATOM     55  C   UNL A   1      37.415  29.728  28.144  1.00  0.00     0.198 A 
ATOM     56  C   UNL A   1      37.578  29.116  30.459  1.00  0.00     0.198 A 
ATOM     57  F   UNL A   1      39.632  28.375  31.335  1.00  0.00    -0.203 F 
ATOM     58  F   UNL A   1      36.699  30.203  27.116  1.00  0.00    -0.200 F 
ATOM     59  C   UNL A   1      36.826  29.582  29.391  1.00  0.00     0.200 A 
ATOM     60  F   UNL A   1      37.009  28.957  31.662  1.00  0.00    -0.200 F 
ATOM     61  F   UNL A   1      35.535  29.895  29.566  1.00  0.00    -0.200 F 
ENDBRANCH  27  51
BRANCH  39  62
ATOM     62  C   UNL A   1      45.470  32.498  29.783  1.00  0.00     0.064 A 
ATOM     63  C   UNL A   1      45.697  32.834  31.126  1.00  0.00     0.173 A 
ATOM     64  C   UNL A   1      45.532  33.522  28.827  1.00  0.00     0.173 A 
ATOM     65  F   UNL A   1      45.631  31.890  32.077  1.00  0.00    -0.203 F 
ATOM     66  C   UNL A   1      45.952  34.150  31.500  1.00  0.00     0.198 A 
ATOM     67  C   UNL A   1      45.811  34.832  29.202  1.00  0.00     0.198 A 
ATOM     68  F   UNL A   1      45.324  33.250  27.530  1.00  0.00    -0.203 F 
ATOM     69  F   UNL A   1      46.120  34.456  32.793  1.00  0.00    -0.200 F 
ATOM     70  C   UNL A   1      46.014  35.146  30.537  1.00  0.00     0.200 A 
ATOM     71  F   UNL A   1      45.880  35.794  28.270  1.00  0.00    -0.200 F 
ATOM     72  F   UNL A   1      46.260  36.413  30.899  1.00  0.00    -0.200 F 
ENDBRANCH  39  62
ENDBRANCH  13  14
ENDBRANCH   6   8
ENDBRANCH   3   4
ENDBRANCH   2   3
ENDBRANCH   1   2
BRANCH   1  73
ATOM     73  C   UNL A   1      35.980  21.038  25.343  1.00  0.00     0.002 C 
BRANCH  73  74
ATOM     74  C   UNL A   1      34.843  20.177  24.775  1.00  0.00     0.021 C 
BRANCH  74  75
ATOM     75  C   UNL A   1      33.456  20.814  24.819  1.00  0.00     0.116 C 
BRANCH  75  76
ATOM     76  N   UNL A   1      33.332  21.779  25.890  1.00  0.00    -0.354 N 
ATOM     77  C   UNL A   1      32.732  23.000  25.921  1.00  0.00     0.243 C 
ATOM     78  H   UNL A   1      33.752  21.507  26.738  1.00  0.00     0.163 HD
ATOM     79  O   UNL A   1      32.694  23.554  27.023  1.00  0.00    -0.273 OA
BRANCH  77  80
ATOM     80  C   UNL A   1      32.173  23.660  24.640  1.00  0.00     0.186 C 
ATOM     81  C   UNL A   1      30.711  24.102  24.814  1.00  0.00     0.107 C 
ATOM     82  N   UNL A   1      32.956  24.809  24.143  1.00  0.00    -0.311 N 
ATOM     83  S   UNL A   1      30.534  25.681  23.916  1.00  0.00    -0.126 SA
ATOM     84  C   UNL A   1      32.306  26.121  24.123  1.00  0.00     0.115 C 
ATOM     85  C   UNL A   1      33.677  24.572  22.966  1.00  0.00     0.224 C 
ATOM     86  C   UNL A   1      32.884  26.777  22.851  1.00  0.00     0.055 C 
ATOM     87  C   UNL A   1      33.353  25.646  21.971  1.00  0.00     0.104 C 
ATOM     88  O   UNL A   1      34.293  23.556  22.681  1.00  0.00    -0.275 OA
BRANCH  84  89
ATOM     89  C   UNL A   1      32.503  27.013  25.367  1.00  0.00    -0.012 A 
ATOM     90  C   UNL A   1      31.466  27.285  26.274  1.00  0.00     0.007 A 
ATOM     91  C   UNL A   1      33.727  27.669  25.631  1.00  0.00     0.007 A 
ATOM     92  C   UNL A   1      31.639  28.111  27.392  1.00  0.00     0.000 A 
ATOM     93  C   UNL A   1      33.913  28.484  26.756  1.00  0.00     0.000 A 
ATOM     94  C   UNL A   1      32.868  28.702  27.641  1.00  0.00     0.000 A 
ENDBRANCH  84  89
ENDBRANCH  77  80
ENDBRANCH  75  76
ENDBRANCH  74  75
ENDBRANCH  73  74
ENDBRANCH   1  73
TORSDOF 14
ENDMDL
