MODEL 1
REMARK VINA RESULT:     -11.4      0.000      0.000
REMARK SMILES CC(C)CC1(CNC(=O)N[C@H](C)CC(=O)NCCCCCCNC(=O)c2ccc(-c3c4nc(c(-c5c(F)c(F)c(F)c(F)c5F)c5ccc([nH]5)c(-c5c(F)c(F)c(F)c(F)c5F)c5nc(c(-c6c(F)c(F)c(F)c(F)c6F)c6ccc3[nH]6)C=C5)C=C4)cc2)CCCC1
REMARK SMILES IDX 17 1 16 2 14 3 15 4 13 6 11 7 12 8 10 9 7 10 8 11 9 13 6 15
REMARK SMILES IDX 5 16 89 17 92 18 90 19 91 20 4 21 2 22 1 23 3 24 18 25 19 26
REMARK SMILES IDX 20 27 21 28 22 29 23 30 24 31 25 33 26 34 27 35 88 36 28 37
REMARK SMILES IDX 87 38 29 39 30 40 31 41 81 42 32 43 86 44 80 45 82 46 33 47
REMARK SMILES IDX 85 48 79 49 78 50 34 52 66 53 46 54 65 55 47 56 50 57 64 58
REMARK SMILES IDX 83 59 48 60 49 61 63 63 84 64 51 65 35 66 36 67 44 68 37 69
REMARK SMILES IDX 38 70 42 71 45 72 39 73 40 74 43 75 41 76 67 77 68 78 76 79
REMARK SMILES IDX 69 80 70 81 74 82 77 83 71 84 72 85 75 86 73 87 52 88 53 89
REMARK SMILES IDX 61 90 54 91 55 92 59 93 62 94 56 95 57 96 60 97 58 98
REMARK H PARENT 16 5 7 12 10 14 23 32 82 51 50 62
REMARK Flexibility Score: inf
ROOT
ATOM      1  C   UNL A   1      33.604  28.959  26.212  1.00  0.00     0.116 C 
ENDROOT
BRANCH   1   2
ATOM      2  N   UNL A   1      33.684  29.279  24.802  1.00  0.00    -0.356 N 
ATOM      3  C   UNL A   1      33.627  28.361  23.783  1.00  0.00     0.222 C 
ATOM      4  O   UNL A   1      34.342  28.503  22.795  1.00  0.00    -0.275 OA
ATOM      5  H   UNL A   1      33.786  30.227  24.554  1.00  0.00     0.163 HD
BRANCH   3   6
ATOM      6  C   UNL A   1      32.526  27.336  23.846  1.00  0.00     0.124 C 
BRANCH   6   7
ATOM      7  C   UNL A   1      31.457  27.205  22.792  1.00  0.00     0.090 C 
ATOM      8  C   UNL A   1      30.670  28.454  22.419  1.00  0.00     0.031 C 
BRANCH   7   9
ATOM      9  N   UNL A   1      31.942  26.565  21.550  1.00  0.00    -0.335 N 
ATOM     10  N   UNL A   1      32.575  24.249  21.671  1.00  0.00    -0.338 N 
ATOM     11  C   UNL A   1      32.521  25.452  21.112  1.00  0.00     0.315 C 
ATOM     12  H   UNL A   1      33.152  23.669  21.123  1.00  0.00     0.165 HD
ATOM     13  O   UNL A   1      33.069  25.542  20.004  1.00  0.00    -0.249 OA
ATOM     14  H   UNL A   1      31.779  27.167  20.788  1.00  0.00     0.165 HD
BRANCH  10  15
ATOM     15  C   UNL A   1      32.080  23.482  22.812  1.00  0.00     0.124 C 
BRANCH  15  16
ATOM     16  C   UNL A   1      33.134  23.050  23.906  1.00  0.00    -0.012 C 
ATOM     17  C   UNL A   1      33.240  21.498  24.010  1.00  0.00     0.009 C 
ATOM     18  C   UNL A   1      32.567  23.310  25.319  1.00  0.00     0.009 C 
ATOM     19  C   UNL A   1      31.974  21.028  24.710  1.00  0.00     0.001 C 
ATOM     20  C   UNL A   1      31.529  22.210  25.560  1.00  0.00     0.001 C 
BRANCH  16  21
ATOM     21  C   UNL A   1      34.563  23.622  23.681  1.00  0.00     0.012 C 
BRANCH  21  22
ATOM     22  C   UNL A   1      35.773  22.990  24.403  1.00  0.00    -0.017 C 
ATOM     23  C   UNL A   1      36.934  22.684  23.455  1.00  0.00     0.007 C 
ATOM     24  C   UNL A   1      36.270  23.977  25.474  1.00  0.00     0.007 C 
ENDBRANCH  21  22
ENDBRANCH  16  21
ENDBRANCH  15  16
ENDBRANCH  10  15
ENDBRANCH   7   9
ENDBRANCH   6   7
ENDBRANCH   3   6
ENDBRANCH   1   2
BRANCH   1  25
ATOM     25  C   UNL A   1      32.372  29.668  26.774  1.00  0.00     0.021 C 
BRANCH  25  26
ATOM     26  C   UNL A   1      31.492  30.250  25.665  1.00  0.00     0.002 C 
BRANCH  26  27
ATOM     27  C   UNL A   1      31.077  31.700  25.915  1.00  0.00     0.002 C 
BRANCH  27  28
ATOM     28  C   UNL A   1      31.519  32.249  27.272  1.00  0.00     0.021 C 
BRANCH  28  29
ATOM     29  C   UNL A   1      32.786  33.095  27.210  1.00  0.00     0.116 C 
BRANCH  29  30
ATOM     30  N   UNL A   1      32.554  34.441  27.711  1.00  0.00    -0.352 N 
ATOM     31  C   UNL A   1      33.084  35.047  28.819  1.00  0.00     0.251 C 
ATOM     32  H   UNL A   1      31.931  34.990  27.182  1.00  0.00     0.163 HD
ATOM     33  O   UNL A   1      32.610  36.086  29.256  1.00  0.00    -0.269 OA
BRANCH  31  34
ATOM     34  C   UNL A   1      34.236  34.413  29.486  1.00  0.00     0.039 A 
ATOM     35  C   UNL A   1      34.010  33.571  30.574  1.00  0.00     0.014 A 
ATOM     36  C   UNL A   1      35.532  34.642  29.015  1.00  0.00     0.014 A 
ATOM     37  C   UNL A   1      35.089  32.917  31.166  1.00  0.00     0.010 A 
ATOM     38  C   UNL A   1      36.594  33.925  29.552  1.00  0.00     0.010 A 
ATOM     39  C   UNL A   1      36.383  33.067  30.641  1.00  0.00    -0.014 A 
BRANCH  39  40
ATOM     40  C   UNL A   1      37.535  32.340  31.229  1.00  0.00     0.031 A 
ATOM     41  C   UNL A   1      38.041  32.716  32.592  1.00  0.00     0.074 A 
ATOM     42  C   UNL A   1      38.151  31.382  30.511  1.00  0.00     0.049 A 
ATOM     43  N   UNL A   1      39.060  32.233  33.258  1.00  0.00    -0.248 NA
ATOM     44  C   UNL A   1      37.326  33.795  33.290  1.00  0.00     0.031 C 
ATOM     45  C   UNL A   1      37.778  30.968  29.157  1.00  0.00     0.029 A 
ATOM     46  N   UNL A   1      39.226  30.587  30.817  1.00  0.00    -0.354 N 
ATOM     47  C   UNL A   1      39.111  32.955  34.443  1.00  0.00     0.074 A 
ATOM     48  C   UNL A   1      38.063  33.950  34.379  1.00  0.00     0.031 C 
ATOM     49  C   UNL A   1      38.591  29.976  28.762  1.00  0.00     0.029 A 
ATOM     50  C   UNL A   1      39.569  29.714  29.814  1.00  0.00     0.049 A 
ATOM     51  H   UNL A   1      39.707  30.638  31.675  1.00  0.00     0.167 HD
ATOM     52  C   UNL A   1      39.939  32.783  35.500  1.00  0.00     0.037 A 
ATOM     53  C   UNL A   1      40.564  28.810  29.749  1.00  0.00     0.037 A 
ATOM     54  C   UNL A   1      40.967  31.778  35.562  1.00  0.00     0.049 A 
ATOM     55  C   UNL A   1      41.484  28.655  30.931  1.00  0.00     0.074 A 
ATOM     56  C   UNL A   1      41.825  31.484  36.606  1.00  0.00     0.029 A 
ATOM     57  N   UNL A   1      41.282  30.907  34.528  1.00  0.00    -0.354 N 
ATOM     58  N   UNL A   1      41.476  29.291  32.078  1.00  0.00    -0.248 NA
ATOM     59  C   UNL A   1      42.547  27.647  30.812  1.00  0.00     0.031 C 
ATOM     60  C   UNL A   1      42.697  30.475  36.184  1.00  0.00     0.029 A 
ATOM     61  C   UNL A   1      42.341  30.094  34.900  1.00  0.00     0.049 A 
ATOM     62  H   UNL A   1      40.821  30.871  33.658  1.00  0.00     0.167 HD
ATOM     63  C   UNL A   1      42.509  28.743  32.826  1.00  0.00     0.074 A 
ATOM     64  C   UNL A   1      43.110  27.708  32.009  1.00  0.00     0.031 C 
ATOM     65  C   UNL A   1      42.923  29.065  34.077  1.00  0.00     0.037 A 
BRANCH  52  66
ATOM     66  C   UNL A   1      39.766  33.703  36.675  1.00  0.00     0.064 A 
ATOM     67  C   UNL A   1      40.409  34.949  36.738  1.00  0.00     0.173 A 
ATOM     68  C   UNL A   1      38.921  33.349  37.738  1.00  0.00     0.173 A 
ATOM     69  F   UNL A   1      41.237  35.333  35.755  1.00  0.00    -0.203 F 
ATOM     70  C   UNL A   1      40.237  35.791  37.834  1.00  0.00     0.198 A 
ATOM     71  C   UNL A   1      38.724  34.209  38.816  1.00  0.00     0.198 A 
ATOM     72  F   UNL A   1      38.278  32.171  37.729  1.00  0.00    -0.203 F 
ATOM     73  F   UNL A   1      40.905  36.952  37.897  1.00  0.00    -0.200 F 
ATOM     74  C   UNL A   1      39.389  35.424  38.868  1.00  0.00     0.200 A 
ATOM     75  F   UNL A   1      37.892  33.858  39.807  1.00  0.00    -0.200 F 
ATOM     76  F   UNL A   1      39.217  36.238  39.918  1.00  0.00    -0.200 F 
ENDBRANCH  52  66
BRANCH  53  77
ATOM     77  C   UNL A   1      40.731  27.971  28.534  1.00  0.00     0.064 A 
ATOM     78  C   UNL A   1      41.506  28.414  27.453  1.00  0.00     0.173 A 
ATOM     79  C   UNL A   1      40.116  26.716  28.423  1.00  0.00     0.173 A 
ATOM     80  F   UNL A   1      42.100  29.615  27.502  1.00  0.00    -0.203 F 
ATOM     81  C   UNL A   1      41.635  27.646  26.297  1.00  0.00     0.198 A 
ATOM     82  C   UNL A   1      40.274  25.934  27.281  1.00  0.00     0.198 A 
ATOM     83  F   UNL A   1      39.371  26.240  29.432  1.00  0.00    -0.203 F 
ATOM     84  F   UNL A   1      42.338  28.118  25.258  1.00  0.00    -0.200 F 
ATOM     85  C   UNL A   1      41.024  26.404  26.214  1.00  0.00     0.200 A 
ATOM     86  F   UNL A   1      39.696  24.726  27.212  1.00  0.00    -0.200 F 
ATOM     87  F   UNL A   1      41.151  25.665  25.104  1.00  0.00    -0.200 F 
ENDBRANCH  53  77
BRANCH  65  88
ATOM     88  C   UNL A   1      44.057  28.266  34.654  1.00  0.00     0.064 A 
ATOM     89  C   UNL A   1      45.390  28.687  34.544  1.00  0.00     0.173 A 
ATOM     90  C   UNL A   1      43.799  27.080  35.360  1.00  0.00     0.173 A 
ATOM     91  F   UNL A   1      45.692  29.805  33.867  1.00  0.00    -0.203 F 
ATOM     92  C   UNL A   1      46.425  27.934  35.091  1.00  0.00     0.198 A 
ATOM     93  C   UNL A   1      44.833  26.350  35.937  1.00  0.00     0.198 A 
ATOM     94  F   UNL A   1      42.540  26.637  35.502  1.00  0.00    -0.203 F 
ATOM     95  F   UNL A   1      47.696  28.326  34.925  1.00  0.00    -0.200 F 
ATOM     96  C   UNL A   1      46.145  26.772  35.795  1.00  0.00     0.200 A 
ATOM     97  F   UNL A   1      44.559  25.236  36.631  1.00  0.00    -0.200 F 
ATOM     98  F   UNL A   1      47.143  26.053  36.328  1.00  0.00    -0.200 F 
ENDBRANCH  65  88
ENDBRANCH  39  40
ENDBRANCH  31  34
ENDBRANCH  29  30
ENDBRANCH  28  29
ENDBRANCH  27  28
ENDBRANCH  26  27
ENDBRANCH  25  26
ENDBRANCH   1  25
TORSDOF 19
ENDMDL
MODEL 2
REMARK VINA RESULT:     -10.8      1.021      7.315
REMARK SMILES CC(C)CC1(CNC(=O)N[C@H](C)CC(=O)NCCCCCCNC(=O)c2ccc(-c3c4nc(c(-c5c(F)c(F)c(F)c(F)c5F)c5ccc([nH]5)c(-c5c(F)c(F)c(F)c(F)c5F)c5nc(c(-c6c(F)c(F)c(F)c(F)c6F)c6ccc3[nH]6)C=C5)C=C4)cc2)CCCC1
REMARK SMILES IDX 17 1 16 2 14 3 15 4 13 6 11 7 12 8 10 9 7 10 8 11 9 13 6 15
REMARK SMILES IDX 5 16 89 17 92 18 90 19 91 20 4 21 2 22 1 23 3 24 18 25 19 26
REMARK SMILES IDX 20 27 21 28 22 29 23 30 24 31 25 33 26 34 27 35 88 36 28 37
REMARK SMILES IDX 87 38 29 39 30 40 31 41 81 42 32 43 86 44 80 45 82 46 33 47
REMARK SMILES IDX 85 48 79 49 78 50 34 52 66 53 46 54 65 55 47 56 50 57 64 58
REMARK SMILES IDX 83 59 48 60 49 61 63 63 84 64 51 65 35 66 36 67 44 68 37 69
REMARK SMILES IDX 38 70 42 71 45 72 39 73 40 74 43 75 41 76 67 77 68 78 76 79
REMARK SMILES IDX 69 80 70 81 74 82 77 83 71 84 72 85 75 86 73 87 52 88 53 89
REMARK SMILES IDX 61 90 54 91 55 92 59 93 62 94 56 95 57 96 60 97 58 98
REMARK H PARENT 16 5 7 12 10 14 23 32 82 51 50 62
REMARK Flexibility Score: inf
ROOT
ATOM      1  C   UNL A   1      31.688  29.771  25.755  1.00  0.00     0.116 C 
ENDROOT
BRANCH   1   2
ATOM      2  N   UNL A   1      31.293  29.993  24.380  1.00  0.00    -0.356 N 
ATOM      3  C   UNL A   1      31.111  29.007  23.444  1.00  0.00     0.222 C 
ATOM      4  O   UNL A   1      31.468  29.195  22.284  1.00  0.00    -0.275 OA
ATOM      5  H   UNL A   1      31.142  30.924  24.094  1.00  0.00     0.163 HD
BRANCH   3   6
ATOM      6  C   UNL A   1      30.286  27.817  23.855  1.00  0.00     0.124 C 
BRANCH   6   7
ATOM      7  C   UNL A   1      30.790  26.398  23.788  1.00  0.00     0.090 C 
ATOM      8  C   UNL A   1      29.762  25.285  23.639  1.00  0.00     0.031 C 
BRANCH   7   9
ATOM      9  N   UNL A   1      31.846  26.205  22.770  1.00  0.00    -0.335 N 
ATOM     10  N   UNL A   1      33.394  24.398  23.107  1.00  0.00    -0.338 N 
ATOM     11  C   UNL A   1      32.965  25.523  22.549  1.00  0.00     0.315 C 
ATOM     12  H   UNL A   1      34.301  24.204  22.777  1.00  0.00     0.165 HD
ATOM     13  O   UNL A   1      33.705  25.990  21.672  1.00  0.00    -0.249 OA
ATOM     14  H   UNL A   1      31.655  26.775  21.991  1.00  0.00     0.165 HD
BRANCH  10  15
ATOM     15  C   UNL A   1      32.997  23.346  24.040  1.00  0.00     0.124 C 
BRANCH  15  16
ATOM     16  C   UNL A   1      33.662  23.358  25.473  1.00  0.00    -0.012 C 
ATOM     17  C   UNL A   1      32.858  22.479  26.479  1.00  0.00     0.009 C 
ATOM     18  C   UNL A   1      33.422  24.722  26.156  1.00  0.00     0.009 C 
ATOM     19  C   UNL A   1      31.590  23.254  26.806  1.00  0.00     0.001 C 
ATOM     20  C   UNL A   1      31.953  24.717  26.590  1.00  0.00     0.001 C 
BRANCH  16  21
ATOM     21  C   UNL A   1      35.145  22.890  25.495  1.00  0.00     0.012 C 
BRANCH  21  22
ATOM     22  C   UNL A   1      35.663  21.906  24.424  1.00  0.00    -0.017 C 
ATOM     23  C   UNL A   1      37.078  22.240  23.948  1.00  0.00     0.007 C 
ATOM     24  C   UNL A   1      35.676  20.492  25.028  1.00  0.00     0.007 C 
ENDBRANCH  21  22
ENDBRANCH  16  21
ENDBRANCH  15  16
ENDBRANCH  10  15
ENDBRANCH   7   9
ENDBRANCH   6   7
ENDBRANCH   3   6
ENDBRANCH   1   2
BRANCH   1  25
ATOM     25  C   UNL A   1      33.207  29.922  25.826  1.00  0.00     0.021 C 
BRANCH  25  26
ATOM     26  C   UNL A   1      33.734  29.737  27.251  1.00  0.00     0.002 C 
BRANCH  26  27
ATOM     27  C   UNL A   1      34.204  31.040  27.900  1.00  0.00     0.002 C 
BRANCH  27  28
ATOM     28  C   UNL A   1      33.708  32.302  27.193  1.00  0.00     0.021 C 
BRANCH  28  29
ATOM     29  C   UNL A   1      32.366  32.809  27.709  1.00  0.00     0.116 C 
BRANCH  29  30
ATOM     30  N   UNL A   1      32.342  34.260  27.796  1.00  0.00    -0.352 N 
ATOM     31  C   UNL A   1      33.053  35.082  28.632  1.00  0.00     0.251 C 
ATOM     32  H   UNL A   1      31.731  34.715  27.172  1.00  0.00     0.163 HD
ATOM     33  O   UNL A   1      32.749  36.258  28.768  1.00  0.00    -0.269 OA
BRANCH  31  34
ATOM     34  C   UNL A   1      34.193  34.514  29.375  1.00  0.00     0.039 A 
ATOM     35  C   UNL A   1      33.952  33.847  30.576  1.00  0.00     0.014 A 
ATOM     36  C   UNL A   1      35.489  34.628  28.867  1.00  0.00     0.014 A 
ATOM     37  C   UNL A   1      35.017  33.250  31.249  1.00  0.00     0.010 A 
ATOM     38  C   UNL A   1      36.534  33.962  29.494  1.00  0.00     0.010 A 
ATOM     39  C   UNL A   1      36.309  33.278  30.698  1.00  0.00    -0.014 A 
BRANCH  39  40
ATOM     40  C   UNL A   1      37.444  32.607  31.377  1.00  0.00     0.031 A 
ATOM     41  C   UNL A   1      38.134  31.448  30.716  1.00  0.00     0.074 A 
ATOM     42  C   UNL A   1      37.813  33.011  32.608  1.00  0.00     0.049 A 
ATOM     43  N   UNL A   1      39.113  30.703  31.165  1.00  0.00    -0.248 NA
ATOM     44  C   UNL A   1      37.644  31.057  29.386  1.00  0.00     0.031 C 
ATOM     45  C   UNL A   1      37.183  34.092  33.367  1.00  0.00     0.029 A 
ATOM     46  N   UNL A   1      38.803  32.554  33.439  1.00  0.00    -0.354 N 
ATOM     47  C   UNL A   1      39.345  29.754  30.179  1.00  0.00     0.074 A 
ATOM     48  C   UNL A   1      38.366  29.974  29.138  1.00  0.00     0.031 C 
ATOM     49  C   UNL A   1      37.821  34.235  34.540  1.00  0.00     0.029 A 
ATOM     50  C   UNL A   1      38.874  33.229  34.634  1.00  0.00     0.049 A 
ATOM     51  H   UNL A   1      39.406  31.812  33.203  1.00  0.00     0.167 HD
ATOM     52  C   UNL A   1      40.307  28.802  30.135  1.00  0.00     0.037 A 
ATOM     53  C   UNL A   1      39.694  33.050  35.686  1.00  0.00     0.037 A 
ATOM     54  C   UNL A   1      41.288  28.600  31.168  1.00  0.00     0.049 A 
ATOM     55  C   UNL A   1      40.741  31.970  35.619  1.00  0.00     0.074 A 
ATOM     56  C   UNL A   1      42.338  27.701  31.198  1.00  0.00     0.029 A 
ATOM     57  N   UNL A   1      41.333  29.308  32.362  1.00  0.00    -0.354 N 
ATOM     58  N   UNL A   1      41.001  31.126  34.650  1.00  0.00    -0.248 NA
ATOM     59  C   UNL A   1      41.614  31.824  36.792  1.00  0.00     0.031 C 
ATOM     60  C   UNL A   1      42.983  27.822  32.433  1.00  0.00     0.029 A 
ATOM     61  C   UNL A   1      42.376  28.844  33.147  1.00  0.00     0.049 A 
ATOM     62  H   UNL A   1      40.715  30.031  32.614  1.00  0.00     0.167 HD
ATOM     63  C   UNL A   1      42.083  30.371  35.081  1.00  0.00     0.074 A 
ATOM     64  C   UNL A   1      42.443  30.871  36.392  1.00  0.00     0.031 C 
ATOM     65  C   UNL A   1      42.723  29.356  34.448  1.00  0.00     0.037 A 
BRANCH  52  66
ATOM     66  C   UNL A   1      40.343  27.905  28.929  1.00  0.00     0.064 A 
ATOM     67  C   UNL A   1      41.088  28.234  27.787  1.00  0.00     0.173 A 
ATOM     68  C   UNL A   1      39.650  26.684  28.929  1.00  0.00     0.173 A 
ATOM     69  F   UNL A   1      41.760  29.394  27.728  1.00  0.00    -0.203 F 
ATOM     70  C   UNL A   1      41.112  27.392  26.678  1.00  0.00     0.198 A 
ATOM     71  C   UNL A   1      39.706  25.828  27.833  1.00  0.00     0.198 A 
ATOM     72  F   UNL A   1      38.925  26.317  29.997  1.00  0.00    -0.203 F 
ATOM     73  F   UNL A   1      41.786  27.754  25.577  1.00  0.00    -0.200 F 
ATOM     74  C   UNL A   1      40.428  26.186  26.705  1.00  0.00     0.200 A 
ATOM     75  F   UNL A   1      39.055  24.657  27.867  1.00  0.00    -0.200 F 
ATOM     76  F   UNL A   1      40.459  25.372  25.641  1.00  0.00    -0.200 F 
ENDBRANCH  52  66
BRANCH  53  77
ATOM     77  C   UNL A   1      39.571  33.923  36.883  1.00  0.00     0.064 A 
ATOM     78  C   UNL A   1      38.802  33.528  37.987  1.00  0.00     0.173 A 
ATOM     79  C   UNL A   1      40.210  35.169  36.947  1.00  0.00     0.173 A 
ATOM     80  F   UNL A   1      38.156  32.353  37.968  1.00  0.00    -0.203 F 
ATOM     81  C   UNL A   1      38.654  34.359  39.096  1.00  0.00     0.198 A 
ATOM     82  C   UNL A   1      40.089  35.985  38.070  1.00  0.00     0.198 A 
ATOM     83  F   UNL A   1      40.964  35.592  35.922  1.00  0.00    -0.203 F 
ATOM     84  F   UNL A   1      37.870  33.980  40.114  1.00  0.00    -0.200 F 
ATOM     85  C   UNL A   1      39.302  35.584  39.140  1.00  0.00     0.200 A 
ATOM     86  F   UNL A   1      40.732  37.159  38.115  1.00  0.00    -0.200 F 
ATOM     87  F   UNL A   1      39.163  36.381  40.207  1.00  0.00    -0.200 F 
ENDBRANCH  53  77
BRANCH  65  88
ATOM     88  C   UNL A   1      43.902  28.743  35.149  1.00  0.00     0.064 A 
ATOM     89  C   UNL A   1      45.199  29.257  35.006  1.00  0.00     0.173 A 
ATOM     90  C   UNL A   1      43.722  27.646  36.008  1.00  0.00     0.173 A 
ATOM     91  F   UNL A   1      45.427  30.294  34.186  1.00  0.00    -0.203 F 
ATOM     92  C   UNL A   1      46.276  28.677  35.670  1.00  0.00     0.198 A 
ATOM     93  C   UNL A   1      44.795  27.092  36.698  1.00  0.00     0.198 A 
ATOM     94  F   UNL A   1      42.500  27.121  36.188  1.00  0.00    -0.203 F 
ATOM     95  F   UNL A   1      47.515  29.149  35.474  1.00  0.00    -0.200 F 
ATOM     96  C   UNL A   1      46.072  27.601  36.522  1.00  0.00     0.200 A 
ATOM     97  F   UNL A   1      44.593  26.064  37.535  1.00  0.00    -0.200 F 
ATOM     98  F   UNL A   1      47.110  27.050  37.167  1.00  0.00    -0.200 F 
ENDBRANCH  65  88
ENDBRANCH  39  40
ENDBRANCH  31  34
ENDBRANCH  29  30
ENDBRANCH  28  29
ENDBRANCH  27  28
ENDBRANCH  26  27
ENDBRANCH  25  26
ENDBRANCH   1  25
TORSDOF 19
ENDMDL
MODEL 3
REMARK VINA RESULT:     -10.7      0.854      2.089
REMARK SMILES CC(C)CC1(CNC(=O)N[C@H](C)CC(=O)NCCCCCCNC(=O)c2ccc(-c3c4nc(c(-c5c(F)c(F)c(F)c(F)c5F)c5ccc([nH]5)c(-c5c(F)c(F)c(F)c(F)c5F)c5nc(c(-c6c(F)c(F)c(F)c(F)c6F)c6ccc3[nH]6)C=C5)C=C4)cc2)CCCC1
REMARK SMILES IDX 17 1 16 2 14 3 15 4 13 6 11 7 12 8 10 9 7 10 8 11 9 13 6 15
REMARK SMILES IDX 5 16 89 17 92 18 90 19 91 20 4 21 2 22 1 23 3 24 18 25 19 26
REMARK SMILES IDX 20 27 21 28 22 29 23 30 24 31 25 33 26 34 27 35 88 36 28 37
REMARK SMILES IDX 87 38 29 39 30 40 31 41 81 42 32 43 86 44 80 45 82 46 33 47
REMARK SMILES IDX 85 48 79 49 78 50 34 52 66 53 46 54 65 55 47 56 50 57 64 58
REMARK SMILES IDX 83 59 48 60 49 61 63 63 84 64 51 65 35 66 36 67 44 68 37 69
REMARK SMILES IDX 38 70 42 71 45 72 39 73 40 74 43 75 41 76 67 77 68 78 76 79
REMARK SMILES IDX 69 80 70 81 74 82 77 83 71 84 72 85 75 86 73 87 52 88 53 89
REMARK SMILES IDX 61 90 54 91 55 92 59 93 62 94 56 95 57 96 60 97 58 98
REMARK H PARENT 16 5 7 12 10 14 23 32 82 51 50 62
REMARK Flexibility Score: inf
ROOT
ATOM      1  C   UNL A   1      33.378  29.227  26.226  1.00  0.00     0.116 C 
ENDROOT
BRANCH   1   2
ATOM      2  N   UNL A   1      33.273  29.696  24.861  1.00  0.00    -0.356 N 
ATOM      3  C   UNL A   1      33.052  28.896  23.768  1.00  0.00     0.222 C 
ATOM      4  O   UNL A   1      33.629  29.135  22.712  1.00  0.00    -0.275 OA
ATOM      5  H   UNL A   1      33.365  30.664  24.703  1.00  0.00     0.163 HD
BRANCH   3   6
ATOM      6  C   UNL A   1      31.944  27.882  23.876  1.00  0.00     0.124 C 
BRANCH   6   7
ATOM      7  C   UNL A   1      30.997  27.571  22.745  1.00  0.00     0.090 C 
ATOM      8  C   UNL A   1      30.161  28.713  22.183  1.00  0.00     0.031 C 
BRANCH   7   9
ATOM      9  N   UNL A   1      31.648  26.864  21.620  1.00  0.00    -0.335 N 
ATOM     10  N   UNL A   1      32.525  24.668  22.049  1.00  0.00    -0.338 N 
ATOM     11  C   UNL A   1      32.382  25.789  21.353  1.00  0.00     0.315 C 
ATOM     12  H   UNL A   1      33.205  24.107  21.612  1.00  0.00     0.165 HD
ATOM     13  O   UNL A   1      33.003  25.826  20.282  1.00  0.00    -0.249 OA
ATOM     14  H   UNL A   1      31.481  27.358  20.786  1.00  0.00     0.165 HD
BRANCH  10  15
ATOM     15  C   UNL A   1      32.030  23.973  23.235  1.00  0.00     0.124 C 
BRANCH  15  16
ATOM     16  C   UNL A   1      33.102  23.294  24.178  1.00  0.00    -0.012 C 
ATOM     17  C   UNL A   1      32.767  23.534  25.681  1.00  0.00     0.009 C 
ATOM     18  C   UNL A   1      34.424  24.091  24.134  1.00  0.00     0.009 C 
ATOM     19  C   UNL A   1      33.097  24.991  25.967  1.00  0.00     0.001 C 
ATOM     20  C   UNL A   1      34.174  25.359  24.955  1.00  0.00     0.001 C 
BRANCH  16  21
ATOM     21  C   UNL A   1      33.275  21.765  23.954  1.00  0.00     0.012 C 
BRANCH  21  22
ATOM     22  C   UNL A   1      33.695  20.853  25.127  1.00  0.00    -0.017 C 
ATOM     23  C   UNL A   1      32.867  19.570  25.206  1.00  0.00     0.007 C 
ATOM     24  C   UNL A   1      35.171  20.466  24.937  1.00  0.00     0.007 C 
ENDBRANCH  21  22
ENDBRANCH  16  21
ENDBRANCH  15  16
ENDBRANCH  10  15
ENDBRANCH   7   9
ENDBRANCH   6   7
ENDBRANCH   3   6
ENDBRANCH   1   2
BRANCH   1  25
ATOM     25  C   UNL A   1      32.865  30.343  27.136  1.00  0.00     0.021 C 
BRANCH  25  26
ATOM     26  C   UNL A   1      31.703  31.110  26.499  1.00  0.00     0.002 C 
BRANCH  26  27
ATOM     27  C   UNL A   1      31.709  32.604  26.825  1.00  0.00     0.002 C 
BRANCH  27  28
ATOM     28  C   UNL A   1      32.818  33.026  27.791  1.00  0.00     0.021 C 
BRANCH  28  29
ATOM     29  C   UNL A   1      33.290  34.462  27.596  1.00  0.00     0.116 C 
BRANCH  29  30
ATOM     30  N   UNL A   1      32.868  35.316  28.694  1.00  0.00    -0.352 N 
ATOM     31  C   UNL A   1      33.230  35.258  30.015  1.00  0.00     0.251 C 
ATOM     32  H   UNL A   1      32.235  36.034  28.458  1.00  0.00     0.163 HD
ATOM     33  O   UNL A   1      32.609  35.877  30.867  1.00  0.00    -0.269 OA
BRANCH  31  34
ATOM     34  C   UNL A   1      34.385  34.422  30.392  1.00  0.00     0.039 A 
ATOM     35  C   UNL A   1      35.638  34.717  29.857  1.00  0.00     0.014 A 
ATOM     36  C   UNL A   1      34.221  33.364  31.290  1.00  0.00     0.014 A 
ATOM     37  C   UNL A   1      36.744  33.972  30.262  1.00  0.00     0.010 A 
ATOM     38  C   UNL A   1      35.336  32.678  31.755  1.00  0.00     0.010 A 
ATOM     39  C   UNL A   1      36.606  32.968  31.235  1.00  0.00    -0.014 A 
BRANCH  39  40
ATOM     40  C   UNL A   1      37.780  32.199  31.712  1.00  0.00     0.031 A 
ATOM     41  C   UNL A   1      38.383  32.506  33.053  1.00  0.00     0.074 A 
ATOM     42  C   UNL A   1      38.330  31.264  30.914  1.00  0.00     0.049 A 
ATOM     43  N   UNL A   1      39.436  31.978  33.627  1.00  0.00    -0.248 NA
ATOM     44  C   UNL A   1      37.736  33.564  33.843  1.00  0.00     0.031 C 
ATOM     45  C   UNL A   1      37.859  30.915  29.572  1.00  0.00     0.029 A 
ATOM     46  N   UNL A   1      39.407  30.440  31.112  1.00  0.00    -0.354 N 
ATOM     47  C   UNL A   1      39.579  32.647  34.835  1.00  0.00     0.074 A 
ATOM     48  C   UNL A   1      38.548  33.660  34.886  1.00  0.00     0.031 C 
ATOM     49  C   UNL A   1      38.626  29.930  29.080  1.00  0.00     0.029 A 
ATOM     50  C   UNL A   1      39.666  29.607  30.051  1.00  0.00     0.049 A 
ATOM     51  H   UNL A   1      39.946  30.445  31.936  1.00  0.00     0.167 HD
ATOM     52  C   UNL A   1      40.473  32.415  35.826  1.00  0.00     0.037 A 
ATOM     53  C   UNL A   1      40.639  28.691  29.881  1.00  0.00     0.037 A 
ATOM     54  C   UNL A   1      41.484  31.393  35.775  1.00  0.00     0.049 A 
ATOM     55  C   UNL A   1      41.633  28.470  30.990  1.00  0.00     0.074 A 
ATOM     56  C   UNL A   1      42.405  31.040  36.745  1.00  0.00     0.029 A 
ATOM     57  N   UNL A   1      41.713  30.564  34.685  1.00  0.00    -0.354 N 
ATOM     58  N   UNL A   1      41.713  29.055  32.161  1.00  0.00    -0.248 NA
ATOM     59  C   UNL A   1      42.667  27.452  30.755  1.00  0.00     0.031 C 
ATOM     60  C   UNL A   1      43.228  30.038  36.222  1.00  0.00     0.029 A 
ATOM     61  C   UNL A   1      42.779  29.719  34.950  1.00  0.00     0.049 A 
ATOM     62  H   UNL A   1      41.195  30.573  33.848  1.00  0.00     0.167 HD
ATOM     63  C   UNL A   1      42.784  28.458  32.813  1.00  0.00     0.074 A 
ATOM     64  C   UNL A   1      43.310  27.452  31.913  1.00  0.00     0.031 C 
ATOM     65  C   UNL A   1      43.286  28.719  34.045  1.00  0.00     0.037 A 
BRANCH  52  66
ATOM     66  C   UNL A   1      40.396  33.285  37.049  1.00  0.00     0.064 A 
ATOM     67  C   UNL A   1      39.463  33.045  38.068  1.00  0.00     0.173 A 
ATOM     68  C   UNL A   1      41.291  34.354  37.219  1.00  0.00     0.173 A 
ATOM     69  F   UNL A   1      38.576  32.044  37.952  1.00  0.00    -0.203 F 
ATOM     70  C   UNL A   1      39.406  33.861  39.196  1.00  0.00     0.198 A 
ATOM     71  C   UNL A   1      41.254  35.145  38.364  1.00  0.00     0.198 A 
ATOM     72  F   UNL A   1      42.207  34.627  36.278  1.00  0.00    -0.203 F 
ATOM     73  F   UNL A   1      38.468  33.645  40.130  1.00  0.00    -0.200 F 
ATOM     74  C   UNL A   1      40.306  34.904  39.347  1.00  0.00     0.200 A 
ATOM     75  F   UNL A   1      42.134  36.144  38.514  1.00  0.00    -0.200 F 
ATOM     76  F   UNL A   1      40.256  35.682  40.437  1.00  0.00    -0.200 F 
ENDBRANCH  52  66
BRANCH  53  77
ATOM     77  C   UNL A   1      40.709  27.904  28.622  1.00  0.00     0.064 A 
ATOM     78  C   UNL A   1      40.007  26.698  28.486  1.00  0.00     0.173 A 
ATOM     79  C   UNL A   1      41.481  28.333  27.533  1.00  0.00     0.173 A 
ATOM     80  F   UNL A   1      39.268  26.235  29.505  1.00  0.00    -0.203 F 
ATOM     81  C   UNL A   1      40.098  25.938  27.322  1.00  0.00     0.198 A 
ATOM     82  C   UNL A   1      41.546  27.590  26.357  1.00  0.00     0.198 A 
ATOM     83  F   UNL A   1      42.167  29.484  27.607  1.00  0.00    -0.203 F 
ATOM     84  F   UNL A   1      39.460  24.763  27.240  1.00  0.00    -0.200 F 
ATOM     85  C   UNL A   1      40.863  26.387  26.256  1.00  0.00     0.200 A 
ATOM     86  F   UNL A   1      42.271  28.037  25.323  1.00  0.00    -0.200 F 
ATOM     87  F   UNL A   1      40.948  25.658  25.135  1.00  0.00    -0.200 F 
ENDBRANCH  53  77
BRANCH  65  88
ATOM     88  C   UNL A   1      44.441  27.878  34.509  1.00  0.00     0.064 A 
ATOM     89  C   UNL A   1      45.772  28.278  34.319  1.00  0.00     0.173 A 
ATOM     90  C   UNL A   1      44.210  26.671  35.189  1.00  0.00     0.173 A 
ATOM     91  F   UNL A   1      46.048  29.415  33.663  1.00  0.00    -0.203 F 
ATOM     92  C   UNL A   1      46.828  27.486  34.762  1.00  0.00     0.198 A 
ATOM     93  C   UNL A   1      45.267  25.900  35.663  1.00  0.00     0.198 A 
ATOM     94  F   UNL A   1      42.955  26.246  35.405  1.00  0.00    -0.203 F 
ATOM     95  F   UNL A   1      48.092  27.860  34.519  1.00  0.00    -0.200 F 
ATOM     96  C   UNL A   1      46.574  26.303  35.441  1.00  0.00     0.200 A 
ATOM     97  F   UNL A   1      45.020  24.766  36.334  1.00  0.00    -0.200 F 
ATOM     98  F   UNL A   1      47.592  25.546  35.875  1.00  0.00    -0.200 F 
ENDBRANCH  65  88
ENDBRANCH  39  40
ENDBRANCH  31  34
ENDBRANCH  29  30
ENDBRANCH  28  29
ENDBRANCH  27  28
ENDBRANCH  26  27
ENDBRANCH  25  26
ENDBRANCH   1  25
TORSDOF 19
ENDMDL
