MODEL 1
REMARK VINA RESULT:     -11.5      0.000      0.000
REMARK SMILES C[N@@H+](CC(=O)NCCCCCCNC(=O)c1ccc(-c2c3nc(c(-c4c(F)c(F)c(F)c(F)c4F)c4ccc([nH]4)c(-c4c(F)c(F)c(F)c(F)c4F)c4nc(c(-c5c(F)c(F)c(F)c(F)c5F)c5ccc2[nH]5)C=C4)C=C3)cc1)Cc1csc(-c2ccco2)n1
REMARK SMILES IDX 8 1 7 2 6 3 4 4 5 5 3 7 2 8 1 9 79 11 80 12 81 13 89 14
REMARK SMILES IDX 82 15 83 16 84 17 85 18 88 19 86 20 87 21 9 22 10 23 11 24
REMARK SMILES IDX 12 25 13 26 14 27 15 29 16 30 17 31 78 32 18 33 77 34 19 35
REMARK SMILES IDX 20 36 21 37 71 38 22 39 76 40 70 41 72 42 23 43 75 44 69 45
REMARK SMILES IDX 68 46 24 48 56 49 36 50 55 51 37 52 40 53 54 54 73 55 38 56
REMARK SMILES IDX 39 57 53 59 74 60 41 61 25 62 26 63 34 64 27 65 28 66 32 67
REMARK SMILES IDX 35 68 29 69 30 70 33 71 31 72 57 73 58 74 66 75 59 76 60 77
REMARK SMILES IDX 64 78 67 79 61 80 62 81 65 82 63 83 42 84 43 85 51 86 44 87
REMARK SMILES IDX 45 88 49 89 52 90 46 91 47 92 50 93 48 94
REMARK H PARENT 6 6 2 10 13 28 72 47 40 58
REMARK Flexibility Score: inf
ROOT
ATOM      1  C   UNL A   1      33.268  28.792  26.689  1.00  0.00     0.021 C 
ENDROOT
BRANCH   1   2
ATOM      2  C   UNL A   1      32.824  27.693  25.715  1.00  0.00     0.116 C 
BRANCH   2   3
ATOM      3  N   UNL A   1      33.153  26.347  26.151  1.00  0.00    -0.351 N 
ATOM      4  C   UNL A   1      33.751  25.302  25.507  1.00  0.00     0.275 C 
ATOM      5  O   UNL A   1      33.929  24.266  26.153  1.00  0.00    -0.269 OA
ATOM      6  H   UNL A   1      32.897  26.153  27.082  1.00  0.00     0.163 HD
BRANCH   4   7
ATOM      7  C   UNL A   1      34.211  25.410  24.054  1.00  0.00     0.363 C 
BRANCH   7   8
ATOM      8  N   UNL A   1      33.432  24.626  23.101  1.00  0.00    -0.325 N 
ATOM      9  C   UNL A   1      33.639  23.202  23.033  1.00  0.00     0.333 C 
ATOM     10  H   UNL A   1      32.629  24.657  23.729  1.00  0.00     0.348 HD
BRANCH   8  11
ATOM     11  C   UNL A   1      32.609  25.282  22.080  1.00  0.00     0.320 C 
BRANCH  11  12
ATOM     12  C   UNL A   1      31.385  26.000  22.599  1.00  0.00     0.106 A 
ATOM     13  C   UNL A   1      30.569  25.580  23.622  1.00  0.00     0.097 A 
ATOM     14  N   UNL A   1      30.981  27.232  22.058  1.00  0.00    -0.232 NA
ATOM     15  S   UNL A   1      29.305  26.649  23.942  1.00  0.00    -0.119 S 
ATOM     16  C   UNL A   1      29.909  27.668  22.700  1.00  0.00     0.159 A 
BRANCH  16  17
ATOM     17  C   UNL A   1      29.190  28.881  22.442  1.00  0.00     0.162 A 
ATOM     18  C   UNL A   1      27.990  29.334  22.962  1.00  0.00     0.053 A 
ATOM     19  O   UNL A   1      29.717  29.873  21.644  1.00  0.00    -0.462 OA
ATOM     20  C   UNL A   1      27.817  30.669  22.508  1.00  0.00     0.043 A 
ATOM     21  C   UNL A   1      28.890  30.942  21.698  1.00  0.00     0.196 A 
ENDBRANCH  16  17
ENDBRANCH  11  12
ENDBRANCH   8  11
ENDBRANCH   7   8
ENDBRANCH   4   7
ENDBRANCH   2   3
ENDBRANCH   1   2
BRANCH   1  22
ATOM     22  C   UNL A   1      32.150  29.730  27.169  1.00  0.00     0.002 C 
BRANCH  22  23
ATOM     23  C   UNL A   1      31.696  30.757  26.132  1.00  0.00     0.002 C 
BRANCH  23  24
ATOM     24  C   UNL A   1      31.445  32.155  26.697  1.00  0.00     0.021 C 
BRANCH  24  25
ATOM     25  C   UNL A   1      32.683  32.827  27.282  1.00  0.00     0.116 C 
BRANCH  25  26
ATOM     26  N   UNL A   1      32.442  34.229  27.579  1.00  0.00    -0.352 N 
ATOM     27  C   UNL A   1      32.976  34.988  28.593  1.00  0.00     0.251 C 
ATOM     28  H   UNL A   1      31.816  34.694  26.978  1.00  0.00     0.163 HD
ATOM     29  O   UNL A   1      32.500  36.076  28.884  1.00  0.00    -0.269 OA
BRANCH  27  30
ATOM     30  C   UNL A   1      34.136  34.461  29.341  1.00  0.00     0.039 A 
ATOM     31  C   UNL A   1      33.925  33.837  30.571  1.00  0.00     0.014 A 
ATOM     32  C   UNL A   1      35.426  34.568  28.811  1.00  0.00     0.014 A 
ATOM     33  C   UNL A   1      35.007  33.270  31.248  1.00  0.00     0.010 A 
ATOM     34  C   UNL A   1      36.488  33.937  29.449  1.00  0.00     0.010 A 
ATOM     35  C   UNL A   1      36.291  33.288  30.677  1.00  0.00    -0.014 A 
BRANCH  35  36
ATOM     36  C   UNL A   1      37.441  32.640  31.356  1.00  0.00     0.031 A 
ATOM     37  C   UNL A   1      38.170  31.507  30.689  1.00  0.00     0.074 A 
ATOM     38  C   UNL A   1      37.794  33.033  32.595  1.00  0.00     0.049 A 
ATOM     39  N   UNL A   1      39.160  30.778  31.139  1.00  0.00    -0.248 NA
ATOM     40  C   UNL A   1      37.705  31.121  29.346  1.00  0.00     0.031 C 
ATOM     41  C   UNL A   1      37.135  34.089  33.367  1.00  0.00     0.029 A 
ATOM     42  N   UNL A   1      38.788  32.586  33.429  1.00  0.00    -0.354 N 
ATOM     43  C   UNL A   1      39.427  29.847  30.144  1.00  0.00     0.074 A 
ATOM     44  C   UNL A   1      38.458  30.062  29.092  1.00  0.00     0.031 C 
ATOM     45  C   UNL A   1      37.758  34.225  34.547  1.00  0.00     0.029 A 
ATOM     46  C   UNL A   1      38.833  33.242  34.636  1.00  0.00     0.049 A 
ATOM     47  H   UNL A   1      39.411  31.864  33.186  1.00  0.00     0.167 HD
ATOM     48  C   UNL A   1      40.410  28.916  30.100  1.00  0.00     0.037 A 
ATOM     49  C   UNL A   1      39.644  33.063  35.696  1.00  0.00     0.037 A 
ATOM     50  C   UNL A   1      41.383  28.720  31.141  1.00  0.00     0.049 A 
ATOM     51  C   UNL A   1      40.718  32.010  35.627  1.00  0.00     0.074 A 
ATOM     52  C   UNL A   1      42.453  27.841  31.169  1.00  0.00     0.029 A 
ATOM     53  N   UNL A   1      41.403  29.410  32.344  1.00  0.00    -0.354 N 
ATOM     54  N   UNL A   1      41.007  31.184  34.651  1.00  0.00    -0.248 NA
ATOM     55  C   UNL A   1      41.582  31.868  36.807  1.00  0.00     0.031 C 
ATOM     56  C   UNL A   1      43.085  27.961  32.409  1.00  0.00     0.029 A 
ATOM     57  C   UNL A   1      42.450  28.958  33.132  1.00  0.00     0.049 A 
ATOM     58  H   UNL A   1      40.767  30.116  32.601  1.00  0.00     0.167 HD
ATOM     59  C   UNL A   1      42.103  30.450  35.083  1.00  0.00     0.074 A 
ATOM     60  C   UNL A   1      42.436  30.938  36.406  1.00  0.00     0.031 C 
ATOM     61  C   UNL A   1      42.773  29.460  34.444  1.00  0.00     0.037 A 
BRANCH  48  62
ATOM     62  C   UNL A   1      40.480  28.036  28.884  1.00  0.00     0.064 A 
ATOM     63  C   UNL A   1      39.776  26.823  28.809  1.00  0.00     0.173 A 
ATOM     64  C   UNL A   1      41.230  28.426  27.765  1.00  0.00     0.173 A 
ATOM     65  F   UNL A   1      39.052  26.397  29.855  1.00  0.00    -0.203 F 
ATOM     66  C   UNL A   1      39.847  26.021  27.673  1.00  0.00     0.198 A 
ATOM     67  C   UNL A   1      41.271  27.639  26.617  1.00  0.00     0.198 A 
ATOM     68  F   UNL A   1      41.918  29.578  27.779  1.00  0.00    -0.203 F 
ATOM     69  F   UNL A   1      39.208  24.843  27.645  1.00  0.00    -0.200 F 
ATOM     70  C   UNL A   1      40.587  26.433  26.575  1.00  0.00     0.200 A 
ATOM     71  F   UNL A   1      41.975  28.045  25.551  1.00  0.00    -0.200 F 
ATOM     72  F   UNL A   1      40.646  25.665  25.478  1.00  0.00    -0.200 F 
ENDBRANCH  48  62
BRANCH  49  73
ATOM     73  C   UNL A   1      39.489  33.916  36.904  1.00  0.00     0.064 A 
ATOM     74  C   UNL A   1      40.085  35.183  36.974  1.00  0.00     0.173 A 
ATOM     75  C   UNL A   1      38.752  33.481  38.016  1.00  0.00     0.173 A 
ATOM     76  F   UNL A   1      40.816  35.636  35.945  1.00  0.00    -0.203 F 
ATOM     77  C   UNL A   1      39.970  35.972  38.117  1.00  0.00     0.198 A 
ATOM     78  C   UNL A   1      38.612  34.284  39.146  1.00  0.00     0.198 A 
ATOM     79  F   UNL A   1      38.157  32.279  37.998  1.00  0.00    -0.203 F 
ATOM     80  F   UNL A   1      40.593  37.157  38.176  1.00  0.00    -0.200 F 
ATOM     81  C   UNL A   1      39.229  35.523  39.199  1.00  0.00     0.200 A 
ATOM     82  F   UNL A   1      37.881  33.853  40.183  1.00  0.00    -0.200 F 
ATOM     83  F   UNL A   1      39.116  36.284  40.297  1.00  0.00    -0.200 F 
ENDBRANCH  49  73
BRANCH  61  84
ATOM     84  C   UNL A   1      43.959  28.865  35.147  1.00  0.00     0.064 A 
ATOM     85  C   UNL A   1      45.253  29.382  34.979  1.00  0.00     0.173 A 
ATOM     86  C   UNL A   1      43.793  27.788  36.032  1.00  0.00     0.173 A 
ATOM     87  F   UNL A   1      45.469  30.401  34.134  1.00  0.00    -0.203 F 
ATOM     88  C   UNL A   1      46.338  28.824  35.649  1.00  0.00     0.198 A 
ATOM     89  C   UNL A   1      44.875  27.255  36.726  1.00  0.00     0.198 A 
ATOM     90  F   UNL A   1      42.576  27.261  36.235  1.00  0.00    -0.203 F 
ATOM     91  F   UNL A   1      47.573  29.300  35.433  1.00  0.00    -0.200 F 
ATOM     92  C   UNL A   1      46.148  27.767  36.528  1.00  0.00     0.200 A 
ATOM     93  F   UNL A   1      44.686  26.246  37.587  1.00  0.00    -0.200 F 
ATOM     94  F   UNL A   1      47.193  27.238  37.179  1.00  0.00    -0.200 F 
ENDBRANCH  61  84
ENDBRANCH  35  36
ENDBRANCH  27  30
ENDBRANCH  25  26
ENDBRANCH  24  25
ENDBRANCH  23  24
ENDBRANCH  22  23
ENDBRANCH   1  22
TORSDOF 17
ENDMDL
MODEL 2
REMARK VINA RESULT:     -11.4      0.583      7.337
REMARK SMILES C[N@@H+](CC(=O)NCCCCCCNC(=O)c1ccc(-c2c3nc(c(-c4c(F)c(F)c(F)c(F)c4F)c4ccc([nH]4)c(-c4c(F)c(F)c(F)c(F)c4F)c4nc(c(-c5c(F)c(F)c(F)c(F)c5F)c5ccc2[nH]5)C=C4)C=C3)cc1)Cc1csc(-c2ccco2)n1
REMARK SMILES IDX 8 1 7 2 6 3 4 4 5 5 3 7 2 8 1 9 79 11 80 12 81 13 89 14
REMARK SMILES IDX 82 15 83 16 84 17 85 18 88 19 86 20 87 21 9 22 10 23 11 24
REMARK SMILES IDX 12 25 13 26 14 27 15 29 16 30 17 31 78 32 18 33 77 34 19 35
REMARK SMILES IDX 20 36 21 37 71 38 22 39 76 40 70 41 72 42 23 43 75 44 69 45
REMARK SMILES IDX 68 46 24 48 56 49 36 50 55 51 37 52 40 53 54 54 73 55 38 56
REMARK SMILES IDX 39 57 53 59 74 60 41 61 25 62 26 63 34 64 27 65 28 66 32 67
REMARK SMILES IDX 35 68 29 69 30 70 33 71 31 72 57 73 58 74 66 75 59 76 60 77
REMARK SMILES IDX 64 78 67 79 61 80 62 81 65 82 63 83 42 84 43 85 51 86 44 87
REMARK SMILES IDX 45 88 49 89 52 90 46 91 47 92 50 93 48 94
REMARK H PARENT 6 6 2 10 13 28 72 47 40 58
REMARK Flexibility Score: inf
ROOT
ATOM      1  C   UNL A   1      33.052  28.805  26.864  1.00  0.00     0.021 C 
ENDROOT
BRANCH   1   2
ATOM      2  C   UNL A   1      32.764  27.837  25.709  1.00  0.00     0.116 C 
BRANCH   2   3
ATOM      3  N   UNL A   1      32.796  26.436  26.089  1.00  0.00    -0.351 N 
ATOM      4  C   UNL A   1      33.311  25.334  25.466  1.00  0.00     0.275 C 
ATOM      5  O   UNL A   1      33.212  24.254  26.054  1.00  0.00    -0.269 OA
ATOM      6  H   UNL A   1      32.367  26.244  26.955  1.00  0.00     0.163 HD
BRANCH   4   7
ATOM      7  C   UNL A   1      34.007  25.430  24.110  1.00  0.00     0.363 C 
BRANCH   7   8
ATOM      8  N   UNL A   1      33.258  24.866  22.991  1.00  0.00    -0.325 N 
ATOM      9  C   UNL A   1      33.359  23.454  22.723  1.00  0.00     0.333 C 
ATOM     10  H   UNL A   1      32.406  24.878  23.553  1.00  0.00     0.348 HD
BRANCH   8  11
ATOM     11  C   UNL A   1      32.583  25.735  22.022  1.00  0.00     0.320 C 
BRANCH  11  12
ATOM     12  C   UNL A   1      31.324  26.406  22.521  1.00  0.00     0.106 A 
ATOM     13  C   UNL A   1      30.408  25.869  23.393  1.00  0.00     0.097 A 
ATOM     14  N   UNL A   1      30.992  27.713  22.127  1.00  0.00    -0.232 NA
ATOM     15  S   UNL A   1      29.134  26.917  23.743  1.00  0.00    -0.119 S 
ATOM     16  C   UNL A   1      29.869  28.084  22.722  1.00  0.00     0.159 A 
BRANCH  16  17
ATOM     17  C   UNL A   1      29.196  29.341  22.574  1.00  0.00     0.162 A 
ATOM     18  C   UNL A   1      29.164  30.440  23.415  1.00  0.00     0.053 A 
ATOM     19  O   UNL A   1      28.521  29.663  21.417  1.00  0.00    -0.462 OA
ATOM     20  C   UNL A   1      28.498  31.481  22.716  1.00  0.00     0.043 A 
ATOM     21  C   UNL A   1      28.114  30.949  21.510  1.00  0.00     0.196 A 
ENDBRANCH  16  17
ENDBRANCH  11  12
ENDBRANCH   8  11
ENDBRANCH   7   8
ENDBRANCH   4   7
ENDBRANCH   2   3
ENDBRANCH   1   2
BRANCH   1  22
ATOM     22  C   UNL A   1      31.904  29.763  27.215  1.00  0.00     0.002 C 
BRANCH  22  23
ATOM     23  C   UNL A   1      31.588  30.795  26.133  1.00  0.00     0.002 C 
BRANCH  23  24
ATOM     24  C   UNL A   1      31.411  32.221  26.655  1.00  0.00     0.021 C 
BRANCH  24  25
ATOM     25  C   UNL A   1      32.684  32.847  27.214  1.00  0.00     0.116 C 
BRANCH  25  26
ATOM     26  N   UNL A   1      32.473  34.229  27.611  1.00  0.00    -0.352 N 
ATOM     27  C   UNL A   1      33.035  34.905  28.667  1.00  0.00     0.251 C 
ATOM     28  H   UNL A   1      31.847  34.745  27.054  1.00  0.00     0.163 HD
ATOM     29  O   UNL A   1      32.582  35.979  29.041  1.00  0.00    -0.269 OA
BRANCH  27  30
ATOM     30  C   UNL A   1      34.195  34.308  29.361  1.00  0.00     0.039 A 
ATOM     31  C   UNL A   1      33.978  33.507  30.483  1.00  0.00     0.014 A 
ATOM     32  C   UNL A   1      35.491  34.525  28.882  1.00  0.00     0.014 A 
ATOM     33  C   UNL A   1      35.063  32.879  31.097  1.00  0.00     0.010 A 
ATOM     34  C   UNL A   1      36.559  33.836  29.448  1.00  0.00     0.010 A 
ATOM     35  C   UNL A   1      36.357  33.013  30.566  1.00  0.00    -0.014 A 
BRANCH  35  36
ATOM     36  C   UNL A   1      37.513  32.305  31.172  1.00  0.00     0.031 A 
ATOM     37  C   UNL A   1      38.002  32.693  32.540  1.00  0.00     0.074 A 
ATOM     38  C   UNL A   1      38.155  31.352  30.469  1.00  0.00     0.049 A 
ATOM     39  N   UNL A   1      39.025  32.234  33.215  1.00  0.00    -0.248 NA
ATOM     40  C   UNL A   1      37.260  33.761  33.229  1.00  0.00     0.031 C 
ATOM     41  C   UNL A   1      37.806  30.919  29.115  1.00  0.00     0.029 A 
ATOM     42  N   UNL A   1      39.243  30.580  30.792  1.00  0.00    -0.354 N 
ATOM     43  C   UNL A   1      39.054  32.960  34.398  1.00  0.00     0.074 A 
ATOM     44  C   UNL A   1      37.985  33.932  34.325  1.00  0.00     0.031 C 
ATOM     45  C   UNL A   1      38.645  29.944  28.735  1.00  0.00     0.029 A 
ATOM     46  C   UNL A   1      39.617  29.709  29.798  1.00  0.00     0.049 A 
ATOM     47  H   UNL A   1      39.713  30.645  31.655  1.00  0.00     0.167 HD
ATOM     48  C   UNL A   1      39.880  32.812  35.461  1.00  0.00     0.037 A 
ATOM     49  C   UNL A   1      40.633  28.827  29.747  1.00  0.00     0.037 A 
ATOM     50  C   UNL A   1      40.929  31.830  35.537  1.00  0.00     0.049 A 
ATOM     51  C   UNL A   1      41.546  28.693  30.936  1.00  0.00     0.074 A 
ATOM     52  C   UNL A   1      41.785  31.562  36.592  1.00  0.00     0.029 A 
ATOM     53  N   UNL A   1      41.270  30.958  34.514  1.00  0.00    -0.354 N 
ATOM     54  N   UNL A   1      41.519  29.335  32.079  1.00  0.00    -0.248 NA
ATOM     55  C   UNL A   1      42.630  27.707  30.831  1.00  0.00     0.031 C 
ATOM     56  C   UNL A   1      42.678  30.566  36.187  1.00  0.00     0.029 A 
ATOM     57  C   UNL A   1      42.341  30.169  34.903  1.00  0.00     0.049 A 
ATOM     58  H   UNL A   1      40.819  30.907  33.641  1.00  0.00     0.167 HD
ATOM     59  C   UNL A   1      42.556  28.811  32.839  1.00  0.00     0.074 A 
ATOM     60  C   UNL A   1      43.185  27.785  32.032  1.00  0.00     0.031 C 
ATOM     61  C   UNL A   1      42.952  29.147  34.090  1.00  0.00     0.037 A 
BRANCH  48  62
ATOM     62  C   UNL A   1      39.681  33.735  36.630  1.00  0.00     0.064 A 
ATOM     63  C   UNL A   1      38.876  33.378  37.724  1.00  0.00     0.173 A 
ATOM     64  C   UNL A   1      40.331  34.977  36.676  1.00  0.00     0.173 A 
ATOM     65  F   UNL A   1      38.223  32.207  37.727  1.00  0.00    -0.203 F 
ATOM     66  C   UNL A   1      38.706  34.242  38.802  1.00  0.00     0.198 A 
ATOM     67  C   UNL A   1      40.187  35.825  37.771  1.00  0.00     0.198 A 
ATOM     68  F   UNL A   1      41.117  35.368  35.661  1.00  0.00    -0.203 F 
ATOM     69  F   UNL A   1      37.891  33.901  39.811  1.00  0.00    -0.200 F 
ATOM     70  C   UNL A   1      39.368  35.461  38.829  1.00  0.00     0.200 A 
ATOM     71  F   UNL A   1      40.838  36.996  37.802  1.00  0.00    -0.200 F 
ATOM     72  F   UNL A   1      39.211  36.287  39.873  1.00  0.00    -0.200 F 
ENDBRANCH  48  62
BRANCH  49  73
ATOM     73  C   UNL A   1      40.828  27.984  28.538  1.00  0.00     0.064 A 
ATOM     74  C   UNL A   1      41.664  28.402  27.494  1.00  0.00     0.173 A 
ATOM     75  C   UNL A   1      40.176  26.749  28.395  1.00  0.00     0.173 A 
ATOM     76  F   UNL A   1      42.295  29.583  27.574  1.00  0.00    -0.203 F 
ATOM     77  C   UNL A   1      41.824  27.631  26.345  1.00  0.00     0.198 A 
ATOM     78  C   UNL A   1      40.361  25.965  27.259  1.00  0.00     0.198 A 
ATOM     79  F   UNL A   1      39.368  26.300  29.367  1.00  0.00    -0.203 F 
ATOM     80  F   UNL A   1      42.590  28.079  25.341  1.00  0.00    -0.200 F 
ATOM     81  C   UNL A   1      41.176  26.410  26.231  1.00  0.00     0.200 A 
ATOM     82  F   UNL A   1      39.745  24.778  27.161  1.00  0.00    -0.200 F 
ATOM     83  F   UNL A   1      41.332  25.667  25.127  1.00  0.00    -0.200 F 
ENDBRANCH  49  73
BRANCH  61  84
ATOM     84  C   UNL A   1      44.094  28.373  34.684  1.00  0.00     0.064 A 
ATOM     85  C   UNL A   1      43.888  27.176  35.387  1.00  0.00     0.173 A 
ATOM     86  C   UNL A   1      45.415  28.814  34.511  1.00  0.00     0.173 A 
ATOM     87  F   UNL A   1      42.644  26.718  35.592  1.00  0.00    -0.203 F 
ATOM     88  C   UNL A   1      44.962  26.466  35.918  1.00  0.00     0.198 A 
ATOM     89  C   UNL A   1      46.487  28.084  35.014  1.00  0.00     0.198 A 
ATOM     90  F   UNL A   1      45.667  29.948  33.840  1.00  0.00    -0.203 F 
ATOM     91  F   UNL A   1      44.738  25.353  36.632  1.00  0.00    -0.200 F 
ATOM     92  C   UNL A   1      46.260  26.915  35.725  1.00  0.00     0.200 A 
ATOM     93  F   UNL A   1      47.741  28.511  34.812  1.00  0.00    -0.200 F 
ATOM     94  F   UNL A   1      47.292  26.225  36.230  1.00  0.00    -0.200 F 
ENDBRANCH  61  84
ENDBRANCH  35  36
ENDBRANCH  27  30
ENDBRANCH  25  26
ENDBRANCH  24  25
ENDBRANCH  23  24
ENDBRANCH  22  23
ENDBRANCH   1  22
TORSDOF 17
ENDMDL
MODEL 3
REMARK VINA RESULT:     -11.4      5.730     11.287
REMARK SMILES C[N@@H+](CC(=O)NCCCCCCNC(=O)c1ccc(-c2c3nc(c(-c4c(F)c(F)c(F)c(F)c4F)c4ccc([nH]4)c(-c4c(F)c(F)c(F)c(F)c4F)c4nc(c(-c5c(F)c(F)c(F)c(F)c5F)c5ccc2[nH]5)C=C4)C=C3)cc1)Cc1csc(-c2ccco2)n1
REMARK SMILES IDX 8 1 7 2 6 3 4 4 5 5 3 7 2 8 1 9 79 11 80 12 81 13 89 14
REMARK SMILES IDX 82 15 83 16 84 17 85 18 88 19 86 20 87 21 9 22 10 23 11 24
REMARK SMILES IDX 12 25 13 26 14 27 15 29 16 30 17 31 78 32 18 33 77 34 19 35
REMARK SMILES IDX 20 36 21 37 71 38 22 39 76 40 70 41 72 42 23 43 75 44 69 45
REMARK SMILES IDX 68 46 24 48 56 49 36 50 55 51 37 52 40 53 54 54 73 55 38 56
REMARK SMILES IDX 39 57 53 59 74 60 41 61 25 62 26 63 34 64 27 65 28 66 32 67
REMARK SMILES IDX 35 68 29 69 30 70 33 71 31 72 57 73 58 74 66 75 59 76 60 77
REMARK SMILES IDX 64 78 67 79 61 80 62 81 65 82 63 83 42 84 43 85 51 86 44 87
REMARK SMILES IDX 45 88 49 89 52 90 46 91 47 92 50 93 48 94
REMARK H PARENT 6 6 2 10 13 28 72 47 40 58
REMARK Flexibility Score: inf
ROOT
ATOM      1  C   UNL A   1      36.723  23.380  25.050  1.00  0.00     0.021 C 
ENDROOT
BRANCH   1   2
ATOM      2  C   UNL A   1      35.237  23.650  25.322  1.00  0.00     0.116 C 
BRANCH   2   3
ATOM      3  N   UNL A   1      34.705  24.800  24.610  1.00  0.00    -0.351 N 
ATOM      4  C   UNL A   1      33.687  25.661  24.904  1.00  0.00     0.275 C 
ATOM      5  O   UNL A   1      33.476  26.581  24.108  1.00  0.00    -0.269 OA
ATOM      6  H   UNL A   1      35.162  24.992  23.759  1.00  0.00     0.163 HD
BRANCH   4   7
ATOM      7  C   UNL A   1      32.855  25.518  26.177  1.00  0.00     0.363 C 
BRANCH   7   8
ATOM      8  N   UNL A   1      31.624  24.749  26.026  1.00  0.00    -0.325 N 
ATOM      9  C   UNL A   1      30.389  25.447  25.776  1.00  0.00     0.333 C 
ATOM     10  H   UNL A   1      31.888  24.510  25.070  1.00  0.00     0.348 HD
BRANCH   8  11
ATOM     11  C   UNL A   1      31.590  23.315  26.332  1.00  0.00     0.320 C 
BRANCH  11  12
ATOM     12  C   UNL A   1      31.875  22.398  25.165  1.00  0.00     0.106 A 
ATOM     13  C   UNL A   1      31.756  22.716  23.833  1.00  0.00     0.097 A 
ATOM     14  N   UNL A   1      32.332  21.085  25.367  1.00  0.00    -0.232 NA
ATOM     15  S   UNL A   1      32.179  21.445  22.809  1.00  0.00    -0.119 S 
ATOM     16  C   UNL A   1      32.537  20.501  24.197  1.00  0.00     0.159 A 
BRANCH  16  17
ATOM     17  C   UNL A   1      32.995  19.161  23.976  1.00  0.00     0.162 A 
ATOM     18  C   UNL A   1      32.556  18.206  23.075  1.00  0.00     0.053 A 
ATOM     19  O   UNL A   1      34.096  18.659  24.635  1.00  0.00    -0.462 OA
ATOM     20  C   UNL A   1      33.462  17.115  23.151  1.00  0.00     0.043 A 
ATOM     21  C   UNL A   1      34.371  17.437  24.127  1.00  0.00     0.196 A 
ENDBRANCH  16  17
ENDBRANCH  11  12
ENDBRANCH   8  11
ENDBRANCH   7   8
ENDBRANCH   4   7
ENDBRANCH   2   3
ENDBRANCH   1   2
BRANCH   1  22
ATOM     22  C   UNL A   1      37.017  22.115  24.229  1.00  0.00     0.002 C 
BRANCH  22  23
ATOM     23  C   UNL A   1      36.774  20.804  24.975  1.00  0.00     0.002 C 
BRANCH  23  24
ATOM     24  C   UNL A   1      37.952  19.831  24.940  1.00  0.00     0.021 C 
BRANCH  24  25
ATOM     25  C   UNL A   1      39.144  20.257  25.791  1.00  0.00     0.116 C 
BRANCH  25  26
ATOM     26  N   UNL A   1      40.114  19.185  25.932  1.00  0.00    -0.352 N 
ATOM     27  C   UNL A   1      41.478  19.284  26.065  1.00  0.00     0.251 C 
ATOM     28  H   UNL A   1      39.747  18.271  25.931  1.00  0.00     0.163 HD
ATOM     29  O   UNL A   1      42.198  18.306  25.919  1.00  0.00    -0.269 OA
BRANCH  27  30
ATOM     30  C   UNL A   1      42.070  20.601  26.377  1.00  0.00     0.039 A 
ATOM     31  C   UNL A   1      42.452  21.440  25.330  1.00  0.00     0.014 A 
ATOM     32  C   UNL A   1      42.223  21.008  27.706  1.00  0.00     0.014 A 
ATOM     33  C   UNL A   1      42.942  22.716  25.617  1.00  0.00     0.010 A 
ATOM     34  C   UNL A   1      42.638  22.307  27.986  1.00  0.00     0.010 A 
ATOM     35  C   UNL A   1      43.009  23.170  26.945  1.00  0.00    -0.014 A 
BRANCH  35  36
ATOM     36  C   UNL A   1      43.472  24.544  27.264  1.00  0.00     0.031 A 
ATOM     37  C   UNL A   1      42.506  25.558  27.810  1.00  0.00     0.074 A 
ATOM     38  C   UNL A   1      44.747  24.895  27.009  1.00  0.00     0.049 A 
ATOM     39  N   UNL A   1      42.703  26.820  28.098  1.00  0.00    -0.248 NA
ATOM     40  C   UNL A   1      41.125  25.101  28.035  1.00  0.00     0.031 C 
ATOM     41  C   UNL A   1      45.768  24.015  26.436  1.00  0.00     0.029 A 
ATOM     42  N   UNL A   1      45.403  26.087  27.190  1.00  0.00    -0.354 N 
ATOM     43  C   UNL A   1      41.475  27.306  28.527  1.00  0.00     0.074 A 
ATOM     44  C   UNL A   1      40.524  26.223  28.405  1.00  0.00     0.031 C 
ATOM     45  C   UNL A   1      46.924  24.688  26.338  1.00  0.00     0.029 A 
ATOM     46  C   UNL A   1      46.720  26.058  26.800  1.00  0.00     0.049 A 
ATOM     47  H   UNL A   1      44.970  26.888  27.564  1.00  0.00     0.167 HD
ATOM     48  C   UNL A   1      41.173  28.537  29.006  1.00  0.00     0.037 A 
ATOM     49  C   UNL A   1      47.654  27.028  26.808  1.00  0.00     0.037 A 
ATOM     50  C   UNL A   1      42.128  29.605  29.144  1.00  0.00     0.049 A 
ATOM     51  C   UNL A   1      47.288  28.391  27.330  1.00  0.00     0.074 A 
ATOM     52  C   UNL A   1      41.936  30.871  29.670  1.00  0.00     0.029 A 
ATOM     53  N   UNL A   1      43.455  29.534  28.748  1.00  0.00    -0.354 N 
ATOM     54  N   UNL A   1      46.142  28.819  27.801  1.00  0.00    -0.248 NA
ATOM     55  C   UNL A   1      48.349  29.408  27.327  1.00  0.00     0.031 C 
ATOM     56  C   UNL A   1      43.132  31.583  29.542  1.00  0.00     0.029 A 
ATOM     57  C   UNL A   1      44.087  30.743  28.993  1.00  0.00     0.049 A 
ATOM     58  H   UNL A   1      43.885  28.743  28.351  1.00  0.00     0.167 HD
ATOM     59  C   UNL A   1      46.351  30.138  28.180  1.00  0.00     0.074 A 
ATOM     60  C   UNL A   1      47.740  30.437  27.897  1.00  0.00     0.031 C 
ATOM     61  C   UNL A   1      45.473  31.023  28.713  1.00  0.00     0.037 A 
BRANCH  48  62
ATOM     62  C   UNL A   1      39.751  28.794  29.416  1.00  0.00     0.064 A 
ATOM     63  C   UNL A   1      39.303  28.548  30.723  1.00  0.00     0.173 A 
ATOM     64  C   UNL A   1      38.831  29.328  28.500  1.00  0.00     0.173 A 
ATOM     65  F   UNL A   1      40.138  28.028  31.636  1.00  0.00    -0.203 F 
ATOM     66  C   UNL A   1      37.983  28.797  31.089  1.00  0.00     0.198 A 
ATOM     67  C   UNL A   1      37.521  29.608  28.878  1.00  0.00     0.198 A 
ATOM     68  F   UNL A   1      39.206  29.588  27.238  1.00  0.00    -0.203 F 
ATOM     69  F   UNL A   1      37.566  28.505  32.329  1.00  0.00    -0.200 F 
ATOM     70  C   UNL A   1      37.095  29.334  30.169  1.00  0.00     0.200 A 
ATOM     71  F   UNL A   1      36.668  30.141  27.992  1.00  0.00    -0.200 F 
ATOM     72  F   UNL A   1      35.827  29.583  30.526  1.00  0.00    -0.200 F 
ENDBRANCH  48  62
BRANCH  49  73
ATOM     73  C   UNL A   1      49.031  26.740  26.327  1.00  0.00     0.064 A 
ATOM     74  C   UNL A   1      49.397  26.984  24.997  1.00  0.00     0.173 A 
ATOM     75  C   UNL A   1      50.006  26.206  27.183  1.00  0.00     0.173 A 
ATOM     76  F   UNL A   1      48.494  27.476  24.134  1.00  0.00    -0.203 F 
ATOM     77  C   UNL A   1      50.676  26.685  24.533  1.00  0.00     0.198 A 
ATOM     78  C   UNL A   1      51.295  25.936  26.726  1.00  0.00     0.198 A 
ATOM     79  F   UNL A   1      49.710  25.958  28.467  1.00  0.00    -0.203 F 
ATOM     80  F   UNL A   1      50.982  26.882  23.244  1.00  0.00    -0.200 F 
ATOM     81  C   UNL A   1      51.626  26.166  25.400  1.00  0.00     0.200 A 
ATOM     82  F   UNL A   1      52.214  25.450  27.572  1.00  0.00    -0.200 F 
ATOM     83  F   UNL A   1      52.857  25.881  24.955  1.00  0.00    -0.200 F 
ENDBRANCH  49  73
BRANCH  61  84
ATOM     84  C   UNL A   1      45.995  32.386  29.064  1.00  0.00     0.064 A 
ATOM     85  C   UNL A   1      46.576  32.655  30.313  1.00  0.00     0.173 A 
ATOM     86  C   UNL A   1      45.952  33.427  28.123  1.00  0.00     0.173 A 
ATOM     87  F   UNL A   1      46.630  31.699  31.253  1.00  0.00    -0.203 F 
ATOM     88  C   UNL A   1      47.066  33.923  30.616  1.00  0.00     0.198 A 
ATOM     89  C   UNL A   1      46.473  34.682  28.417  1.00  0.00     0.198 A 
ATOM     90  F   UNL A   1      45.415  33.220  26.912  1.00  0.00    -0.203 F 
ATOM     91  F   UNL A   1      47.568  34.172  31.834  1.00  0.00    -0.200 F 
ATOM     92  C   UNL A   1      47.022  34.933  29.666  1.00  0.00     0.200 A 
ATOM     93  F   UNL A   1      46.445  35.652  27.493  1.00  0.00    -0.200 F 
ATOM     94  F   UNL A   1      47.503  36.150  29.956  1.00  0.00    -0.200 F 
ENDBRANCH  61  84
ENDBRANCH  35  36
ENDBRANCH  27  30
ENDBRANCH  25  26
ENDBRANCH  24  25
ENDBRANCH  23  24
ENDBRANCH  22  23
ENDBRANCH   1  22
TORSDOF 17
ENDMDL
