MODEL 1
REMARK VINA RESULT:     -12.8      0.000      0.000
REMARK SMILES NS(=O)(=O)c1ccc(N2N=C(C(=O)NCCCCCCNC(=O)c3ccc(-c4c5nc(c(-c6c(F)c(F)c(F)c(F)c6F)c6ccc([nH]6)c(-c6c(F)c(F)c(F)c(F)c6F)c6nc(c(-c7c(F)c(F)c(F)c(F)c7F)c7ccc4[nH]7)C=C6)C=C5)cc3)C[C@H]2c2cccs2)cc1
REMARK SMILES IDX 17 1 16 2 15 3 14 4 12 5 13 6 11 8 9 9 10 10 88 11 87 12
REMARK SMILES IDX 8 13 5 14 6 15 95 16 7 17 94 18 2 19 3 20 4 21 1 22 89 25
REMARK SMILES IDX 90 26 93 27 91 28 92 29 18 30 19 31 20 32 21 33 22 34 23 36
REMARK SMILES IDX 24 37 25 38 86 39 26 40 85 41 27 42 28 43 29 44 79 45 30 46
REMARK SMILES IDX 84 47 78 48 80 49 31 50 83 51 77 52 76 53 32 55 64 56 44 57
REMARK SMILES IDX 63 58 45 59 48 60 62 61 81 62 46 63 47 64 61 66 82 67 49 68
REMARK SMILES IDX 33 69 34 70 42 71 35 72 36 73 40 74 43 75 37 76 38 77 41 78
REMARK SMILES IDX 39 79 65 80 66 81 74 82 67 83 68 84 72 85 75 86 69 87 70 88
REMARK SMILES IDX 73 89 71 90 50 91 51 92 59 93 52 94 53 95 57 96 60 97 54 98
REMARK SMILES IDX 55 99 58 100 56 101
REMARK H PARENT 14 7 1 23 1 24 21 35 80 54 48 65
REMARK Flexibility Score: inf
ROOT
ATOM      1  C   UNL A   1      32.248  29.767  27.050  1.00  0.00     0.002 C 
ENDROOT
BRANCH   1   2
ATOM      2  C   UNL A   1      31.911  28.303  26.760  1.00  0.00     0.021 C 
BRANCH   2   3
ATOM      3  C   UNL A   1      33.092  27.432  26.341  1.00  0.00     0.116 C 
BRANCH   3   4
ATOM      4  N   UNL A   1      33.140  27.252  24.906  1.00  0.00    -0.351 N 
ATOM      5  C   UNL A   1      33.521  26.221  24.084  1.00  0.00     0.267 C 
ATOM      6  O   UNL A   1      33.485  26.425  22.873  1.00  0.00    -0.268 OA
ATOM      7  H   UNL A   1      32.832  28.044  24.409  1.00  0.00     0.163 HD
BRANCH   5   8
ATOM      8  C   UNL A   1      33.945  24.844  24.576  1.00  0.00     0.128 C 
ATOM      9  N   UNL A   1      35.206  23.134  24.821  1.00  0.00    -0.256 N 
ATOM     10  N   UNL A   1      35.173  24.439  24.437  1.00  0.00    -0.171 NA
ATOM     11  C   UNL A   1      33.925  22.638  25.325  1.00  0.00     0.154 C 
ATOM     12  C   UNL A   1      33.037  23.885  25.269  1.00  0.00     0.097 C 
BRANCH   9  13
ATOM     13  C   UNL A   1      36.405  22.533  25.201  1.00  0.00     0.060 A 
ATOM     14  C   UNL A   1      38.878  21.374  25.873  1.00  0.00     0.082 A 
ATOM     15  C   UNL A   1      37.889  20.595  25.270  1.00  0.00     0.024 A 
ATOM     16  C   UNL A   1      38.633  22.712  26.178  1.00  0.00     0.024 A 
ATOM     17  C   UNL A   1      36.656  21.175  24.952  1.00  0.00     0.029 A 
ATOM     18  C   UNL A   1      37.406  23.282  25.838  1.00  0.00     0.029 A 
BRANCH  14  19
ATOM     19  S   UNL A   1      40.448  20.691  26.299  1.00  0.00     0.238 S 
ATOM     20  O   UNL A   1      40.542  20.608  27.743  1.00  0.00    -0.207 OA
ATOM     21  O   UNL A   1      41.455  21.329  25.491  1.00  0.00    -0.207 OA
BRANCH  19  22
ATOM     22  N   UNL A   1      40.370  19.096  25.776  1.00  0.00    -0.225 NA
ATOM     23  H   UNL A   1      39.409  18.761  25.850  1.00  0.00     0.137 HD
ATOM     24  H   UNL A   1      40.977  18.518  26.356  1.00  0.00     0.137 HD
ENDBRANCH  19  22
ENDBRANCH  14  19
ENDBRANCH   9  13
BRANCH  11  25
ATOM     25  C   UNL A   1      33.326  21.436  24.623  1.00  0.00     0.030 A 
ATOM     26  C   UNL A   1      32.746  21.414  23.366  1.00  0.00     0.017 A 
ATOM     27  S   UNL A   1      33.249  19.885  25.358  1.00  0.00    -0.147 S 
ATOM     28  C   UNL A   1      32.279  20.120  22.997  1.00  0.00     0.012 A 
ATOM     29  C   UNL A   1      32.530  19.187  23.976  1.00  0.00     0.065 A 
ENDBRANCH  11  25
ENDBRANCH   5   8
ENDBRANCH   3   4
ENDBRANCH   2   3
ENDBRANCH   1   2
BRANCH   1  30
ATOM     30  C   UNL A   1      31.640  30.795  26.092  1.00  0.00     0.002 C 
BRANCH  30  31
ATOM     31  C   UNL A   1      31.400  32.191  26.671  1.00  0.00     0.021 C 
BRANCH  31  32
ATOM     32  C   UNL A   1      32.625  32.870  27.275  1.00  0.00     0.116 C 
BRANCH  32  33
ATOM     33  N   UNL A   1      32.369  34.242  27.669  1.00  0.00    -0.352 N 
ATOM     34  C   UNL A   1      32.967  34.994  28.651  1.00  0.00     0.251 C 
ATOM     35  H   UNL A   1      31.666  34.703  27.157  1.00  0.00     0.163 HD
ATOM     36  O   UNL A   1      32.517  36.097  28.940  1.00  0.00    -0.269 OA
BRANCH  34  37
ATOM     37  C   UNL A   1      34.138  34.465  29.383  1.00  0.00     0.039 A 
ATOM     38  C   UNL A   1      33.932  33.847  30.619  1.00  0.00     0.014 A 
ATOM     39  C   UNL A   1      35.432  34.590  28.869  1.00  0.00     0.014 A 
ATOM     40  C   UNL A   1      35.015  33.306  31.314  1.00  0.00     0.010 A 
ATOM     41  C   UNL A   1      36.501  33.991  29.529  1.00  0.00     0.010 A 
ATOM     42  C   UNL A   1      36.304  33.348  30.761  1.00  0.00    -0.014 A 
BRANCH  42  43
ATOM     43  C   UNL A   1      37.458  32.722  31.455  1.00  0.00     0.031 A 
ATOM     44  C   UNL A   1      38.185  31.566  30.827  1.00  0.00     0.074 A 
ATOM     45  C   UNL A   1      37.803  33.145  32.684  1.00  0.00     0.049 A 
ATOM     46  N   UNL A   1      39.169  30.848  31.306  1.00  0.00    -0.248 NA
ATOM     47  C   UNL A   1      37.720  31.141  29.499  1.00  0.00     0.031 C 
ATOM     48  C   UNL A   1      37.135  34.217  33.425  1.00  0.00     0.029 A 
ATOM     49  N   UNL A   1      38.788  32.714  33.537  1.00  0.00    -0.354 N 
ATOM     50  C   UNL A   1      39.429  29.877  30.349  1.00  0.00     0.074 A 
ATOM     51  C   UNL A   1      38.465  30.066  29.285  1.00  0.00     0.031 C 
ATOM     52  C   UNL A   1      37.737  34.367  34.616  1.00  0.00     0.029 A 
ATOM     53  C   UNL A   1      38.811  33.384  34.735  1.00  0.00     0.049 A 
ATOM     54  H   UNL A   1      39.419  31.993  33.311  1.00  0.00     0.167 HD
ATOM     55  C   UNL A   1      40.394  28.927  30.347  1.00  0.00     0.037 A 
ATOM     56  C   UNL A   1      39.601  33.220  35.812  1.00  0.00     0.037 A 
ATOM     57  C   UNL A   1      41.368  28.762  31.395  1.00  0.00     0.049 A 
ATOM     58  C   UNL A   1      40.683  32.177  35.780  1.00  0.00     0.074 A 
ATOM     59  C   UNL A   1      42.441  27.889  31.447  1.00  0.00     0.029 A 
ATOM     60  N   UNL A   1      41.382  29.483  32.580  1.00  0.00    -0.354 N 
ATOM     61  N   UNL A   1      40.974  31.319  34.833  1.00  0.00    -0.248 NA
ATOM     62  C   UNL A   1      41.552  32.086  36.962  1.00  0.00     0.031 C 
ATOM     63  C   UNL A   1      43.075  28.049  32.684  1.00  0.00     0.029 A 
ATOM     64  C   UNL A   1      42.428  29.055  33.383  1.00  0.00     0.049 A 
ATOM     65  H   UNL A   1      40.743  30.194  32.816  1.00  0.00     0.167 HD
ATOM     66  C   UNL A   1      42.068  30.600  35.293  1.00  0.00     0.074 A 
ATOM     67  C   UNL A   1      42.398  31.132  36.599  1.00  0.00     0.031 C 
ATOM     68  C   UNL A   1      42.738  29.589  34.686  1.00  0.00     0.037 A 
BRANCH  55  69
ATOM     69  C   UNL A   1      40.435  27.987  29.176  1.00  0.00     0.064 A 
ATOM     70  C   UNL A   1      41.212  28.257  28.039  1.00  0.00     0.173 A 
ATOM     71  C   UNL A   1      39.691  26.798  29.194  1.00  0.00     0.173 A 
ATOM     72  F   UNL A   1      41.934  29.385  27.966  1.00  0.00    -0.203 F 
ATOM     73  C   UNL A   1      41.208  27.393  26.946  1.00  0.00     0.198 A 
ATOM     74  C   UNL A   1      39.714  25.921  28.113  1.00  0.00     0.198 A 
ATOM     75  F   UNL A   1      38.936  26.488  30.258  1.00  0.00    -0.203 F 
ATOM     76  F   UNL A   1      41.908  27.704  25.846  1.00  0.00    -0.200 F 
ATOM     77  C   UNL A   1      40.464  26.224  26.986  1.00  0.00     0.200 A 
ATOM     78  F   UNL A   1      39.003  24.786  28.156  1.00  0.00    -0.200 F 
ATOM     79  F   UNL A   1      40.458  25.396  25.932  1.00  0.00    -0.200 F 
ENDBRANCH  55  69
BRANCH  56  80
ATOM     80  C   UNL A   1      39.405  34.092  36.997  1.00  0.00     0.064 A 
ATOM     81  C   UNL A   1      38.684  33.641  38.111  1.00  0.00     0.173 A 
ATOM     82  C   UNL A   1      39.972  35.374  37.059  1.00  0.00     0.173 A 
ATOM     83  F   UNL A   1      38.109  32.430  38.091  1.00  0.00    -0.203 F 
ATOM     84  C   UNL A   1      38.532  34.443  39.241  1.00  0.00     0.198 A 
ATOM     85  C   UNL A   1      39.839  36.164  38.198  1.00  0.00     0.198 A 
ATOM     86  F   UNL A   1      40.678  35.845  36.020  1.00  0.00    -0.203 F 
ATOM     87  F   UNL A   1      37.816  33.999  40.283  1.00  0.00    -0.200 F 
ATOM     88  C   UNL A   1      39.117  35.699  39.286  1.00  0.00     0.200 A 
ATOM     89  F   UNL A   1      40.421  37.370  38.244  1.00  0.00    -0.200 F 
ATOM     90  F   UNL A   1      38.984  36.463  40.380  1.00  0.00    -0.200 F 
ENDBRANCH  56  80
BRANCH  68  91
ATOM     91  C   UNL A   1      43.906  29.000  35.423  1.00  0.00     0.064 A 
ATOM     92  C   UNL A   1      45.209  29.484  35.242  1.00  0.00     0.173 A 
ATOM     93  C   UNL A   1      43.712  27.966  36.352  1.00  0.00     0.173 A 
ATOM     94  F   UNL A   1      45.448  30.461  34.353  1.00  0.00    -0.203 F 
ATOM     95  C   UNL A   1      46.279  28.942  35.949  1.00  0.00     0.198 A 
ATOM     96  C   UNL A   1      44.780  27.445  37.077  1.00  0.00     0.198 A 
ATOM     97  F   UNL A   1      42.484  27.471  36.566  1.00  0.00    -0.203 F 
ATOM     98  F   UNL A   1      47.522  29.392  35.729  1.00  0.00    -0.200 F 
ATOM     99  C   UNL A   1      46.063  27.928  36.870  1.00  0.00     0.200 A 
ATOM    100  F   UNL A   1      44.567  26.475  37.977  1.00  0.00    -0.200 F 
ATOM    101  F   UNL A   1      47.093  27.414  37.556  1.00  0.00    -0.200 F 
ENDBRANCH  68  91
ENDBRANCH  42  43
ENDBRANCH  34  37
ENDBRANCH  32  33
ENDBRANCH  31  32
ENDBRANCH  30  31
ENDBRANCH   1  30
TORSDOF 17
ENDMDL
MODEL 2
REMARK VINA RESULT:     -12.6      5.593     11.655
REMARK SMILES NS(=O)(=O)c1ccc(N2N=C(C(=O)NCCCCCCNC(=O)c3ccc(-c4c5nc(c(-c6c(F)c(F)c(F)c(F)c6F)c6ccc([nH]6)c(-c6c(F)c(F)c(F)c(F)c6F)c6nc(c(-c7c(F)c(F)c(F)c(F)c7F)c7ccc4[nH]7)C=C6)C=C5)cc3)C[C@H]2c2cccs2)cc1
REMARK SMILES IDX 17 1 16 2 15 3 14 4 12 5 13 6 11 8 9 9 10 10 88 11 87 12
REMARK SMILES IDX 8 13 5 14 6 15 95 16 7 17 94 18 2 19 3 20 4 21 1 22 89 25
REMARK SMILES IDX 90 26 93 27 91 28 92 29 18 30 19 31 20 32 21 33 22 34 23 36
REMARK SMILES IDX 24 37 25 38 86 39 26 40 85 41 27 42 28 43 29 44 79 45 30 46
REMARK SMILES IDX 84 47 78 48 80 49 31 50 83 51 77 52 76 53 32 55 64 56 44 57
REMARK SMILES IDX 63 58 45 59 48 60 62 61 81 62 46 63 47 64 61 66 82 67 49 68
REMARK SMILES IDX 33 69 34 70 42 71 35 72 36 73 40 74 43 75 37 76 38 77 41 78
REMARK SMILES IDX 39 79 65 80 66 81 74 82 67 83 68 84 72 85 75 86 69 87 70 88
REMARK SMILES IDX 73 89 71 90 50 91 51 92 59 93 52 94 53 95 57 96 60 97 54 98
REMARK SMILES IDX 55 99 58 100 56 101
REMARK H PARENT 14 7 1 23 1 24 21 35 80 54 48 65
REMARK Flexibility Score: inf
ROOT
ATOM      1  C   UNL A   1      37.006  21.996  24.475  1.00  0.00     0.002 C 
ENDROOT
BRANCH   1   2
ATOM      2  C   UNL A   1      35.891  22.990  24.809  1.00  0.00     0.021 C 
BRANCH   2   3
ATOM      3  C   UNL A   1      35.199  23.624  23.605  1.00  0.00     0.116 C 
BRANCH   3   4
ATOM      4  N   UNL A   1      33.989  22.913  23.249  1.00  0.00    -0.351 N 
ATOM      5  C   UNL A   1      32.650  23.187  23.366  1.00  0.00     0.267 C 
ATOM      6  O   UNL A   1      31.864  22.316  22.998  1.00  0.00    -0.268 OA
ATOM      7  H   UNL A   1      34.168  22.040  22.831  1.00  0.00     0.163 HD
BRANCH   5   8
ATOM      8  C   UNL A   1      32.086  24.503  23.883  1.00  0.00     0.128 C 
ATOM      9  N   UNL A   1      31.420  26.534  23.809  1.00  0.00    -0.256 N 
ATOM     10  N   UNL A   1      31.730  25.443  23.057  1.00  0.00    -0.171 NA
ATOM     11  C   UNL A   1      31.500  26.296  25.251  1.00  0.00     0.154 C 
ATOM     12  C   UNL A   1      31.861  24.809  25.326  1.00  0.00     0.097 C 
BRANCH   9  13
ATOM     13  C   UNL A   1      30.610  27.547  23.296  1.00  0.00     0.060 A 
ATOM     14  C   UNL A   1      29.011  29.660  22.354  1.00  0.00     0.082 A 
ATOM     15  C   UNL A   1      28.413  28.559  22.969  1.00  0.00     0.024 A 
ATOM     16  C   UNL A   1      30.393  29.700  22.171  1.00  0.00     0.024 A 
ATOM     17  C   UNL A   1      29.214  27.504  23.422  1.00  0.00     0.029 A 
ATOM     18  C   UNL A   1      31.180  28.651  22.645  1.00  0.00     0.029 A 
BRANCH  14  19
ATOM     19  S   UNL A   1      28.047  31.014  21.761  1.00  0.00     0.238 S 
ATOM     20  O   UNL A   1      27.132  31.425  22.807  1.00  0.00    -0.207 OA
ATOM     21  O   UNL A   1      27.612  30.710  20.424  1.00  0.00    -0.207 OA
BRANCH  19  22
ATOM     22  N   UNL A   1      29.142  32.281  21.621  1.00  0.00    -0.225 NA
ATOM     23  H   UNL A   1      28.700  33.148  21.927  1.00  0.00     0.137 HD
ATOM     24  H   UNL A   1      29.433  32.371  20.648  1.00  0.00     0.137 HD
ENDBRANCH  19  22
ENDBRANCH  14  19
ENDBRANCH   9  13
BRANCH  11  25
ATOM     25  C   UNL A   1      32.435  27.186  26.046  1.00  0.00     0.030 A 
ATOM     26  C   UNL A   1      33.795  27.349  25.846  1.00  0.00     0.017 A 
ATOM     27  S   UNL A   1      31.899  28.115  27.389  1.00  0.00    -0.147 S 
ATOM     28  C   UNL A   1      34.381  28.262  26.768  1.00  0.00     0.012 A 
ATOM     29  C   UNL A   1      33.450  28.784  27.635  1.00  0.00     0.065 A 
ENDBRANCH  11  25
ENDBRANCH   5   8
ENDBRANCH   3   4
ENDBRANCH   2   3
ENDBRANCH   1   2
BRANCH   1  30
ATOM     30  C   UNL A   1      36.786  20.560  24.959  1.00  0.00     0.002 C 
BRANCH  30  31
ATOM     31  C   UNL A   1      38.014  19.647  24.923  1.00  0.00     0.021 C 
BRANCH  31  32
ATOM     32  C   UNL A   1      39.213  20.128  25.734  1.00  0.00     0.116 C 
BRANCH  32  33
ATOM     33  N   UNL A   1      40.245  19.116  25.863  1.00  0.00    -0.352 N 
ATOM     34  C   UNL A   1      41.588  19.267  26.106  1.00  0.00     0.251 C 
ATOM     35  H   UNL A   1      39.938  18.187  25.763  1.00  0.00     0.163 HD
ATOM     36  O   UNL A   1      42.338  18.299  26.037  1.00  0.00    -0.269 OA
BRANCH  34  37
ATOM     37  C   UNL A   1      42.142  20.601  26.426  1.00  0.00     0.039 A 
ATOM     38  C   UNL A   1      42.462  21.462  25.373  1.00  0.00     0.014 A 
ATOM     39  C   UNL A   1      42.361  20.997  27.747  1.00  0.00     0.014 A 
ATOM     40  C   UNL A   1      42.951  22.741  25.646  1.00  0.00     0.010 A 
ATOM     41  C   UNL A   1      42.783  22.296  28.021  1.00  0.00     0.010 A 
ATOM     42  C   UNL A   1      43.087  23.179  26.973  1.00  0.00    -0.014 A 
BRANCH  42  43
ATOM     43  C   UNL A   1      43.544  24.556  27.283  1.00  0.00     0.031 A 
ATOM     44  C   UNL A   1      42.569  25.586  27.778  1.00  0.00     0.074 A 
ATOM     45  C   UNL A   1      44.824  24.901  27.048  1.00  0.00     0.049 A 
ATOM     46  N   UNL A   1      42.763  26.854  28.040  1.00  0.00    -0.248 NA
ATOM     47  C   UNL A   1      41.182  25.137  27.973  1.00  0.00     0.031 C 
ATOM     48  C   UNL A   1      45.852  24.008  26.511  1.00  0.00     0.029 A 
ATOM     49  N   UNL A   1      45.473  26.098  27.212  1.00  0.00    -0.354 N 
ATOM     50  C   UNL A   1      41.524  27.358  28.410  1.00  0.00     0.074 A 
ATOM     51  C   UNL A   1      40.575  26.271  28.291  1.00  0.00     0.031 C 
ATOM     52  C   UNL A   1      47.005  24.685  26.400  1.00  0.00     0.029 A 
ATOM     53  C   UNL A   1      46.791  26.066  26.829  1.00  0.00     0.049 A 
ATOM     54  H   UNL A   1      45.037  26.905  27.571  1.00  0.00     0.167 HD
ATOM     55  C   UNL A   1      41.209  28.607  28.830  1.00  0.00     0.037 A 
ATOM     56  C   UNL A   1      47.721  27.039  26.815  1.00  0.00     0.037 A 
ATOM     57  C   UNL A   1      42.163  29.676  28.974  1.00  0.00     0.049 A 
ATOM     58  C   UNL A   1      47.358  28.411  27.309  1.00  0.00     0.074 A 
ATOM     59  C   UNL A   1      41.962  30.950  29.476  1.00  0.00     0.029 A 
ATOM     60  N   UNL A   1      43.499  29.596  28.608  1.00  0.00    -0.354 N 
ATOM     61  N   UNL A   1      46.201  28.855  27.738  1.00  0.00    -0.248 NA
ATOM     62  C   UNL A   1      48.431  29.415  27.327  1.00  0.00     0.031 C 
ATOM     63  C   UNL A   1      43.166  31.657  29.368  1.00  0.00     0.029 A 
ATOM     64  C   UNL A   1      44.129  30.808  28.846  1.00  0.00     0.049 A 
ATOM     65  H   UNL A   1      43.935  28.796  28.235  1.00  0.00     0.167 HD
ATOM     66  C   UNL A   1      46.410  30.180  28.093  1.00  0.00     0.074 A 
ATOM     67  C   UNL A   1      47.807  30.465  27.843  1.00  0.00     0.031 C 
ATOM     68  C   UNL A   1      45.520  31.079  28.584  1.00  0.00     0.037 A 
BRANCH  55  69
ATOM     69  C   UNL A   1      39.769  28.883  29.155  1.00  0.00     0.064 A 
ATOM     70  C   UNL A   1      39.237  28.629  30.429  1.00  0.00     0.173 A 
ATOM     71  C   UNL A   1      38.910  29.412  28.180  1.00  0.00     0.173 A 
ATOM     72  F   UNL A   1      40.012  28.113  31.394  1.00  0.00    -0.203 F 
ATOM     73  C   UNL A   1      37.890  28.856  30.701  1.00  0.00     0.198 A 
ATOM     74  C   UNL A   1      37.571  29.667  28.465  1.00  0.00     0.198 A 
ATOM     75  F   UNL A   1      39.367  29.679  26.948  1.00  0.00    -0.203 F 
ATOM     76  F   UNL A   1      37.391  28.545  31.906  1.00  0.00    -0.200 F 
ATOM     77  C   UNL A   1      37.059  29.378  29.722  1.00  0.00     0.200 A 
ATOM     78  F   UNL A   1      36.772  30.183  27.521  1.00  0.00    -0.200 F 
ATOM     79  F   UNL A   1      35.762  29.592  29.984  1.00  0.00    -0.200 F 
ENDBRANCH  55  69
BRANCH  56  80
ATOM     80  C   UNL A   1      49.093  26.728  26.339  1.00  0.00     0.064 A 
ATOM     81  C   UNL A   1      50.043  26.165  27.202  1.00  0.00     0.173 A 
ATOM     82  C   UNL A   1      49.467  26.945  25.005  1.00  0.00     0.173 A 
ATOM     83  F   UNL A   1      49.736  25.955  28.491  1.00  0.00    -0.203 F 
ATOM     84  C   UNL A   1      51.318  25.835  26.749  1.00  0.00     0.198 A 
ATOM     85  C   UNL A   1      50.734  26.594  24.548  1.00  0.00     0.198 A 
ATOM     86  F   UNL A   1      48.588  27.475  24.141  1.00  0.00    -0.203 F 
ATOM     87  F   UNL A   1      52.217  25.322  27.600  1.00  0.00    -0.200 F 
ATOM     88  C   UNL A   1      51.660  26.043  25.421  1.00  0.00     0.200 A 
ATOM     89  F   UNL A   1      51.054  26.780  23.260  1.00  0.00    -0.200 F 
ATOM     90  F   UNL A   1      52.882  25.711  24.981  1.00  0.00    -0.200 F 
ENDBRANCH  56  80
BRANCH  68  91
ATOM     91  C   UNL A   1      46.035  32.454  28.895  1.00  0.00     0.064 A 
ATOM     92  C   UNL A   1      45.992  33.487  27.947  1.00  0.00     0.173 A 
ATOM     93  C   UNL A   1      46.539  32.753  30.170  1.00  0.00     0.173 A 
ATOM     94  F   UNL A   1      45.534  33.247  26.709  1.00  0.00    -0.203 F 
ATOM     95  C   UNL A   1      46.455  34.763  28.258  1.00  0.00     0.198 A 
ATOM     96  C   UNL A   1      46.974  34.037  30.486  1.00  0.00     0.198 A 
ATOM     97  F   UNL A   1      46.596  31.802  31.114  1.00  0.00    -0.203 F 
ATOM     98  F   UNL A   1      46.444  35.724  27.323  1.00  0.00    -0.200 F 
ATOM     99  C   UNL A   1      46.938  35.039  29.528  1.00  0.00     0.200 A 
ATOM    100  F   UNL A   1      47.429  34.304  31.718  1.00  0.00    -0.200 F 
ATOM    101  F   UNL A   1      47.375  36.270  29.827  1.00  0.00    -0.200 F 
ENDBRANCH  68  91
ENDBRANCH  42  43
ENDBRANCH  34  37
ENDBRANCH  32  33
ENDBRANCH  31  32
ENDBRANCH  30  31
ENDBRANCH   1  30
TORSDOF 17
ENDMDL
MODEL 3
REMARK VINA RESULT:     -12.4      4.137      8.964
REMARK SMILES NS(=O)(=O)c1ccc(N2N=C(C(=O)NCCCCCCNC(=O)c3ccc(-c4c5nc(c(-c6c(F)c(F)c(F)c(F)c6F)c6ccc([nH]6)c(-c6c(F)c(F)c(F)c(F)c6F)c6nc(c(-c7c(F)c(F)c(F)c(F)c7F)c7ccc4[nH]7)C=C6)C=C5)cc3)C[C@H]2c2cccs2)cc1
REMARK SMILES IDX 17 1 16 2 15 3 14 4 12 5 13 6 11 8 9 9 10 10 88 11 87 12
REMARK SMILES IDX 8 13 5 14 6 15 95 16 7 17 94 18 2 19 3 20 4 21 1 22 89 25
REMARK SMILES IDX 90 26 93 27 91 28 92 29 18 30 19 31 20 32 21 33 22 34 23 36
REMARK SMILES IDX 24 37 25 38 86 39 26 40 85 41 27 42 28 43 29 44 79 45 30 46
REMARK SMILES IDX 84 47 78 48 80 49 31 50 83 51 77 52 76 53 32 55 64 56 44 57
REMARK SMILES IDX 63 58 45 59 48 60 62 61 81 62 46 63 47 64 61 66 82 67 49 68
REMARK SMILES IDX 33 69 34 70 42 71 35 72 36 73 40 74 43 75 37 76 38 77 41 78
REMARK SMILES IDX 39 79 65 80 66 81 74 82 67 83 68 84 72 85 75 86 69 87 70 88
REMARK SMILES IDX 73 89 71 90 50 91 51 92 59 93 52 94 53 95 57 96 60 97 54 98
REMARK SMILES IDX 55 99 58 100 56 101
REMARK H PARENT 14 7 1 23 1 24 21 35 80 54 48 65
REMARK Flexibility Score: inf
ROOT
ATOM      1  C   UNL A   1      32.124  27.409  23.888  1.00  0.00     0.002 C 
ENDROOT
BRANCH   1   2
ATOM      2  C   UNL A   1      30.625  27.343  24.184  1.00  0.00     0.021 C 
BRANCH   2   3
ATOM      3  C   UNL A   1      30.010  25.947  24.136  1.00  0.00     0.116 C 
BRANCH   3   4
ATOM      4  N   UNL A   1      29.910  25.360  25.455  1.00  0.00    -0.351 N 
ATOM      5  C   UNL A   1      30.538  24.317  26.087  1.00  0.00     0.267 C 
ATOM      6  O   UNL A   1      30.166  24.045  27.227  1.00  0.00    -0.268 OA
ATOM      7  H   UNL A   1      29.243  25.809  26.024  1.00  0.00     0.163 HD
BRANCH   5   8
ATOM      8  C   UNL A   1      31.679  23.511  25.484  1.00  0.00     0.128 C 
ATOM      9  N   UNL A   1      32.993  21.846  25.207  1.00  0.00    -0.256 N 
ATOM     10  N   UNL A   1      31.814  22.246  25.757  1.00  0.00    -0.171 NA
ATOM     11  C   UNL A   1      33.672  22.895  24.445  1.00  0.00     0.154 C 
ATOM     12  C   UNL A   1      32.686  24.064  24.532  1.00  0.00     0.097 C 
BRANCH   9  13
ATOM     13  C   UNL A   1      33.235  20.499  24.941  1.00  0.00     0.060 A 
ATOM     14  C   UNL A   1      33.699  17.757  24.521  1.00  0.00     0.082 A 
ATOM     15  C   UNL A   1      34.778  18.639  24.596  1.00  0.00     0.024 A 
ATOM     16  C   UNL A   1      32.392  18.233  24.616  1.00  0.00     0.024 A 
ATOM     17  C   UNL A   1      34.539  20.004  24.790  1.00  0.00     0.029 A 
ATOM     18  C   UNL A   1      32.169  19.593  24.830  1.00  0.00     0.029 A 
BRANCH  14  19
ATOM     19  S   UNL A   1      33.945  16.027  24.273  1.00  0.00     0.238 S 
ATOM     20  O   UNL A   1      34.391  15.813  22.911  1.00  0.00    -0.207 OA
ATOM     21  O   UNL A   1      32.827  15.323  24.844  1.00  0.00    -0.207 OA
BRANCH  19  22
ATOM     22  N   UNL A   1      35.274  15.650  25.228  1.00  0.00    -0.225 NA
ATOM     23  H   UNL A   1      35.939  15.098  24.685  1.00  0.00     0.137 HD
ATOM     24  H   UNL A   1      34.968  15.112  26.039  1.00  0.00     0.137 HD
ENDBRANCH  19  22
ENDBRANCH  14  19
ENDBRANCH   9  13
BRANCH  11  25
ATOM     25  C   UNL A   1      35.080  23.258  24.873  1.00  0.00     0.030 A 
ATOM     26  C   UNL A   1      35.471  23.746  26.108  1.00  0.00     0.017 A 
ATOM     27  S   UNL A   1      36.423  23.145  23.808  1.00  0.00    -0.147 S 
ATOM     28  C   UNL A   1      36.873  23.986  26.186  1.00  0.00     0.012 A 
ATOM     29  C   UNL A   1      37.515  23.659  25.015  1.00  0.00     0.065 A 
ENDBRANCH  11  25
ENDBRANCH   5   8
ENDBRANCH   3   4
ENDBRANCH   2   3
ENDBRANCH   1   2
BRANCH   1  30
ATOM     30  C   UNL A   1      32.878  28.583  24.520  1.00  0.00     0.002 C 
BRANCH  30  31
ATOM     31  C   UNL A   1      34.032  28.211  25.454  1.00  0.00     0.021 C 
BRANCH  31  32
ATOM     32  C   UNL A   1      33.737  28.340  26.945  1.00  0.00     0.116 C 
BRANCH  32  33
ATOM     33  N   UNL A   1      33.572  29.718  27.368  1.00  0.00    -0.352 N 
ATOM     34  C   UNL A   1      34.437  30.526  28.063  1.00  0.00     0.251 C 
ATOM     35  H   UNL A   1      32.716  30.135  27.119  1.00  0.00     0.163 HD
ATOM     36  O   UNL A   1      34.066  31.625  28.461  1.00  0.00    -0.269 OA
BRANCH  34  37
ATOM     37  C   UNL A   1      35.811  30.065  28.359  1.00  0.00     0.039 A 
ATOM     38  C   UNL A   1      36.774  30.139  27.349  1.00  0.00     0.014 A 
ATOM     39  C   UNL A   1      36.148  29.548  29.613  1.00  0.00     0.014 A 
ATOM     40  C   UNL A   1      38.087  29.745  27.613  1.00  0.00     0.010 A 
ATOM     41  C   UNL A   1      37.471  29.221  29.896  1.00  0.00     0.010 A 
ATOM     42  C   UNL A   1      38.453  29.311  28.897  1.00  0.00    -0.014 A 
BRANCH  42  43
ATOM     43  C   UNL A   1      39.858  28.950  29.213  1.00  0.00     0.031 A 
ATOM     44  C   UNL A   1      40.741  29.914  29.954  1.00  0.00     0.074 A 
ATOM     45  C   UNL A   1      40.361  27.785  28.767  1.00  0.00     0.049 A 
ATOM     46  N   UNL A   1      42.008  29.807  30.263  1.00  0.00    -0.248 NA
ATOM     47  C   UNL A   1      40.124  31.181  30.372  1.00  0.00     0.031 C 
ATOM     48  C   UNL A   1      39.622  26.792  27.985  1.00  0.00     0.029 A 
ATOM     49  N   UNL A   1      41.616  27.245  28.891  1.00  0.00    -0.354 N 
ATOM     50  C   UNL A   1      42.345  30.997  30.894  1.00  0.00     0.074 A 
ATOM     51  C   UNL A   1      41.162  31.832  30.878  1.00  0.00     0.031 C 
ATOM     52  C   UNL A   1      40.434  25.760  27.708  1.00  0.00     0.029 A 
ATOM     53  C   UNL A   1      41.757  26.030  28.267  1.00  0.00     0.049 A 
ATOM     54  H   UNL A   1      42.347  27.686  29.382  1.00  0.00     0.167 HD
ATOM     55  C   UNL A   1      43.526  31.354  31.454  1.00  0.00     0.037 A 
ATOM     56  C   UNL A   1      42.831  25.229  28.149  1.00  0.00     0.037 A 
ATOM     57  C   UNL A   1      44.691  30.508  31.492  1.00  0.00     0.049 A 
ATOM     58  C   UNL A   1      44.126  25.631  28.798  1.00  0.00     0.074 A 
ATOM     59  C   UNL A   1      45.906  30.740  32.112  1.00  0.00     0.029 A 
ATOM     60  N   UNL A   1      44.786  29.267  30.878  1.00  0.00    -0.354 N 
ATOM     61  N   UNL A   1      44.410  26.722  29.467  1.00  0.00    -0.248 NA
ATOM     62  C   UNL A   1      45.246  24.686  28.686  1.00  0.00     0.031 C 
ATOM     63  C   UNL A   1      46.753  29.662  31.831  1.00  0.00     0.029 A 
ATOM     64  C   UNL A   1      46.050  28.734  31.079  1.00  0.00     0.049 A 
ATOM     65  H   UNL A   1      44.062  28.830  30.374  1.00  0.00     0.167 HD
ATOM     66  C   UNL A   1      45.730  26.590  29.869  1.00  0.00     0.074 A 
ATOM     67  C   UNL A   1      46.189  25.305  29.383  1.00  0.00     0.031 C 
ATOM     68  C   UNL A   1      46.494  27.457  30.581  1.00  0.00     0.037 A 
BRANCH  55  69
ATOM     69  C   UNL A   1      43.615  32.725  32.061  1.00  0.00     0.064 A 
ATOM     70  C   UNL A   1      43.278  32.962  33.403  1.00  0.00     0.173 A 
ATOM     71  C   UNL A   1      44.048  33.815  31.292  1.00  0.00     0.173 A 
ATOM     72  F   UNL A   1      42.848  31.956  34.179  1.00  0.00    -0.203 F 
ATOM     73  C   UNL A   1      43.331  34.246  33.939  1.00  0.00     0.198 A 
ATOM     74  C   UNL A   1      44.130  35.092  31.840  1.00  0.00     0.198 A 
ATOM     75  F   UNL A   1      44.389  33.644  30.006  1.00  0.00    -0.203 F 
ATOM     76  F   UNL A   1      42.943  34.458  35.204  1.00  0.00    -0.200 F 
ATOM     77  C   UNL A   1      43.760  35.309  33.159  1.00  0.00     0.200 A 
ATOM     78  F   UNL A   1      44.557  36.117  31.089  1.00  0.00    -0.200 F 
ATOM     79  F   UNL A   1      43.807  36.545  33.676  1.00  0.00    -0.200 F 
ENDBRANCH  55  69
BRANCH  56  80
ATOM     80  C   UNL A   1      42.707  23.950  27.404  1.00  0.00     0.064 A 
ATOM     81  C   UNL A   1      43.076  23.865  26.054  1.00  0.00     0.173 A 
ATOM     82  C   UNL A   1      42.261  22.780  28.036  1.00  0.00     0.173 A 
ATOM     83  F   UNL A   1      43.492  24.962  25.403  1.00  0.00    -0.203 F 
ATOM     84  C   UNL A   1      42.998  22.658  25.363  1.00  0.00     0.198 A 
ATOM     85  C   UNL A   1      42.206  21.570  27.350  1.00  0.00     0.198 A 
ATOM     86  F   UNL A   1      41.905  22.811  29.329  1.00  0.00    -0.203 F 
ATOM     87  F   UNL A   1      43.331  22.608  24.066  1.00  0.00    -0.200 F 
ATOM     88  C   UNL A   1      42.571  21.510  26.014  1.00  0.00     0.200 A 
ATOM     89  F   UNL A   1      41.809  20.459  27.987  1.00  0.00    -0.200 F 
ATOM     90  F   UNL A   1      42.511  20.346  25.353  1.00  0.00    -0.200 F 
ENDBRANCH  56  80
BRANCH  68  91
ATOM     91  C   UNL A   1      47.903  27.039  30.887  1.00  0.00     0.064 A 
ATOM     92  C   UNL A   1      48.204  26.223  31.987  1.00  0.00     0.173 A 
ATOM     93  C   UNL A   1      48.958  27.424  30.046  1.00  0.00     0.173 A 
ATOM     94  F   UNL A   1      47.232  25.841  32.830  1.00  0.00    -0.203 F 
ATOM     95  C   UNL A   1      49.514  25.825  32.246  1.00  0.00     0.198 A 
ATOM     96  C   UNL A   1      50.261  27.001  30.292  1.00  0.00     0.198 A 
ATOM     97  F   UNL A   1      48.722  28.199  28.977  1.00  0.00    -0.203 F 
ATOM     98  F   UNL A   1      49.784  25.081  33.327  1.00  0.00    -0.200 F 
ATOM     99  C   UNL A   1      50.539  26.209  31.395  1.00  0.00     0.200 A 
ATOM    100  F   UNL A   1      51.249  27.362  29.461  1.00  0.00    -0.200 F 
ATOM    101  F   UNL A   1      51.797  25.818  31.642  1.00  0.00    -0.200 F 
ENDBRANCH  68  91
ENDBRANCH  42  43
ENDBRANCH  34  37
ENDBRANCH  32  33
ENDBRANCH  31  32
ENDBRANCH  30  31
ENDBRANCH   1  30
TORSDOF 17
ENDMDL
