MODEL 1
REMARK VINA RESULT:     -12.7      0.000      0.000
REMARK SMILES C[C@@H]1Oc2ccccc2N(CC(=O)NCCCCCCNC(=O)c2ccc(-c3c4nc(c(-c5c(F)c(F)c(F)c(F)c5F)c5ccc([nH]5)c(-c5c(F)c(F)c(F)c(F)c5F)c5nc(c(-c6c(F)c(F)c(F)c(F)c6F)c6ccc3[nH]6)C=C5)C=C4)cc2)C1=O
REMARK SMILES IDX 18 1 17 2 16 3 15 4 14 5 12 6 13 7 11 9 10 10 1 11 2 12 3 13
REMARK SMILES IDX 87 14 4 15 88 16 5 17 9 18 6 19 8 20 7 21 19 22 20 23 21 24
REMARK SMILES IDX 22 25 23 27 24 28 25 29 86 30 26 31 85 32 27 33 28 34 29 35
REMARK SMILES IDX 79 36 30 37 84 38 78 39 80 40 31 41 83 42 77 43 76 44 32 46
REMARK SMILES IDX 64 47 44 48 63 49 45 50 48 51 62 52 81 53 46 54 47 55 61 57
REMARK SMILES IDX 82 58 49 59 33 60 34 61 42 62 35 63 36 64 40 65 43 66 37 67
REMARK SMILES IDX 38 68 41 69 39 70 65 71 66 72 74 73 67 74 68 75 72 76 75 77
REMARK SMILES IDX 69 78 70 79 73 80 71 81 50 82 51 83 59 84 52 85 53 86 57 87
REMARK SMILES IDX 60 88 54 89 55 90 58 91 56 92
REMARK H PARENT 14 8 21 26 80 45 48 56
REMARK Flexibility Score: inf
ROOT
ATOM      1  C   UNL A   1      31.700  30.675  26.188  1.00  0.00     0.002 C 
ENDROOT
BRANCH   1   2
ATOM      2  C   UNL A   1      32.402  29.754  27.197  1.00  0.00     0.002 C 
BRANCH   2   3
ATOM      3  C   UNL A   1      31.676  28.440  27.513  1.00  0.00     0.021 C 
BRANCH   3   4
ATOM      4  C   UNL A   1      31.296  27.614  26.287  1.00  0.00     0.116 C 
BRANCH   4   5
ATOM      5  N   UNL A   1      31.030  26.239  26.643  1.00  0.00    -0.355 N 
ATOM      6  C   UNL A   1      31.857  25.157  26.614  1.00  0.00     0.240 C 
ATOM      7  O   UNL A   1      31.421  24.098  27.076  1.00  0.00    -0.273 OA
ATOM      8  H   UNL A   1      30.114  26.056  26.952  1.00  0.00     0.163 HD
BRANCH   6   9
ATOM      9  C   UNL A   1      33.313  25.256  26.130  1.00  0.00     0.225 C 
BRANCH   9  10
ATOM     10  N   UNL A   1      33.667  24.519  24.913  1.00  0.00    -0.296 N 
ATOM     11  C   UNL A   1      32.305  22.364  22.735  1.00  0.00     0.064 C 
ATOM     12  C   UNL A   1      33.141  23.638  22.659  1.00  0.00     0.259 C 
ATOM     13  O   UNL A   1      34.487  23.266  22.442  1.00  0.00    -0.479 OA
ATOM     14  C   UNL A   1      32.786  24.545  23.841  1.00  0.00     0.268 C 
ATOM     15  C   UNL A   1      35.269  23.259  23.561  1.00  0.00     0.144 A 
ATOM     16  O   UNL A   1      31.728  25.178  23.847  1.00  0.00    -0.270 OA
ATOM     17  C   UNL A   1      36.500  22.611  23.402  1.00  0.00     0.049 A 
ATOM     18  C   UNL A   1      34.929  23.875  24.775  1.00  0.00     0.087 A 
ATOM     19  C   UNL A   1      37.415  22.573  24.447  1.00  0.00     0.004 A 
ATOM     20  C   UNL A   1      35.881  23.857  25.805  1.00  0.00     0.030 A 
ATOM     21  C   UNL A   1      37.110  23.206  25.645  1.00  0.00     0.002 A 
ENDBRANCH   9  10
ENDBRANCH   6   9
ENDBRANCH   4   5
ENDBRANCH   3   4
ENDBRANCH   2   3
ENDBRANCH   1   2
BRANCH   1  22
ATOM     22  C   UNL A   1      31.444  32.109  26.659  1.00  0.00     0.021 C 
BRANCH  22  23
ATOM     23  C   UNL A   1      32.651  32.825  27.259  1.00  0.00     0.116 C 
BRANCH  23  24
ATOM     24  N   UNL A   1      32.366  34.202  27.627  1.00  0.00    -0.352 N 
ATOM     25  C   UNL A   1      32.964  35.004  28.572  1.00  0.00     0.251 C 
ATOM     26  H   UNL A   1      31.634  34.626  27.125  1.00  0.00     0.163 HD
ATOM     27  O   UNL A   1      32.494  36.102  28.840  1.00  0.00    -0.269 OA
BRANCH  25  28
ATOM     28  C   UNL A   1      34.157  34.519  29.302  1.00  0.00     0.039 A 
ATOM     29  C   UNL A   1      35.433  34.630  28.746  1.00  0.00     0.014 A 
ATOM     30  C   UNL A   1      33.985  33.931  30.557  1.00  0.00     0.014 A 
ATOM     31  C   UNL A   1      36.511  34.000  29.365  1.00  0.00     0.010 A 
ATOM     32  C   UNL A   1      35.081  33.363  31.213  1.00  0.00     0.010 A 
ATOM     33  C   UNL A   1      36.343  33.347  30.596  1.00  0.00    -0.014 A 
BRANCH  33  34
ATOM     34  C   UNL A   1      37.485  32.627  31.215  1.00  0.00     0.031 A 
ATOM     35  C   UNL A   1      37.937  32.968  32.609  1.00  0.00     0.074 A 
ATOM     36  C   UNL A   1      38.088  31.631  30.538  1.00  0.00     0.049 A 
ATOM     37  N   UNL A   1      38.922  32.461  33.307  1.00  0.00    -0.248 NA
ATOM     38  C   UNL A   1      37.185  34.018  33.313  1.00  0.00     0.031 C 
ATOM     39  C   UNL A   1      37.727  31.190  29.192  1.00  0.00     0.029 A 
ATOM     40  N   UNL A   1      39.117  30.799  30.899  1.00  0.00    -0.354 N 
ATOM     41  C   UNL A   1      38.919  33.138  34.520  1.00  0.00     0.074 A 
ATOM     42  C   UNL A   1      37.850  34.112  34.456  1.00  0.00     0.031 C 
ATOM     43  C   UNL A   1      38.490  30.140  28.856  1.00  0.00     0.029 A 
ATOM     44  C   UNL A   1      39.431  29.870  29.938  1.00  0.00     0.049 A 
ATOM     45  H   UNL A   1      39.584  30.861  31.763  1.00  0.00     0.167 HD
ATOM     46  C   UNL A   1      39.726  32.956  35.592  1.00  0.00     0.037 A 
ATOM     47  C   UNL A   1      40.380  28.915  29.924  1.00  0.00     0.037 A 
ATOM     48  C   UNL A   1      40.778  31.974  35.664  1.00  0.00     0.049 A 
ATOM     49  C   UNL A   1      41.290  28.762  31.110  1.00  0.00     0.074 A 
ATOM     50  C   UNL A   1      41.649  31.716  36.708  1.00  0.00     0.029 A 
ATOM     51  N   UNL A   1      41.097  31.086  34.649  1.00  0.00    -0.354 N 
ATOM     52  N   UNL A   1      41.290  29.423  32.241  1.00  0.00    -0.248 NA
ATOM     53  C   UNL A   1      42.337  27.736  31.012  1.00  0.00     0.031 C 
ATOM     54  C   UNL A   1      42.517  30.693  36.312  1.00  0.00     0.029 A 
ATOM     55  C   UNL A   1      42.160  30.285  35.038  1.00  0.00     0.049 A 
ATOM     56  H   UNL A   1      40.638  31.030  33.779  1.00  0.00     0.167 HD
ATOM     57  C   UNL A   1      42.324  28.888  32.995  1.00  0.00     0.074 A 
ATOM     58  C   UNL A   1      42.921  27.835  32.199  1.00  0.00     0.031 C 
ATOM     59  C   UNL A   1      42.744  29.242  34.234  1.00  0.00     0.037 A 
BRANCH  46  60
ATOM     60  C   UNL A   1      39.511  33.844  36.784  1.00  0.00     0.064 A 
ATOM     61  C   UNL A   1      38.734  33.432  37.876  1.00  0.00     0.173 A 
ATOM     62  C   UNL A   1      40.133  35.099  36.856  1.00  0.00     0.173 A 
ATOM     63  F   UNL A   1      38.107  32.246  37.848  1.00  0.00    -0.203 F 
ATOM     64  C   UNL A   1      38.573  34.251  38.990  1.00  0.00     0.198 A 
ATOM     65  C   UNL A   1      39.991  35.906  37.982  1.00  0.00     0.198 A 
ATOM     66  F   UNL A   1      40.892  35.538  35.840  1.00  0.00    -0.203 F 
ATOM     67  F   UNL A   1      37.796  33.853  40.007  1.00  0.00    -0.200 F 
ATOM     68  C   UNL A   1      39.208  35.484  39.046  1.00  0.00     0.200 A 
ATOM     69  F   UNL A   1      40.614  37.091  38.039  1.00  0.00    -0.200 F 
ATOM     70  F   UNL A   1      39.060  36.267  40.124  1.00  0.00    -0.200 F 
ENDBRANCH  46  60
BRANCH  47  71
ATOM     71  C   UNL A   1      40.499  28.025  28.744  1.00  0.00     0.064 A 
ATOM     72  C   UNL A   1      39.812  26.804  28.695  1.00  0.00     0.173 A 
ATOM     73  C   UNL A   1      41.262  28.393  27.626  1.00  0.00     0.173 A 
ATOM     74  F   UNL A   1      39.087  26.402  29.749  1.00  0.00    -0.203 F 
ATOM     75  C   UNL A   1      39.882  25.987  27.570  1.00  0.00     0.198 A 
ATOM     76  C   UNL A   1      41.312  27.586  26.494  1.00  0.00     0.198 A 
ATOM     77  F   UNL A   1      41.935  29.553  27.626  1.00  0.00    -0.203 F 
ATOM     78  F   UNL A   1      39.234  24.814  27.555  1.00  0.00    -0.200 F 
ATOM     79  C   UNL A   1      40.624  26.382  26.467  1.00  0.00     0.200 A 
ATOM     80  F   UNL A   1      42.017  27.979  25.424  1.00  0.00    -0.200 F 
ATOM     81  F   UNL A   1      40.677  25.603  25.378  1.00  0.00    -0.200 F 
ENDBRANCH  47  71
BRANCH  59  82
ATOM     82  C   UNL A   1      43.891  28.473  34.817  1.00  0.00     0.064 A 
ATOM     83  C   UNL A   1      43.686  27.289  35.541  1.00  0.00     0.173 A 
ATOM     84  C   UNL A   1      45.212  28.901  34.611  1.00  0.00     0.173 A 
ATOM     85  F   UNL A   1      42.442  26.850  35.775  1.00  0.00    -0.203 F 
ATOM     86  C   UNL A   1      44.763  26.570  36.052  1.00  0.00     0.198 A 
ATOM     87  C   UNL A   1      46.287  28.166  35.104  1.00  0.00     0.198 A 
ATOM     88  F   UNL A   1      45.459  30.024  33.920  1.00  0.00    -0.203 F 
ATOM     89  F   UNL A   1      44.544  25.461  36.772  1.00  0.00    -0.200 F 
ATOM     90  C   UNL A   1      46.061  27.005  35.827  1.00  0.00     0.200 A 
ATOM     91  F   UNL A   1      47.540  28.581  34.877  1.00  0.00    -0.200 F 
ATOM     92  F   UNL A   1      47.097  26.307  36.315  1.00  0.00    -0.200 F 
ENDBRANCH  59  82
ENDBRANCH  33  34
ENDBRANCH  25  28
ENDBRANCH  23  24
ENDBRANCH  22  23
ENDBRANCH   1  22
TORSDOF 14
ENDMDL
MODEL 2
REMARK VINA RESULT:     -12.6      0.245      7.435
REMARK SMILES C[C@@H]1Oc2ccccc2N(CC(=O)NCCCCCCNC(=O)c2ccc(-c3c4nc(c(-c5c(F)c(F)c(F)c(F)c5F)c5ccc([nH]5)c(-c5c(F)c(F)c(F)c(F)c5F)c5nc(c(-c6c(F)c(F)c(F)c(F)c6F)c6ccc3[nH]6)C=C5)C=C4)cc2)C1=O
REMARK SMILES IDX 18 1 17 2 16 3 15 4 14 5 12 6 13 7 11 9 10 10 1 11 2 12 3 13
REMARK SMILES IDX 87 14 4 15 88 16 5 17 9 18 6 19 8 20 7 21 19 22 20 23 21 24
REMARK SMILES IDX 22 25 23 27 24 28 25 29 86 30 26 31 85 32 27 33 28 34 29 35
REMARK SMILES IDX 79 36 30 37 84 38 78 39 80 40 31 41 83 42 77 43 76 44 32 46
REMARK SMILES IDX 64 47 44 48 63 49 45 50 48 51 62 52 81 53 46 54 47 55 61 57
REMARK SMILES IDX 82 58 49 59 33 60 34 61 42 62 35 63 36 64 40 65 43 66 37 67
REMARK SMILES IDX 38 68 41 69 39 70 65 71 66 72 74 73 67 74 68 75 72 76 75 77
REMARK SMILES IDX 69 78 70 79 73 80 71 81 50 82 51 83 59 84 52 85 53 86 57 87
REMARK SMILES IDX 60 88 54 89 55 90 58 91 56 92
REMARK H PARENT 14 8 21 26 80 45 48 56
REMARK Flexibility Score: inf
ROOT
ATOM      1  C   UNL A   1      31.735  30.664  26.251  1.00  0.00     0.002 C 
ENDROOT
BRANCH   1   2
ATOM      2  C   UNL A   1      32.557  29.792  27.211  1.00  0.00     0.002 C 
BRANCH   2   3
ATOM      3  C   UNL A   1      31.969  28.410  27.524  1.00  0.00     0.021 C 
BRANCH   3   4
ATOM      4  C   UNL A   1      31.307  27.720  26.334  1.00  0.00     0.116 C 
BRANCH   4   5
ATOM      5  N   UNL A   1      31.047  26.326  26.616  1.00  0.00    -0.355 N 
ATOM      6  C   UNL A   1      31.873  25.248  26.512  1.00  0.00     0.240 C 
ATOM      7  O   UNL A   1      31.444  24.164  26.920  1.00  0.00    -0.273 OA
ATOM      8  H   UNL A   1      30.136  26.126  26.929  1.00  0.00     0.163 HD
BRANCH   6   9
ATOM      9  C   UNL A   1      33.320  25.375  26.009  1.00  0.00     0.225 C 
BRANCH   9  10
ATOM     10  N   UNL A   1      33.688  24.601  24.820  1.00  0.00    -0.296 N 
ATOM     11  C   UNL A   1      32.338  22.409  22.670  1.00  0.00     0.064 C 
ATOM     12  C   UNL A   1      33.197  23.668  22.579  1.00  0.00     0.259 C 
ATOM     13  O   UNL A   1      34.540  23.268  22.402  1.00  0.00    -0.479 OA
ATOM     14  C   UNL A   1      32.831  24.612  23.728  1.00  0.00     0.268 C 
ATOM     15  C   UNL A   1      35.298  23.279  23.537  1.00  0.00     0.144 A 
ATOM     16  O   UNL A   1      31.784  25.262  23.694  1.00  0.00    -0.270 OA
ATOM     17  C   UNL A   1      36.521  22.608  23.422  1.00  0.00     0.049 A 
ATOM     18  C   UNL A   1      34.942  23.932  24.726  1.00  0.00     0.087 A 
ATOM     19  C   UNL A   1      37.413  22.583  24.488  1.00  0.00     0.004 A 
ATOM     20  C   UNL A   1      35.871  23.927  25.778  1.00  0.00     0.030 A 
ATOM     21  C   UNL A   1      37.092  23.252  25.662  1.00  0.00     0.002 A 
ENDBRANCH   9  10
ENDBRANCH   6   9
ENDBRANCH   4   5
ENDBRANCH   3   4
ENDBRANCH   2   3
ENDBRANCH   1   2
BRANCH   1  22
ATOM     22  C   UNL A   1      31.475  32.101  26.709  1.00  0.00     0.021 C 
BRANCH  22  23
ATOM     23  C   UNL A   1      32.674  32.816  27.327  1.00  0.00     0.116 C 
BRANCH  23  24
ATOM     24  N   UNL A   1      32.393  34.202  27.666  1.00  0.00    -0.352 N 
ATOM     25  C   UNL A   1      32.971  35.013  28.614  1.00  0.00     0.251 C 
ATOM     26  H   UNL A   1      31.680  34.625  27.135  1.00  0.00     0.163 HD
ATOM     27  O   UNL A   1      32.505  36.120  28.851  1.00  0.00    -0.269 OA
BRANCH  25  28
ATOM     28  C   UNL A   1      34.138  34.529  29.385  1.00  0.00     0.039 A 
ATOM     29  C   UNL A   1      35.427  34.589  28.853  1.00  0.00     0.014 A 
ATOM     30  C   UNL A   1      33.928  33.992  30.658  1.00  0.00     0.014 A 
ATOM     31  C   UNL A   1      36.477  33.958  29.516  1.00  0.00     0.010 A 
ATOM     32  C   UNL A   1      34.997  33.423  31.356  1.00  0.00     0.010 A 
ATOM     33  C   UNL A   1      36.270  33.355  30.766  1.00  0.00    -0.014 A 
BRANCH  33  34
ATOM     34  C   UNL A   1      37.383  32.633  31.434  1.00  0.00     0.031 A 
ATOM     35  C   UNL A   1      38.109  31.525  30.721  1.00  0.00     0.074 A 
ATOM     36  C   UNL A   1      37.772  33.006  32.667  1.00  0.00     0.049 A 
ATOM     37  N   UNL A   1      39.093  30.772  31.146  1.00  0.00    -0.248 NA
ATOM     38  C   UNL A   1      37.675  31.220  29.349  1.00  0.00     0.031 C 
ATOM     39  C   UNL A   1      37.165  34.080  33.452  1.00  0.00     0.029 A 
ATOM     40  N   UNL A   1      38.783  32.537  33.467  1.00  0.00    -0.354 N 
ATOM     41  C   UNL A   1      39.382  29.898  30.106  1.00  0.00     0.074 A 
ATOM     42  C   UNL A   1      38.454  30.194  29.036  1.00  0.00     0.031 C 
ATOM     43  C   UNL A   1      37.841  34.219  34.601  1.00  0.00     0.029 A 
ATOM     44  C   UNL A   1      38.893  33.208  34.660  1.00  0.00     0.049 A 
ATOM     45  H   UNL A   1      39.373  31.792  33.211  1.00  0.00     0.167 HD
ATOM     46  C   UNL A   1      40.342  28.944  30.046  1.00  0.00     0.037 A 
ATOM     47  C   UNL A   1      39.737  33.023  35.692  1.00  0.00     0.037 A 
ATOM     48  C   UNL A   1      41.278  28.660  31.104  1.00  0.00     0.049 A 
ATOM     49  C   UNL A   1      40.765  31.930  35.616  1.00  0.00     0.074 A 
ATOM     50  C   UNL A   1      42.285  27.712  31.134  1.00  0.00     0.029 A 
ATOM     51  N   UNL A   1      41.323  29.330  32.317  1.00  0.00    -0.354 N 
ATOM     52  N   UNL A   1      41.013  31.097  34.636  1.00  0.00    -0.248 NA
ATOM     53  C   UNL A   1      41.623  31.746  36.795  1.00  0.00     0.031 C 
ATOM     54  C   UNL A   1      42.919  27.785  32.379  1.00  0.00     0.029 A 
ATOM     55  C   UNL A   1      42.335  28.808  33.108  1.00  0.00     0.049 A 
ATOM     56  H   UNL A   1      40.726  30.068  32.579  1.00  0.00     0.167 HD
ATOM     57  C   UNL A   1      42.062  30.299  35.071  1.00  0.00     0.074 A 
ATOM     58  C   UNL A   1      42.414  30.759  36.398  1.00  0.00     0.031 C 
ATOM     59  C   UNL A   1      42.673  29.275  34.428  1.00  0.00     0.037 A 
BRANCH  46  60
ATOM     60  C   UNL A   1      40.428  28.122  28.792  1.00  0.00     0.064 A 
ATOM     61  C   UNL A   1      41.217  28.524  27.704  1.00  0.00     0.173 A 
ATOM     62  C   UNL A   1      39.757  26.895  28.699  1.00  0.00     0.173 A 
ATOM     63  F   UNL A   1      41.867  29.697  27.739  1.00  0.00    -0.203 F 
ATOM     64  C   UNL A   1      41.316  27.735  26.562  1.00  0.00     0.198 A 
ATOM     65  C   UNL A   1      39.878  26.094  27.565  1.00  0.00     0.198 A 
ATOM     66  F   UNL A   1      38.994  26.461  29.714  1.00  0.00    -0.203 F 
ATOM     67  F   UNL A   1      42.047  28.155  25.519  1.00  0.00    -0.200 F 
ATOM     68  C   UNL A   1      40.654  26.517  26.496  1.00  0.00     0.200 A 
ATOM     69  F   UNL A   1      39.246  24.915  27.508  1.00  0.00    -0.200 F 
ATOM     70  F   UNL A   1      40.759  25.754  25.400  1.00  0.00    -0.200 F 
ENDBRANCH  46  60
BRANCH  47  71
ATOM     71  C   UNL A   1      39.645  33.912  36.876  1.00  0.00     0.064 A 
ATOM     72  C   UNL A   1      40.312  35.144  36.901  1.00  0.00     0.173 A 
ATOM     73  C   UNL A   1      38.856  33.570  37.984  1.00  0.00     0.173 A 
ATOM     74  F   UNL A   1      41.094  35.502  35.873  1.00  0.00    -0.203 F 
ATOM     75  C   UNL A   1      40.191  36.002  37.991  1.00  0.00     0.198 A 
ATOM     76  C   UNL A   1      38.717  34.440  39.061  1.00  0.00     0.198 A 
ATOM     77  F   UNL A   1      38.197  32.403  38.004  1.00  0.00    -0.203 F 
ATOM     78  F   UNL A   1      40.856  37.166  38.001  1.00  0.00    -0.200 F 
ATOM     79  C   UNL A   1      39.386  35.655  39.065  1.00  0.00     0.200 A 
ATOM     80  F   UNL A   1      37.926  34.108  40.091  1.00  0.00    -0.200 F 
ATOM     81  F   UNL A   1      39.256  36.489  40.105  1.00  0.00    -0.200 F 
ENDBRANCH  47  71
BRANCH  59  82
ATOM     82  C   UNL A   1      43.800  28.590  35.141  1.00  0.00     0.064 A 
ATOM     83  C   UNL A   1      43.577  27.472  35.958  1.00  0.00     0.173 A 
ATOM     84  C   UNL A   1      45.121  29.029  34.970  1.00  0.00     0.173 A 
ATOM     85  F   UNL A   1      42.330  27.025  36.163  1.00  0.00    -0.203 F 
ATOM     86  C   UNL A   1      44.636  26.828  36.591  1.00  0.00     0.198 A 
ATOM     87  C   UNL A   1      46.180  28.369  35.586  1.00  0.00     0.198 A 
ATOM     88  F   UNL A   1      45.385  30.091  34.194  1.00  0.00    -0.203 F 
ATOM     89  F   UNL A   1      44.398  25.783  37.396  1.00  0.00    -0.200 F 
ATOM     90  C   UNL A   1      45.937  27.272  36.399  1.00  0.00     0.200 A 
ATOM     91  F   UNL A   1      47.437  28.791  35.391  1.00  0.00    -0.200 F 
ATOM     92  F   UNL A   1      46.956  26.647  37.005  1.00  0.00    -0.200 F 
ENDBRANCH  59  82
ENDBRANCH  33  34
ENDBRANCH  25  28
ENDBRANCH  23  24
ENDBRANCH  22  23
ENDBRANCH   1  22
TORSDOF 14
ENDMDL
MODEL 3
REMARK VINA RESULT:     -12.3      1.019      2.050
REMARK SMILES C[C@@H]1Oc2ccccc2N(CC(=O)NCCCCCCNC(=O)c2ccc(-c3c4nc(c(-c5c(F)c(F)c(F)c(F)c5F)c5ccc([nH]5)c(-c5c(F)c(F)c(F)c(F)c5F)c5nc(c(-c6c(F)c(F)c(F)c(F)c6F)c6ccc3[nH]6)C=C5)C=C4)cc2)C1=O
REMARK SMILES IDX 18 1 17 2 16 3 15 4 14 5 12 6 13 7 11 9 10 10 1 11 2 12 3 13
REMARK SMILES IDX 87 14 4 15 88 16 5 17 9 18 6 19 8 20 7 21 19 22 20 23 21 24
REMARK SMILES IDX 22 25 23 27 24 28 25 29 86 30 26 31 85 32 27 33 28 34 29 35
REMARK SMILES IDX 79 36 30 37 84 38 78 39 80 40 31 41 83 42 77 43 76 44 32 46
REMARK SMILES IDX 64 47 44 48 63 49 45 50 48 51 62 52 81 53 46 54 47 55 61 57
REMARK SMILES IDX 82 58 49 59 33 60 34 61 42 62 35 63 36 64 40 65 43 66 37 67
REMARK SMILES IDX 38 68 41 69 39 70 65 71 66 72 74 73 67 74 68 75 72 76 75 77
REMARK SMILES IDX 69 78 70 79 73 80 71 81 50 82 51 83 59 84 52 85 53 86 57 87
REMARK SMILES IDX 60 88 54 89 55 90 58 91 56 92
REMARK H PARENT 14 8 21 26 80 45 48 56
REMARK Flexibility Score: inf
ROOT
ATOM      1  C   UNL A   1      31.722  30.674  26.011  1.00  0.00     0.002 C 
ENDROOT
BRANCH   1   2
ATOM      2  C   UNL A   1      32.356  29.733  27.046  1.00  0.00     0.002 C 
BRANCH   2   3
ATOM      3  C   UNL A   1      31.543  28.478  27.389  1.00  0.00     0.021 C 
BRANCH   3   4
ATOM      4  C   UNL A   1      31.417  27.473  26.248  1.00  0.00     0.116 C 
BRANCH   4   5
ATOM      5  N   UNL A   1      31.092  26.155  26.744  1.00  0.00    -0.355 N 
ATOM      6  C   UNL A   1      31.792  24.990  26.647  1.00  0.00     0.240 C 
ATOM      7  O   UNL A   1      31.350  24.010  27.255  1.00  0.00    -0.273 OA
ATOM      8  H   UNL A   1      30.236  26.088  27.224  1.00  0.00     0.163 HD
BRANCH   6   9
ATOM      9  C   UNL A   1      33.136  24.907  25.905  1.00  0.00     0.225 C 
BRANCH   9  10
ATOM     10  N   UNL A   1      33.090  24.666  24.460  1.00  0.00    -0.296 N 
ATOM     11  C   UNL A   1      31.959  26.114  21.655  1.00  0.00     0.064 C 
ATOM     12  C   UNL A   1      33.245  25.429  22.109  1.00  0.00     0.259 C 
ATOM     13  O   UNL A   1      33.226  24.101  21.629  1.00  0.00    -0.479 OA
ATOM     14  C   UNL A   1      33.457  25.694  23.602  1.00  0.00     0.268 C 
ATOM     15  C   UNL A   1      32.839  23.164  22.545  1.00  0.00     0.144 A 
ATOM     16  O   UNL A   1      33.845  26.797  23.993  1.00  0.00    -0.270 OA
ATOM     17  C   UNL A   1      32.534  21.913  21.998  1.00  0.00     0.049 A 
ATOM     18  C   UNL A   1      32.783  23.380  23.930  1.00  0.00     0.087 A 
ATOM     19  C   UNL A   1      32.175  20.853  22.822  1.00  0.00     0.004 A 
ATOM     20  C   UNL A   1      32.454  22.289  24.748  1.00  0.00     0.030 A 
ATOM     21  C   UNL A   1      32.145  21.039  24.198  1.00  0.00     0.002 A 
ENDBRANCH   9  10
ENDBRANCH   6   9
ENDBRANCH   4   5
ENDBRANCH   3   4
ENDBRANCH   2   3
ENDBRANCH   1   2
BRANCH   1  22
ATOM     22  C   UNL A   1      31.470  32.110  26.479  1.00  0.00     0.021 C 
BRANCH  22  23
ATOM     23  C   UNL A   1      32.580  32.723  27.328  1.00  0.00     0.116 C 
BRANCH  23  24
ATOM     24  N   UNL A   1      32.333  34.118  27.659  1.00  0.00    -0.352 N 
ATOM     25  C   UNL A   1      32.965  34.934  28.569  1.00  0.00     0.251 C 
ATOM     26  H   UNL A   1      31.604  34.544  27.155  1.00  0.00     0.163 HD
ATOM     27  O   UNL A   1      32.526  36.050  28.810  1.00  0.00    -0.269 OA
BRANCH  25  28
ATOM     28  C   UNL A   1      34.159  34.443  29.294  1.00  0.00     0.039 A 
ATOM     29  C   UNL A   1      35.438  34.588  28.754  1.00  0.00     0.014 A 
ATOM     30  C   UNL A   1      33.984  33.813  30.529  1.00  0.00     0.014 A 
ATOM     31  C   UNL A   1      36.519  33.954  29.363  1.00  0.00     0.010 A 
ATOM     32  C   UNL A   1      35.082  33.240  31.176  1.00  0.00     0.010 A 
ATOM     33  C   UNL A   1      36.349  33.260  30.571  1.00  0.00    -0.014 A 
BRANCH  33  34
ATOM     34  C   UNL A   1      37.496  32.537  31.178  1.00  0.00     0.031 A 
ATOM     35  C   UNL A   1      37.945  32.856  32.578  1.00  0.00     0.074 A 
ATOM     36  C   UNL A   1      38.106  31.558  30.484  1.00  0.00     0.049 A 
ATOM     37  N   UNL A   1      38.933  32.343  33.268  1.00  0.00    -0.248 NA
ATOM     38  C   UNL A   1      37.185  33.888  33.300  1.00  0.00     0.031 C 
ATOM     39  C   UNL A   1      37.749  31.138  29.129  1.00  0.00     0.029 A 
ATOM     40  N   UNL A   1      39.141  30.726  30.830  1.00  0.00    -0.354 N 
ATOM     41  C   UNL A   1      38.924  32.998  34.492  1.00  0.00     0.074 A 
ATOM     42  C   UNL A   1      37.849  33.966  34.445  1.00  0.00     0.031 C 
ATOM     43  C   UNL A   1      38.520  30.100  28.775  1.00  0.00     0.029 A 
ATOM     44  C   UNL A   1      39.462  29.817  29.853  1.00  0.00     0.049 A 
ATOM     45  H   UNL A   1      39.607  30.776  31.696  1.00  0.00     0.167 HD
ATOM     46  C   UNL A   1      39.732  32.802  35.562  1.00  0.00     0.037 A 
ATOM     47  C   UNL A   1      40.418  28.869  29.823  1.00  0.00     0.037 A 
ATOM     48  C   UNL A   1      40.790  31.827  35.617  1.00  0.00     0.049 A 
ATOM     49  C   UNL A   1      41.328  28.701  31.007  1.00  0.00     0.074 A 
ATOM     50  C   UNL A   1      41.662  31.555  36.657  1.00  0.00     0.029 A 
ATOM     51  N   UNL A   1      41.116  30.958  34.586  1.00  0.00    -0.354 N 
ATOM     52  N   UNL A   1      41.322  29.341  32.149  1.00  0.00    -0.248 NA
ATOM     53  C   UNL A   1      42.382  27.684  30.890  1.00  0.00     0.031 C 
ATOM     54  C   UNL A   1      42.538  30.546  36.244  1.00  0.00     0.029 A 
ATOM     55  C   UNL A   1      42.184  30.158  34.962  1.00  0.00     0.049 A 
ATOM     56  H   UNL A   1      40.658  30.916  33.715  1.00  0.00     0.167 HD
ATOM     57  C   UNL A   1      42.360  28.800  32.894  1.00  0.00     0.074 A 
ATOM     58  C   UNL A   1      42.963  27.765  32.080  1.00  0.00     0.031 C 
ATOM     59  C   UNL A   1      42.776  29.134  34.139  1.00  0.00     0.037 A 
BRANCH  46  60
ATOM     60  C   UNL A   1      39.510  33.667  36.769  1.00  0.00     0.064 A 
ATOM     61  C   UNL A   1      38.702  33.246  37.835  1.00  0.00     0.173 A 
ATOM     62  C   UNL A   1      40.155  34.907  36.884  1.00  0.00     0.173 A 
ATOM     63  F   UNL A   1      38.052  32.074  37.767  1.00  0.00    -0.203 F 
ATOM     64  C   UNL A   1      38.534  34.043  38.965  1.00  0.00     0.198 A 
ATOM     65  C   UNL A   1      40.006  35.691  38.025  1.00  0.00     0.198 A 
ATOM     66  F   UNL A   1      40.944  35.353  35.894  1.00  0.00    -0.203 F 
ATOM     67  F   UNL A   1      37.729  33.637  39.957  1.00  0.00    -0.200 F 
ATOM     68  C   UNL A   1      39.193  35.261  39.063  1.00  0.00     0.200 A 
ATOM     69  F   UNL A   1      40.651  36.861  38.122  1.00  0.00    -0.200 F 
ATOM     70  F   UNL A   1      39.038  36.021  40.155  1.00  0.00    -0.200 F 
ENDBRANCH  46  60
BRANCH  47  71
ATOM     71  C   UNL A   1      40.543  28.001  28.626  1.00  0.00     0.064 A 
ATOM     72  C   UNL A   1      41.342  28.386  27.542  1.00  0.00     0.173 A 
ATOM     73  C   UNL A   1      39.904  26.754  28.561  1.00  0.00     0.173 A 
ATOM     74  F   UNL A   1      41.954  29.578  27.552  1.00  0.00    -0.203 F 
ATOM     75  C   UNL A   1      41.499  27.554  26.436  1.00  0.00     0.198 A 
ATOM     76  C   UNL A   1      40.082  25.913  27.466  1.00  0.00     0.198 A 
ATOM     77  F   UNL A   1      39.131  26.342  29.576  1.00  0.00    -0.203 F 
ATOM     78  F   UNL A   1      42.252  27.953  25.402  1.00  0.00    -0.200 F 
ATOM     79  C   UNL A   1      40.878  26.314  26.404  1.00  0.00     0.200 A 
ATOM     80  F   UNL A   1      39.492  24.710  27.445  1.00  0.00    -0.200 F 
ATOM     81  F   UNL A   1      41.044  25.507  25.348  1.00  0.00    -0.200 F 
ENDBRANCH  47  71
BRANCH  59  82
ATOM     82  C   UNL A   1      43.928  28.362  34.710  1.00  0.00     0.064 A 
ATOM     83  C   UNL A   1      45.248  28.819  34.583  1.00  0.00     0.173 A 
ATOM     84  C   UNL A   1      43.705  27.178  35.428  1.00  0.00     0.173 A 
ATOM     85  F   UNL A   1      45.511  29.938  33.893  1.00  0.00    -0.203 F 
ATOM     86  C   UNL A   1      46.306  28.108  35.142  1.00  0.00     0.198 A 
ATOM     87  C   UNL A   1      44.763  26.482  36.006  1.00  0.00     0.198 A 
ATOM     88  F   UNL A   1      42.460  26.704  35.581  1.00  0.00    -0.203 F 
ATOM     89  F   UNL A   1      47.563  28.543  34.979  1.00  0.00    -0.200 F 
ATOM     90  C   UNL A   1      46.062  26.945  35.859  1.00  0.00     0.200 A 
ATOM     91  F   UNL A   1      44.526  25.366  36.707  1.00  0.00    -0.200 F 
ATOM     92  F   UNL A   1      47.082  26.265  36.402  1.00  0.00    -0.200 F 
ENDBRANCH  59  82
ENDBRANCH  33  34
ENDBRANCH  25  28
ENDBRANCH  23  24
ENDBRANCH  22  23
ENDBRANCH   1  22
TORSDOF 14
ENDMDL
