MODEL 1
REMARK VINA RESULT:     -10.7      0.000      0.000
REMARK SMILES CC(=O)c1ccc(N2/C(=[NH+]/C(=O)CCC(=O)NCCCCCCNC(=O)c3ccc(-c4c5nc(c(-c6c(F)c(F)c(F)c(F)c6F)c6ccc([nH]6)c(-c6c(F)c(F)c(F)c(F)c6F)c6nc(c(-c7c(F)c(F)c(F)c(F)c7F)c7ccc4[nH]7)C=C6)C=C5)cc3)S[C@H]3CS(=O)(=O)C[C@@H]32)cc1
REMARK SMILES IDX 19 1 18 2 17 3 15 4 16 5 14 7 13 8 11 9 8 10 9 11 97 12
REMARK SMILES IDX 10 13 90 14 91 15 96 16 92 18 93 19 12 20 94 21 95 22 7 23
REMARK SMILES IDX 4 24 5 25 99 26 6 27 98 28 2 29 1 30 3 31 20 32 21 33 22 34
REMARK SMILES IDX 23 35 24 36 25 37 26 39 27 40 28 41 89 42 29 43 88 44 30 45
REMARK SMILES IDX 31 46 32 47 82 48 33 49 87 50 81 51 83 52 34 53 86 54 80 55
REMARK SMILES IDX 79 56 35 58 67 59 47 60 66 61 48 62 51 63 65 64 84 65 49 66
REMARK SMILES IDX 50 67 64 69 85 70 52 71 36 72 37 73 45 74 38 75 39 76 43 77
REMARK SMILES IDX 46 78 40 79 41 80 44 81 42 82 68 83 69 84 77 85 70 86 71 87
REMARK SMILES IDX 75 88 78 89 72 90 73 91 76 92 74 93 53 94 54 95 62 96 55 97
REMARK SMILES IDX 56 98 60 99 63 100 57 101 58 102 61 103 59 104
REMARK H PARENT 17 6 10 17 24 38 83 57 51 68
REMARK Flexibility Score: inf
ROOT
ATOM      1  C   UNL A   1      48.170  34.211  26.018  1.00  0.00     0.021 C 
ENDROOT
BRANCH   1   2
ATOM      2  C   UNL A   1      46.706  34.555  25.699  1.00  0.00     0.116 C 
BRANCH   2   3
ATOM      3  N   UNL A   1      45.817  33.399  25.751  1.00  0.00    -0.356 N 
ATOM      4  C   UNL A   1      44.462  33.329  25.642  1.00  0.00     0.220 C 
ATOM      5  O   UNL A   1      43.909  32.246  25.833  1.00  0.00    -0.275 OA
ATOM      6  H   UNL A   1      46.267  32.535  25.888  1.00  0.00     0.163 HD
BRANCH   4   7
ATOM      7  C   UNL A   1      43.683  34.559  25.243  1.00  0.00     0.112 C 
BRANCH   7   8
ATOM      8  C   UNL A   1      42.772  35.046  26.371  1.00  0.00     0.138 C 
BRANCH   8   9
ATOM      9  C   UNL A   1      42.981  36.522  26.668  1.00  0.00     0.308 C 
ATOM     10  N   UNL A   1      45.832  38.790  26.453  1.00  0.00    -0.217 N 
ATOM     11  C   UNL A   1      44.631  38.176  26.948  1.00  0.00     0.319 C 
ATOM     12  C   UNL A   1      45.681  40.235  26.199  1.00  0.00     0.212 C 
ATOM     13  N   UNL A   1      44.303  36.930  26.753  1.00  0.00    -0.204 N 
ATOM     14  S   UNL A   1      43.421  39.461  27.569  1.00  0.00    -0.029 SA
ATOM     15  C   UNL A   1      43.719  40.377  26.047  1.00  0.00     0.120 C 
ATOM     16  C   UNL A   1      46.619  41.529  24.953  1.00  0.00     0.188 C 
ATOM     17  H   UNL A   1      45.016  36.257  26.662  1.00  0.00     0.316 HD
ATOM     18  C   UNL A   1      43.132  42.038  25.147  1.00  0.00     0.156 C 
ATOM     19  S   UNL A   1      44.987  43.030  24.143  1.00  0.00     0.155 S 
ATOM     20  O   UNL A   1      41.993  37.254  26.599  1.00  0.00    -0.247 OA
ATOM     21  O   UNL A   1      44.818  42.951  22.697  1.00  0.00    -0.229 OA
ATOM     22  O   UNL A   1      45.211  44.372  24.623  1.00  0.00    -0.229 OA
BRANCH  10  23
ATOM     23  C   UNL A   1      47.156  38.344  26.616  1.00  0.00     0.128 A 
ATOM     24  C   UNL A   1      49.975  38.055  26.600  1.00  0.00     0.018 A 
ATOM     25  C   UNL A   1      49.311  38.485  27.757  1.00  0.00     0.016 A 
ATOM     26  C   UNL A   1      49.225  37.696  25.487  1.00  0.00     0.016 A 
ATOM     27  C   UNL A   1      47.914  38.645  27.758  1.00  0.00     0.052 A 
ATOM     28  C   UNL A   1      47.837  37.799  25.522  1.00  0.00     0.052 A 
BRANCH  24  29
ATOM     29  C   UNL A   1      51.461  37.988  26.567  1.00  0.00     0.159 C 
ATOM     30  C   UNL A   1      52.116  36.707  26.102  1.00  0.00     0.093 C 
ATOM     31  O   UNL A   1      52.119  38.983  26.858  1.00  0.00    -0.295 OA
ENDBRANCH  24  29
ENDBRANCH  10  23
ENDBRANCH   8   9
ENDBRANCH   7   8
ENDBRANCH   4   7
ENDBRANCH   2   3
ENDBRANCH   1   2
BRANCH   1  32
ATOM     32  C   UNL A   1      48.268  33.810  27.473  1.00  0.00     0.002 C 
BRANCH  32  33
ATOM     33  C   UNL A   1      49.564  33.970  28.242  1.00  0.00     0.002 C 
BRANCH  33  34
ATOM     34  C   UNL A   1      50.160  35.296  29.119  1.00  0.00     0.021 C 
BRANCH  34  35
ATOM     35  C   UNL A   1      49.608  36.525  30.816  1.00  0.00     0.116 C 
BRANCH  35  36
ATOM     36  N   UNL A   1      48.221  37.193  31.234  1.00  0.00    -0.352 N 
ATOM     37  C   UNL A   1      46.902  36.809  31.069  1.00  0.00     0.251 C 
ATOM     38  H   UNL A   1      48.325  38.051  31.704  1.00  0.00     0.163 HD
ATOM     39  O   UNL A   1      46.000  37.577  31.378  1.00  0.00    -0.269 OA
BRANCH  37  40
ATOM     40  C   UNL A   1      46.612  35.476  30.548  1.00  0.00     0.039 A 
ATOM     41  C   UNL A   1      46.905  34.343  31.317  1.00  0.00     0.014 A 
ATOM     42  C   UNL A   1      45.854  35.405  29.384  1.00  0.00     0.014 A 
ATOM     43  C   UNL A   1      46.303  33.134  30.981  1.00  0.00     0.010 A 
ATOM     44  C   UNL A   1      45.191  34.230  29.105  1.00  0.00     0.010 A 
ATOM     45  C   UNL A   1      45.416  33.088  29.897  1.00  0.00    -0.014 A 
BRANCH  45  46
ATOM     46  C   UNL A   1      44.818  31.826  29.426  1.00  0.00     0.031 A 
ATOM     47  C   UNL A   1      43.421  31.536  29.886  1.00  0.00     0.074 A 
ATOM     48  C   UNL A   1      45.535  30.924  28.734  1.00  0.00     0.049 A 
ATOM     49  N   UNL A   1      42.733  30.432  29.809  1.00  0.00    -0.248 NA
ATOM     50  C   UNL A   1      42.737  32.627  30.607  1.00  0.00     0.031 C 
ATOM     51  C   UNL A   1      46.917  31.091  28.284  1.00  0.00     0.029 A 
ATOM     52  N   UNL A   1      45.194  29.665  28.312  1.00  0.00    -0.354 N 
ATOM     53  C   UNL A   1      41.558  30.689  30.501  1.00  0.00     0.074 A 
ATOM     54  C   UNL A   1      41.672  32.006  31.081  1.00  0.00     0.031 C 
ATOM     55  C   UNL A   1      47.302  29.976  27.636  1.00  0.00     0.029 A 
ATOM     56  C   UNL A   1      46.205  29.010  27.652  1.00  0.00     0.049 A 
ATOM     57  H   UNL A   1      44.307  29.268  28.467  1.00  0.00     0.167 HD
ATOM     58  C   UNL A   1      40.459  29.912  30.601  1.00  0.00     0.037 A 
ATOM     59  C   UNL A   1      46.222  27.769  27.128  1.00  0.00     0.037 A 
ATOM     60  C   UNL A   1      40.346  28.630  29.969  1.00  0.00     0.049 A 
ATOM     61  C   UNL A   1      44.977  26.918  27.244  1.00  0.00     0.074 A 
ATOM     62  C   UNL A   1      39.258  27.781  29.933  1.00  0.00     0.029 A 
ATOM     63  N   UNL A   1      41.366  28.019  29.255  1.00  0.00    -0.354 N 
ATOM     64  N   UNL A   1      43.834  27.193  27.825  1.00  0.00    -0.248 NA
ATOM     65  C   UNL A   1      45.022  25.587  26.620  1.00  0.00     0.031 C 
ATOM     66  C   UNL A   1      39.639  26.628  29.243  1.00  0.00     0.029 A 
ATOM     67  C   UNL A   1      40.940  26.789  28.790  1.00  0.00     0.049 A 
ATOM     68  H   UNL A   1      42.260  28.404  29.102  1.00  0.00     0.167 HD
ATOM     69  C   UNL A   1      43.011  26.096  27.599  1.00  0.00     0.074 A 
ATOM     70  C   UNL A   1      43.787  25.151  26.823  1.00  0.00     0.031 C 
ATOM     71  C   UNL A   1      41.730  25.887  27.991  1.00  0.00     0.037 A 
BRANCH  58  72
ATOM     72  C   UNL A   1      39.309  30.446  31.401  1.00  0.00     0.064 A 
ATOM     73  C   UNL A   1      39.192  30.204  32.780  1.00  0.00     0.173 A 
ATOM     74  C   UNL A   1      38.302  31.197  30.779  1.00  0.00     0.173 A 
ATOM     75  F   UNL A   1      40.117  29.472  33.419  1.00  0.00    -0.203 F 
ATOM     76  C   UNL A   1      38.088  30.656  33.495  1.00  0.00     0.198 A 
ATOM     77  C   UNL A   1      37.221  31.685  31.508  1.00  0.00     0.198 A 
ATOM     78  F   UNL A   1      38.362  31.455  29.464  1.00  0.00    -0.203 F 
ATOM     79  F   UNL A   1      37.961  30.345  34.793  1.00  0.00    -0.200 F 
ATOM     80  C   UNL A   1      37.108  31.404  32.861  1.00  0.00     0.200 A 
ATOM     81  F   UNL A   1      36.281  32.418  30.896  1.00  0.00    -0.200 F 
ATOM     82  F   UNL A   1      36.048  31.844  33.552  1.00  0.00    -0.200 F 
ENDBRANCH  58  72
BRANCH  59  83
ATOM     83  C   UNL A   1      47.428  27.262  26.419  1.00  0.00     0.064 A 
ATOM     84  C   UNL A   1      48.409  26.530  27.105  1.00  0.00     0.173 A 
ATOM     85  C   UNL A   1      47.647  27.521  25.058  1.00  0.00     0.173 A 
ATOM     86  F   UNL A   1      48.258  26.270  28.414  1.00  0.00    -0.203 F 
ATOM     87  C   UNL A   1      49.577  26.112  26.471  1.00  0.00     0.198 A 
ATOM     88  C   UNL A   1      48.802  27.075  24.416  1.00  0.00     0.198 A 
ATOM     89  F   UNL A   1      46.741  28.212  24.351  1.00  0.00    -0.203 F 
ATOM     90  F   UNL A   1      50.525  25.472  27.170  1.00  0.00    -0.200 F 
ATOM     91  C   UNL A   1      49.771  26.383  25.125  1.00  0.00     0.200 A 
ATOM     92  F   UNL A   1      48.981  27.329  23.112  1.00  0.00    -0.200 F 
ATOM     93  F   UNL A   1      50.897  25.988  24.516  1.00  0.00    -0.200 F 
ENDBRANCH  59  83
BRANCH  71  94
ATOM     94  C   UNL A   1      41.055  24.624  27.541  1.00  0.00     0.064 A 
ATOM     95  C   UNL A   1      41.358  23.380  28.110  1.00  0.00     0.173 A 
ATOM     96  C   UNL A   1      40.018  24.683  26.595  1.00  0.00     0.173 A 
ATOM     97  F   UNL A   1      42.346  23.270  29.011  1.00  0.00    -0.203 F 
ATOM     98  C   UNL A   1      40.655  22.236  27.739  1.00  0.00     0.198 A 
ATOM     99  C   UNL A   1      39.294  23.546  26.255  1.00  0.00     0.198 A 
ATOM    100  F   UNL A   1      39.682  25.853  26.032  1.00  0.00    -0.203 F 
ATOM    101  F   UNL A   1      40.982  21.051  28.269  1.00  0.00    -0.200 F 
ATOM    102  C   UNL A   1      39.616  22.323  26.823  1.00  0.00     0.200 A 
ATOM    103  F   UNL A   1      38.275  23.636  25.390  1.00  0.00    -0.200 F 
ATOM    104  F   UNL A   1      38.923  21.226  26.489  1.00  0.00    -0.200 F 
ENDBRANCH  71  94
ENDBRANCH  45  46
ENDBRANCH  37  40
ENDBRANCH  35  36
ENDBRANCH  34  35
ENDBRANCH  33  34
ENDBRANCH  32  33
ENDBRANCH   1  32
TORSDOF 17
ENDMDL
MODEL 2
REMARK VINA RESULT:     -10.6      6.986     16.171
REMARK SMILES CC(=O)c1ccc(N2/C(=[NH+]/C(=O)CCC(=O)NCCCCCCNC(=O)c3ccc(-c4c5nc(c(-c6c(F)c(F)c(F)c(F)c6F)c6ccc([nH]6)c(-c6c(F)c(F)c(F)c(F)c6F)c6nc(c(-c7c(F)c(F)c(F)c(F)c7F)c7ccc4[nH]7)C=C6)C=C5)cc3)S[C@H]3CS(=O)(=O)C[C@@H]32)cc1
REMARK SMILES IDX 19 1 18 2 17 3 15 4 16 5 14 7 13 8 11 9 8 10 9 11 97 12
REMARK SMILES IDX 10 13 90 14 91 15 96 16 92 18 93 19 12 20 94 21 95 22 7 23
REMARK SMILES IDX 4 24 5 25 99 26 6 27 98 28 2 29 1 30 3 31 20 32 21 33 22 34
REMARK SMILES IDX 23 35 24 36 25 37 26 39 27 40 28 41 89 42 29 43 88 44 30 45
REMARK SMILES IDX 31 46 32 47 82 48 33 49 87 50 81 51 83 52 34 53 86 54 80 55
REMARK SMILES IDX 79 56 35 58 67 59 47 60 66 61 48 62 51 63 65 64 84 65 49 66
REMARK SMILES IDX 50 67 64 69 85 70 52 71 36 72 37 73 45 74 38 75 39 76 43 77
REMARK SMILES IDX 46 78 40 79 41 80 44 81 42 82 68 83 69 84 77 85 70 86 71 87
REMARK SMILES IDX 75 88 78 89 72 90 73 91 76 92 74 93 53 94 54 95 62 96 55 97
REMARK SMILES IDX 56 98 60 99 63 100 57 101 58 102 61 103 59 104
REMARK H PARENT 17 6 10 17 24 38 83 57 51 68
REMARK Flexibility Score: inf
ROOT
ATOM      1  C   UNL A   1      40.126  26.375  26.964  1.00  0.00     0.021 C 
ENDROOT
BRANCH   1   2
ATOM      2  C   UNL A   1      40.069  24.877  27.301  1.00  0.00     0.116 C 
BRANCH   2   3
ATOM      3  N   UNL A   1      40.937  24.061  26.458  1.00  0.00    -0.356 N 
ATOM      4  C   UNL A   1      41.052  22.708  26.365  1.00  0.00     0.220 C 
ATOM      5  O   UNL A   1      41.943  22.238  25.658  1.00  0.00    -0.275 OA
ATOM      6  H   UNL A   1      41.534  24.570  25.863  1.00  0.00     0.163 HD
BRANCH   4   7
ATOM      7  C   UNL A   1      40.061  21.827  27.085  1.00  0.00     0.112 C 
BRANCH   7   8
ATOM      8  C   UNL A   1      39.325  20.892  26.123  1.00  0.00     0.138 C 
BRANCH   8   9
ATOM      9  C   UNL A   1      38.192  21.603  25.403  1.00  0.00     0.308 C 
ATOM     10  N   UNL A   1      34.665  20.858  24.833  1.00  0.00    -0.217 N 
ATOM     11  C   UNL A   1      36.002  21.321  24.588  1.00  0.00     0.319 C 
ATOM     12  C   UNL A   1      33.647  21.911  24.664  1.00  0.00     0.212 C 
ATOM     13  N   UNL A   1      37.070  20.828  25.149  1.00  0.00    -0.204 N 
ATOM     14  S   UNL A   1      35.996  22.953  23.672  1.00  0.00    -0.029 SA
ATOM     15  C   UNL A   1      34.760  23.529  24.850  1.00  0.00     0.120 C 
ATOM     16  C   UNL A   1      31.796  22.188  25.441  1.00  0.00     0.188 C 
ATOM     17  H   UNL A   1      37.082  19.876  25.401  1.00  0.00     0.316 HD
ATOM     18  C   UNL A   1      33.703  25.152  25.254  1.00  0.00     0.156 C 
ATOM     19  S   UNL A   1      31.547  24.500  25.850  1.00  0.00     0.155 S 
ATOM     20  O   UNL A   1      38.274  22.828  25.298  1.00  0.00    -0.247 OA
ATOM     21  O   UNL A   1      31.353  24.804  27.262  1.00  0.00    -0.229 OA
ATOM     22  O   UNL A   1      30.545  25.088  24.993  1.00  0.00    -0.229 OA
BRANCH  10  23
ATOM     23  C   UNL A   1      34.183  19.539  24.751  1.00  0.00     0.128 A 
ATOM     24  C   UNL A   1      33.609  16.796  25.176  1.00  0.00     0.018 A 
ATOM     25  C   UNL A   1      32.680  17.782  25.539  1.00  0.00     0.016 A 
ATOM     26  C   UNL A   1      34.779  17.178  24.533  1.00  0.00     0.016 A 
ATOM     27  C   UNL A   1      32.974  19.143  25.343  1.00  0.00     0.052 A 
ATOM     28  C   UNL A   1      35.029  18.526  24.288  1.00  0.00     0.052 A 
BRANCH  24  29
ATOM     29  C   UNL A   1      33.342  15.364  25.480  1.00  0.00     0.159 C 
ATOM     30  C   UNL A   1      31.926  14.947  25.806  1.00  0.00     0.093 C 
ATOM     31  O   UNL A   1      34.256  14.547  25.400  1.00  0.00    -0.295 OA
ENDBRANCH  24  29
ENDBRANCH  10  23
ENDBRANCH   8   9
ENDBRANCH   7   8
ENDBRANCH   4   7
ENDBRANCH   2   3
ENDBRANCH   1   2
BRANCH   1  32
ATOM     32  C   UNL A   1      41.511  26.705  26.454  1.00  0.00     0.002 C 
BRANCH  32  33
ATOM     33  C   UNL A   1      42.634  27.051  27.412  1.00  0.00     0.002 C 
BRANCH  33  34
ATOM     34  C   UNL A   1      43.618  26.040  28.355  1.00  0.00     0.021 C 
BRANCH  34  35
ATOM     35  C   UNL A   1      43.989  23.927  28.660  1.00  0.00     0.116 C 
BRANCH  35  36
ATOM     36  N   UNL A   1      44.465  22.779  27.660  1.00  0.00    -0.352 N 
ATOM     37  C   UNL A   1      45.304  22.776  26.559  1.00  0.00     0.251 C 
ATOM     38  H   UNL A   1      44.087  21.895  27.868  1.00  0.00     0.163 HD
ATOM     39  O   UNL A   1      45.409  21.767  25.875  1.00  0.00    -0.269 OA
BRANCH  37  40
ATOM     40  C   UNL A   1      46.070  23.980  26.248  1.00  0.00     0.039 A 
ATOM     41  C   UNL A   1      45.752  24.742  25.118  1.00  0.00     0.014 A 
ATOM     42  C   UNL A   1      46.955  24.434  27.222  1.00  0.00     0.014 A 
ATOM     43  C   UNL A   1      46.227  26.048  25.036  1.00  0.00     0.010 A 
ATOM     44  C   UNL A   1      47.352  25.753  27.183  1.00  0.00     0.010 A 
ATOM     45  C   UNL A   1      46.996  26.564  26.088  1.00  0.00    -0.014 A 
BRANCH  45  46
ATOM     46  C   UNL A   1      47.612  27.901  26.027  1.00  0.00     0.031 A 
ATOM     47  C   UNL A   1      49.090  27.947  25.780  1.00  0.00     0.074 A 
ATOM     48  C   UNL A   1      46.909  29.011  26.310  1.00  0.00     0.049 A 
ATOM     49  N   UNL A   1      49.920  28.947  25.884  1.00  0.00    -0.248 NA
ATOM     50  C   UNL A   1      49.730  26.660  25.446  1.00  0.00     0.031 C 
ATOM     51  C   UNL A   1      45.479  29.066  26.614  1.00  0.00     0.029 A 
ATOM     52  N   UNL A   1      47.324  30.314  26.414  1.00  0.00    -0.354 N 
ATOM     53  C   UNL A   1      51.175  28.398  25.665  1.00  0.00     0.074 A 
ATOM     54  C   UNL A   1      51.011  26.970  25.533  1.00  0.00     0.031 C 
ATOM     55  C   UNL A   1      45.134  30.344  26.858  1.00  0.00     0.029 A 
ATOM     56  C   UNL A   1      46.323  31.189  26.757  1.00  0.00     0.049 A 
ATOM     57  H   UNL A   1      48.254  30.596  26.257  1.00  0.00     0.167 HD
ATOM     58  C   UNL A   1      52.356  29.038  25.536  1.00  0.00     0.037 A 
ATOM     59  C   UNL A   1      46.381  32.519  26.962  1.00  0.00     0.037 A 
ATOM     60  C   UNL A   1      52.488  30.464  25.615  1.00  0.00     0.049 A 
ATOM     61  C   UNL A   1      47.712  33.218  26.804  1.00  0.00     0.074 A 
ATOM     62  C   UNL A   1      53.616  31.236  25.426  1.00  0.00     0.029 A 
ATOM     63  N   UNL A   1      51.442  31.328  25.903  1.00  0.00    -0.354 N 
ATOM     64  N   UNL A   1      48.887  32.711  26.512  1.00  0.00    -0.248 NA
ATOM     65  C   UNL A   1      47.723  34.676  26.992  1.00  0.00     0.031 C 
ATOM     66  C   UNL A   1      53.265  32.568  25.657  1.00  0.00     0.029 A 
ATOM     67  C   UNL A   1      51.905  32.632  25.918  1.00  0.00     0.049 A 
ATOM     68  H   UNL A   1      50.511  31.056  26.071  1.00  0.00     0.167 HD
ATOM     69  C   UNL A   1      49.763  33.787  26.436  1.00  0.00     0.074 A 
ATOM     70  C   UNL A   1      48.983  34.976  26.709  1.00  0.00     0.031 C 
ATOM     71  C   UNL A   1      51.092  33.796  26.162  1.00  0.00     0.037 A 
BRANCH  58  72
ATOM     72  C   UNL A   1      53.571  28.197  25.279  1.00  0.00     0.064 A 
ATOM     73  C   UNL A   1      54.063  27.985  23.980  1.00  0.00     0.173 A 
ATOM     74  C   UNL A   1      54.245  27.583  26.344  1.00  0.00     0.173 A 
ATOM     75  F   UNL A   1      53.442  28.531  22.924  1.00  0.00    -0.203 F 
ATOM     76  C   UNL A   1      55.155  27.154  23.755  1.00  0.00     0.198 A 
ATOM     77  C   UNL A   1      55.364  26.788  26.117  1.00  0.00     0.198 A 
ATOM     78  F   UNL A   1      53.816  27.749  27.604  1.00  0.00    -0.203 F 
ATOM     79  F   UNL A   1      55.556  26.904  22.501  1.00  0.00    -0.200 F 
ATOM     80  C   UNL A   1      55.811  26.563  24.824  1.00  0.00     0.200 A 
ATOM     81  F   UNL A   1      56.004  26.227  27.153  1.00  0.00    -0.200 F 
ATOM     82  F   UNL A   1      56.866  25.768  24.606  1.00  0.00    -0.200 F 
ENDBRANCH  58  72
BRANCH  59  83
ATOM     83  C   UNL A   1      45.152  33.288  27.300  1.00  0.00     0.064 A 
ATOM     84  C   UNL A   1      44.442  33.981  26.307  1.00  0.00     0.173 A 
ATOM     85  C   UNL A   1      44.679  33.379  28.617  1.00  0.00     0.173 A 
ATOM     86  F   UNL A   1      44.864  33.942  25.034  1.00  0.00    -0.203 F 
ATOM     87  C   UNL A   1      43.334  34.764  26.623  1.00  0.00     0.198 A 
ATOM     88  C   UNL A   1      43.551  34.138  28.927  1.00  0.00     0.198 A 
ATOM     89  F   UNL A   1      45.315  32.735  29.607  1.00  0.00    -0.203 F 
ATOM     90  F   UNL A   1      42.717  35.466  25.662  1.00  0.00    -0.200 F 
ATOM     91  C   UNL A   1      42.887  34.840  27.933  1.00  0.00     0.200 A 
ATOM     92  F   UNL A   1      43.115  34.200  30.194  1.00  0.00    -0.200 F 
ATOM     93  F   UNL A   1      41.826  35.599  28.238  1.00  0.00    -0.200 F 
ENDBRANCH  59  83
BRANCH  71  94
ATOM     94  C   UNL A   1      51.782  35.126  26.077  1.00  0.00     0.064 A 
ATOM     95  C   UNL A   1      52.320  35.754  27.208  1.00  0.00     0.173 A 
ATOM     96  C   UNL A   1      51.993  35.726  24.824  1.00  0.00     0.173 A 
ATOM     97  F   UNL A   1      52.138  35.225  28.427  1.00  0.00    -0.203 F 
ATOM     98  C   UNL A   1      53.034  36.944  27.090  1.00  0.00     0.198 A 
ATOM     99  C   UNL A   1      52.739  36.894  24.707  1.00  0.00     0.198 A 
ATOM    100  F   UNL A   1      51.508  35.156  23.711  1.00  0.00    -0.203 F 
ATOM    101  F   UNL A   1      53.512  37.547  28.186  1.00  0.00    -0.200 F 
ATOM    102  C   UNL A   1      53.255  37.504  25.839  1.00  0.00     0.200 A 
ATOM    103  F   UNL A   1      52.971  37.419  23.496  1.00  0.00    -0.200 F 
ATOM    104  F   UNL A   1      53.966  38.634  25.726  1.00  0.00    -0.200 F 
ENDBRANCH  71  94
ENDBRANCH  45  46
ENDBRANCH  37  40
ENDBRANCH  35  36
ENDBRANCH  34  35
ENDBRANCH  33  34
ENDBRANCH  32  33
ENDBRANCH   1  32
TORSDOF 17
ENDMDL
MODEL 3
REMARK VINA RESULT:     -10.6      5.530     11.727
REMARK SMILES CC(=O)c1ccc(N2/C(=[NH+]/C(=O)CCC(=O)NCCCCCCNC(=O)c3ccc(-c4c5nc(c(-c6c(F)c(F)c(F)c(F)c6F)c6ccc([nH]6)c(-c6c(F)c(F)c(F)c(F)c6F)c6nc(c(-c7c(F)c(F)c(F)c(F)c7F)c7ccc4[nH]7)C=C6)C=C5)cc3)S[C@H]3CS(=O)(=O)C[C@@H]32)cc1
REMARK SMILES IDX 19 1 18 2 17 3 15 4 16 5 14 7 13 8 11 9 8 10 9 11 97 12
REMARK SMILES IDX 10 13 90 14 91 15 96 16 92 18 93 19 12 20 94 21 95 22 7 23
REMARK SMILES IDX 4 24 5 25 99 26 6 27 98 28 2 29 1 30 3 31 20 32 21 33 22 34
REMARK SMILES IDX 23 35 24 36 25 37 26 39 27 40 28 41 89 42 29 43 88 44 30 45
REMARK SMILES IDX 31 46 32 47 82 48 33 49 87 50 81 51 83 52 34 53 86 54 80 55
REMARK SMILES IDX 79 56 35 58 67 59 47 60 66 61 48 62 51 63 65 64 84 65 49 66
REMARK SMILES IDX 50 67 64 69 85 70 52 71 36 72 37 73 45 74 38 75 39 76 43 77
REMARK SMILES IDX 46 78 40 79 41 80 44 81 42 82 68 83 69 84 77 85 70 86 71 87
REMARK SMILES IDX 75 88 78 89 72 90 73 91 76 92 74 93 53 94 54 95 62 96 55 97
REMARK SMILES IDX 56 98 60 99 63 100 57 101 58 102 61 103 59 104
REMARK H PARENT 17 6 10 17 24 38 83 57 51 68
REMARK Flexibility Score: inf
ROOT
ATOM      1  C   UNL A   1      44.612  28.197  25.440  1.00  0.00     0.021 C 
ENDROOT
BRANCH   1   2
ATOM      2  C   UNL A   1      43.507  27.530  26.274  1.00  0.00     0.116 C 
BRANCH   2   3
ATOM      3  N   UNL A   1      42.182  28.094  26.034  1.00  0.00    -0.356 N 
ATOM      4  C   UNL A   1      41.327  28.721  26.888  1.00  0.00     0.220 C 
ATOM      5  O   UNL A   1      40.202  29.016  26.486  1.00  0.00    -0.275 OA
ATOM      6  H   UNL A   1      41.856  28.007  25.110  1.00  0.00     0.163 HD
BRANCH   4   7
ATOM      7  C   UNL A   1      41.794  29.079  28.278  1.00  0.00     0.112 C 
BRANCH   7   8
ATOM      8  C   UNL A   1      41.315  28.066  29.319  1.00  0.00     0.138 C 
BRANCH   8   9
ATOM      9  C   UNL A   1      42.116  26.776  29.261  1.00  0.00     0.308 C 
ATOM     10  N   UNL A   1      41.738  23.613  27.482  1.00  0.00    -0.217 N 
ATOM     11  C   UNL A   1      42.043  24.538  28.537  1.00  0.00     0.319 C 
ATOM     12  C   UNL A   1      42.888  22.774  27.096  1.00  0.00     0.212 C 
ATOM     13  N   UNL A   1      41.459  25.692  28.700  1.00  0.00    -0.204 N 
ATOM     14  S   UNL A   1      43.629  24.068  29.412  1.00  0.00    -0.029 SA
ATOM     15  C   UNL A   1      44.382  23.863  27.789  1.00  0.00     0.120 C 
ATOM     16  C   UNL A   1      43.396  21.821  25.382  1.00  0.00     0.188 C 
ATOM     17  H   UNL A   1      40.522  25.798  28.417  1.00  0.00     0.316 HD
ATOM     18  C   UNL A   1      46.125  23.383  26.984  1.00  0.00     0.156 C 
ATOM     19  S   UNL A   1      45.735  22.020  25.135  1.00  0.00     0.155 S 
ATOM     20  O   UNL A   1      43.319  26.851  29.514  1.00  0.00    -0.247 OA
ATOM     21  O   UNL A   1      46.114  22.759  23.937  1.00  0.00    -0.229 OA
ATOM     22  O   UNL A   1      46.395  20.741  25.254  1.00  0.00    -0.229 OA
BRANCH  10  23
ATOM     23  C   UNL A   1      40.477  23.103  27.123  1.00  0.00     0.128 A 
ATOM     24  C   UNL A   1      38.141  22.280  25.745  1.00  0.00     0.018 A 
ATOM     25  C   UNL A   1      39.114  21.342  26.119  1.00  0.00     0.016 A 
ATOM     26  C   UNL A   1      38.301  23.604  26.129  1.00  0.00     0.016 A 
ATOM     27  C   UNL A   1      40.280  21.755  26.788  1.00  0.00     0.052 A 
ATOM     28  C   UNL A   1      39.431  23.989  26.846  1.00  0.00     0.052 A 
BRANCH  24  29
ATOM     29  C   UNL A   1      36.959  21.858  24.946  1.00  0.00     0.159 C 
ATOM     30  C   UNL A   1      36.531  20.409  25.000  1.00  0.00     0.093 C 
ATOM     31  O   UNL A   1      36.325  22.698  24.312  1.00  0.00    -0.295 OA
ENDBRANCH  24  29
ENDBRANCH  10  23
ENDBRANCH   8   9
ENDBRANCH   7   8
ENDBRANCH   4   7
ENDBRANCH   2   3
ENDBRANCH   1   2
BRANCH   1  32
ATOM     32  C   UNL A   1      45.620  27.144  25.039  1.00  0.00     0.002 C 
BRANCH  32  33
ATOM     33  C   UNL A   1      46.927  27.527  24.375  1.00  0.00     0.002 C 
BRANCH  33  34
ATOM     34  C   UNL A   1      48.347  26.623  24.151  1.00  0.00     0.021 C 
BRANCH  34  35
ATOM     35  C   UNL A   1      50.496  26.897  24.212  1.00  0.00     0.116 C 
BRANCH  35  36
ATOM     36  N   UNL A   1      51.647  26.086  24.962  1.00  0.00    -0.352 N 
ATOM     37  C   UNL A   1      51.867  25.773  26.292  1.00  0.00     0.251 C 
ATOM     38  H   UNL A   1      52.340  25.738  24.357  1.00  0.00     0.163 HD
ATOM     39  O   UNL A   1      52.914  25.234  26.626  1.00  0.00    -0.269 OA
BRANCH  37  40
ATOM     40  C   UNL A   1      50.826  26.073  27.272  1.00  0.00     0.039 A 
ATOM     41  C   UNL A   1      50.975  27.159  28.142  1.00  0.00     0.014 A 
ATOM     42  C   UNL A   1      49.625  25.381  27.148  1.00  0.00     0.014 A 
ATOM     43  C   UNL A   1      49.849  27.647  28.800  1.00  0.00     0.010 A 
ATOM     44  C   UNL A   1      48.498  25.919  27.730  1.00  0.00     0.010 A 
ATOM     45  C   UNL A   1      48.604  27.049  28.563  1.00  0.00    -0.014 A 
BRANCH  45  46
ATOM     46  C   UNL A   1      47.390  27.451  29.294  1.00  0.00     0.031 A 
ATOM     47  C   UNL A   1      46.728  28.719  28.846  1.00  0.00     0.074 A 
ATOM     48  C   UNL A   1      46.977  26.788  30.388  1.00  0.00     0.049 A 
ATOM     49  N   UNL A   1      45.790  29.417  29.424  1.00  0.00    -0.248 NA
ATOM     50  C   UNL A   1      47.261  29.326  27.611  1.00  0.00     0.031 C 
ATOM     51  C   UNL A   1      47.584  25.573  30.934  1.00  0.00     0.029 A 
ATOM     52  N   UNL A   1      45.952  27.069  31.254  1.00  0.00    -0.354 N 
ATOM     53  C   UNL A   1      45.652  30.553  28.641  1.00  0.00     0.074 A 
ATOM     54  C   UNL A   1      46.669  30.507  27.618  1.00  0.00     0.031 C 
ATOM     55  C   UNL A   1      46.909  25.208  32.040  1.00  0.00     0.029 A 
ATOM     56  C   UNL A   1      45.844  26.177  32.293  1.00  0.00     0.049 A 
ATOM     57  H   UNL A   1      45.350  27.839  31.142  1.00  0.00     0.167 HD
ATOM     58  C   UNL A   1      44.722  31.528  28.738  1.00  0.00     0.037 A 
ATOM     59  C   UNL A   1      44.976  26.163  33.323  1.00  0.00     0.037 A 
ATOM     60  C   UNL A   1      43.685  31.525  29.728  1.00  0.00     0.049 A 
ATOM     61  C   UNL A   1      43.937  27.259  33.409  1.00  0.00     0.074 A 
ATOM     62  C   UNL A   1      42.641  32.413  29.882  1.00  0.00     0.029 A 
ATOM     63  N   UNL A   1      43.566  30.573  30.730  1.00  0.00    -0.354 N 
ATOM     64  N   UNL A   1      43.751  28.290  32.619  1.00  0.00    -0.248 NA
ATOM     65  C   UNL A   1      42.981  27.182  34.522  1.00  0.00     0.031 C 
ATOM     66  C   UNL A   1      41.919  32.032  31.016  1.00  0.00     0.029 A 
ATOM     67  C   UNL A   1      42.472  30.866  31.524  1.00  0.00     0.049 A 
ATOM     68  H   UNL A   1      44.168  29.805  30.856  1.00  0.00     0.167 HD
ATOM     69  C   UNL A   1      42.634  28.956  33.110  1.00  0.00     0.074 A 
ATOM     70  C   UNL A   1      42.183  28.209  34.265  1.00  0.00     0.031 C 
ATOM     71  C   UNL A   1      42.032  30.080  32.649  1.00  0.00     0.037 A 
BRANCH  58  72
ATOM     72  C   UNL A   1      44.788  32.644  27.740  1.00  0.00     0.064 A 
ATOM     73  C   UNL A   1      44.176  32.546  26.479  1.00  0.00     0.173 A 
ATOM     74  C   UNL A   1      45.484  33.823  28.041  1.00  0.00     0.173 A 
ATOM     75  F   UNL A   1      43.517  31.430  26.131  1.00  0.00    -0.203 F 
ATOM     76  C   UNL A   1      44.298  33.568  25.542  1.00  0.00     0.198 A 
ATOM     77  C   UNL A   1      45.566  34.861  27.117  1.00  0.00     0.198 A 
ATOM     78  F   UNL A   1      46.090  33.968  29.229  1.00  0.00    -0.203 F 
ATOM     79  F   UNL A   1      43.773  33.417  24.319  1.00  0.00    -0.200 F 
ATOM     80  C   UNL A   1      44.985  34.728  25.866  1.00  0.00     0.200 A 
ATOM     81  F   UNL A   1      46.219  35.987  27.435  1.00  0.00    -0.200 F 
ATOM     82  F   UNL A   1      45.096  35.713  24.965  1.00  0.00    -0.200 F 
ENDBRANCH  58  72
BRANCH  59  83
ATOM     83  C   UNL A   1      45.016  25.072  34.334  1.00  0.00     0.064 A 
ATOM     84  C   UNL A   1      45.634  25.269  35.578  1.00  0.00     0.173 A 
ATOM     85  C   UNL A   1      44.473  23.805  34.074  1.00  0.00     0.173 A 
ATOM     86  F   UNL A   1      46.187  26.456  35.871  1.00  0.00    -0.203 F 
ATOM     87  C   UNL A   1      45.743  24.233  36.505  1.00  0.00     0.198 A 
ATOM     88  C   UNL A   1      44.555  22.779  35.014  1.00  0.00     0.198 A 
ATOM     89  F   UNL A   1      43.866  23.561  32.903  1.00  0.00    -0.203 F 
ATOM     90  F   UNL A   1      46.398  24.434  37.657  1.00  0.00    -0.200 F 
ATOM     91  C   UNL A   1      45.200  22.989  36.222  1.00  0.00     0.200 A 
ATOM     92  F   UNL A   1      44.018  21.581  34.742  1.00  0.00    -0.200 F 
ATOM     93  F   UNL A   1      45.311  21.991  37.110  1.00  0.00    -0.200 F 
ENDBRANCH  59  83
BRANCH  71  94
ATOM     94  C   UNL A   1      40.784  30.543  33.343  1.00  0.00     0.064 A 
ATOM     95  C   UNL A   1      39.512  30.115  32.942  1.00  0.00     0.173 A 
ATOM     96  C   UNL A   1      40.879  31.347  34.491  1.00  0.00     0.173 A 
ATOM     97  F   UNL A   1      39.369  29.353  31.847  1.00  0.00    -0.203 F 
ATOM     98  C   UNL A   1      38.376  30.486  33.657  1.00  0.00     0.198 A 
ATOM     99  C   UNL A   1      39.746  31.684  35.224  1.00  0.00     0.198 A 
ATOM    100  F   UNL A   1      42.076  31.771  34.923  1.00  0.00    -0.203 F 
ATOM    101  F   UNL A   1      37.166  30.094  33.238  1.00  0.00    -0.200 F 
ATOM    102  C   UNL A   1      38.496  31.258  34.804  1.00  0.00     0.200 A 
ATOM    103  F   UNL A   1      39.867  32.408  36.345  1.00  0.00    -0.200 F 
ATOM    104  F   UNL A   1      37.404  31.590  35.506  1.00  0.00    -0.200 F 
ENDBRANCH  71  94
ENDBRANCH  45  46
ENDBRANCH  37  40
ENDBRANCH  35  36
ENDBRANCH  34  35
ENDBRANCH  33  34
ENDBRANCH  32  33
ENDBRANCH   1  32
TORSDOF 17
ENDMDL
