MODEL 1
REMARK VINA RESULT:     -12.1      0.000      0.000
REMARK SMILES CCc1cccc(-c2ccc([C@@H](C)C(=O)NCCCCCCNC(=O)c3ccc(-c4c5nc(c(-c6c(F)c(F)c(F)c(F)c6F)c6ccc([nH]6)c(-c6c(F)c(F)c(F)c(F)c6F)c6nc(c(-c7c(F)c(F)c(F)c(F)c7F)c7ccc4[nH]7)C=C6)C=C5)cc3)cc2)c1
REMARK SMILES IDX 19 1 18 2 17 3 16 4 14 5 15 6 12 8 13 9 11 10 8 11 9 12
REMARK SMILES IDX 90 13 10 14 89 15 7 16 3 17 4 18 91 19 5 20 6 21 2 22 1 23
REMARK SMILES IDX 20 24 21 25 22 26 23 27 24 28 25 30 26 31 27 32 88 33 28 34
REMARK SMILES IDX 87 35 29 36 30 37 31 38 81 39 32 40 86 41 80 42 82 43 33 44
REMARK SMILES IDX 85 45 79 46 78 47 34 49 66 50 46 51 65 52 47 53 50 54 64 55
REMARK SMILES IDX 83 56 48 57 49 58 63 60 84 61 51 62 35 63 36 64 44 65 37 66
REMARK SMILES IDX 38 67 42 68 45 69 39 70 40 71 43 72 41 73 67 74 68 75 76 76
REMARK SMILES IDX 69 77 70 78 74 79 77 80 71 81 72 82 75 83 73 84 52 85 53 86
REMARK SMILES IDX 61 87 54 88 55 89 59 90 62 91 56 92 57 93 60 94 58 95
REMARK H PARENT 16 7 23 29 82 48 50 59
REMARK Flexibility Score: inf
ROOT
ATOM      1  C   UNL A   1      33.988  25.675  23.886  1.00  0.00     0.002 C 
ENDROOT
BRANCH   1   2
ATOM      2  C   UNL A   1      34.258  25.394  25.368  1.00  0.00     0.021 C 
BRANCH   2   3
ATOM      3  C   UNL A   1      34.722  23.966  25.654  1.00  0.00     0.116 C 
BRANCH   3   4
ATOM      4  N   UNL A   1      34.074  23.414  26.824  1.00  0.00    -0.356 N 
ATOM      5  C   UNL A   1      32.887  22.764  26.975  1.00  0.00     0.227 C 
ATOM      6  O   UNL A   1      32.555  22.488  28.134  1.00  0.00    -0.274 OA
ATOM      7  H   UNL A   1      34.582  23.529  27.660  1.00  0.00     0.163 HD
BRANCH   5   8
ATOM      8  C   UNL A   1      31.985  22.356  25.801  1.00  0.00     0.105 C 
ATOM      9  C   UNL A   1      32.674  21.455  24.774  1.00  0.00     0.023 C 
BRANCH   8  10
ATOM     10  C   UNL A   1      31.161  23.505  25.240  1.00  0.00    -0.036 A 
ATOM     11  C   UNL A   1      29.696  25.765  24.267  1.00  0.00    -0.018 A 
ATOM     12  C   UNL A   1      30.193  24.777  23.403  1.00  0.00     0.009 A 
ATOM     13  C   UNL A   1      29.930  25.576  25.640  1.00  0.00     0.009 A 
ATOM     14  C   UNL A   1      30.882  23.656  23.880  1.00  0.00     0.005 A 
ATOM     15  C   UNL A   1      30.664  24.481  26.115  1.00  0.00     0.005 A 
BRANCH  11  16
ATOM     16  C   UNL A   1      28.962  26.944  23.747  1.00  0.00    -0.018 A 
ATOM     17  C   UNL A   1      28.926  29.083  22.533  1.00  0.00    -0.048 A 
ATOM     18  C   UNL A   1      27.548  29.184  22.744  1.00  0.00     0.004 A 
ATOM     19  C   UNL A   1      29.616  27.962  23.027  1.00  0.00     0.012 A 
ATOM     20  C   UNL A   1      26.876  28.190  23.446  1.00  0.00     0.001 A 
ATOM     21  C   UNL A   1      27.578  27.092  23.950  1.00  0.00     0.009 A 
BRANCH  17  22
ATOM     22  C   UNL A   1      29.670  30.191  21.831  1.00  0.00     0.032 C 
ATOM     23  C   UNL A   1      28.766  31.385  21.567  1.00  0.00     0.009 C 
ENDBRANCH  17  22
ENDBRANCH  11  16
ENDBRANCH   8  10
ENDBRANCH   5   8
ENDBRANCH   3   4
ENDBRANCH   2   3
ENDBRANCH   1   2
BRANCH   1  24
ATOM     24  C   UNL A   1      33.148  26.928  23.601  1.00  0.00     0.002 C 
BRANCH  24  25
ATOM     25  C   UNL A   1      32.857  27.820  24.812  1.00  0.00     0.021 C 
BRANCH  25  26
ATOM     26  C   UNL A   1      33.766  29.039  24.942  1.00  0.00     0.116 C 
BRANCH  26  27
ATOM     27  N   UNL A   1      33.056  30.190  25.474  1.00  0.00    -0.352 N 
ATOM     28  C   UNL A   1      33.241  30.869  26.652  1.00  0.00     0.251 C 
ATOM     29  H   UNL A   1      32.332  30.536  24.903  1.00  0.00     0.163 HD
ATOM     30  O   UNL A   1      32.403  31.680  27.031  1.00  0.00    -0.269 OA
BRANCH  28  31
ATOM     31  C   UNL A   1      34.447  30.627  27.473  1.00  0.00     0.039 A 
ATOM     32  C   UNL A   1      35.357  31.673  27.659  1.00  0.00     0.014 A 
ATOM     33  C   UNL A   1      34.716  29.363  28.007  1.00  0.00     0.014 A 
ATOM     34  C   UNL A   1      36.516  31.462  28.409  1.00  0.00     0.010 A 
ATOM     35  C   UNL A   1      35.839  29.172  28.808  1.00  0.00     0.010 A 
ATOM     36  C   UNL A   1      36.759  30.213  29.002  1.00  0.00    -0.014 A 
BRANCH  36  37
ATOM     37  C   UNL A   1      37.992  29.963  29.790  1.00  0.00     0.031 A 
ATOM     38  C   UNL A   1      39.060  29.058  29.242  1.00  0.00     0.074 A 
ATOM     39  C   UNL A   1      38.125  30.501  31.017  1.00  0.00     0.049 A 
ATOM     40  N   UNL A   1      40.170  28.649  29.803  1.00  0.00    -0.248 NA
ATOM     41  C   UNL A   1      38.836  28.518  27.891  1.00  0.00     0.031 C 
ATOM     42  C   UNL A   1      37.141  31.363  31.673  1.00  0.00     0.029 A 
ATOM     43  N   UNL A   1      39.139  30.391  31.935  1.00  0.00    -0.354 N 
ATOM     44  C   UNL A   1      40.762  27.791  28.886  1.00  0.00     0.074 A 
ATOM     45  C   UNL A   1      39.868  27.698  27.752  1.00  0.00     0.031 C 
ATOM     46  C   UNL A   1      37.607  31.718  32.882  1.00  0.00     0.029 A 
ATOM     47  C   UNL A   1      38.905  31.084  33.098  1.00  0.00     0.049 A 
ATOM     48  H   UNL A   1      39.955  29.867  31.775  1.00  0.00     0.167 HD
ATOM     49  C   UNL A   1      41.955  27.154  28.971  1.00  0.00     0.037 A 
ATOM     50  C   UNL A   1      39.654  31.191  34.212  1.00  0.00     0.037 A 
ATOM     51  C   UNL A   1      42.858  27.276  30.084  1.00  0.00     0.049 A 
ATOM     52  C   UNL A   1      40.983  30.489  34.274  1.00  0.00     0.074 A 
ATOM     53  C   UNL A   1      44.113  26.714  30.244  1.00  0.00     0.029 A 
ATOM     54  N   UNL A   1      42.602  28.018  31.228  1.00  0.00    -0.354 N 
ATOM     55  N   UNL A   1      41.558  29.724  33.379  1.00  0.00    -0.248 NA
ATOM     56  C   UNL A   1      41.771  30.674  35.500  1.00  0.00     0.031 C 
ATOM     57  C   UNL A   1      44.603  27.089  31.501  1.00  0.00     0.029 A 
ATOM     58  C   UNL A   1      43.672  27.919  32.104  1.00  0.00     0.049 A 
ATOM     59  H   UNL A   1      41.783  28.537  31.393  1.00  0.00     0.167 HD
ATOM     60  C   UNL A   1      42.786  29.364  33.916  1.00  0.00     0.074 A 
ATOM     61  C   UNL A   1      42.877  30.002  35.213  1.00  0.00     0.031 C 
ATOM     62  C   UNL A   1      43.753  28.577  33.383  1.00  0.00     0.037 A 
BRANCH  49  63
ATOM     63  C   UNL A   1      42.352  26.270  27.824  1.00  0.00     0.064 A 
ATOM     64  C   UNL A   1      41.842  24.969  27.688  1.00  0.00     0.173 A 
ATOM     65  C   UNL A   1      43.230  26.738  26.835  1.00  0.00     0.173 A 
ATOM     66  F   UNL A   1      41.009  24.472  28.613  1.00  0.00    -0.203 F 
ATOM     67  C   UNL A   1      42.221  24.160  26.621  1.00  0.00     0.198 A 
ATOM     68  C   UNL A   1      43.583  25.935  25.754  1.00  0.00     0.198 A 
ATOM     69  F   UNL A   1      43.742  27.975  26.914  1.00  0.00    -0.203 F 
ATOM     70  F   UNL A   1      41.761  22.904  26.540  1.00  0.00    -0.200 F 
ATOM     71  C   UNL A   1      43.086  24.645  25.651  1.00  0.00     0.200 A 
ATOM     72  F   UNL A   1      44.410  26.409  24.810  1.00  0.00    -0.200 F 
ATOM     73  F   UNL A   1      43.446  23.865  24.623  1.00  0.00    -0.200 F 
ENDBRANCH  49  63
BRANCH  50  74
ATOM     74  C   UNL A   1      39.181  32.027  35.345  1.00  0.00     0.064 A 
ATOM     75  C   UNL A   1      39.496  33.391  35.412  1.00  0.00     0.173 A 
ATOM     76  C   UNL A   1      38.409  31.484  36.381  1.00  0.00     0.173 A 
ATOM     77  F   UNL A   1      40.249  33.951  34.453  1.00  0.00    -0.203 F 
ATOM     78  C   UNL A   1      39.075  34.176  36.482  1.00  0.00     0.198 A 
ATOM     79  C   UNL A   1      37.965  32.275  37.439  1.00  0.00     0.198 A 
ATOM     80  F   UNL A   1      38.075  30.185  36.361  1.00  0.00    -0.203 F 
ATOM     81  F   UNL A   1      39.427  35.467  36.544  1.00  0.00    -0.200 F 
ATOM     82  C   UNL A   1      38.306  33.618  37.492  1.00  0.00     0.200 A 
ATOM     83  F   UNL A   1      37.211  31.736  38.406  1.00  0.00    -0.200 F 
ATOM     84  F   UNL A   1      37.898  34.375  38.521  1.00  0.00    -0.200 F 
ENDBRANCH  50  74
BRANCH  62  85
ATOM     85  C   UNL A   1      45.012  28.399  34.178  1.00  0.00     0.064 A 
ATOM     86  C   UNL A   1      45.163  27.348  35.093  1.00  0.00     0.173 A 
ATOM     87  C   UNL A   1      46.095  29.270  33.990  1.00  0.00     0.173 A 
ATOM     88  F   UNL A   1      44.150  26.498  35.319  1.00  0.00    -0.203 F 
ATOM     89  C   UNL A   1      46.346  27.189  35.809  1.00  0.00     0.198 A 
ATOM     90  C   UNL A   1      47.287  29.091  34.685  1.00  0.00     0.198 A 
ATOM     91  F   UNL A   1      46.003  30.287  33.120  1.00  0.00    -0.203 F 
ATOM     92  F   UNL A   1      46.454  26.203  36.711  1.00  0.00    -0.200 F 
ATOM     93  C   UNL A   1      47.410  28.056  35.599  1.00  0.00     0.200 A 
ATOM     94  F   UNL A   1      48.317  29.922  34.474  1.00  0.00    -0.200 F 
ATOM     95  F   UNL A   1      48.550  27.896  36.285  1.00  0.00    -0.200 F 
ENDBRANCH  62  85
ENDBRANCH  36  37
ENDBRANCH  28  31
ENDBRANCH  26  27
ENDBRANCH  25  26
ENDBRANCH  24  25
ENDBRANCH   1  24
TORSDOF 16
ENDMDL
MODEL 2
REMARK VINA RESULT:     -12.0      0.176      2.001
REMARK SMILES CCc1cccc(-c2ccc([C@@H](C)C(=O)NCCCCCCNC(=O)c3ccc(-c4c5nc(c(-c6c(F)c(F)c(F)c(F)c6F)c6ccc([nH]6)c(-c6c(F)c(F)c(F)c(F)c6F)c6nc(c(-c7c(F)c(F)c(F)c(F)c7F)c7ccc4[nH]7)C=C6)C=C5)cc3)cc2)c1
REMARK SMILES IDX 19 1 18 2 17 3 16 4 14 5 15 6 12 8 13 9 11 10 8 11 9 12
REMARK SMILES IDX 90 13 10 14 89 15 7 16 3 17 4 18 91 19 5 20 6 21 2 22 1 23
REMARK SMILES IDX 20 24 21 25 22 26 23 27 24 28 25 30 26 31 27 32 88 33 28 34
REMARK SMILES IDX 87 35 29 36 30 37 31 38 81 39 32 40 86 41 80 42 82 43 33 44
REMARK SMILES IDX 85 45 79 46 78 47 34 49 66 50 46 51 65 52 47 53 50 54 64 55
REMARK SMILES IDX 83 56 48 57 49 58 63 60 84 61 51 62 35 63 36 64 44 65 37 66
REMARK SMILES IDX 38 67 42 68 45 69 39 70 40 71 43 72 41 73 67 74 68 75 76 76
REMARK SMILES IDX 69 77 70 78 74 79 77 80 71 81 72 82 75 83 73 84 52 85 53 86
REMARK SMILES IDX 61 87 54 88 55 89 59 90 62 91 56 92 57 93 60 94 58 95
REMARK H PARENT 16 7 23 29 82 48 50 59
REMARK Flexibility Score: inf
ROOT
ATOM      1  C   UNL A   1      33.954  25.695  23.961  1.00  0.00     0.002 C 
ENDROOT
BRANCH   1   2
ATOM      2  C   UNL A   1      34.326  25.401  25.418  1.00  0.00     0.021 C 
BRANCH   2   3
ATOM      3  C   UNL A   1      34.747  23.953  25.671  1.00  0.00     0.116 C 
BRANCH   3   4
ATOM      4  N   UNL A   1      34.091  23.397  26.834  1.00  0.00    -0.356 N 
ATOM      5  C   UNL A   1      32.902  22.748  26.975  1.00  0.00     0.227 C 
ATOM      6  O   UNL A   1      32.562  22.468  28.130  1.00  0.00    -0.274 OA
ATOM      7  H   UNL A   1      34.593  23.508  27.674  1.00  0.00     0.163 HD
BRANCH   5   8
ATOM      8  C   UNL A   1      32.008  22.347  25.793  1.00  0.00     0.105 C 
ATOM      9  C   UNL A   1      32.702  21.450  24.766  1.00  0.00     0.023 C 
BRANCH   8  10
ATOM     10  C   UNL A   1      31.187  23.498  25.232  1.00  0.00    -0.036 A 
ATOM     11  C   UNL A   1      29.733  25.764  24.257  1.00  0.00    -0.018 A 
ATOM     12  C   UNL A   1      30.209  24.764  23.396  1.00  0.00     0.009 A 
ATOM     13  C   UNL A   1      29.982  25.586  25.628  1.00  0.00     0.009 A 
ATOM     14  C   UNL A   1      30.893  23.640  23.874  1.00  0.00     0.005 A 
ATOM     15  C   UNL A   1      30.712  24.488  26.104  1.00  0.00     0.005 A 
BRANCH  11  16
ATOM     16  C   UNL A   1      29.004  26.946  23.736  1.00  0.00    -0.018 A 
ATOM     17  C   UNL A   1      28.978  29.086  22.523  1.00  0.00    -0.048 A 
ATOM     18  C   UNL A   1      27.600  29.191  22.730  1.00  0.00     0.004 A 
ATOM     19  C   UNL A   1      29.663  27.963  23.018  1.00  0.00     0.012 A 
ATOM     20  C   UNL A   1      26.922  28.199  23.430  1.00  0.00     0.001 A 
ATOM     21  C   UNL A   1      27.620  27.098  23.935  1.00  0.00     0.009 A 
BRANCH  17  22
ATOM     22  C   UNL A   1      29.728  30.192  21.824  1.00  0.00     0.032 C 
ATOM     23  C   UNL A   1      28.843  31.410  21.608  1.00  0.00     0.009 C 
ENDBRANCH  17  22
ENDBRANCH  11  16
ENDBRANCH   8  10
ENDBRANCH   5   8
ENDBRANCH   3   4
ENDBRANCH   2   3
ENDBRANCH   1   2
BRANCH   1  24
ATOM     24  C   UNL A   1      33.074  26.935  23.749  1.00  0.00     0.002 C 
BRANCH  24  25
ATOM     25  C   UNL A   1      32.948  27.872  24.954  1.00  0.00     0.021 C 
BRANCH  25  26
ATOM     26  C   UNL A   1      33.686  29.200  24.812  1.00  0.00     0.116 C 
BRANCH  26  27
ATOM     27  N   UNL A   1      32.967  30.291  25.448  1.00  0.00    -0.352 N 
ATOM     28  C   UNL A   1      33.180  30.895  26.662  1.00  0.00     0.251 C 
ATOM     29  H   UNL A   1      32.211  30.652  24.930  1.00  0.00     0.163 HD
ATOM     30  O   UNL A   1      32.335  31.653  27.126  1.00  0.00    -0.269 OA
BRANCH  28  31
ATOM     31  C   UNL A   1      34.424  30.636  27.418  1.00  0.00     0.039 A 
ATOM     32  C   UNL A   1      34.625  29.367  27.971  1.00  0.00     0.014 A 
ATOM     33  C   UNL A   1      35.361  31.650  27.636  1.00  0.00     0.014 A 
ATOM     34  C   UNL A   1      35.779  29.106  28.711  1.00  0.00     0.010 A 
ATOM     35  C   UNL A   1      36.541  31.370  28.319  1.00  0.00     0.010 A 
ATOM     36  C   UNL A   1      36.755  30.102  28.879  1.00  0.00    -0.014 A 
BRANCH  36  37
ATOM     37  C   UNL A   1      37.982  29.849  29.674  1.00  0.00     0.031 A 
ATOM     38  C   UNL A   1      39.039  28.920  29.145  1.00  0.00     0.074 A 
ATOM     39  C   UNL A   1      38.120  30.406  30.891  1.00  0.00     0.049 A 
ATOM     40  N   UNL A   1      40.143  28.506  29.715  1.00  0.00    -0.248 NA
ATOM     41  C   UNL A   1      38.811  28.359  27.803  1.00  0.00     0.031 C 
ATOM     42  C   UNL A   1      37.147  31.293  31.530  1.00  0.00     0.029 A 
ATOM     43  N   UNL A   1      39.131  30.299  31.814  1.00  0.00    -0.354 N 
ATOM     44  C   UNL A   1      40.725  27.623  28.815  1.00  0.00     0.074 A 
ATOM     45  C   UNL A   1      39.832  27.523  27.681  1.00  0.00     0.031 C 
ATOM     46  C   UNL A   1      37.614  31.663  32.734  1.00  0.00     0.029 A 
ATOM     47  C   UNL A   1      38.903  31.016  32.964  1.00  0.00     0.049 A 
ATOM     48  H   UNL A   1      39.940  29.761  31.665  1.00  0.00     0.167 HD
ATOM     49  C   UNL A   1      41.908  26.973  28.914  1.00  0.00     0.037 A 
ATOM     50  C   UNL A   1      39.652  31.133  34.078  1.00  0.00     0.037 A 
ATOM     51  C   UNL A   1      42.811  27.102  30.027  1.00  0.00     0.049 A 
ATOM     52  C   UNL A   1      40.970  30.413  34.156  1.00  0.00     0.074 A 
ATOM     53  C   UNL A   1      44.058  26.526  30.200  1.00  0.00     0.029 A 
ATOM     54  N   UNL A   1      42.563  27.867  31.157  1.00  0.00    -0.354 N 
ATOM     55  N   UNL A   1      41.538  29.625  33.275  1.00  0.00    -0.248 NA
ATOM     56  C   UNL A   1      41.759  30.609  35.380  1.00  0.00     0.031 C 
ATOM     57  C   UNL A   1      44.550  26.916  31.451  1.00  0.00     0.029 A 
ATOM     58  C   UNL A   1      43.629  27.770  32.037  1.00  0.00     0.049 A 
ATOM     59  H   UNL A   1      41.750  28.400  31.311  1.00  0.00     0.167 HD
ATOM     60  C   UNL A   1      42.759  29.258  33.822  1.00  0.00     0.074 A 
ATOM     61  C   UNL A   1      42.856  29.917  35.107  1.00  0.00     0.031 C 
ATOM     62  C   UNL A   1      43.716  28.449  33.304  1.00  0.00     0.037 A 
BRANCH  49  63
ATOM     63  C   UNL A   1      42.296  26.063  27.784  1.00  0.00     0.064 A 
ATOM     64  C   UNL A   1      43.123  26.501  26.738  1.00  0.00     0.173 A 
ATOM     65  C   UNL A   1      41.859  24.730  27.761  1.00  0.00     0.173 A 
ATOM     66  F   UNL A   1      43.557  27.770  26.709  1.00  0.00    -0.203 F 
ATOM     67  C   UNL A   1      43.472  25.647  25.696  1.00  0.00     0.198 A 
ATOM     68  C   UNL A   1      42.236  23.871  26.732  1.00  0.00     0.198 A 
ATOM     69  F   UNL A   1      41.072  24.258  28.739  1.00  0.00    -0.203 F 
ATOM     70  F   UNL A   1      44.222  26.103  24.682  1.00  0.00    -0.200 F 
ATOM     71  C   UNL A   1      43.034  24.331  25.696  1.00  0.00     0.200 A 
ATOM     72  F   UNL A   1      41.821  22.595  26.740  1.00  0.00    -0.200 F 
ATOM     73  F   UNL A   1      43.376  23.510  24.694  1.00  0.00    -0.200 F 
ENDBRANCH  49  63
BRANCH  50  74
ATOM     74  C   UNL A   1      39.187  31.994  35.195  1.00  0.00     0.064 A 
ATOM     75  C   UNL A   1      38.467  31.451  36.267  1.00  0.00     0.173 A 
ATOM     76  C   UNL A   1      39.449  33.371  35.214  1.00  0.00     0.173 A 
ATOM     77  F   UNL A   1      38.174  30.141  36.283  1.00  0.00    -0.203 F 
ATOM     78  C   UNL A   1      38.008  32.256  37.308  1.00  0.00     0.198 A 
ATOM     79  C   UNL A   1      39.013  34.171  36.268  1.00  0.00     0.198 A 
ATOM     80  F   UNL A   1      40.140  33.938  34.214  1.00  0.00    -0.203 F 
ATOM     81  F   UNL A   1      37.284  31.719  38.299  1.00  0.00    -0.200 F 
ATOM     82  C   UNL A   1      38.286  33.614  37.309  1.00  0.00     0.200 A 
ATOM     83  F   UNL A   1      39.294  35.481  36.273  1.00  0.00    -0.200 F 
ATOM     84  F   UNL A   1      37.847  34.388  38.312  1.00  0.00    -0.200 F 
ENDBRANCH  50  74
BRANCH  62  85
ATOM     85  C   UNL A   1      44.971  28.268  34.105  1.00  0.00     0.064 A 
ATOM     86  C   UNL A   1      46.063  29.137  33.971  1.00  0.00     0.173 A 
ATOM     87  C   UNL A   1      45.064  27.234  35.049  1.00  0.00     0.173 A 
ATOM     88  F   UNL A   1      46.028  30.132  33.072  1.00  0.00    -0.203 F 
ATOM     89  C   UNL A   1      47.213  28.963  34.736  1.00  0.00     0.198 A 
ATOM     90  C   UNL A   1      46.204  27.080  35.833  1.00  0.00     0.198 A 
ATOM     91  F   UNL A   1      44.044  26.381  35.220  1.00  0.00    -0.203 F 
ATOM     92  F   UNL A   1      48.262  29.779  34.561  1.00  0.00    -0.200 F 
ATOM     93  C   UNL A   1      47.280  27.940  35.671  1.00  0.00     0.200 A 
ATOM     94  F   UNL A   1      46.262  26.098  36.743  1.00  0.00    -0.200 F 
ATOM     95  F   UNL A   1      48.385  27.779  36.412  1.00  0.00    -0.200 F 
ENDBRANCH  62  85
ENDBRANCH  36  37
ENDBRANCH  28  31
ENDBRANCH  26  27
ENDBRANCH  25  26
ENDBRANCH  24  25
ENDBRANCH   1  24
TORSDOF 16
ENDMDL
MODEL 3
REMARK VINA RESULT:     -11.9      0.600      7.275
REMARK SMILES CCc1cccc(-c2ccc([C@@H](C)C(=O)NCCCCCCNC(=O)c3ccc(-c4c5nc(c(-c6c(F)c(F)c(F)c(F)c6F)c6ccc([nH]6)c(-c6c(F)c(F)c(F)c(F)c6F)c6nc(c(-c7c(F)c(F)c(F)c(F)c7F)c7ccc4[nH]7)C=C6)C=C5)cc3)cc2)c1
REMARK SMILES IDX 19 1 18 2 17 3 16 4 14 5 15 6 12 8 13 9 11 10 8 11 9 12
REMARK SMILES IDX 90 13 10 14 89 15 7 16 3 17 4 18 91 19 5 20 6 21 2 22 1 23
REMARK SMILES IDX 20 24 21 25 22 26 23 27 24 28 25 30 26 31 27 32 88 33 28 34
REMARK SMILES IDX 87 35 29 36 30 37 31 38 81 39 32 40 86 41 80 42 82 43 33 44
REMARK SMILES IDX 85 45 79 46 78 47 34 49 66 50 46 51 65 52 47 53 50 54 64 55
REMARK SMILES IDX 83 56 48 57 49 58 63 60 84 61 51 62 35 63 36 64 44 65 37 66
REMARK SMILES IDX 38 67 42 68 45 69 39 70 40 71 43 72 41 73 67 74 68 75 76 76
REMARK SMILES IDX 69 77 70 78 74 79 77 80 71 81 72 82 75 83 73 84 52 85 53 86
REMARK SMILES IDX 61 87 54 88 55 89 59 90 62 91 56 92 57 93 60 94 58 95
REMARK H PARENT 16 7 23 29 82 48 50 59
REMARK Flexibility Score: inf
ROOT
ATOM      1  C   UNL A   1      33.900  25.898  24.963  1.00  0.00     0.002 C 
ENDROOT
BRANCH   1   2
ATOM      2  C   UNL A   1      35.034  24.953  25.375  1.00  0.00     0.021 C 
BRANCH   2   3
ATOM      3  C   UNL A   1      34.647  23.474  25.353  1.00  0.00     0.116 C 
BRANCH   3   4
ATOM      4  N   UNL A   1      34.107  23.041  26.624  1.00  0.00    -0.356 N 
ATOM      5  C   UNL A   1      32.875  22.577  26.969  1.00  0.00     0.227 C 
ATOM      6  O   UNL A   1      32.681  22.370  28.172  1.00  0.00    -0.274 OA
ATOM      7  H   UNL A   1      34.745  23.090  27.372  1.00  0.00     0.163 HD
BRANCH   5   8
ATOM      8  C   UNL A   1      31.759  22.292  25.952  1.00  0.00     0.105 C 
ATOM      9  C   UNL A   1      32.130  21.245  24.901  1.00  0.00     0.023 C 
BRANCH   8  10
ATOM     10  C   UNL A   1      31.072  23.547  25.435  1.00  0.00    -0.036 A 
ATOM     11  C   UNL A   1      29.703  25.820  24.358  1.00  0.00    -0.018 A 
ATOM     12  C   UNL A   1      29.764  25.578  25.739  1.00  0.00     0.009 A 
ATOM     13  C   UNL A   1      30.371  24.904  23.528  1.00  0.00     0.009 A 
ATOM     14  C   UNL A   1      30.459  24.485  26.269  1.00  0.00     0.005 A 
ATOM     15  C   UNL A   1      31.024  23.780  24.053  1.00  0.00     0.005 A 
BRANCH  11  16
ATOM     16  C   UNL A   1      28.968  26.987  23.812  1.00  0.00    -0.018 A 
ATOM     17  C   UNL A   1      28.941  29.133  22.608  1.00  0.00    -0.048 A 
ATOM     18  C   UNL A   1      27.554  29.204  22.759  1.00  0.00     0.004 A 
ATOM     19  C   UNL A   1      29.632  28.023  23.127  1.00  0.00     0.012 A 
ATOM     20  C   UNL A   1      26.872  28.192  23.427  1.00  0.00     0.001 A 
ATOM     21  C   UNL A   1      27.575  27.106  23.955  1.00  0.00     0.009 A 
BRANCH  17  22
ATOM     22  C   UNL A   1      29.693  30.260  21.946  1.00  0.00     0.032 C 
ATOM     23  C   UNL A   1      28.779  31.442  21.661  1.00  0.00     0.009 C 
ENDBRANCH  17  22
ENDBRANCH  11  16
ENDBRANCH   8  10
ENDBRANCH   5   8
ENDBRANCH   3   4
ENDBRANCH   2   3
ENDBRANCH   1   2
BRANCH   1  24
ATOM     24  C   UNL A   1      33.223  26.649  26.118  1.00  0.00     0.002 C 
BRANCH  24  25
ATOM     25  C   UNL A   1      32.582  27.990  25.749  1.00  0.00     0.021 C 
BRANCH  25  26
ATOM     26  C   UNL A   1      33.571  29.093  25.380  1.00  0.00     0.116 C 
BRANCH  26  27
ATOM     27  N   UNL A   1      33.117  30.400  25.826  1.00  0.00    -0.352 N 
ATOM     28  C   UNL A   1      33.495  31.135  26.921  1.00  0.00     0.251 C 
ATOM     29  H   UNL A   1      32.434  30.822  25.256  1.00  0.00     0.163 HD
ATOM     30  O   UNL A   1      32.844  32.119  27.254  1.00  0.00    -0.269 OA
BRANCH  28  31
ATOM     31  C   UNL A   1      34.686  30.747  27.708  1.00  0.00     0.039 A 
ATOM     32  C   UNL A   1      35.733  31.664  27.845  1.00  0.00     0.014 A 
ATOM     33  C   UNL A   1      34.802  29.466  28.258  1.00  0.00     0.014 A 
ATOM     34  C   UNL A   1      36.878  31.312  28.560  1.00  0.00     0.010 A 
ATOM     35  C   UNL A   1      35.917  29.139  29.025  1.00  0.00     0.010 A 
ATOM     36  C   UNL A   1      36.973  30.050  29.170  1.00  0.00    -0.014 A 
BRANCH  36  37
ATOM     37  C   UNL A   1      38.188  29.650  29.923  1.00  0.00     0.031 A 
ATOM     38  C   UNL A   1      38.429  30.199  31.302  1.00  0.00     0.074 A 
ATOM     39  C   UNL A   1      39.099  28.844  29.347  1.00  0.00     0.049 A 
ATOM     40  N   UNL A   1      39.461  30.038  32.092  1.00  0.00    -0.248 NA
ATOM     41  C   UNL A   1      37.379  31.070  31.857  1.00  0.00     0.031 C 
ATOM     42  C   UNL A   1      38.998  28.279  28.001  1.00  0.00     0.029 A 
ATOM     43  N   UNL A   1      40.297  28.367  29.821  1.00  0.00    -0.354 N 
ATOM     44  C   UNL A   1      39.194  30.801  33.220  1.00  0.00     0.074 A 
ATOM     45  C   UNL A   1      37.928  31.464  32.997  1.00  0.00     0.031 C 
ATOM     46  C   UNL A   1      40.079  27.519  27.762  1.00  0.00     0.029 A 
ATOM     47  C   UNL A   1      40.963  27.569  28.924  1.00  0.00     0.049 A 
ATOM     48  H   UNL A   1      40.643  28.578  30.716  1.00  0.00     0.167 HD
ATOM     49  C   UNL A   1      39.929  30.921  34.352  1.00  0.00     0.037 A 
ATOM     50  C   UNL A   1      42.155  26.950  29.030  1.00  0.00     0.037 A 
ATOM     51  C   UNL A   1      41.171  30.233  34.587  1.00  0.00     0.049 A 
ATOM     52  C   UNL A   1      42.943  27.085  30.304  1.00  0.00     0.074 A 
ATOM     53  C   UNL A   1      41.965  30.247  35.721  1.00  0.00     0.029 A 
ATOM     54  N   UNL A   1      41.796  29.402  33.669  1.00  0.00    -0.354 N 
ATOM     55  N   UNL A   1      42.656  27.765  31.387  1.00  0.00    -0.248 NA
ATOM     56  C   UNL A   1      44.217  26.357  30.374  1.00  0.00     0.031 C 
ATOM     57  C   UNL A   1      43.089  29.449  35.476  1.00  0.00     0.029 A 
ATOM     58  C   UNL A   1      42.972  28.905  34.207  1.00  0.00     0.049 A 
ATOM     59  H   UNL A   1      41.454  29.197  32.769  1.00  0.00     0.167 HD
ATOM     60  C   UNL A   1      43.692  27.521  32.277  1.00  0.00     0.074 A 
ATOM     61  C   UNL A   1      44.612  26.624  31.611  1.00  0.00     0.031 C 
ATOM     62  C   UNL A   1      43.866  27.997  33.535  1.00  0.00     0.037 A 
BRANCH  49  63
ATOM     63  C   UNL A   1      39.403  31.830  35.426  1.00  0.00     0.064 A 
ATOM     64  C   UNL A   1      38.539  31.361  36.428  1.00  0.00     0.173 A 
ATOM     65  C   UNL A   1      39.790  33.177  35.471  1.00  0.00     0.173 A 
ATOM     66  F   UNL A   1      38.130  30.084  36.422  1.00  0.00    -0.203 F 
ATOM     67  C   UNL A   1      38.058  32.215  37.416  1.00  0.00     0.198 A 
ATOM     68  C   UNL A   1      39.331  34.021  36.479  1.00  0.00     0.198 A 
ATOM     69  F   UNL A   1      40.619  33.676  34.542  1.00  0.00    -0.203 F 
ATOM     70  F   UNL A   1      37.194  31.757  38.332  1.00  0.00    -0.200 F 
ATOM     71  C   UNL A   1      38.459  33.543  37.445  1.00  0.00     0.200 A 
ATOM     72  F   UNL A   1      39.728  35.302  36.513  1.00  0.00    -0.200 F 
ATOM     73  F   UNL A   1      37.997  34.362  38.400  1.00  0.00    -0.200 F 
ENDBRANCH  49  63
BRANCH  50  74
ATOM     74  C   UNL A   1      42.659  26.117  27.908  1.00  0.00     0.064 A 
ATOM     75  C   UNL A   1      42.307  24.764  27.805  1.00  0.00     0.173 A 
ATOM     76  C   UNL A   1      43.499  26.650  26.921  1.00  0.00     0.173 A 
ATOM     77  F   UNL A   1      41.521  24.204  28.737  1.00  0.00    -0.203 F 
ATOM     78  C   UNL A   1      42.793  23.970  26.769  1.00  0.00     0.198 A 
ATOM     79  C   UNL A   1      43.964  25.862  25.870  1.00  0.00     0.198 A 
ATOM     80  F   UNL A   1      43.860  27.941  26.971  1.00  0.00    -0.203 F 
ATOM     81  F   UNL A   1      42.477  22.669  26.719  1.00  0.00    -0.200 F 
ATOM     82  C   UNL A   1      43.617  24.521  25.800  1.00  0.00     0.200 A 
ATOM     83  F   UNL A   1      44.749  26.401  24.928  1.00  0.00    -0.200 F 
ATOM     84  F   UNL A   1      44.082  23.758  24.801  1.00  0.00    -0.200 F 
ENDBRANCH  50  74
BRANCH  62  85
ATOM     85  C   UNL A   1      45.071  27.521  34.290  1.00  0.00     0.064 A 
ATOM     86  C   UNL A   1      45.048  26.339  35.045  1.00  0.00     0.173 A 
ATOM     87  C   UNL A   1      46.275  28.237  34.224  1.00  0.00     0.173 A 
ATOM     88  F   UNL A   1      43.916  25.628  35.151  1.00  0.00    -0.203 F 
ATOM     89  C   UNL A   1      46.182  25.904  35.726  1.00  0.00     0.198 A 
ATOM     90  C   UNL A   1      47.415  27.785  34.882  1.00  0.00     0.198 A 
ATOM     91  F   UNL A   1      46.350  29.369  33.509  1.00  0.00    -0.203 F 
ATOM     92  F   UNL A   1      46.126  24.795  36.476  1.00  0.00    -0.200 F 
ATOM     93  C   UNL A   1      47.366  26.623  35.638  1.00  0.00     0.200 A 
ATOM     94  F   UNL A   1      48.560  28.473  34.787  1.00  0.00    -0.200 F 
ATOM     95  F   UNL A   1      48.458  26.198  36.288  1.00  0.00    -0.200 F 
ENDBRANCH  62  85
ENDBRANCH  36  37
ENDBRANCH  28  31
ENDBRANCH  26  27
ENDBRANCH  25  26
ENDBRANCH  24  25
ENDBRANCH   1  24
TORSDOF 16
ENDMDL
