MODEL 1
REMARK VINA RESULT:     -12.1      0.000      0.000
REMARK SMILES CCOc1ccc2[nH]c(=O)c(C(=O)NCCCCCCNC(=O)c3ccc(-c4c5nc(c(-c6c(F)c(F)c(F)c(F)c6F)c6ccc([nH]6)c(-c6c(F)c(F)c(F)c(F)c6F)c6nc(c(-c7c(F)c(F)c(F)c(F)c7F)c7ccc4[nH]7)C=C6)C=C5)cc3)cc2c1
REMARK SMILES IDX 17 1 16 2 15 3 14 4 12 5 13 6 11 8 4 9 5 10 89 11 6 12 88 13
REMARK SMILES IDX 7 14 87 15 8 16 9 17 10 19 3 20 2 21 1 22 18 23 19 24 20 25
REMARK SMILES IDX 21 26 22 27 23 29 24 30 25 31 86 32 26 33 85 34 27 35 28 36
REMARK SMILES IDX 29 37 79 38 30 39 84 40 78 41 80 42 31 43 83 44 77 45 76 46
REMARK SMILES IDX 32 48 64 49 44 50 63 51 45 52 48 53 62 54 81 55 46 56 47 57
REMARK SMILES IDX 61 59 82 60 49 61 33 62 34 63 42 64 35 65 36 66 40 67 43 68
REMARK SMILES IDX 37 69 38 70 41 71 39 72 65 73 66 74 74 75 67 76 68 77 72 78
REMARK SMILES IDX 75 79 69 80 70 81 73 82 71 83 50 84 51 85 59 86 52 87 53 88
REMARK SMILES IDX 57 89 60 90 54 91 55 92 58 93 56 94
REMARK H PARENT 14 7 8 18 21 28 80 47 48 58
REMARK Flexibility Score: inf
ROOT
ATOM      1  C   UNL A   1      37.010  22.089  24.812  1.00  0.00     0.002 C 
ENDROOT
BRANCH   1   2
ATOM      2  C   UNL A   1      36.390  23.008  25.868  1.00  0.00     0.021 C 
BRANCH   2   3
ATOM      3  C   UNL A   1      35.360  24.015  25.367  1.00  0.00     0.116 C 
BRANCH   3   4
ATOM      4  N   UNL A   1      34.096  23.979  26.080  1.00  0.00    -0.352 N 
ATOM      5  C   UNL A   1      33.035  23.125  25.958  1.00  0.00     0.256 C 
ATOM      6  O   UNL A   1      32.071  23.305  26.708  1.00  0.00    -0.269 OA
ATOM      7  H   UNL A   1      33.984  24.683  26.759  1.00  0.00     0.163 HD
BRANCH   5   8
ATOM      8  C   UNL A   1      32.983  22.071  24.902  1.00  0.00     0.105 A 
ATOM      9  C   UNL A   1      33.511  17.372  23.725  1.00  0.00     0.120 A 
ATOM     10  C   UNL A   1      32.649  17.552  22.643  1.00  0.00     0.048 A 
ATOM     11  C   UNL A   1      33.777  18.427  24.604  1.00  0.00     0.056 A 
ATOM     12  C   UNL A   1      32.163  18.819  22.343  1.00  0.00     0.030 A 
ATOM     13  C   UNL A   1      33.254  19.696  24.335  1.00  0.00     0.003 A 
ATOM     14  C   UNL A   1      32.501  19.886  23.168  1.00  0.00     0.049 A 
ATOM     15  C   UNL A   1      33.403  20.835  25.250  1.00  0.00     0.030 A 
ATOM     16  N   UNL A   1      32.147  21.181  22.792  1.00  0.00    -0.321 N 
ATOM     17  C   UNL A   1      32.518  22.292  23.503  1.00  0.00     0.261 A 
ATOM     18  H   UNL A   1      31.605  21.303  21.979  1.00  0.00     0.170 HD
ATOM     19  O   UNL A   1      32.442  23.401  22.981  1.00  0.00    -0.269 OA
BRANCH   9  20
ATOM     20  O   UNL A   1      34.027  16.134  23.996  1.00  0.00    -0.494 OA
BRANCH  20  21
ATOM     21  C   UNL A   1      33.870  15.755  25.375  1.00  0.00     0.226 C 
ATOM     22  C   UNL A   1      32.531  15.086  25.650  1.00  0.00     0.049 C 
ENDBRANCH  20  21
ENDBRANCH   9  20
ENDBRANCH   5   8
ENDBRANCH   3   4
ENDBRANCH   2   3
ENDBRANCH   1   2
BRANCH   1  23
ATOM     23  C   UNL A   1      36.786  20.586  24.999  1.00  0.00     0.002 C 
BRANCH  23  24
ATOM     24  C   UNL A   1      38.033  19.701  24.935  1.00  0.00     0.021 C 
BRANCH  24  25
ATOM     25  C   UNL A   1      39.221  20.167  25.770  1.00  0.00     0.116 C 
BRANCH  25  26
ATOM     26  N   UNL A   1      40.249  19.150  25.908  1.00  0.00    -0.352 N 
ATOM     27  C   UNL A   1      41.599  19.289  26.127  1.00  0.00     0.251 C 
ATOM     28  H   UNL A   1      39.932  18.222  25.834  1.00  0.00     0.163 HD
ATOM     29  O   UNL A   1      42.336  18.312  26.065  1.00  0.00    -0.269 OA
BRANCH  27  30
ATOM     30  C   UNL A   1      42.174  20.622  26.413  1.00  0.00     0.039 A 
ATOM     31  C   UNL A   1      42.556  21.433  25.342  1.00  0.00     0.014 A 
ATOM     32  C   UNL A   1      42.353  21.069  27.726  1.00  0.00     0.014 A 
ATOM     33  C   UNL A   1      43.057  22.714  25.583  1.00  0.00     0.010 A 
ATOM     34  C   UNL A   1      42.783  22.373  27.963  1.00  0.00     0.010 A 
ATOM     35  C   UNL A   1      43.141  23.209  26.895  1.00  0.00    -0.014 A 
BRANCH  35  36
ATOM     36  C   UNL A   1      43.592  24.599  27.164  1.00  0.00     0.031 A 
ATOM     37  C   UNL A   1      42.623  25.626  27.685  1.00  0.00     0.074 A 
ATOM     38  C   UNL A   1      44.861  24.953  26.883  1.00  0.00     0.049 A 
ATOM     39  N   UNL A   1      42.816  26.898  27.927  1.00  0.00    -0.248 NA
ATOM     40  C   UNL A   1      41.250  25.168  27.944  1.00  0.00     0.031 C 
ATOM     41  C   UNL A   1      45.884  24.061  26.335  1.00  0.00     0.029 A 
ATOM     42  N   UNL A   1      45.506  26.158  27.013  1.00  0.00    -0.354 N 
ATOM     43  C   UNL A   1      41.589  27.393  28.349  1.00  0.00     0.074 A 
ATOM     44  C   UNL A   1      40.646  26.298  28.283  1.00  0.00     0.031 C 
ATOM     45  C   UNL A   1      47.035  24.740  26.204  1.00  0.00     0.029 A 
ATOM     46  C   UNL A   1      46.821  26.124  26.616  1.00  0.00     0.049 A 
ATOM     47  H   UNL A   1      45.068  26.969  27.357  1.00  0.00     0.167 HD
ATOM     48  C   UNL A   1      41.283  28.644  28.771  1.00  0.00     0.037 A 
ATOM     49  C   UNL A   1      47.749  27.101  26.580  1.00  0.00     0.037 A 
ATOM     50  C   UNL A   1      42.231  29.724  28.857  1.00  0.00     0.049 A 
ATOM     51  C   UNL A   1      47.377  28.484  27.042  1.00  0.00     0.074 A 
ATOM     52  C   UNL A   1      42.033  31.006  29.339  1.00  0.00     0.029 A 
ATOM     53  N   UNL A   1      43.555  29.651  28.447  1.00  0.00    -0.354 N 
ATOM     54  N   UNL A   1      46.233  28.923  27.504  1.00  0.00    -0.248 NA
ATOM     55  C   UNL A   1      48.431  29.506  26.981  1.00  0.00     0.031 C 
ATOM     56  C   UNL A   1      43.217  31.727  29.161  1.00  0.00     0.029 A 
ATOM     57  C   UNL A   1      44.176  30.876  28.633  1.00  0.00     0.049 A 
ATOM     58  H   UNL A   1      43.989  28.847  28.078  1.00  0.00     0.167 HD
ATOM     59  C   UNL A   1      46.435  30.260  27.819  1.00  0.00     0.074 A 
ATOM     60  C   UNL A   1      47.818  30.556  27.507  1.00  0.00     0.031 C 
ATOM     61  C   UNL A   1      45.554  31.159  28.324  1.00  0.00     0.037 A 
BRANCH  48  62
ATOM     62  C   UNL A   1      39.860  28.921  29.165  1.00  0.00     0.064 A 
ATOM     63  C   UNL A   1      38.907  29.367  28.237  1.00  0.00     0.173 A 
ATOM     64  C   UNL A   1      39.430  28.684  30.480  1.00  0.00     0.173 A 
ATOM     65  F   UNL A   1      39.266  29.618  26.969  1.00  0.00    -0.203 F 
ATOM     66  C   UNL A   1      37.586  29.592  28.615  1.00  0.00     0.198 A 
ATOM     67  C   UNL A   1      38.101  28.878  30.848  1.00  0.00     0.198 A 
ATOM     68  F   UNL A   1      40.297  28.251  31.408  1.00  0.00    -0.203 F 
ATOM     69  F   UNL A   1      36.705  30.063  27.723  1.00  0.00    -0.200 F 
ATOM     70  C   UNL A   1      37.182  29.338  29.918  1.00  0.00     0.200 A 
ATOM     71  F   UNL A   1      37.710  28.617  32.103  1.00  0.00    -0.200 F 
ATOM     72  F   UNL A   1      35.907  29.541  30.278  1.00  0.00    -0.200 F 
ENDBRANCH  48  62
BRANCH  49  73
ATOM     73  C   UNL A   1      49.127  26.796  26.114  1.00  0.00     0.064 A 
ATOM     74  C   UNL A   1      50.090  26.293  26.999  1.00  0.00     0.173 A 
ATOM     75  C   UNL A   1      49.511  26.999  24.780  1.00  0.00     0.173 A 
ATOM     76  F   UNL A   1      49.778  26.102  28.290  1.00  0.00    -0.203 F 
ATOM     77  C   UNL A   1      51.390  26.022  26.573  1.00  0.00     0.198 A 
ATOM     78  C   UNL A   1      50.802  26.698  24.347  1.00  0.00     0.198 A 
ATOM     79  F   UNL A   1      48.627  27.477  23.891  1.00  0.00    -0.203 F 
ATOM     80  F   UNL A   1      52.302  25.584  27.452  1.00  0.00    -0.200 F 
ATOM     81  C   UNL A   1      51.742  26.217  25.246  1.00  0.00     0.200 A 
ATOM     82  F   UNL A   1      51.133  26.875  23.062  1.00  0.00    -0.200 F 
ATOM     83  F   UNL A   1      52.988  25.950  24.836  1.00  0.00    -0.200 F 
ENDBRANCH  49  73
BRANCH  61  84
ATOM     84  C   UNL A   1      46.066  32.543  28.609  1.00  0.00     0.064 A 
ATOM     85  C   UNL A   1      46.645  32.879  29.842  1.00  0.00     0.173 A 
ATOM     86  C   UNL A   1      46.013  33.535  27.617  1.00  0.00     0.173 A 
ATOM     87  F   UNL A   1      46.708  31.972  30.828  1.00  0.00    -0.203 F 
ATOM     88  C   UNL A   1      47.126  34.163  30.080  1.00  0.00     0.198 A 
ATOM     89  C   UNL A   1      46.528  34.807  27.846  1.00  0.00     0.198 A 
ATOM     90  F   UNL A   1      45.477  33.265  26.417  1.00  0.00    -0.203 F 
ATOM     91  F   UNL A   1      47.629  34.476  31.283  1.00  0.00    -0.200 F 
ATOM     92  C   UNL A   1      47.076  35.124  29.080  1.00  0.00     0.200 A 
ATOM     93  F   UNL A   1      46.495  35.728  26.873  1.00  0.00    -0.200 F 
ATOM     94  F   UNL A   1      47.550  36.356  29.308  1.00  0.00    -0.200 F 
ENDBRANCH  61  84
ENDBRANCH  35  36
ENDBRANCH  27  30
ENDBRANCH  25  26
ENDBRANCH  24  25
ENDBRANCH  23  24
ENDBRANCH   1  23
TORSDOF 15
ENDMDL
MODEL 2
REMARK VINA RESULT:     -12.1      5.849     11.219
REMARK SMILES CCOc1ccc2[nH]c(=O)c(C(=O)NCCCCCCNC(=O)c3ccc(-c4c5nc(c(-c6c(F)c(F)c(F)c(F)c6F)c6ccc([nH]6)c(-c6c(F)c(F)c(F)c(F)c6F)c6nc(c(-c7c(F)c(F)c(F)c(F)c7F)c7ccc4[nH]7)C=C6)C=C5)cc3)cc2c1
REMARK SMILES IDX 17 1 16 2 15 3 14 4 12 5 13 6 11 8 4 9 5 10 89 11 6 12 88 13
REMARK SMILES IDX 7 14 87 15 8 16 9 17 10 19 3 20 2 21 1 22 18 23 19 24 20 25
REMARK SMILES IDX 21 26 22 27 23 29 24 30 25 31 86 32 26 33 85 34 27 35 28 36
REMARK SMILES IDX 29 37 79 38 30 39 84 40 78 41 80 42 31 43 83 44 77 45 76 46
REMARK SMILES IDX 32 48 64 49 44 50 63 51 45 52 48 53 62 54 81 55 46 56 47 57
REMARK SMILES IDX 61 59 82 60 49 61 33 62 34 63 42 64 35 65 36 66 40 67 43 68
REMARK SMILES IDX 37 69 38 70 41 71 39 72 65 73 66 74 74 75 67 76 68 77 72 78
REMARK SMILES IDX 75 79 69 80 70 81 73 82 71 83 50 84 51 85 59 86 52 87 53 88
REMARK SMILES IDX 57 89 60 90 54 91 55 92 58 93 56 94
REMARK H PARENT 14 7 8 18 21 28 80 47 48 58
REMARK Flexibility Score: inf
ROOT
ATOM      1  C   UNL A   1      32.475  29.905  27.220  1.00  0.00     0.002 C 
ENDROOT
BRANCH   1   2
ATOM      2  C   UNL A   1      32.377  28.378  27.184  1.00  0.00     0.021 C 
BRANCH   2   3
ATOM      3  C   UNL A   1      31.473  27.784  26.108  1.00  0.00     0.116 C 
BRANCH   3   4
ATOM      4  N   UNL A   1      30.809  26.554  26.501  1.00  0.00    -0.352 N 
ATOM      5  C   UNL A   1      31.138  25.251  26.249  1.00  0.00     0.256 C 
ATOM      6  O   UNL A   1      30.403  24.378  26.720  1.00  0.00    -0.269 OA
ATOM      7  H   UNL A   1      29.990  26.679  27.034  1.00  0.00     0.163 HD
BRANCH   5   8
ATOM      8  C   UNL A   1      32.280  24.879  25.362  1.00  0.00     0.105 A 
ATOM      9  C   UNL A   1      36.896  23.363  24.987  1.00  0.00     0.120 A 
ATOM     10  C   UNL A   1      36.618  22.850  23.720  1.00  0.00     0.048 A 
ATOM     11  C   UNL A   1      35.883  23.950  25.753  1.00  0.00     0.056 A 
ATOM     12  C   UNL A   1      35.368  23.048  23.147  1.00  0.00     0.030 A 
ATOM     13  C   UNL A   1      34.608  24.113  25.200  1.00  0.00     0.003 A 
ATOM     14  C   UNL A   1      34.387  23.712  23.876  1.00  0.00     0.049 A 
ATOM     15  C   UNL A   1      33.464  24.629  25.962  1.00  0.00     0.030 A 
ATOM     16  N   UNL A   1      33.185  24.050  23.256  1.00  0.00    -0.321 N 
ATOM     17  C   UNL A   1      32.205  24.779  23.877  1.00  0.00     0.261 A 
ATOM     18  H   UNL A   1      33.032  23.751  22.330  1.00  0.00     0.170 HD
ATOM     19  O   UNL A   1      31.316  25.297  23.207  1.00  0.00    -0.269 OA
BRANCH   9  20
ATOM     20  O   UNL A   1      38.140  23.208  25.536  1.00  0.00    -0.494 OA
BRANCH  20  21
ATOM     21  C   UNL A   1      38.485  21.829  25.752  1.00  0.00     0.226 C 
ATOM     22  C   UNL A   1      39.901  21.655  26.284  1.00  0.00     0.049 C 
ENDBRANCH  20  21
ENDBRANCH   9  20
ENDBRANCH   5   8
ENDBRANCH   3   4
ENDBRANCH   2   3
ENDBRANCH   1   2
BRANCH   1  23
ATOM     23  C   UNL A   1      31.509  30.673  26.314  1.00  0.00     0.002 C 
BRANCH  23  24
ATOM     24  C   UNL A   1      31.425  32.185  26.536  1.00  0.00     0.021 C 
BRANCH  24  25
ATOM     25  C   UNL A   1      32.619  32.818  27.244  1.00  0.00     0.116 C 
BRANCH  25  26
ATOM     26  N   UNL A   1      32.379  34.197  27.635  1.00  0.00    -0.352 N 
ATOM     27  C   UNL A   1      32.972  34.945  28.622  1.00  0.00     0.251 C 
ATOM     28  H   UNL A   1      31.688  34.665  27.113  1.00  0.00     0.163 HD
ATOM     29  O   UNL A   1      32.530  36.053  28.904  1.00  0.00    -0.269 OA
BRANCH  27  30
ATOM     30  C   UNL A   1      34.132  34.409  29.369  1.00  0.00     0.039 A 
ATOM     31  C   UNL A   1      33.903  33.733  30.570  1.00  0.00     0.014 A 
ATOM     32  C   UNL A   1      35.439  34.584  28.903  1.00  0.00     0.014 A 
ATOM     33  C   UNL A   1      34.976  33.177  31.270  1.00  0.00     0.010 A 
ATOM     34  C   UNL A   1      36.499  33.965  29.563  1.00  0.00     0.010 A 
ATOM     35  C   UNL A   1      36.280  33.257  30.754  1.00  0.00    -0.014 A 
BRANCH  35  36
ATOM     36  C   UNL A   1      37.420  32.598  31.442  1.00  0.00     0.031 A 
ATOM     37  C   UNL A   1      38.131  31.440  30.797  1.00  0.00     0.074 A 
ATOM     38  C   UNL A   1      37.778  33.004  32.675  1.00  0.00     0.049 A 
ATOM     39  N   UNL A   1      39.109  30.704  31.265  1.00  0.00    -0.248 NA
ATOM     40  C   UNL A   1      37.667  31.039  29.460  1.00  0.00     0.031 C 
ATOM     41  C   UNL A   1      37.140  34.089  33.425  1.00  0.00     0.029 A 
ATOM     42  N   UNL A   1      38.761  32.551  33.520  1.00  0.00    -0.354 N 
ATOM     43  C   UNL A   1      39.362  29.748  30.289  1.00  0.00     0.074 A 
ATOM     44  C   UNL A   1      38.406  29.964  29.227  1.00  0.00     0.031 C 
ATOM     45  C   UNL A   1      37.766  34.236  34.603  1.00  0.00     0.029 A 
ATOM     46  C   UNL A   1      38.819  33.231  34.712  1.00  0.00     0.049 A 
ATOM     47  H   UNL A   1      39.366  31.810  33.293  1.00  0.00     0.167 HD
ATOM     48  C   UNL A   1      40.319  28.788  30.277  1.00  0.00     0.037 A 
ATOM     49  C   UNL A   1      39.625  33.060  35.778  1.00  0.00     0.037 A 
ATOM     50  C   UNL A   1      41.285  28.593  31.327  1.00  0.00     0.049 A 
ATOM     51  C   UNL A   1      40.671  31.978  35.741  1.00  0.00     0.074 A 
ATOM     52  C   UNL A   1      42.337  27.696  31.372  1.00  0.00     0.029 A 
ATOM     53  N   UNL A   1      41.313  29.303  32.519  1.00  0.00    -0.354 N 
ATOM     54  N   UNL A   1      40.947  31.125  34.786  1.00  0.00    -0.248 NA
ATOM     55  C   UNL A   1      41.521  31.840  36.931  1.00  0.00     0.031 C 
ATOM     56  C   UNL A   1      42.961  27.817  32.617  1.00  0.00     0.029 A 
ATOM     57  C   UNL A   1      42.343  28.839  33.321  1.00  0.00     0.049 A 
ATOM     58  H   UNL A   1      40.691  30.028  32.760  1.00  0.00     0.167 HD
ATOM     59  C   UNL A   1      42.019  30.372  35.243  1.00  0.00     0.074 A 
ATOM     60  C   UNL A   1      42.353  30.878  36.558  1.00  0.00     0.031 C 
ATOM     61  C   UNL A   1      42.670  29.353  34.627  1.00  0.00     0.037 A 
BRANCH  48  62
ATOM     62  C   UNL A   1      40.369  27.865  29.092  1.00  0.00     0.064 A 
ATOM     63  C   UNL A   1      39.629  26.674  29.049  1.00  0.00     0.173 A 
ATOM     64  C   UNL A   1      41.126  28.205  27.960  1.00  0.00     0.173 A 
ATOM     65  F   UNL A   1      38.895  26.297  30.108  1.00  0.00    -0.203 F 
ATOM     66  C   UNL A   1      39.666  25.845  27.931  1.00  0.00     0.198 A 
ATOM     67  C   UNL A   1      41.135  27.391  26.831  1.00  0.00     0.198 A 
ATOM     68  F   UNL A   1      41.848  29.336  27.943  1.00  0.00    -0.203 F 
ATOM     69  F   UNL A   1      38.988  24.689  27.932  1.00  0.00    -0.200 F 
ATOM     70  C   UNL A   1      40.411  26.209  26.819  1.00  0.00     0.200 A 
ATOM     71  F   UNL A   1      41.843  27.753  25.752  1.00  0.00    -0.200 F 
ATOM     72  F   UNL A   1      40.435  25.417  25.739  1.00  0.00    -0.200 F 
ENDBRANCH  48  62
BRANCH  49  73
ATOM     73  C   UNL A   1      39.492  33.952  36.959  1.00  0.00     0.064 A 
ATOM     74  C   UNL A   1      40.127  35.201  36.991  1.00  0.00     0.173 A 
ATOM     75  C   UNL A   1      38.731  33.580  38.077  1.00  0.00     0.173 A 
ATOM     76  F   UNL A   1      40.885  35.593  35.956  1.00  0.00    -0.203 F 
ATOM     77  C   UNL A   1      40.022  36.037  38.102  1.00  0.00     0.198 A 
ATOM     78  C   UNL A   1      38.599  34.429  39.175  1.00  0.00     0.198 A 
ATOM     79  F   UNL A   1      38.100  32.396  38.097  1.00  0.00    -0.203 F 
ATOM     80  F   UNL A   1      40.677  37.205  38.123  1.00  0.00    -0.200 F 
ATOM     81  C   UNL A   1      39.251  35.653  39.189  1.00  0.00     0.200 A 
ATOM     82  F   UNL A   1      37.843  34.061  40.216  1.00  0.00    -0.200 F 
ATOM     83  F   UNL A   1      39.144  36.459  40.254  1.00  0.00    -0.200 F 
ENDBRANCH  49  73
BRANCH  61  84
ATOM     84  C   UNL A   1      43.836  28.741  35.349  1.00  0.00     0.064 A 
ATOM     85  C   UNL A   1      45.134  29.262  35.237  1.00  0.00     0.173 A 
ATOM     86  C   UNL A   1      43.643  27.641  36.200  1.00  0.00     0.173 A 
ATOM     87  F   UNL A   1      45.376  30.304  34.427  1.00  0.00    -0.203 F 
ATOM     88  C   UNL A   1      46.198  28.688  35.927  1.00  0.00     0.198 A 
ATOM     89  C   UNL A   1      44.703  27.092  36.916  1.00  0.00     0.198 A 
ATOM     90  F   UNL A   1      42.421  27.109  36.351  1.00  0.00    -0.203 F 
ATOM     91  F   UNL A   1      47.438  29.171  35.764  1.00  0.00    -0.200 F 
ATOM     92  C   UNL A   1      45.981  27.610  36.773  1.00  0.00     0.200 A 
ATOM     93  F   UNL A   1      44.487  26.062  37.746  1.00  0.00    -0.200 F 
ATOM     94  F   UNL A   1      47.005  27.066  37.444  1.00  0.00    -0.200 F 
ENDBRANCH  61  84
ENDBRANCH  35  36
ENDBRANCH  27  30
ENDBRANCH  25  26
ENDBRANCH  24  25
ENDBRANCH  23  24
ENDBRANCH   1  23
TORSDOF 15
ENDMDL
MODEL 3
REMARK VINA RESULT:     -11.8      6.570     11.843
REMARK SMILES CCOc1ccc2[nH]c(=O)c(C(=O)NCCCCCCNC(=O)c3ccc(-c4c5nc(c(-c6c(F)c(F)c(F)c(F)c6F)c6ccc([nH]6)c(-c6c(F)c(F)c(F)c(F)c6F)c6nc(c(-c7c(F)c(F)c(F)c(F)c7F)c7ccc4[nH]7)C=C6)C=C5)cc3)cc2c1
REMARK SMILES IDX 17 1 16 2 15 3 14 4 12 5 13 6 11 8 4 9 5 10 89 11 6 12 88 13
REMARK SMILES IDX 7 14 87 15 8 16 9 17 10 19 3 20 2 21 1 22 18 23 19 24 20 25
REMARK SMILES IDX 21 26 22 27 23 29 24 30 25 31 86 32 26 33 85 34 27 35 28 36
REMARK SMILES IDX 29 37 79 38 30 39 84 40 78 41 80 42 31 43 83 44 77 45 76 46
REMARK SMILES IDX 32 48 64 49 44 50 63 51 45 52 48 53 62 54 81 55 46 56 47 57
REMARK SMILES IDX 61 59 82 60 49 61 33 62 34 63 42 64 35 65 36 66 40 67 43 68
REMARK SMILES IDX 37 69 38 70 41 71 39 72 65 73 66 74 74 75 67 76 68 77 72 78
REMARK SMILES IDX 75 79 69 80 70 81 73 82 71 83 50 84 51 85 59 86 52 87 53 88
REMARK SMILES IDX 57 89 60 90 54 91 55 92 58 93 56 94
REMARK H PARENT 14 7 8 18 21 28 80 47 48 58
REMARK Flexibility Score: inf
ROOT
ATOM      1  C   UNL A   1      32.185  29.478  27.168  1.00  0.00     0.002 C 
ENDROOT
BRANCH   1   2
ATOM      2  C   UNL A   1      32.911  28.273  26.567  1.00  0.00     0.021 C 
BRANCH   2   3
ATOM      3  C   UNL A   1      33.779  28.547  25.343  1.00  0.00     0.116 C 
BRANCH   3   4
ATOM      4  N   UNL A   1      33.858  27.439  24.408  1.00  0.00    -0.352 N 
ATOM      5  C   UNL A   1      32.887  26.856  23.642  1.00  0.00     0.256 C 
ATOM      6  O   UNL A   1      33.225  25.925  22.906  1.00  0.00    -0.269 OA
ATOM      7  H   UNL A   1      34.755  27.044  24.310  1.00  0.00     0.163 HD
BRANCH   5   8
ATOM      8  C   UNL A   1      31.450  27.250  23.749  1.00  0.00     0.105 A 
ATOM      9  C   UNL A   1      28.043  30.669  23.081  1.00  0.00     0.120 A 
ATOM     10  C   UNL A   1      27.070  29.674  22.995  1.00  0.00     0.048 A 
ATOM     11  C   UNL A   1      29.392  30.332  23.232  1.00  0.00     0.056 A 
ATOM     12  C   UNL A   1      27.412  28.344  23.207  1.00  0.00     0.030 A 
ATOM     13  C   UNL A   1      29.752  28.990  23.401  1.00  0.00     0.003 A 
ATOM     14  C   UNL A   1      28.743  28.018  23.447  1.00  0.00     0.049 A 
ATOM     15  C   UNL A   1      31.147  28.537  23.471  1.00  0.00     0.030 A 
ATOM     16  N   UNL A   1      29.073  26.714  23.812  1.00  0.00    -0.321 N 
ATOM     17  C   UNL A   1      30.345  26.333  24.149  1.00  0.00     0.261 A 
ATOM     18  H   UNL A   1      28.360  26.034  23.826  1.00  0.00     0.170 HD
ATOM     19  O   UNL A   1      30.526  25.273  24.740  1.00  0.00    -0.269 OA
BRANCH   9  20
ATOM     20  O   UNL A   1      27.701  31.984  22.917  1.00  0.00    -0.494 OA
BRANCH  20  21
ATOM     21  C   UNL A   1      28.456  32.630  21.877  1.00  0.00     0.226 C 
ATOM     22  C   UNL A   1      27.849  32.424  20.496  1.00  0.00     0.049 C 
ENDBRANCH  20  21
ENDBRANCH   9  20
ENDBRANCH   5   8
ENDBRANCH   3   4
ENDBRANCH   2   3
ENDBRANCH   1   2
BRANCH   1  23
ATOM     23  C   UNL A   1      31.703  30.547  26.183  1.00  0.00     0.002 C 
BRANCH  23  24
ATOM     24  C   UNL A   1      31.493  31.951  26.753  1.00  0.00     0.021 C 
BRANCH  24  25
ATOM     25  C   UNL A   1      32.749  32.659  27.252  1.00  0.00     0.116 C 
BRANCH  25  26
ATOM     26  N   UNL A   1      32.511  34.046  27.614  1.00  0.00    -0.352 N 
ATOM     27  C   UNL A   1      33.109  34.816  28.582  1.00  0.00     0.251 C 
ATOM     28  H   UNL A   1      31.817  34.502  27.087  1.00  0.00     0.163 HD
ATOM     29  O   UNL A   1      32.668  35.930  28.842  1.00  0.00    -0.269 OA
BRANCH  27  30
ATOM     30  C   UNL A   1      34.274  34.298  29.333  1.00  0.00     0.039 A 
ATOM     31  C   UNL A   1      34.050  33.610  30.528  1.00  0.00     0.014 A 
ATOM     32  C   UNL A   1      35.580  34.498  28.876  1.00  0.00     0.014 A 
ATOM     33  C   UNL A   1      35.129  33.070  31.232  1.00  0.00     0.010 A 
ATOM     34  C   UNL A   1      36.648  33.895  29.539  1.00  0.00     0.010 A 
ATOM     35  C   UNL A   1      36.434  33.177  30.725  1.00  0.00    -0.014 A 
BRANCH  35  36
ATOM     36  C   UNL A   1      37.581  32.534  31.416  1.00  0.00     0.031 A 
ATOM     37  C   UNL A   1      38.311  31.386  30.775  1.00  0.00     0.074 A 
ATOM     38  C   UNL A   1      37.931  32.947  32.650  1.00  0.00     0.049 A 
ATOM     39  N   UNL A   1      39.297  30.665  31.246  1.00  0.00    -0.248 NA
ATOM     40  C   UNL A   1      37.855  30.977  29.437  1.00  0.00     0.031 C 
ATOM     41  C   UNL A   1      37.275  34.024  33.397  1.00  0.00     0.029 A 
ATOM     42  N   UNL A   1      38.918  32.510  33.498  1.00  0.00    -0.354 N 
ATOM     43  C   UNL A   1      39.566  29.710  30.272  1.00  0.00     0.074 A 
ATOM     44  C   UNL A   1      38.610  29.912  29.207  1.00  0.00     0.031 C 
ATOM     45  C   UNL A   1      37.896  34.182  34.576  1.00  0.00     0.029 A 
ATOM     46  C   UNL A   1      38.963  33.192  34.689  1.00  0.00     0.049 A 
ATOM     47  H   UNL A   1      39.534  31.776  33.273  1.00  0.00     0.167 HD
ATOM     48  C   UNL A   1      40.537  28.765  30.263  1.00  0.00     0.037 A 
ATOM     49  C   UNL A   1      39.770  33.033  35.758  1.00  0.00     0.037 A 
ATOM     50  C   UNL A   1      41.503  28.585  31.316  1.00  0.00     0.049 A 
ATOM     51  C   UNL A   1      40.830  31.966  35.724  1.00  0.00     0.074 A 
ATOM     52  C   UNL A   1      42.568  27.703  31.365  1.00  0.00     0.029 A 
ATOM     53  N   UNL A   1      41.518  29.296  32.507  1.00  0.00    -0.354 N 
ATOM     54  N   UNL A   1      41.121  31.116  34.771  1.00  0.00    -0.248 NA
ATOM     55  C   UNL A   1      41.679  31.841  36.916  1.00  0.00     0.031 C 
ATOM     56  C   UNL A   1      43.187  27.834  32.611  1.00  0.00     0.029 A 
ATOM     57  C   UNL A   1      42.553  28.848  33.312  1.00  0.00     0.049 A 
ATOM     58  H   UNL A   1      40.886  30.013  32.745  1.00  0.00     0.167 HD
ATOM     59  C   UNL A   1      42.202  30.378  35.231  1.00  0.00     0.074 A 
ATOM     60  C   UNL A   1      42.526  30.891  36.547  1.00  0.00     0.031 C 
ATOM     61  C   UNL A   1      42.869  29.369  34.619  1.00  0.00     0.037 A 
BRANCH  48  62
ATOM     62  C   UNL A   1      40.602  27.841  29.080  1.00  0.00     0.064 A 
ATOM     63  C   UNL A   1      41.496  28.057  28.020  1.00  0.00     0.173 A 
ATOM     64  C   UNL A   1      39.797  26.693  29.032  1.00  0.00     0.173 A 
ATOM     65  F   UNL A   1      42.283  29.144  28.011  1.00  0.00    -0.203 F 
ATOM     66  C   UNL A   1      41.562  27.175  26.945  1.00  0.00     0.198 A 
ATOM     67  C   UNL A   1      39.888  25.795  27.971  1.00  0.00     0.198 A 
ATOM     68  F   UNL A   1      38.928  26.433  30.021  1.00  0.00    -0.203 F 
ATOM     69  F   UNL A   1      42.389  27.427  25.921  1.00  0.00    -0.200 F 
ATOM     70  C   UNL A   1      40.764  26.040  26.926  1.00  0.00     0.200 A 
ATOM     71  F   UNL A   1      39.128  24.691  27.964  1.00  0.00    -0.200 F 
ATOM     72  F   UNL A   1      40.838  25.184  25.898  1.00  0.00    -0.200 F 
ENDBRANCH  48  62
BRANCH  49  73
ATOM     73  C   UNL A   1      39.621  33.925  36.937  1.00  0.00     0.064 A 
ATOM     74  C   UNL A   1      38.845  33.538  38.038  1.00  0.00     0.173 A 
ATOM     75  C   UNL A   1      40.250  35.178  36.992  1.00  0.00     0.173 A 
ATOM     76  F   UNL A   1      38.206  32.358  38.024  1.00  0.00    -0.203 F 
ATOM     77  C   UNL A   1      38.687  34.376  39.140  1.00  0.00     0.198 A 
ATOM     78  C   UNL A   1      40.117  36.003  38.108  1.00  0.00     0.198 A 
ATOM     79  F   UNL A   1      41.007  35.596  35.966  1.00  0.00    -0.203 F 
ATOM     80  F   UNL A   1      37.901  33.999  40.158  1.00  0.00    -0.200 F 
ATOM     81  C   UNL A   1      39.329  35.604  39.177  1.00  0.00     0.200 A 
ATOM     82  F   UNL A   1      40.752  37.181  38.145  1.00  0.00    -0.200 F 
ATOM     83  F   UNL A   1      39.183  36.407  40.239  1.00  0.00    -0.200 F 
ENDBRANCH  49  73
BRANCH  61  84
ATOM     84  C   UNL A   1      44.042  28.773  35.344  1.00  0.00     0.064 A 
ATOM     85  C   UNL A   1      45.346  29.261  35.169  1.00  0.00     0.173 A 
ATOM     86  C   UNL A   1      43.851  27.728  36.261  1.00  0.00     0.173 A 
ATOM     87  F   UNL A   1      45.586  30.250  34.296  1.00  0.00    -0.203 F 
ATOM     88  C   UNL A   1      46.417  28.704  35.863  1.00  0.00     0.198 A 
ATOM     89  C   UNL A   1      44.918  27.198  36.980  1.00  0.00     0.198 A 
ATOM     90  F   UNL A   1      42.623  27.230  36.473  1.00  0.00    -0.203 F 
ATOM     91  F   UNL A   1      47.662  29.151  35.642  1.00  0.00    -0.200 F 
ATOM     92  C   UNL A   1      46.202  27.680  36.774  1.00  0.00     0.200 A 
ATOM     93  F   UNL A   1      44.705  26.221  37.872  1.00  0.00    -0.200 F 
ATOM     94  F   UNL A   1      47.233  27.153  37.449  1.00  0.00    -0.200 F 
ENDBRANCH  61  84
ENDBRANCH  35  36
ENDBRANCH  27  30
ENDBRANCH  25  26
ENDBRANCH  24  25
ENDBRANCH  23  24
ENDBRANCH   1  23
TORSDOF 15
ENDMDL
