MODEL 1
REMARK VINA RESULT:     -12.7      0.000      0.000
REMARK SMILES Cc1nc(-c2ccc3c(c2)CCN3S(=O)(=O)c2ccc(F)c(C(=O)NCCCCCCNC(=O)c3ccc(-c4c5nc(c(-c6c(F)c(F)c(F)c(F)c6F)c6ccc([nH]6)c(-c6c(F)c(F)c(F)c(F)c6F)c6nc(c(-c7c(F)c(F)c(F)c(F)c7F)c7ccc4[nH]7)C=C6)C=C5)cc3)c2)cs1
REMARK SMILES IDX 28 1 27 2 26 3 25 4 23 5 24 6 22 8 17 9 18 10 98 11 19 12
REMARK SMILES IDX 20 13 21 14 14 15 15 16 16 17 13 18 5 19 6 20 10 21 7 22
REMARK SMILES IDX 9 23 8 24 11 25 12 26 4 27 1 28 2 29 3 30 100 31 99 32 29 33
REMARK SMILES IDX 30 34 31 35 32 36 33 37 34 39 35 40 36 41 97 42 37 43 96 44
REMARK SMILES IDX 38 45 39 46 40 47 90 48 41 49 95 50 89 51 91 52 42 53 94 54
REMARK SMILES IDX 88 55 87 56 43 58 75 59 55 60 74 61 56 62 59 63 73 64 92 65
REMARK SMILES IDX 57 66 58 67 72 69 93 70 60 71 44 72 45 73 53 74 46 75 47 76
REMARK SMILES IDX 51 77 54 78 48 79 49 80 52 81 50 82 76 83 77 84 85 85 78 86
REMARK SMILES IDX 79 87 83 88 86 89 80 90 81 91 84 92 82 93 61 94 62 95 70 96
REMARK SMILES IDX 63 97 64 98 68 99 71 100 65 101 66 102 69 103 67 104
REMARK H PARENT 25 7 32 38 91 57 59 68
REMARK Flexibility Score: inf
ROOT
ATOM      1  C   UNL A   1      34.495  31.771  27.994  1.00  0.00     0.002 C 
ENDROOT
BRANCH   1   2
ATOM      2  C   UNL A   1      35.291  30.483  27.816  1.00  0.00     0.021 C 
BRANCH   2   3
ATOM      3  C   UNL A   1      34.573  29.312  27.160  1.00  0.00     0.116 C 
BRANCH   3   4
ATOM      4  N   UNL A   1      34.213  29.516  25.770  1.00  0.00    -0.352 N 
ATOM      5  C   UNL A   1      33.464  28.750  24.906  1.00  0.00     0.254 C 
ATOM      6  O   UNL A   1      33.269  29.197  23.775  1.00  0.00    -0.269 OA
ATOM      7  H   UNL A   1      34.566  30.346  25.376  1.00  0.00     0.163 HD
BRANCH   5   8
ATOM      8  C   UNL A   1      32.939  27.393  25.231  1.00  0.00     0.076 A 
ATOM      9  C   UNL A   1      33.036  25.000  24.833  1.00  0.00     0.089 A 
ATOM     10  C   UNL A   1      32.148  24.768  25.891  1.00  0.00     0.025 A 
ATOM     11  C   UNL A   1      33.506  26.291  24.559  1.00  0.00     0.039 A 
ATOM     12  C   UNL A   1      31.535  25.853  26.498  1.00  0.00     0.041 A 
ATOM     13  C   UNL A   1      31.867  27.145  26.095  1.00  0.00     0.136 A 
ATOM     14  F   UNL A   1      31.036  28.119  26.488  1.00  0.00    -0.206 F 
BRANCH   9  15
ATOM     15  S   UNL A   1      33.434  23.621  23.790  1.00  0.00     0.264 S 
ATOM     16  O   UNL A   1      34.405  24.109  22.831  1.00  0.00    -0.201 OA
ATOM     17  O   UNL A   1      32.188  23.043  23.322  1.00  0.00    -0.201 OA
BRANCH  15  18
ATOM     18  N   UNL A   1      34.199  22.443  24.782  1.00  0.00    -0.266 N 
ATOM     19  C   UNL A   1      38.279  21.817  25.710  1.00  0.00     0.001 A 
ATOM     20  C   UNL A   1      37.777  23.124  25.797  1.00  0.00     0.012 A 
ATOM     21  C   UNL A   1      37.414  20.780  25.339  1.00  0.00     0.016 A 
ATOM     22  C   UNL A   1      36.439  23.402  25.499  1.00  0.00     0.028 A 
ATOM     23  C   UNL A   1      36.088  21.090  25.021  1.00  0.00    -0.021 A 
ATOM     24  C   UNL A   1      35.616  22.401  25.022  1.00  0.00     0.055 A 
ATOM     25  C   UNL A   1      34.961  20.124  24.842  1.00  0.00     0.060 C 
ATOM     26  C   UNL A   1      33.816  21.036  24.377  1.00  0.00     0.140 C 
BRANCH  19  27
ATOM     27  C   UNL A   1      39.652  21.578  26.129  1.00  0.00     0.081 A 
ATOM     28  C   UNL A   1      42.291  19.104  26.615  1.00  0.00     0.079 C 
ATOM     29  C   UNL A   1      41.422  20.309  26.535  1.00  0.00     0.090 A 
ATOM     30  N   UNL A   1      40.174  20.294  26.121  1.00  0.00    -0.242 NA
ATOM     31  S   UNL A   1      42.022  21.849  27.005  1.00  0.00    -0.127 S 
ATOM     32  C   UNL A   1      40.510  22.554  26.594  1.00  0.00     0.095 A 
ENDBRANCH  19  27
ENDBRANCH  15  18
ENDBRANCH   9  15
ENDBRANCH   5   8
ENDBRANCH   3   4
ENDBRANCH   2   3
ENDBRANCH   1   2
BRANCH   1  33
ATOM     33  C   UNL A   1      35.295  33.077  28.003  1.00  0.00     0.002 C 
BRANCH  33  34
ATOM     34  C   UNL A   1      34.485  34.374  28.000  1.00  0.00     0.021 C 
BRANCH  34  35
ATOM     35  C   UNL A   1      33.017  34.237  28.387  1.00  0.00     0.116 C 
BRANCH  35  36
ATOM     36  N   UNL A   1      32.564  35.300  29.267  1.00  0.00    -0.352 N 
ATOM     37  C   UNL A   1      32.924  35.563  30.567  1.00  0.00     0.251 C 
ATOM     38  H   UNL A   1      31.906  35.920  28.877  1.00  0.00     0.163 HD
ATOM     39  O   UNL A   1      32.325  36.411  31.220  1.00  0.00    -0.269 OA
BRANCH  37  40
ATOM     40  C   UNL A   1      34.028  34.801  31.188  1.00  0.00     0.039 A 
ATOM     41  C   UNL A   1      33.764  33.536  31.722  1.00  0.00     0.014 A 
ATOM     42  C   UNL A   1      35.319  35.331  31.239  1.00  0.00     0.014 A 
ATOM     43  C   UNL A   1      34.812  32.773  32.246  1.00  0.00     0.010 A 
ATOM     44  C   UNL A   1      36.371  34.542  31.694  1.00  0.00     0.010 A 
ATOM     45  C   UNL A   1      36.130  33.256  32.201  1.00  0.00    -0.014 A 
BRANCH  45  46
ATOM     46  C   UNL A   1      37.280  32.451  32.689  1.00  0.00     0.031 A 
ATOM     47  C   UNL A   1      37.908  32.781  34.014  1.00  0.00     0.074 A 
ATOM     48  C   UNL A   1      37.804  31.483  31.912  1.00  0.00     0.049 A 
ATOM     49  N   UNL A   1      39.010  32.319  34.546  1.00  0.00    -0.248 NA
ATOM     50  C   UNL A   1      37.217  33.783  34.844  1.00  0.00     0.031 C 
ATOM     51  C   UNL A   1      37.287  31.071  30.605  1.00  0.00     0.029 A 
ATOM     52  N   UNL A   1      38.901  30.676  32.099  1.00  0.00    -0.354 N 
ATOM     53  C   UNL A   1      39.148  32.977  35.760  1.00  0.00     0.074 A 
ATOM     54  C   UNL A   1      38.048  33.909  35.868  1.00  0.00     0.031 C 
ATOM     55  C   UNL A   1      38.053  30.081  30.120  1.00  0.00     0.029 A 
ATOM     56  C   UNL A   1      39.148  29.823  31.050  1.00  0.00     0.049 A 
ATOM     57  H   UNL A   1      39.459  30.707  32.911  1.00  0.00     0.167 HD
ATOM     58  C   UNL A   1      40.095  32.800  36.708  1.00  0.00     0.037 A 
ATOM     59  C   UNL A   1      40.155  28.950  30.851  1.00  0.00     0.037 A 
ATOM     60  C   UNL A   1      41.168  31.848  36.609  1.00  0.00     0.049 A 
ATOM     61  C   UNL A   1      41.231  28.818  31.901  1.00  0.00     0.074 A 
ATOM     62  C   UNL A   1      42.163  31.578  37.533  1.00  0.00     0.029 A 
ATOM     63  N   UNL A   1      41.382  31.006  35.530  1.00  0.00    -0.354 N 
ATOM     64  N   UNL A   1      41.337  29.429  33.055  1.00  0.00    -0.248 NA
ATOM     65  C   UNL A   1      42.330  27.881  31.620  1.00  0.00     0.031 C 
ATOM     66  C   UNL A   1      43.005  30.605  36.994  1.00  0.00     0.029 A 
ATOM     67  C   UNL A   1      42.501  30.226  35.760  1.00  0.00     0.049 A 
ATOM     68  H   UNL A   1      40.820  30.968  34.720  1.00  0.00     0.167 HD
ATOM     69  C   UNL A   1      42.480  28.919  33.654  1.00  0.00     0.074 A 
ATOM     70  C   UNL A   1      43.039  27.949  32.738  1.00  0.00     0.031 C 
ATOM     71  C   UNL A   1      43.017  29.230  34.858  1.00  0.00     0.037 A 
BRANCH  58  72
ATOM     72  C   UNL A   1      40.014  33.620  37.961  1.00  0.00     0.064 A 
ATOM     73  C   UNL A   1      39.089  33.301  38.965  1.00  0.00     0.173 A 
ATOM     74  C   UNL A   1      40.762  34.799  38.105  1.00  0.00     0.173 A 
ATOM     75  F   UNL A   1      38.345  32.188  38.869  1.00  0.00    -0.203 F 
ATOM     76  C   UNL A   1      38.891  34.146  40.052  1.00  0.00     0.198 A 
ATOM     77  C   UNL A   1      40.581  35.628  39.208  1.00  0.00     0.198 A 
ATOM     78  F   UNL A   1      41.666  35.143  37.175  1.00  0.00    -0.203 F 
ATOM     79  F   UNL A   1      37.964  33.848  40.972  1.00  0.00    -0.200 F 
ATOM     80  C   UNL A   1      39.637  35.310  40.171  1.00  0.00     0.200 A 
ATOM     81  F   UNL A   1      41.315  36.744  39.331  1.00  0.00    -0.200 F 
ATOM     82  F   UNL A   1      39.439  36.129  41.213  1.00  0.00    -0.200 F 
ENDBRANCH  58  72
BRANCH  59  83
ATOM     83  C   UNL A   1      40.196  28.117  29.618  1.00  0.00     0.064 A 
ATOM     84  C   UNL A   1      39.508  26.899  29.528  1.00  0.00     0.173 A 
ATOM     85  C   UNL A   1      40.918  28.540  28.492  1.00  0.00     0.173 A 
ATOM     86  F   UNL A   1      38.803  26.444  30.574  1.00  0.00    -0.203 F 
ATOM     87  C   UNL A   1      39.549  26.131  28.364  1.00  0.00     0.198 A 
ATOM     88  C   UNL A   1      40.930  27.790  27.318  1.00  0.00     0.198 A 
ATOM     89  F   UNL A   1      41.576  29.708  28.520  1.00  0.00    -0.203 F 
ATOM     90  F   UNL A   1      38.903  24.959  28.314  1.00  0.00    -0.200 F 
ATOM     91  C   UNL A   1      40.250  26.583  27.257  1.00  0.00     0.200 A 
ATOM     92  F   UNL A   1      41.583  28.246  26.241  1.00  0.00    -0.200 F 
ATOM     93  F   UNL A   1      40.263  25.860  26.128  1.00  0.00    -0.200 F 
ENDBRANCH  59  83
BRANCH  71  94
ATOM     94  C   UNL A   1      44.237  28.482  35.309  1.00  0.00     0.064 A 
ATOM     95  C   UNL A   1      44.099  27.321  36.086  1.00  0.00     0.173 A 
ATOM     96  C   UNL A   1      45.526  28.989  35.104  1.00  0.00     0.173 A 
ATOM     97  F   UNL A   1      42.883  26.804  36.319  1.00  0.00    -0.203 F 
ATOM     98  C   UNL A   1      45.207  26.716  36.673  1.00  0.00     0.198 A 
ATOM     99  C   UNL A   1      46.635  28.366  35.669  1.00  0.00     0.198 A 
ATOM    100  F   UNL A   1      45.708  30.092  34.361  1.00  0.00    -0.203 F 
ATOM    101  F   UNL A   1      45.046  25.644  37.460  1.00  0.00    -0.200 F 
ATOM    102  C   UNL A   1      46.473  27.241  36.465  1.00  0.00     0.200 A 
ATOM    103  F   UNL A   1      47.862  28.861  35.453  1.00  0.00    -0.200 F 
ATOM    104  F   UNL A   1      47.539  26.666  37.040  1.00  0.00    -0.200 F 
ENDBRANCH  71  94
ENDBRANCH  45  46
ENDBRANCH  37  40
ENDBRANCH  35  36
ENDBRANCH  34  35
ENDBRANCH  33  34
ENDBRANCH   1  33
TORSDOF 16
ENDMDL
MODEL 2
REMARK VINA RESULT:     -12.1      0.758      6.922
REMARK SMILES Cc1nc(-c2ccc3c(c2)CCN3S(=O)(=O)c2ccc(F)c(C(=O)NCCCCCCNC(=O)c3ccc(-c4c5nc(c(-c6c(F)c(F)c(F)c(F)c6F)c6ccc([nH]6)c(-c6c(F)c(F)c(F)c(F)c6F)c6nc(c(-c7c(F)c(F)c(F)c(F)c7F)c7ccc4[nH]7)C=C6)C=C5)cc3)c2)cs1
REMARK SMILES IDX 28 1 27 2 26 3 25 4 23 5 24 6 22 8 17 9 18 10 98 11 19 12
REMARK SMILES IDX 20 13 21 14 14 15 15 16 16 17 13 18 5 19 6 20 10 21 7 22
REMARK SMILES IDX 9 23 8 24 11 25 12 26 4 27 1 28 2 29 3 30 100 31 99 32 29 33
REMARK SMILES IDX 30 34 31 35 32 36 33 37 34 39 35 40 36 41 97 42 37 43 96 44
REMARK SMILES IDX 38 45 39 46 40 47 90 48 41 49 95 50 89 51 91 52 42 53 94 54
REMARK SMILES IDX 88 55 87 56 43 58 75 59 55 60 74 61 56 62 59 63 73 64 92 65
REMARK SMILES IDX 57 66 58 67 72 69 93 70 60 71 44 72 45 73 53 74 46 75 47 76
REMARK SMILES IDX 51 77 54 78 48 79 49 80 52 81 50 82 76 83 77 84 85 85 78 86
REMARK SMILES IDX 79 87 83 88 86 89 80 90 81 91 84 92 82 93 61 94 62 95 70 96
REMARK SMILES IDX 63 97 64 98 68 99 71 100 65 101 66 102 69 103 67 104
REMARK H PARENT 25 7 32 38 91 57 59 68
REMARK Flexibility Score: inf
ROOT
ATOM      1  C   UNL A   1      34.358  32.171  27.939  1.00  0.00     0.002 C 
ENDROOT
BRANCH   1   2
ATOM      2  C   UNL A   1      35.081  30.831  27.837  1.00  0.00     0.021 C 
BRANCH   2   3
ATOM      3  C   UNL A   1      34.300  29.669  27.242  1.00  0.00     0.116 C 
BRANCH   3   4
ATOM      4  N   UNL A   1      34.055  29.762  25.816  1.00  0.00    -0.352 N 
ATOM      5  C   UNL A   1      33.468  28.880  24.938  1.00  0.00     0.254 C 
ATOM      6  O   UNL A   1      33.338  29.244  23.768  1.00  0.00    -0.269 OA
ATOM      7  H   UNL A   1      34.361  30.602  25.405  1.00  0.00     0.163 HD
BRANCH   5   8
ATOM      8  C   UNL A   1      33.050  27.495  25.297  1.00  0.00     0.076 A 
ATOM      9  C   UNL A   1      33.301  25.108  24.930  1.00  0.00     0.089 A 
ATOM     10  C   UNL A   1      32.463  24.832  26.018  1.00  0.00     0.025 A 
ATOM     11  C   UNL A   1      33.672  26.424  24.623  1.00  0.00     0.039 A 
ATOM     12  C   UNL A   1      31.794  25.881  26.628  1.00  0.00     0.041 A 
ATOM     13  C   UNL A   1      32.023  27.186  26.197  1.00  0.00     0.136 A 
ATOM     14  F   UNL A   1      31.139  28.107  26.602  1.00  0.00    -0.206 F 
BRANCH   9  15
ATOM     15  S   UNL A   1      33.763  23.743  23.894  1.00  0.00     0.264 S 
ATOM     16  O   UNL A   1      34.709  24.271  22.932  1.00  0.00    -0.201 OA
ATOM     17  O   UNL A   1      32.546  23.104  23.431  1.00  0.00    -0.201 OA
BRANCH  15  18
ATOM     18  N   UNL A   1      34.584  22.609  24.893  1.00  0.00    -0.266 N 
ATOM     19  C   UNL A   1      38.667  22.284  25.953  1.00  0.00     0.001 A 
ATOM     20  C   UNL A   1      38.061  23.545  26.046  1.00  0.00     0.012 A 
ATOM     21  C   UNL A   1      37.898  21.190  25.534  1.00  0.00     0.016 A 
ATOM     22  C   UNL A   1      36.716  23.724  25.705  1.00  0.00     0.028 A 
ATOM     23  C   UNL A   1      36.564  21.402  25.175  1.00  0.00    -0.021 A 
ATOM     24  C   UNL A   1      35.991  22.672  25.182  1.00  0.00     0.055 A 
ATOM     25  C   UNL A   1      35.522  20.355  24.939  1.00  0.00     0.060 C 
ATOM     26  C   UNL A   1      34.326  21.185  24.450  1.00  0.00     0.140 C 
BRANCH  19  27
ATOM     27  C   UNL A   1      40.039  22.143  26.417  1.00  0.00     0.081 A 
ATOM     28  C   UNL A   1      43.333  20.712  25.766  1.00  0.00     0.079 C 
ATOM     29  C   UNL A   1      42.121  21.396  26.292  1.00  0.00     0.090 A 
ATOM     30  N   UNL A   1      40.949  21.386  25.696  1.00  0.00    -0.242 NA
ATOM     31  S   UNL A   1      42.184  22.267  27.772  1.00  0.00    -0.127 S 
ATOM     32  C   UNL A   1      40.530  22.688  27.586  1.00  0.00     0.095 A 
ENDBRANCH  19  27
ENDBRANCH  15  18
ENDBRANCH   9  15
ENDBRANCH   5   8
ENDBRANCH   3   4
ENDBRANCH   2   3
ENDBRANCH   1   2
BRANCH   1  33
ATOM     33  C   UNL A   1      35.222  33.394  28.257  1.00  0.00     0.002 C 
BRANCH  33  34
ATOM     34  C   UNL A   1      34.503  34.595  28.873  1.00  0.00     0.021 C 
BRANCH  34  35
ATOM     35  C   UNL A   1      33.057  34.357  29.289  1.00  0.00     0.116 C 
BRANCH  35  36
ATOM     36  N   UNL A   1      32.573  35.346  30.238  1.00  0.00    -0.352 N 
ATOM     37  C   UNL A   1      33.005  35.606  31.516  1.00  0.00     0.251 C 
ATOM     38  H   UNL A   1      31.831  35.909  29.920  1.00  0.00     0.163 HD
ATOM     39  O   UNL A   1      32.379  36.372  32.242  1.00  0.00    -0.269 OA
BRANCH  37  40
ATOM     40  C   UNL A   1      34.220  34.938  32.027  1.00  0.00     0.039 A 
ATOM     41  C   UNL A   1      34.150  33.594  32.406  1.00  0.00     0.014 A 
ATOM     42  C   UNL A   1      35.427  35.635  32.127  1.00  0.00     0.014 A 
ATOM     43  C   UNL A   1      35.308  32.930  32.821  1.00  0.00     0.010 A 
ATOM     44  C   UNL A   1      36.591  34.954  32.470  1.00  0.00     0.010 A 
ATOM     45  C   UNL A   1      36.545  33.595  32.820  1.00  0.00    -0.014 A 
BRANCH  45  46
ATOM     46  C   UNL A   1      37.808  32.908  33.192  1.00  0.00     0.031 A 
ATOM     47  C   UNL A   1      38.345  31.814  32.311  1.00  0.00     0.074 A 
ATOM     48  C   UNL A   1      38.425  33.210  34.351  1.00  0.00     0.049 A 
ATOM     49  N   UNL A   1      39.330  30.982  32.533  1.00  0.00    -0.248 NA
ATOM     50  C   UNL A   1      37.670  31.613  31.018  1.00  0.00     0.031 C 
ATOM     51  C   UNL A   1      38.000  34.248  35.293  1.00  0.00     0.029 A 
ATOM     52  N   UNL A   1      39.536  32.662  34.947  1.00  0.00    -0.354 N 
ATOM     53  C   UNL A   1      39.385  30.159  31.417  1.00  0.00     0.074 A 
ATOM     54  C   UNL A   1      38.305  30.552  30.541  1.00  0.00     0.031 C 
ATOM     55  C   UNL A   1      38.847  34.273  36.334  1.00  0.00     0.029 A 
ATOM     56  C   UNL A   1      39.842  33.219  36.166  1.00  0.00     0.049 A 
ATOM     57  H   UNL A   1      40.063  31.938  34.538  1.00  0.00     0.167 HD
ATOM     58  C   UNL A   1      40.275  29.178  31.140  1.00  0.00     0.037 A 
ATOM     59  C   UNL A   1      40.803  32.900  37.057  1.00  0.00     0.037 A 
ATOM     60  C   UNL A   1      41.367  28.813  32.002  1.00  0.00     0.049 A 
ATOM     61  C   UNL A   1      41.742  31.760  36.747  1.00  0.00     0.074 A 
ATOM     62  C   UNL A   1      42.337  27.848  31.794  1.00  0.00     0.029 A 
ATOM     63  N   UNL A   1      41.640  29.401  33.226  1.00  0.00    -0.354 N 
ATOM     64  N   UNL A   1      41.798  31.005  35.678  1.00  0.00    -0.248 NA
ATOM     65  C   UNL A   1      42.747  31.425  37.768  1.00  0.00     0.031 C 
ATOM     66  C   UNL A   1      43.170  27.820  32.912  1.00  0.00     0.029 A 
ATOM     67  C   UNL A   1      42.755  28.808  33.791  1.00  0.00     0.049 A 
ATOM     68  H   UNL A   1      41.118  30.131  33.633  1.00  0.00     0.167 HD
ATOM     69  C   UNL A   1      42.868  30.142  35.876  1.00  0.00     0.074 A 
ATOM     70  C   UNL A   1      43.433  30.462  37.168  1.00  0.00     0.031 C 
ATOM     71  C   UNL A   1      43.336  29.171  35.057  1.00  0.00     0.037 A 
BRANCH  58  72
ATOM     72  C   UNL A   1      40.142  28.438  29.843  1.00  0.00     0.064 A 
ATOM     73  C   UNL A   1      39.444  27.223  29.783  1.00  0.00     0.173 A 
ATOM     74  C   UNL A   1      40.819  28.867  28.691  1.00  0.00     0.173 A 
ATOM     75  F   UNL A   1      38.788  26.767  30.861  1.00  0.00    -0.203 F 
ATOM     76  C   UNL A   1      39.454  26.448  28.627  1.00  0.00     0.198 A 
ATOM     77  C   UNL A   1      40.803  28.103  27.528  1.00  0.00     0.198 A 
ATOM     78  F   UNL A   1      41.493  30.027  28.697  1.00  0.00    -0.203 F 
ATOM     79  F   UNL A   1      38.825  25.266  28.609  1.00  0.00    -0.200 F 
ATOM     80  C   UNL A   1      40.135  26.888  27.502  1.00  0.00     0.200 A 
ATOM     81  F   UNL A   1      41.447  28.538  26.435  1.00  0.00    -0.200 F 
ATOM     82  F   UNL A   1      40.153  26.137  26.393  1.00  0.00    -0.200 F 
ENDBRANCH  58  72
BRANCH  59  83
ATOM     83  C   UNL A   1      40.941  33.671  38.322  1.00  0.00     0.064 A 
ATOM     84  C   UNL A   1      41.840  34.741  38.439  1.00  0.00     0.173 A 
ATOM     85  C   UNL A   1      40.156  33.359  39.441  1.00  0.00     0.173 A 
ATOM     86  F   UNL A   1      42.618  35.084  37.401  1.00  0.00    -0.203 F 
ATOM     87  C   UNL A   1      41.955  35.461  39.628  1.00  0.00     0.198 A 
ATOM     88  C   UNL A   1      40.247  34.100  40.618  1.00  0.00     0.198 A 
ATOM     89  F   UNL A   1      39.265  32.358  39.374  1.00  0.00    -0.203 F 
ATOM     90  F   UNL A   1      42.841  36.462  39.720  1.00  0.00    -0.200 F 
ATOM     91  C   UNL A   1      41.151  35.147  40.712  1.00  0.00     0.200 A 
ATOM     92  F   UNL A   1      39.444  33.812  41.652  1.00  0.00    -0.200 F 
ATOM     93  F   UNL A   1      41.240  35.858  41.844  1.00  0.00    -0.200 F 
ENDBRANCH  59  83
BRANCH  71  94
ATOM     94  C   UNL A   1      44.558  28.411  35.478  1.00  0.00     0.064 A 
ATOM     95  C   UNL A   1      44.432  27.284  36.306  1.00  0.00     0.173 A 
ATOM     96  C   UNL A   1      45.848  28.877  35.192  1.00  0.00     0.173 A 
ATOM     97  F   UNL A   1      43.217  26.807  36.618  1.00  0.00    -0.203 F 
ATOM     98  C   UNL A   1      45.553  26.675  36.862  1.00  0.00     0.198 A 
ATOM     99  C   UNL A   1      46.969  28.248  35.726  1.00  0.00     0.198 A 
ATOM    100  F   UNL A   1      46.018  29.946  34.397  1.00  0.00    -0.203 F 
ATOM    101  F   UNL A   1      45.406  25.638  37.698  1.00  0.00    -0.200 F 
ATOM    102  C   UNL A   1      46.819  27.159  36.573  1.00  0.00     0.200 A 
ATOM    103  F   UNL A   1      48.194  28.704  35.432  1.00  0.00    -0.200 F 
ATOM    104  F   UNL A   1      47.898  26.579  37.118  1.00  0.00    -0.200 F 
ENDBRANCH  71  94
ENDBRANCH  45  46
ENDBRANCH  37  40
ENDBRANCH  35  36
ENDBRANCH  34  35
ENDBRANCH  33  34
ENDBRANCH   1  33
TORSDOF 16
ENDMDL
MODEL 3
REMARK VINA RESULT:     -12.0      3.181      9.303
REMARK SMILES Cc1nc(-c2ccc3c(c2)CCN3S(=O)(=O)c2ccc(F)c(C(=O)NCCCCCCNC(=O)c3ccc(-c4c5nc(c(-c6c(F)c(F)c(F)c(F)c6F)c6ccc([nH]6)c(-c6c(F)c(F)c(F)c(F)c6F)c6nc(c(-c7c(F)c(F)c(F)c(F)c7F)c7ccc4[nH]7)C=C6)C=C5)cc3)c2)cs1
REMARK SMILES IDX 28 1 27 2 26 3 25 4 23 5 24 6 22 8 17 9 18 10 98 11 19 12
REMARK SMILES IDX 20 13 21 14 14 15 15 16 16 17 13 18 5 19 6 20 10 21 7 22
REMARK SMILES IDX 9 23 8 24 11 25 12 26 4 27 1 28 2 29 3 30 100 31 99 32 29 33
REMARK SMILES IDX 30 34 31 35 32 36 33 37 34 39 35 40 36 41 97 42 37 43 96 44
REMARK SMILES IDX 38 45 39 46 40 47 90 48 41 49 95 50 89 51 91 52 42 53 94 54
REMARK SMILES IDX 88 55 87 56 43 58 75 59 55 60 74 61 56 62 59 63 73 64 92 65
REMARK SMILES IDX 57 66 58 67 72 69 93 70 60 71 44 72 45 73 53 74 46 75 47 76
REMARK SMILES IDX 51 77 54 78 48 79 49 80 52 81 50 82 76 83 77 84 85 85 78 86
REMARK SMILES IDX 79 87 83 88 86 89 80 90 81 91 84 92 82 93 61 94 62 95 70 96
REMARK SMILES IDX 63 97 64 98 68 99 71 100 65 101 66 102 69 103 67 104
REMARK H PARENT 25 7 32 38 91 57 59 68
REMARK Flexibility Score: inf
ROOT
ATOM      1  C   UNL A   1      39.990  23.813  26.606  1.00  0.00     0.002 C 
ENDROOT
BRANCH   1   2
ATOM      2  C   UNL A   1      38.538  24.091  26.982  1.00  0.00     0.021 C 
BRANCH   2   3
ATOM      3  C   UNL A   1      37.472  23.668  25.982  1.00  0.00     0.116 C 
BRANCH   3   4
ATOM      4  N   UNL A   1      37.447  22.252  25.676  1.00  0.00    -0.352 N 
ATOM      5  C   UNL A   1      36.398  21.399  25.416  1.00  0.00     0.254 C 
ATOM      6  O   UNL A   1      36.672  20.232  25.130  1.00  0.00    -0.269 OA
ATOM      7  H   UNL A   1      38.334  21.825  25.651  1.00  0.00     0.163 HD
BRANCH   5   8
ATOM      8  C   UNL A   1      34.962  21.781  25.529  1.00  0.00     0.076 A 
ATOM      9  C   UNL A   1      32.968  22.638  24.440  1.00  0.00     0.089 A 
ATOM     10  C   UNL A   1      32.204  22.367  25.581  1.00  0.00     0.025 A 
ATOM     11  C   UNL A   1      34.317  22.264  24.372  1.00  0.00     0.039 A 
ATOM     12  C   UNL A   1      32.851  21.965  26.739  1.00  0.00     0.041 A 
ATOM     13  C   UNL A   1      34.231  21.771  26.722  1.00  0.00     0.136 A 
ATOM     14  F   UNL A   1      34.831  21.688  27.917  1.00  0.00    -0.206 F 
BRANCH   9  15
ATOM     15  S   UNL A   1      32.194  23.577  23.148  1.00  0.00     0.264 S 
ATOM     16  O   UNL A   1      30.771  23.332  23.270  1.00  0.00    -0.201 OA
ATOM     17  O   UNL A   1      32.874  23.267  21.905  1.00  0.00    -0.201 OA
BRANCH  15  18
ATOM     18  N   UNL A   1      32.488  25.237  23.488  1.00  0.00    -0.266 N 
ATOM     19  C   UNL A   1      30.154  28.684  22.730  1.00  0.00     0.001 A 
ATOM     20  C   UNL A   1      29.520  27.573  23.303  1.00  0.00     0.012 A 
ATOM     21  C   UNL A   1      31.525  28.614  22.449  1.00  0.00     0.016 A 
ATOM     22  C   UNL A   1      30.230  26.399  23.575  1.00  0.00     0.028 A 
ATOM     23  C   UNL A   1      32.205  27.420  22.707  1.00  0.00    -0.021 A 
ATOM     24  C   UNL A   1      31.553  26.289  23.193  1.00  0.00     0.055 A 
ATOM     25  C   UNL A   1      33.687  27.217  22.710  1.00  0.00     0.060 C 
ATOM     26  C   UNL A   1      33.810  25.700  22.917  1.00  0.00     0.140 C 
BRANCH  19  27
ATOM     27  C   UNL A   1      29.383  29.907  22.565  1.00  0.00     0.081 A 
ATOM     28  C   UNL A   1      27.883  32.257  20.209  1.00  0.00     0.079 C 
ATOM     29  C   UNL A   1      28.392  31.497  21.382  1.00  0.00     0.090 A 
ATOM     30  N   UNL A   1      29.093  30.388  21.297  1.00  0.00    -0.242 NA
ATOM     31  S   UNL A   1      28.085  32.052  22.980  1.00  0.00    -0.127 S 
ATOM     32  C   UNL A   1      28.926  30.691  23.605  1.00  0.00     0.095 A 
ENDBRANCH  19  27
ENDBRANCH  15  18
ENDBRANCH   9  15
ENDBRANCH   5   8
ENDBRANCH   3   4
ENDBRANCH   2   3
ENDBRANCH   1   2
BRANCH   1  33
ATOM     33  C   UNL A   1      40.578  22.479  27.077  1.00  0.00     0.002 C 
BRANCH  33  34
ATOM     34  C   UNL A   1      41.655  21.857  26.187  1.00  0.00     0.021 C 
BRANCH  34  35
ATOM     35  C   UNL A   1      42.596  22.841  25.503  1.00  0.00     0.116 C 
BRANCH  35  36
ATOM     36  N   UNL A   1      43.989  22.630  25.858  1.00  0.00    -0.352 N 
ATOM     37  C   UNL A   1      44.776  23.332  26.739  1.00  0.00     0.251 C 
ATOM     38  H   UNL A   1      44.432  21.877  25.404  1.00  0.00     0.163 HD
ATOM     39  O   UNL A   1      45.982  23.118  26.804  1.00  0.00    -0.269 OA
BRANCH  37  40
ATOM     40  C   UNL A   1      44.166  24.368  27.599  1.00  0.00     0.039 A 
ATOM     41  C   UNL A   1      43.409  23.974  28.706  1.00  0.00     0.014 A 
ATOM     42  C   UNL A   1      44.346  25.724  27.316  1.00  0.00     0.014 A 
ATOM     43  C   UNL A   1      42.888  24.942  29.569  1.00  0.00     0.010 A 
ATOM     44  C   UNL A   1      43.889  26.683  28.215  1.00  0.00     0.010 A 
ATOM     45  C   UNL A   1      43.157  26.303  29.351  1.00  0.00    -0.014 A 
BRANCH  45  46
ATOM     46  C   UNL A   1      42.677  27.359  30.279  1.00  0.00     0.031 A 
ATOM     47  C   UNL A   1      43.387  27.577  31.586  1.00  0.00     0.074 A 
ATOM     48  C   UNL A   1      41.566  28.063  29.985  1.00  0.00     0.049 A 
ATOM     49  N   UNL A   1      43.040  28.323  32.603  1.00  0.00    -0.248 NA
ATOM     50  C   UNL A   1      44.647  26.840  31.787  1.00  0.00     0.031 C 
ATOM     51  C   UNL A   1      40.786  27.940  28.752  1.00  0.00     0.029 A 
ATOM     52  N   UNL A   1      40.886  29.012  30.711  1.00  0.00    -0.354 N 
ATOM     53  C   UNL A   1      44.026  28.138  33.561  1.00  0.00     0.074 A 
ATOM     54  C   UNL A   1      44.961  27.171  33.031  1.00  0.00     0.031 C 
ATOM     55  C   UNL A   1      39.750  28.792  28.799  1.00  0.00     0.029 A 
ATOM     56  C   UNL A   1      39.755  29.482  30.086  1.00  0.00     0.049 A 
ATOM     57  H   UNL A   1      41.182  29.327  31.596  1.00  0.00     0.167 HD
ATOM     58  C   UNL A   1      44.151  28.740  34.765  1.00  0.00     0.037 A 
ATOM     59  C   UNL A   1      38.817  30.352  30.512  1.00  0.00     0.037 A 
ATOM     60  C   UNL A   1      43.235  29.726  35.274  1.00  0.00     0.049 A 
ATOM     61  C   UNL A   1      38.952  30.961  31.885  1.00  0.00     0.074 A 
ATOM     62  C   UNL A   1      43.293  30.412  36.474  1.00  0.00     0.029 A 
ATOM     63  N   UNL A   1      42.103  30.171  34.610  1.00  0.00    -0.354 N 
ATOM     64  N   UNL A   1      39.902  30.796  32.772  1.00  0.00    -0.248 NA
ATOM     65  C   UNL A   1      37.883  31.874  32.321  1.00  0.00     0.031 C 
ATOM     66  C   UNL A   1      42.173  31.239  36.557  1.00  0.00     0.029 A 
ATOM     67  C   UNL A   1      41.448  31.112  35.383  1.00  0.00     0.049 A 
ATOM     68  H   UNL A   1      41.809  29.863  33.721  1.00  0.00     0.167 HD
ATOM     69  C   UNL A   1      39.572  31.614  33.844  1.00  0.00     0.074 A 
ATOM     70  C   UNL A   1      38.332  32.276  33.501  1.00  0.00     0.031 C 
ATOM     71  C   UNL A   1      40.239  31.798  35.007  1.00  0.00     0.037 A 
BRANCH  58  72
ATOM     72  C   UNL A   1      45.331  28.390  35.621  1.00  0.00     0.064 A 
ATOM     73  C   UNL A   1      45.244  27.361  36.570  1.00  0.00     0.173 A 
ATOM     74  C   UNL A   1      46.503  29.161  35.591  1.00  0.00     0.173 A 
ATOM     75  F   UNL A   1      44.141  26.601  36.644  1.00  0.00    -0.203 F 
ATOM     76  C   UNL A   1      46.274  27.137  37.479  1.00  0.00     0.198 A 
ATOM     77  C   UNL A   1      47.542  28.916  36.484  1.00  0.00     0.198 A 
ATOM     78  F   UNL A   1      46.637  30.151  34.694  1.00  0.00    -0.203 F 
ATOM     79  F   UNL A   1      46.146  26.184  38.412  1.00  0.00    -0.200 F 
ATOM     80  C   UNL A   1      47.421  27.916  37.436  1.00  0.00     0.200 A 
ATOM     81  F   UNL A   1      48.658  29.657  36.429  1.00  0.00    -0.200 F 
ATOM     82  F   UNL A   1      48.407  27.706  38.318  1.00  0.00    -0.200 F 
ENDBRANCH  58  72
BRANCH  59  83
ATOM     83  C   UNL A   1      37.674  30.715  29.632  1.00  0.00     0.064 A 
ATOM     84  C   UNL A   1      37.592  31.967  29.007  1.00  0.00     0.173 A 
ATOM     85  C   UNL A   1      36.640  29.799  29.385  1.00  0.00     0.173 A 
ATOM     86  F   UNL A   1      38.551  32.884  29.207  1.00  0.00    -0.203 F 
ATOM     87  C   UNL A   1      36.518  32.293  28.179  1.00  0.00     0.198 A 
ATOM     88  C   UNL A   1      35.585  30.112  28.531  1.00  0.00     0.198 A 
ATOM     89  F   UNL A   1      36.682  28.579  29.942  1.00  0.00    -0.203 F 
ATOM     90  F   UNL A   1      36.453  33.506  27.615  1.00  0.00    -0.200 F 
ATOM     91  C   UNL A   1      35.522  31.361  27.933  1.00  0.00     0.200 A 
ATOM     92  F   UNL A   1      34.641  29.196  28.272  1.00  0.00    -0.200 F 
ATOM     93  F   UNL A   1      34.506  31.663  27.113  1.00  0.00    -0.200 F 
ENDBRANCH  59  83
BRANCH  71  94
ATOM     94  C   UNL A   1      39.701  32.798  35.988  1.00  0.00     0.064 A 
ATOM     95  C   UNL A   1      40.233  34.096  36.029  1.00  0.00     0.173 A 
ATOM     96  C   UNL A   1      38.777  32.432  36.975  1.00  0.00     0.173 A 
ATOM     97  F   UNL A   1      41.130  34.488  35.111  1.00  0.00    -0.203 F 
ATOM     98  C   UNL A   1      39.886  34.980  37.046  1.00  0.00     0.198 A 
ATOM     99  C   UNL A   1      38.410  33.329  37.975  1.00  0.00     0.198 A 
ATOM    100  F   UNL A   1      38.234  31.205  36.971  1.00  0.00    -0.203 F 
ATOM    101  F   UNL A   1      40.452  36.193  37.100  1.00  0.00    -0.200 F 
ATOM    102  C   UNL A   1      38.977  34.595  38.019  1.00  0.00     0.200 A 
ATOM    103  F   UNL A   1      37.517  32.963  38.905  1.00  0.00    -0.200 F 
ATOM    104  F   UNL A   1      38.652  35.442  39.005  1.00  0.00    -0.200 F 
ENDBRANCH  71  94
ENDBRANCH  45  46
ENDBRANCH  37  40
ENDBRANCH  35  36
ENDBRANCH  34  35
ENDBRANCH  33  34
ENDBRANCH   1  33
TORSDOF 16
ENDMDL
