MODEL 1
REMARK VINA RESULT:     -12.7      0.000      0.000
REMARK SMILES CC(C)CSc1cc2c(cc1Cl)C=C(C(=O)NCCCCCCNC(=O)c1ccc(-c3c4nc(c(-c5c(F)c(F)c(F)c(F)c5F)c5ccc([nH]5)c(-c5c(F)c(F)c(F)c(F)c5F)c5nc(c(-c6c(F)c(F)c(F)c(F)c6F)c6ccc3[nH]6)C=C5)C=C4)cc1)[C@H](C(F)(F)F)O2
REMARK SMILES IDX 20 1 19 2 18 3 17 4 15 5 16 6 14 8 6 9 7 10 11 11 8 12 10 13
REMARK SMILES IDX 12 14 9 15 95 16 13 17 90 18 5 19 4 20 2 21 1 22 3 23 91 24
REMARK SMILES IDX 92 25 93 26 94 27 21 28 22 29 23 30 24 31 25 32 26 34 27 35
REMARK SMILES IDX 28 36 89 37 29 38 88 39 30 40 31 41 32 42 82 43 33 44 87 45
REMARK SMILES IDX 81 46 83 47 34 48 86 49 80 50 79 51 35 53 67 54 47 55 66 56
REMARK SMILES IDX 48 57 51 58 65 59 84 60 49 61 50 62 64 64 85 65 52 66 36 67
REMARK SMILES IDX 37 68 45 69 38 70 39 71 43 72 46 73 40 74 41 75 44 76 42 77
REMARK SMILES IDX 68 78 69 79 77 80 70 81 71 82 75 83 78 84 72 85 73 86 76 87
REMARK SMILES IDX 74 88 53 89 54 90 62 91 55 92 56 93 60 94 63 95 57 96 58 97
REMARK SMILES IDX 61 98 59 99
REMARK H PARENT 17 7 24 33 83 52 51 63
REMARK Flexibility Score: inf
ROOT
ATOM      1  C   UNL A   1      32.247  29.632  27.037  1.00  0.00     0.002 C 
ENDROOT
BRANCH   1   2
ATOM      2  C   UNL A   1      33.765  29.539  27.214  1.00  0.00     0.021 C 
BRANCH   2   3
ATOM      3  C   UNL A   1      34.422  28.432  26.391  1.00  0.00     0.116 C 
BRANCH   3   4
ATOM      4  N   UNL A   1      34.039  28.517  24.995  1.00  0.00    -0.352 N 
ATOM      5  C   UNL A   1      33.517  27.698  24.054  1.00  0.00     0.251 C 
ATOM      6  O   UNL A   1      33.356  28.217  22.944  1.00  0.00    -0.270 OA
ATOM      7  H   UNL A   1      34.204  29.418  24.633  1.00  0.00     0.163 HD
BRANCH   5   8
ATOM      8  C   UNL A   1      33.128  26.269  24.262  1.00  0.00     0.067 C 
ATOM      9  C   UNL A   1      33.340  21.277  25.013  1.00  0.00     0.030 A 
ATOM     10  C   UNL A   1      32.306  22.187  24.763  1.00  0.00     0.063 A 
ATOM     11  C   UNL A   1      34.668  21.740  24.977  1.00  0.00     0.055 A 
ATOM     12  C   UNL A   1      32.584  23.538  24.554  1.00  0.00     0.129 A 
ATOM     13  C   UNL A   1      34.941  23.095  24.758  1.00  0.00     0.033 A 
ATOM     14  Cl  UNL A   1      36.024  20.697  25.240  1.00  0.00    -0.083 Cl
ATOM     15  C   UNL A   1      33.895  24.000  24.559  1.00  0.00     0.019 A 
ATOM     16  O   UNL A   1      31.511  24.344  24.320  1.00  0.00    -0.475 OA
ATOM     17  C   UNL A   1      34.160  25.410  24.333  1.00  0.00     0.025 C 
ATOM     18  C   UNL A   1      31.714  25.781  24.426  1.00  0.00     0.314 C 
BRANCH   9  19
ATOM     19  S   UNL A   1      32.919  19.578  25.373  1.00  0.00    -0.124 SA
BRANCH  19  20
ATOM     20  C   UNL A   1      32.935  18.838  23.694  1.00  0.00     0.078 C 
BRANCH  20  21
ATOM     21  C   UNL A   1      32.942  17.297  23.672  1.00  0.00    -0.007 C 
ATOM     22  C   UNL A   1      34.246  16.708  23.126  1.00  0.00     0.008 C 
ATOM     23  C   UNL A   1      32.727  16.768  25.094  1.00  0.00     0.008 C 
ENDBRANCH  20  21
ENDBRANCH  19  20
ENDBRANCH   9  19
BRANCH  18  24
ATOM     24  C   UNL A   1      31.032  26.282  25.713  1.00  0.00     0.429 C 
ATOM     25  F   UNL A   1      29.996  25.469  26.045  1.00  0.00    -0.167 F 
ATOM     26  F   UNL A   1      31.875  26.307  26.772  1.00  0.00    -0.167 F 
ATOM     27  F   UNL A   1      30.521  27.527  25.593  1.00  0.00    -0.167 F 
ENDBRANCH  18  24
ENDBRANCH   5   8
ENDBRANCH   3   4
ENDBRANCH   2   3
ENDBRANCH   1   2
BRANCH   1  28
ATOM     28  C   UNL A   1      31.759  30.755  26.114  1.00  0.00     0.002 C 
BRANCH  28  29
ATOM     29  C   UNL A   1      31.451  32.085  26.804  1.00  0.00     0.021 C 
BRANCH  29  30
ATOM     30  C   UNL A   1      32.673  32.826  27.335  1.00  0.00     0.116 C 
BRANCH  30  31
ATOM     31  N   UNL A   1      32.381  34.209  27.679  1.00  0.00    -0.352 N 
ATOM     32  C   UNL A   1      32.963  35.013  28.629  1.00  0.00     0.251 C 
ATOM     33  H   UNL A   1      31.662  34.630  27.156  1.00  0.00     0.163 HD
ATOM     34  O   UNL A   1      32.474  36.104  28.905  1.00  0.00    -0.269 OA
BRANCH  32  35
ATOM     35  C   UNL A   1      34.166  34.541  29.347  1.00  0.00     0.039 A 
ATOM     36  C   UNL A   1      35.432  34.675  28.772  1.00  0.00     0.014 A 
ATOM     37  C   UNL A   1      34.022  33.933  30.597  1.00  0.00     0.014 A 
ATOM     38  C   UNL A   1      36.522  34.045  29.360  1.00  0.00     0.010 A 
ATOM     39  C   UNL A   1      35.138  33.377  31.229  1.00  0.00     0.010 A 
ATOM     40  C   UNL A   1      36.387  33.380  30.590  1.00  0.00    -0.014 A 
BRANCH  40  41
ATOM     41  C   UNL A   1      37.561  32.675  31.168  1.00  0.00     0.031 A 
ATOM     42  C   UNL A   1      38.048  33.004  32.553  1.00  0.00     0.074 A 
ATOM     43  C   UNL A   1      38.145  31.684  30.467  1.00  0.00     0.049 A 
ATOM     44  N   UNL A   1      39.029  32.465  33.235  1.00  0.00    -0.248 NA
ATOM     45  C   UNL A   1      37.347  34.081  33.271  1.00  0.00     0.031 C 
ATOM     46  C   UNL A   1      37.754  31.265  29.121  1.00  0.00     0.029 A 
ATOM     47  N   UNL A   1      39.166  30.830  30.798  1.00  0.00    -0.354 N 
ATOM     48  C   UNL A   1      39.070  33.142  34.447  1.00  0.00     0.074 A 
ATOM     49  C   UNL A   1      38.042  34.158  34.398  1.00  0.00     0.031 C 
ATOM     50  C   UNL A   1      38.483  30.198  28.765  1.00  0.00     0.029 A 
ATOM     51  C   UNL A   1      39.435  29.895  29.829  1.00  0.00     0.049 A 
ATOM     52  H   UNL A   1      39.660  30.882  31.648  1.00  0.00     0.167 HD
ATOM     53  C   UNL A   1      39.880  32.922  35.510  1.00  0.00     0.037 A 
ATOM     54  C   UNL A   1      40.352  28.909  29.794  1.00  0.00     0.037 A 
ATOM     55  C   UNL A   1      40.884  31.893  35.566  1.00  0.00     0.049 A 
ATOM     56  C   UNL A   1      41.275  28.725  30.965  1.00  0.00     0.074 A 
ATOM     57  C   UNL A   1      41.732  31.574  36.613  1.00  0.00     0.029 A 
ATOM     58  N   UNL A   1      41.176  31.015  34.533  1.00  0.00    -0.354 N 
ATOM     59  N   UNL A   1      41.291  29.362  32.111  1.00  0.00    -0.248 NA
ATOM     60  C   UNL A   1      42.314  27.695  30.835  1.00  0.00     0.031 C 
ATOM     61  C   UNL A   1      42.568  30.534  36.197  1.00  0.00     0.029 A 
ATOM     62  C   UNL A   1      42.210  30.173  34.907  1.00  0.00     0.049 A 
ATOM     63  H   UNL A   1      40.716  30.994  33.662  1.00  0.00     0.167 HD
ATOM     64  C   UNL A   1      42.335  28.809  32.839  1.00  0.00     0.074 A 
ATOM     65  C   UNL A   1      42.912  27.766  32.016  1.00  0.00     0.031 C 
ATOM     66  C   UNL A   1      42.779  29.143  34.074  1.00  0.00     0.037 A 
BRANCH  53  67
ATOM     67  C   UNL A   1      39.719  33.810  36.710  1.00  0.00     0.064 A 
ATOM     68  C   UNL A   1      40.330  35.071  36.778  1.00  0.00     0.173 A 
ATOM     69  C   UNL A   1      38.887  33.426  37.773  1.00  0.00     0.173 A 
ATOM     70  F   UNL A   1      41.144  35.481  35.794  1.00  0.00    -0.203 F 
ATOM     71  C   UNL A   1      40.128  35.907  37.874  1.00  0.00     0.198 A 
ATOM     72  C   UNL A   1      38.666  34.276  38.855  1.00  0.00     0.198 A 
ATOM     73  F   UNL A   1      38.273  32.233  37.754  1.00  0.00    -0.203 F 
ATOM     74  F   UNL A   1      40.750  37.093  37.933  1.00  0.00    -0.200 F 
ATOM     75  C   UNL A   1      39.288  35.513  38.905  1.00  0.00     0.200 A 
ATOM     76  F   UNL A   1      37.844  33.900  39.843  1.00  0.00    -0.200 F 
ATOM     77  F   UNL A   1      39.085  36.326  39.951  1.00  0.00    -0.200 F 
ENDBRANCH  53  67
BRANCH  54  78
ATOM     78  C   UNL A   1      40.432  28.024  28.604  1.00  0.00     0.064 A 
ATOM     79  C   UNL A   1      41.191  28.392  27.484  1.00  0.00     0.173 A 
ATOM     80  C   UNL A   1      39.782  26.782  28.574  1.00  0.00     0.173 A 
ATOM     81  F   UNL A   1      41.813  29.580  27.459  1.00  0.00    -0.203 F 
ATOM     82  C   UNL A   1      41.295  27.551  26.379  1.00  0.00     0.198 A 
ATOM     83  C   UNL A   1      39.911  25.928  27.480  1.00  0.00     0.198 A 
ATOM     84  F   UNL A   1      39.046  26.383  29.621  1.00  0.00    -0.203 F 
ATOM     85  F   UNL A   1      42.003  27.938  25.310  1.00  0.00    -0.200 F 
ATOM     86  C   UNL A   1      40.663  26.315  26.381  1.00  0.00     0.200 A 
ATOM     87  F   UNL A   1      39.313  24.730  27.495  1.00  0.00    -0.200 F 
ATOM     88  F   UNL A   1      40.778  25.500  25.325  1.00  0.00    -0.200 F 
ENDBRANCH  54  78
BRANCH  66  89
ATOM     89  C   UNL A   1      43.949  28.381  34.620  1.00  0.00     0.064 A 
ATOM     90  C   UNL A   1      45.260  28.861  34.477  1.00  0.00     0.173 A 
ATOM     91  C   UNL A   1      43.755  27.205  35.360  1.00  0.00     0.173 A 
ATOM     92  F   UNL A   1      45.496  29.973  33.765  1.00  0.00    -0.203 F 
ATOM     93  C   UNL A   1      46.334  28.186  35.048  1.00  0.00     0.198 A 
ATOM     94  C   UNL A   1      44.830  26.548  35.953  1.00  0.00     0.198 A 
ATOM     95  F   UNL A   1      42.521  26.710  35.532  1.00  0.00    -0.203 F 
ATOM     96  F   UNL A   1      47.581  28.647  34.874  1.00  0.00    -0.200 F 
ATOM     97  C   UNL A   1      46.118  27.037  35.795  1.00  0.00     0.200 A 
ATOM     98  F   UNL A   1      44.618  25.447  36.686  1.00  0.00    -0.200 F 
ATOM     99  F   UNL A   1      47.153  26.399  36.360  1.00  0.00    -0.200 F 
ENDBRANCH  66  89
ENDBRANCH  40  41
ENDBRANCH  32  35
ENDBRANCH  30  31
ENDBRANCH  29  30
ENDBRANCH  28  29
ENDBRANCH   1  28
TORSDOF 17
ENDMDL
MODEL 2
REMARK VINA RESULT:     -12.6      0.550      7.186
REMARK SMILES CC(C)CSc1cc2c(cc1Cl)C=C(C(=O)NCCCCCCNC(=O)c1ccc(-c3c4nc(c(-c5c(F)c(F)c(F)c(F)c5F)c5ccc([nH]5)c(-c5c(F)c(F)c(F)c(F)c5F)c5nc(c(-c6c(F)c(F)c(F)c(F)c6F)c6ccc3[nH]6)C=C5)C=C4)cc1)[C@H](C(F)(F)F)O2
REMARK SMILES IDX 20 1 19 2 18 3 17 4 15 5 16 6 14 8 6 9 7 10 11 11 8 12 10 13
REMARK SMILES IDX 12 14 9 15 95 16 13 17 90 18 5 19 4 20 2 21 1 22 3 23 91 24
REMARK SMILES IDX 92 25 93 26 94 27 21 28 22 29 23 30 24 31 25 32 26 34 27 35
REMARK SMILES IDX 28 36 89 37 29 38 88 39 30 40 31 41 32 42 82 43 33 44 87 45
REMARK SMILES IDX 81 46 83 47 34 48 86 49 80 50 79 51 35 53 67 54 47 55 66 56
REMARK SMILES IDX 48 57 51 58 65 59 84 60 49 61 50 62 64 64 85 65 52 66 36 67
REMARK SMILES IDX 37 68 45 69 38 70 39 71 43 72 46 73 40 74 41 75 44 76 42 77
REMARK SMILES IDX 68 78 69 79 77 80 70 81 71 82 75 83 78 84 72 85 73 86 76 87
REMARK SMILES IDX 74 88 53 89 54 90 62 91 55 92 56 93 60 94 63 95 57 96 58 97
REMARK SMILES IDX 61 98 59 99
REMARK H PARENT 17 7 24 33 83 52 51 63
REMARK Flexibility Score: inf
ROOT
ATOM      1  C   UNL A   1      32.423  29.794  27.174  1.00  0.00     0.002 C 
ENDROOT
BRANCH   1   2
ATOM      2  C   UNL A   1      33.946  29.674  27.068  1.00  0.00     0.021 C 
BRANCH   2   3
ATOM      3  C   UNL A   1      34.424  28.428  26.325  1.00  0.00     0.116 C 
BRANCH   3   4
ATOM      4  N   UNL A   1      34.103  28.504  24.912  1.00  0.00    -0.352 N 
ATOM      5  C   UNL A   1      33.597  27.687  23.961  1.00  0.00     0.251 C 
ATOM      6  O   UNL A   1      33.498  28.193  22.839  1.00  0.00    -0.270 OA
ATOM      7  H   UNL A   1      34.309  29.395  24.545  1.00  0.00     0.163 HD
BRANCH   5   8
ATOM      8  C   UNL A   1      33.157  26.273  24.172  1.00  0.00     0.067 C 
ATOM      9  C   UNL A   1      33.192  21.273  24.902  1.00  0.00     0.030 A 
ATOM     10  C   UNL A   1      32.189  22.223  24.674  1.00  0.00     0.063 A 
ATOM     11  C   UNL A   1      34.536  21.685  24.843  1.00  0.00     0.055 A 
ATOM     12  C   UNL A   1      32.514  23.563  24.465  1.00  0.00     0.129 A 
ATOM     13  C   UNL A   1      34.856  23.030  24.624  1.00  0.00     0.033 A 
ATOM     14  Cl  UNL A   1      35.855  20.590  25.079  1.00  0.00    -0.083 Cl
ATOM     15  C   UNL A   1      33.843  23.975  24.447  1.00  0.00     0.019 A 
ATOM     16  O   UNL A   1      31.469  24.410  24.252  1.00  0.00    -0.475 OA
ATOM     17  C   UNL A   1      34.157  25.375  24.221  1.00  0.00     0.025 C 
ATOM     18  C   UNL A   1      31.729  25.838  24.359  1.00  0.00     0.314 C 
BRANCH   9  19
ATOM     19  S   UNL A   1      32.712  19.590  25.264  1.00  0.00    -0.124 SA
BRANCH  19  20
ATOM     20  C   UNL A   1      32.920  18.794  23.624  1.00  0.00     0.078 C 
BRANCH  20  21
ATOM     21  C   UNL A   1      32.946  17.254  23.657  1.00  0.00    -0.007 C 
ATOM     22  C   UNL A   1      34.226  16.659  23.065  1.00  0.00     0.008 C 
ATOM     23  C   UNL A   1      32.811  16.774  25.107  1.00  0.00     0.008 C 
ENDBRANCH  20  21
ENDBRANCH  19  20
ENDBRANCH   9  19
BRANCH  18  24
ATOM     24  C   UNL A   1      31.090  26.360  25.661  1.00  0.00     0.429 C 
ATOM     25  F   UNL A   1      31.976  26.276  26.687  1.00  0.00    -0.167 F 
ATOM     26  F   UNL A   1      30.708  27.655  25.568  1.00  0.00    -0.167 F 
ATOM     27  F   UNL A   1      29.998  25.658  26.035  1.00  0.00    -0.167 F 
ENDBRANCH  18  24
ENDBRANCH   5   8
ENDBRANCH   3   4
ENDBRANCH   2   3
ENDBRANCH   1   2
BRANCH   1  28
ATOM     28  C   UNL A   1      31.769  30.766  26.185  1.00  0.00     0.002 C 
BRANCH  28  29
ATOM     29  C   UNL A   1      31.479  32.164  26.735  1.00  0.00     0.021 C 
BRANCH  29  30
ATOM     30  C   UNL A   1      32.662  32.838  27.420  1.00  0.00     0.116 C 
BRANCH  30  31
ATOM     31  N   UNL A   1      32.431  34.253  27.667  1.00  0.00    -0.352 N 
ATOM     32  C   UNL A   1      32.996  35.077  28.611  1.00  0.00     0.251 C 
ATOM     33  H   UNL A   1      31.775  34.682  27.073  1.00  0.00     0.163 HD
ATOM     34  O   UNL A   1      32.556  36.208  28.792  1.00  0.00    -0.269 OA
BRANCH  32  35
ATOM     35  C   UNL A   1      34.118  34.581  29.435  1.00  0.00     0.039 A 
ATOM     36  C   UNL A   1      35.420  34.577  28.931  1.00  0.00     0.014 A 
ATOM     37  C   UNL A   1      33.859  34.089  30.718  1.00  0.00     0.014 A 
ATOM     38  C   UNL A   1      36.425  33.920  29.631  1.00  0.00     0.010 A 
ATOM     39  C   UNL A   1      34.892  33.509  31.458  1.00  0.00     0.010 A 
ATOM     40  C   UNL A   1      36.171  33.370  30.899  1.00  0.00    -0.014 A 
BRANCH  40  41
ATOM     41  C   UNL A   1      37.255  32.633  31.601  1.00  0.00     0.031 A 
ATOM     42  C   UNL A   1      37.990  31.513  30.916  1.00  0.00     0.074 A 
ATOM     43  C   UNL A   1      37.624  33.025  32.836  1.00  0.00     0.049 A 
ATOM     44  N   UNL A   1      38.988  30.787  31.358  1.00  0.00    -0.248 NA
ATOM     45  C   UNL A   1      37.550  31.154  29.559  1.00  0.00     0.031 C 
ATOM     46  C   UNL A   1      36.996  34.106  33.596  1.00  0.00     0.029 A 
ATOM     47  N   UNL A   1      38.634  32.585  33.654  1.00  0.00    -0.354 N 
ATOM     48  C   UNL A   1      39.283  29.885  30.345  1.00  0.00     0.074 A 
ATOM     49  C   UNL A   1      38.336  30.124  29.278  1.00  0.00     0.031 C 
ATOM     50  C   UNL A   1      37.670  34.285  34.742  1.00  0.00     0.029 A 
ATOM     51  C   UNL A   1      38.737  33.293  34.827  1.00  0.00     0.049 A 
ATOM     52  H   UNL A   1      39.226  31.833  33.424  1.00  0.00     0.167 HD
ATOM     53  C   UNL A   1      40.266  28.954  30.302  1.00  0.00     0.037 A 
ATOM     54  C   UNL A   1      39.589  33.154  35.861  1.00  0.00     0.037 A 
ATOM     55  C   UNL A   1      41.223  28.736  31.354  1.00  0.00     0.049 A 
ATOM     56  C   UNL A   1      40.633  32.076  35.809  1.00  0.00     0.074 A 
ATOM     57  C   UNL A   1      42.275  27.836  31.388  1.00  0.00     0.029 A 
ATOM     58  N   UNL A   1      41.246  29.424  32.558  1.00  0.00    -0.354 N 
ATOM     59  N   UNL A   1      40.911  31.241  34.838  1.00  0.00    -0.248 NA
ATOM     60  C   UNL A   1      41.475  31.911  37.002  1.00  0.00     0.031 C 
ATOM     61  C   UNL A   1      42.906  27.948  32.630  1.00  0.00     0.029 A 
ATOM     62  C   UNL A   1      42.276  28.950  33.353  1.00  0.00     0.049 A 
ATOM     63  H   UNL A   1      40.622  30.143  32.810  1.00  0.00     0.167 HD
ATOM     64  C   UNL A   1      41.959  30.457  35.298  1.00  0.00     0.074 A 
ATOM     65  C   UNL A   1      42.286  30.932  36.626  1.00  0.00     0.031 C 
ATOM     66  C   UNL A   1      42.586  29.429  34.676  1.00  0.00     0.037 A 
BRANCH  53  67
ATOM     67  C   UNL A   1      40.364  28.093  29.075  1.00  0.00     0.064 A 
ATOM     68  C   UNL A   1      39.657  26.887  28.965  1.00  0.00     0.173 A 
ATOM     69  C   UNL A   1      41.119  28.515  27.969  1.00  0.00     0.173 A 
ATOM     70  F   UNL A   1      38.930  26.435  29.997  1.00  0.00    -0.203 F 
ATOM     71  C   UNL A   1      39.715  26.126  27.800  1.00  0.00     0.198 A 
ATOM     72  C   UNL A   1      41.154  27.765  26.796  1.00  0.00     0.198 A 
ATOM     73  F   UNL A   1      41.809  29.664  28.020  1.00  0.00    -0.203 F 
ATOM     74  F   UNL A   1      39.058  24.959  27.731  1.00  0.00    -0.200 F 
ATOM     75  C   UNL A   1      40.455  26.570  26.714  1.00  0.00     0.200 A 
ATOM     76  F   UNL A   1      41.857  28.201  25.743  1.00  0.00    -0.200 F 
ATOM     77  F   UNL A   1      40.497  25.843  25.589  1.00  0.00    -0.200 F 
ENDBRANCH  53  67
BRANCH  54  78
ATOM     78  C   UNL A   1      39.482  34.069  37.026  1.00  0.00     0.064 A 
ATOM     79  C   UNL A   1      38.755  33.698  38.165  1.00  0.00     0.173 A 
ATOM     80  C   UNL A   1      40.129  35.312  37.039  1.00  0.00     0.173 A 
ATOM     81  F   UNL A   1      38.102  32.526  38.191  1.00  0.00    -0.203 F 
ATOM     82  C   UNL A   1      38.678  34.539  39.274  1.00  0.00     0.198 A 
ATOM     83  C   UNL A   1      40.076  36.140  38.159  1.00  0.00     0.198 A 
ATOM     84  F   UNL A   1      40.839  35.712  35.975  1.00  0.00    -0.203 F 
ATOM     85  F   UNL A   1      37.954  34.173  40.340  1.00  0.00    -0.200 F 
ATOM     86  C   UNL A   1      39.347  35.754  39.274  1.00  0.00     0.200 A 
ATOM     87  F   UNL A   1      40.737  37.304  38.160  1.00  0.00    -0.200 F 
ATOM     88  F   UNL A   1      39.287  36.554  40.347  1.00  0.00    -0.200 F 
ENDBRANCH  54  78
BRANCH  66  89
ATOM     89  C   UNL A   1      43.690  28.739  35.421  1.00  0.00     0.064 A 
ATOM     90  C   UNL A   1      45.027  29.141  35.276  1.00  0.00     0.173 A 
ATOM     91  C   UNL A   1      43.403  27.723  36.345  1.00  0.00     0.173 A 
ATOM     92  F   UNL A   1      45.352  30.097  34.394  1.00  0.00    -0.203 F 
ATOM     93  C   UNL A   1      46.037  28.543  36.025  1.00  0.00     0.198 A 
ATOM     94  C   UNL A   1      44.413  27.148  37.111  1.00  0.00     0.198 A 
ATOM     95  F   UNL A   1      42.140  27.309  36.525  1.00  0.00    -0.203 F 
ATOM     96  F   UNL A   1      47.310  28.922  35.849  1.00  0.00    -0.200 F 
ATOM     97  C   UNL A   1      45.728  27.556  36.949  1.00  0.00     0.200 A 
ATOM     98  F   UNL A   1      44.111  26.205  38.014  1.00  0.00    -0.200 F 
ATOM     99  F   UNL A   1      46.700  26.996  37.682  1.00  0.00    -0.200 F 
ENDBRANCH  66  89
ENDBRANCH  40  41
ENDBRANCH  32  35
ENDBRANCH  30  31
ENDBRANCH  29  30
ENDBRANCH  28  29
ENDBRANCH   1  28
TORSDOF 17
ENDMDL
MODEL 3
REMARK VINA RESULT:     -12.5      5.685     11.072
REMARK SMILES CC(C)CSc1cc2c(cc1Cl)C=C(C(=O)NCCCCCCNC(=O)c1ccc(-c3c4nc(c(-c5c(F)c(F)c(F)c(F)c5F)c5ccc([nH]5)c(-c5c(F)c(F)c(F)c(F)c5F)c5nc(c(-c6c(F)c(F)c(F)c(F)c6F)c6ccc3[nH]6)C=C5)C=C4)cc1)[C@H](C(F)(F)F)O2
REMARK SMILES IDX 20 1 19 2 18 3 17 4 15 5 16 6 14 8 6 9 7 10 11 11 8 12 10 13
REMARK SMILES IDX 12 14 9 15 95 16 13 17 90 18 5 19 4 20 2 21 1 22 3 23 91 24
REMARK SMILES IDX 92 25 93 26 94 27 21 28 22 29 23 30 24 31 25 32 26 34 27 35
REMARK SMILES IDX 28 36 89 37 29 38 88 39 30 40 31 41 32 42 82 43 33 44 87 45
REMARK SMILES IDX 81 46 83 47 34 48 86 49 80 50 79 51 35 53 67 54 47 55 66 56
REMARK SMILES IDX 48 57 51 58 65 59 84 60 49 61 50 62 64 64 85 65 52 66 36 67
REMARK SMILES IDX 37 68 45 69 38 70 39 71 43 72 46 73 40 74 41 75 44 76 42 77
REMARK SMILES IDX 68 78 69 79 77 80 70 81 71 82 75 83 78 84 72 85 73 86 76 87
REMARK SMILES IDX 74 88 53 89 54 90 62 91 55 92 56 93 60 94 63 95 57 96 58 97
REMARK SMILES IDX 61 98 59 99
REMARK H PARENT 17 7 24 33 83 52 51 63
REMARK Flexibility Score: inf
ROOT
ATOM      1  C   UNL A   1      35.878  21.067  25.198  1.00  0.00     0.002 C 
ENDROOT
BRANCH   1   2
ATOM      2  C   UNL A   1      35.545  22.265  26.092  1.00  0.00     0.021 C 
BRANCH   2   3
ATOM      3  C   UNL A   1      34.402  22.013  27.073  1.00  0.00     0.116 C 
BRANCH   3   4
ATOM      4  N   UNL A   1      33.323  21.274  26.444  1.00  0.00    -0.352 N 
ATOM      5  C   UNL A   1      32.267  21.542  25.643  1.00  0.00     0.251 C 
ATOM      6  O   UNL A   1      31.577  20.562  25.346  1.00  0.00    -0.270 OA
ATOM      7  H   UNL A   1      33.373  20.314  26.659  1.00  0.00     0.163 HD
BRANCH   5   8
ATOM      8  C   UNL A   1      31.901  22.890  25.108  1.00  0.00     0.067 C 
ATOM      9  C   UNL A   1      31.005  27.849  24.740  1.00  0.00     0.030 A 
ATOM     10  C   UNL A   1      30.834  26.756  23.881  1.00  0.00     0.063 A 
ATOM     11  C   UNL A   1      31.430  27.609  26.059  1.00  0.00     0.055 A 
ATOM     12  C   UNL A   1      31.149  25.465  24.304  1.00  0.00     0.129 A 
ATOM     13  C   UNL A   1      31.736  26.310  26.480  1.00  0.00     0.033 A 
ATOM     14  Cl  UNL A   1      31.645  28.882  27.213  1.00  0.00    -0.083 Cl
ATOM     15  C   UNL A   1      31.608  25.236  25.597  1.00  0.00     0.019 A 
ATOM     16  O   UNL A   1      30.949  24.469  23.397  1.00  0.00    -0.475 OA
ATOM     17  C   UNL A   1      31.923  23.881  26.017  1.00  0.00     0.025 C 
ATOM     18  C   UNL A   1      31.564  23.179  23.670  1.00  0.00     0.314 C 
BRANCH   9  19
ATOM     19  S   UNL A   1      30.682  29.491  24.113  1.00  0.00    -0.124 SA
BRANCH  19  20
ATOM     20  C   UNL A   1      29.694  29.117  22.612  1.00  0.00     0.078 C 
BRANCH  20  21
ATOM     21  C   UNL A   1      28.292  29.755  22.591  1.00  0.00    -0.007 C 
ATOM     22  C   UNL A   1      27.192  28.811  23.083  1.00  0.00     0.008 C 
ATOM     23  C   UNL A   1      28.291  31.008  23.475  1.00  0.00     0.008 C 
ENDBRANCH  20  21
ENDBRANCH  19  20
ENDBRANCH   9  19
BRANCH  18  24
ATOM     24  C   UNL A   1      32.750  22.982  22.706  1.00  0.00     0.429 C 
ATOM     25  F   UNL A   1      32.719  23.920  21.725  1.00  0.00    -0.167 F 
ATOM     26  F   UNL A   1      33.947  23.092  23.326  1.00  0.00    -0.167 F 
ATOM     27  F   UNL A   1      32.739  21.779  22.089  1.00  0.00    -0.167 F 
ENDBRANCH  18  24
ENDBRANCH   5   8
ENDBRANCH   3   4
ENDBRANCH   2   3
ENDBRANCH   1   2
BRANCH   1  28
ATOM     28  C   UNL A   1      37.298  21.052  24.619  1.00  0.00     0.002 C 
BRANCH  28  29
ATOM     29  C   UNL A   1      38.140  19.826  24.976  1.00  0.00     0.021 C 
BRANCH  29  30
ATOM     30  C   UNL A   1      39.303  20.104  25.921  1.00  0.00     0.116 C 
BRANCH  30  31
ATOM     31  N   UNL A   1      40.294  19.039  25.914  1.00  0.00    -0.352 N 
ATOM     32  C   UNL A   1      41.660  19.119  26.046  1.00  0.00     0.251 C 
ATOM     33  H   UNL A   1      39.935  18.131  25.797  1.00  0.00     0.163 HD
ATOM     34  O   UNL A   1      42.362  18.134  25.842  1.00  0.00    -0.269 OA
BRANCH  32  35
ATOM     35  C   UNL A   1      42.285  20.410  26.403  1.00  0.00     0.039 A 
ATOM     36  C   UNL A   1      42.333  20.830  27.735  1.00  0.00     0.014 A 
ATOM     37  C   UNL A   1      42.804  21.221  25.390  1.00  0.00     0.014 A 
ATOM     38  C   UNL A   1      42.732  22.128  28.030  1.00  0.00     0.010 A 
ATOM     39  C   UNL A   1      43.288  22.494  25.704  1.00  0.00     0.010 A 
ATOM     40  C   UNL A   1      43.205  22.979  27.018  1.00  0.00    -0.014 A 
BRANCH  40  41
ATOM     41  C   UNL A   1      43.579  24.377  27.359  1.00  0.00     0.031 A 
ATOM     42  C   UNL A   1      44.970  24.886  27.093  1.00  0.00     0.074 A 
ATOM     43  C   UNL A   1      42.639  25.210  27.845  1.00  0.00     0.049 A 
ATOM     44  N   UNL A   1      45.463  26.084  27.288  1.00  0.00    -0.248 NA
ATOM     45  C   UNL A   1      45.939  23.926  26.539  1.00  0.00     0.031 C 
ATOM     46  C   UNL A   1      41.253  24.837  28.132  1.00  0.00     0.029 A 
ATOM     47  N   UNL A   1      42.694  26.546  28.152  1.00  0.00    -0.354 N 
ATOM     48  C   UNL A   1      46.794  26.019  26.895  1.00  0.00     0.074 A 
ATOM     49  C   UNL A   1      47.046  24.655  26.485  1.00  0.00     0.031 C 
ATOM     50  C   UNL A   1      40.575  25.928  28.515  1.00  0.00     0.029 A 
ATOM     51  C   UNL A   1      41.490  27.064  28.562  1.00  0.00     0.049 A 
ATOM     52  H   UNL A   1      43.517  27.082  28.087  1.00  0.00     0.167 HD
ATOM     53  C   UNL A   1      47.714  27.011  26.862  1.00  0.00     0.037 A 
ATOM     54  C   UNL A   1      41.159  28.313  28.942  1.00  0.00     0.037 A 
ATOM     55  C   UNL A   1      47.453  28.374  27.244  1.00  0.00     0.049 A 
ATOM     56  C   UNL A   1      42.215  29.381  28.949  1.00  0.00     0.074 A 
ATOM     57  C   UNL A   1      48.315  29.457  27.215  1.00  0.00     0.029 A 
ATOM     58  N   UNL A   1      46.239  28.841  27.726  1.00  0.00    -0.354 N 
ATOM     59  N   UNL A   1      43.465  29.309  28.559  1.00  0.00    -0.248 NA
ATOM     60  C   UNL A   1      41.820  30.701  29.460  1.00  0.00     0.031 C 
ATOM     61  C   UNL A   1      47.637  30.569  27.722  1.00  0.00     0.029 A 
ATOM     62  C   UNL A   1      46.338  30.191  28.023  1.00  0.00     0.049 A 
ATOM     63  H   UNL A   1      45.428  28.295  27.839  1.00  0.00     0.167 HD
ATOM     64  C   UNL A   1      44.003  30.570  28.772  1.00  0.00     0.074 A 
ATOM     65  C   UNL A   1      42.938  31.396  29.301  1.00  0.00     0.031 C 
ATOM     66  C   UNL A   1      45.270  30.999  28.555  1.00  0.00     0.037 A 
BRANCH  53  67
ATOM     67  C   UNL A   1      49.099  26.668  26.393  1.00  0.00     0.064 A 
ATOM     68  C   UNL A   1      49.497  26.878  25.064  1.00  0.00     0.173 A 
ATOM     69  C   UNL A   1      50.059  26.192  27.299  1.00  0.00     0.173 A 
ATOM     70  F   UNL A   1      48.615  27.322  24.157  1.00  0.00    -0.203 F 
ATOM     71  C   UNL A   1      50.801  26.606  24.656  1.00  0.00     0.198 A 
ATOM     72  C   UNL A   1      51.369  25.947  26.893  1.00  0.00     0.198 A 
ATOM     73  F   UNL A   1      49.732  25.981  28.583  1.00  0.00    -0.203 F 
ATOM     74  F   UNL A   1      51.150  26.781  23.373  1.00  0.00    -0.200 F 
ATOM     75  C   UNL A   1      51.738  26.151  25.573  1.00  0.00     0.200 A 
ATOM     76  F   UNL A   1      52.276  25.520  27.782  1.00  0.00    -0.200 F 
ATOM     77  F   UNL A   1      52.995  25.904  25.180  1.00  0.00    -0.200 F 
ENDBRANCH  53  67
BRANCH  54  78
ATOM     78  C   UNL A   1      39.760  28.610  29.344  1.00  0.00     0.064 A 
ATOM     79  C   UNL A   1      39.334  28.410  30.664  1.00  0.00     0.173 A 
ATOM     80  C   UNL A   1      38.833  29.131  28.430  1.00  0.00     0.173 A 
ATOM     81  F   UNL A   1      40.179  27.894  31.569  1.00  0.00    -0.203 F 
ATOM     82  C   UNL A   1      38.032  28.717  31.054  1.00  0.00     0.198 A 
ATOM     83  C   UNL A   1      37.540  29.466  28.827  1.00  0.00     0.198 A 
ATOM     84  F   UNL A   1      39.193  29.343  27.156  1.00  0.00    -0.203 F 
ATOM     85  F   UNL A   1      37.641  28.490  32.314  1.00  0.00    -0.200 F 
ATOM     86  C   UNL A   1      37.139  29.255  30.137  1.00  0.00     0.200 A 
ATOM     87  F   UNL A   1      36.688  29.999  27.942  1.00  0.00    -0.200 F 
ATOM     88  F   UNL A   1      35.893  29.566  30.517  1.00  0.00    -0.200 F 
ENDBRANCH  54  78
BRANCH  66  89
ATOM     89  C   UNL A   1      45.585  32.426  28.893  1.00  0.00     0.064 A 
ATOM     90  C   UNL A   1      45.372  33.456  27.965  1.00  0.00     0.173 A 
ATOM     91  C   UNL A   1      46.027  32.776  30.178  1.00  0.00     0.173 A 
ATOM     92  F   UNL A   1      44.964  33.169  26.720  1.00  0.00    -0.203 F 
ATOM     93  C   UNL A   1      45.599  34.786  28.310  1.00  0.00     0.198 A 
ATOM     94  C   UNL A   1      46.226  34.109  30.526  1.00  0.00     0.198 A 
ATOM     95  F   UNL A   1      46.238  31.827  31.102  1.00  0.00    -0.203 F 
ATOM     96  F   UNL A   1      45.417  35.752  27.399  1.00  0.00    -0.200 F 
ATOM     97  C   UNL A   1      46.015  35.112  29.592  1.00  0.00     0.200 A 
ATOM     98  F   UNL A   1      46.614  34.423  31.770  1.00  0.00    -0.200 F 
ATOM     99  F   UNL A   1      46.214  36.394  29.928  1.00  0.00    -0.200 F 
ENDBRANCH  66  89
ENDBRANCH  40  41
ENDBRANCH  32  35
ENDBRANCH  30  31
ENDBRANCH  29  30
ENDBRANCH  28  29
ENDBRANCH   1  28
TORSDOF 17
ENDMDL
