MODEL 1
REMARK VINA RESULT:     -14.5      0.000      0.000
REMARK SMILES O=C(NCCCCCCNC(=O)[C@@H]1CCCC[C@@H]1C(=O)Nc1cccc(C(F)(F)F)c1)c1ccc(-c2c3nc(c(-c4c(F)c(F)c(F)c(F)c4F)c4ccc([nH]4)c(-c4c(F)c(F)c(F)c(F)c4F)c4nc(c(-c5c(F)c(F)c(F)c(F)c5F)c5ccc2[nH]5)C=C4)C=C3)cc1
REMARK SMILES IDX 7 1 6 2 5 3 4 4 3 5 1 6 2 7 32 9 33 10 94 11 34 12 93 13
REMARK SMILES IDX 35 14 36 15 37 16 87 17 38 18 92 19 86 20 88 21 39 22 91 23
REMARK SMILES IDX 85 24 84 25 40 27 72 28 52 29 71 30 53 31 56 32 70 33 89 34
REMARK SMILES IDX 54 35 55 36 69 38 90 39 57 40 41 41 42 42 50 43 43 44 44 45
REMARK SMILES IDX 48 46 51 47 45 48 46 49 49 50 47 51 73 52 74 53 82 54 75 55
REMARK SMILES IDX 76 56 80 57 83 58 77 59 78 60 81 61 79 62 58 63 59 64 67 65
REMARK SMILES IDX 60 66 61 67 65 68 68 69 62 70 63 71 66 72 64 73 8 74 9 75
REMARK SMILES IDX 10 76 11 77 12 79 13 80 14 81 18 82 15 83 17 84 16 85 19 86
REMARK SMILES IDX 20 87 21 88 22 90 23 91 31 92 24 93 26 94 25 95 27 96 28 97
REMARK SMILES IDX 29 98 30 99
REMARK H PARENT 3 8 88 26 56 37 10 78 21 89
REMARK Flexibility Score: inf
ROOT
ATOM      1  C   UNL A   1      36.538  22.522  23.660  1.00  0.00     0.002 C 
ENDROOT
BRANCH   1   2
ATOM      2  C   UNL A   1      37.051  21.523  24.958  1.00  0.00     0.002 C 
BRANCH   2   3
ATOM      3  C   UNL A   1      38.101  20.393  24.981  1.00  0.00     0.021 C 
BRANCH   3   4
ATOM      4  C   UNL A   1      39.285  20.314  25.939  1.00  0.00     0.116 C 
BRANCH   4   5
ATOM      5  N   UNL A   1      40.184  19.180  25.871  1.00  0.00    -0.352 N 
ATOM      6  O   UNL A   1      42.277  18.264  26.019  1.00  0.00    -0.269 OA
ATOM      7  C   UNL A   1      41.552  19.247  26.089  1.00  0.00     0.251 C 
ATOM      8  H   UNL A   1      39.796  18.301  25.653  1.00  0.00     0.163 HD
BRANCH   7   9
ATOM      9  C   UNL A   1      42.133  20.578  26.395  1.00  0.00     0.039 A 
ATOM     10  C   UNL A   1      42.272  20.978  27.727  1.00  0.00     0.014 A 
ATOM     11  C   UNL A   1      42.416  21.468  25.356  1.00  0.00     0.014 A 
ATOM     12  C   UNL A   1      42.582  22.304  28.020  1.00  0.00     0.010 A 
ATOM     13  C   UNL A   1      42.790  22.784  25.654  1.00  0.00     0.010 A 
ATOM     14  C   UNL A   1      42.853  23.220  26.988  1.00  0.00    -0.014 A 
BRANCH  14  15
ATOM     15  C   UNL A   1      43.296  24.600  27.322  1.00  0.00     0.031 A 
ATOM     16  C   UNL A   1      42.354  25.617  27.905  1.00  0.00     0.074 A 
ATOM     17  C   UNL A   1      44.577  24.933  27.076  1.00  0.00     0.049 A 
ATOM     18  N   UNL A   1      42.576  26.874  28.201  1.00  0.00    -0.248 NA
ATOM     19  C   UNL A   1      40.983  25.169  28.188  1.00  0.00     0.031 C 
ATOM     20  C   UNL A   1      45.580  24.032  26.505  1.00  0.00     0.029 A 
ATOM     21  N   UNL A   1      45.258  26.108  27.270  1.00  0.00    -0.354 N 
ATOM     22  C   UNL A   1      41.373  27.375  28.683  1.00  0.00     0.074 A 
ATOM     23  C   UNL A   1      40.418  26.286  28.626  1.00  0.00     0.031 C 
ATOM     24  C   UNL A   1      46.753  24.675  26.423  1.00  0.00     0.029 A 
ATOM     25  C   UNL A   1      46.569  26.052  26.867  1.00  0.00     0.049 A 
ATOM     26  H   UNL A   1      44.846  26.913  27.661  1.00  0.00     0.167 HD
ATOM     27  C   UNL A   1      41.098  28.626  29.130  1.00  0.00     0.037 A 
ATOM     28  C   UNL A   1      47.514  27.008  26.827  1.00  0.00     0.037 A 
ATOM     29  C   UNL A   1      42.060  29.700  29.186  1.00  0.00     0.049 A 
ATOM     30  C   UNL A   1      47.170  28.392  27.291  1.00  0.00     0.074 A 
ATOM     31  C   UNL A   1      41.889  30.991  29.658  1.00  0.00     0.029 A 
ATOM     32  N   UNL A   1      43.373  29.612  28.744  1.00  0.00    -0.354 N 
ATOM     33  N   UNL A   1      46.038  28.845  27.772  1.00  0.00    -0.248 NA
ATOM     34  C   UNL A   1      48.234  29.399  27.203  1.00  0.00     0.031 C 
ATOM     35  C   UNL A   1      43.080  31.696  29.453  1.00  0.00     0.029 A 
ATOM     36  C   UNL A   1      44.013  30.832  28.906  1.00  0.00     0.049 A 
ATOM     37  H   UNL A   1      43.788  28.802  28.370  1.00  0.00     0.167 HD
ATOM     38  C   UNL A   1      46.254  30.184  28.058  1.00  0.00     0.074 A 
ATOM     39  C   UNL A   1      47.634  30.465  27.716  1.00  0.00     0.031 C 
ATOM     40  C   UNL A   1      45.386  31.098  28.554  1.00  0.00     0.037 A 
BRANCH  27  41
ATOM     41  C   UNL A   1      39.689  28.919  29.572  1.00  0.00     0.064 A 
ATOM     42  C   UNL A   1      38.718  29.402  28.682  1.00  0.00     0.173 A 
ATOM     43  C   UNL A   1      39.292  28.664  30.894  1.00  0.00     0.173 A 
ATOM     44  F   UNL A   1      39.042  29.668  27.407  1.00  0.00    -0.203 F 
ATOM     45  C   UNL A   1      37.412  29.644  29.105  1.00  0.00     0.198 A 
ATOM     46  C   UNL A   1      37.978  28.880  31.307  1.00  0.00     0.198 A 
ATOM     47  F   UNL A   1      40.175  28.191  31.787  1.00  0.00    -0.203 F 
ATOM     48  F   UNL A   1      36.514  30.148  28.247  1.00  0.00    -0.200 F 
ATOM     49  C   UNL A   1      37.042  29.378  30.415  1.00  0.00     0.200 A 
ATOM     50  F   UNL A   1      37.620  28.608  32.570  1.00  0.00    -0.200 F 
ATOM     51  F   UNL A   1      35.785  29.607  30.818  1.00  0.00    -0.200 F 
ENDBRANCH  27  41
BRANCH  28  52
ATOM     52  C   UNL A   1      48.868  26.675  26.316  1.00  0.00     0.064 A 
ATOM     53  C   UNL A   1      49.216  26.927  24.983  1.00  0.00     0.173 A 
ATOM     54  C   UNL A   1      49.852  26.138  27.161  1.00  0.00     0.173 A 
ATOM     55  F   UNL A   1      48.304  27.423  24.135  1.00  0.00    -0.203 F 
ATOM     56  C   UNL A   1      50.498  26.648  24.512  1.00  0.00     0.198 A 
ATOM     57  C   UNL A   1      51.141  25.889  26.695  1.00  0.00     0.198 A 
ATOM     58  F   UNL A   1      49.569  25.887  28.448  1.00  0.00    -0.203 F 
ATOM     59  F   UNL A   1      50.796  26.869  23.225  1.00  0.00    -0.200 F 
ATOM     60  C   UNL A   1      51.461  26.139  25.370  1.00  0.00     0.200 A 
ATOM     61  F   UNL A   1      52.074  25.417  27.534  1.00  0.00    -0.200 F 
ATOM     62  F   UNL A   1      52.697  25.889  24.920  1.00  0.00    -0.200 F 
ENDBRANCH  28  52
BRANCH  40  63
ATOM     63  C   UNL A   1      45.917  32.484  28.782  1.00  0.00     0.064 A 
ATOM     64  C   UNL A   1      45.810  33.483  27.802  1.00  0.00     0.173 A 
ATOM     65  C   UNL A   1      46.528  32.820  29.999  1.00  0.00     0.173 A 
ATOM     66  F   UNL A   1      45.251  33.206  26.614  1.00  0.00    -0.203 F 
ATOM     67  C   UNL A   1      46.322  34.760  28.023  1.00  0.00     0.198 A 
ATOM     68  C   UNL A   1      47.012  34.105  30.227  1.00  0.00     0.198 A 
ATOM     69  F   UNL A   1      46.654  31.902  30.969  1.00  0.00    -0.203 F 
ATOM     70  F   UNL A   1      46.258  35.682  27.052  1.00  0.00    -0.200 F 
ATOM     71  C   UNL A   1      46.917  35.071  29.236  1.00  0.00     0.200 A 
ATOM     72  F   UNL A   1      47.576  34.408  31.405  1.00  0.00    -0.200 F 
ATOM     73  F   UNL A   1      47.407  36.300  29.448  1.00  0.00    -0.200 F 
ENDBRANCH  40  63
ENDBRANCH  14  15
ENDBRANCH   7   9
ENDBRANCH   4   5
ENDBRANCH   3   4
ENDBRANCH   2   3
ENDBRANCH   1   2
BRANCH   1  74
ATOM     74  C   UNL A   1      34.764  23.598  22.982  1.00  0.00     0.021 C 
BRANCH  74  75
ATOM     75  C   UNL A   1      33.406  23.387  22.022  1.00  0.00     0.116 C 
BRANCH  75  76
ATOM     76  N   UNL A   1      32.101  23.333  22.618  1.00  0.00    -0.356 N 
ATOM     77  C   UNL A   1      31.779  23.298  23.935  1.00  0.00     0.223 C 
ATOM     78  H   UNL A   1      31.342  23.320  21.990  1.00  0.00     0.163 HD
ATOM     79  O   UNL A   1      30.620  23.578  24.243  1.00  0.00    -0.275 OA
BRANCH  77  80
ATOM     80  C   UNL A   1      32.817  22.809  24.937  1.00  0.00     0.091 C 
ATOM     81  C   UNL A   1      32.558  21.302  25.159  1.00  0.00     0.014 C 
ATOM     82  C   UNL A   1      32.982  23.592  26.267  1.00  0.00     0.091 C 
ATOM     83  C   UNL A   1      33.683  20.651  25.938  1.00  0.00     0.001 C 
ATOM     84  C   UNL A   1      33.969  22.833  27.199  1.00  0.00     0.014 C 
ATOM     85  C   UNL A   1      33.816  21.314  27.297  1.00  0.00     0.001 C 
BRANCH  82  86
ATOM     86  C   UNL A   1      31.658  24.014  26.923  1.00  0.00     0.228 C 
ATOM     87  O   UNL A   1      30.961  23.163  27.488  1.00  0.00    -0.274 OA
ATOM     88  N   UNL A   1      31.157  25.300  26.878  1.00  0.00    -0.326 N 
ATOM     89  H   UNL A   1      30.225  25.353  27.193  1.00  0.00     0.169 HD
BRANCH  88  90
ATOM     90  C   UNL A   1      31.671  26.560  26.485  1.00  0.00     0.041 A 
ATOM     91  C   UNL A   1      31.749  27.956  27.611  1.00  0.00     0.026 A 
ATOM     92  C   UNL A   1      32.141  26.783  24.765  1.00  0.00     0.039 A 
ATOM     93  C   UNL A   1      32.264  29.599  27.011  1.00  0.00     0.003 A 
ATOM     94  C   UNL A   1      32.704  28.395  24.164  1.00  0.00     0.058 A 
ATOM     95  C   UNL A   1      32.794  29.815  25.298  1.00  0.00     0.013 A 
BRANCH  94  96
ATOM     96  C   UNL A   1      33.459  28.438  22.861  1.00  0.00     0.416 C 
ATOM     97  F   UNL A   1      33.580  27.235  22.253  1.00  0.00    -0.166 F 
ATOM     98  F   UNL A   1      32.875  29.277  21.962  1.00  0.00    -0.166 F 
ATOM     99  F   UNL A   1      34.723  28.920  23.037  1.00  0.00    -0.166 F 
ENDBRANCH  94  96
ENDBRANCH  88  90
ENDBRANCH  82  86
ENDBRANCH  77  80
ENDBRANCH  75  76
ENDBRANCH  74  75
ENDBRANCH   1  74
TORSDOF 16
ENDMDL
MODEL 2
REMARK VINA RESULT:     -14.4      5.505     10.902
REMARK SMILES O=C(NCCCCCCNC(=O)[C@@H]1CCCC[C@@H]1C(=O)Nc1cccc(C(F)(F)F)c1)c1ccc(-c2c3nc(c(-c4c(F)c(F)c(F)c(F)c4F)c4ccc([nH]4)c(-c4c(F)c(F)c(F)c(F)c4F)c4nc(c(-c5c(F)c(F)c(F)c(F)c5F)c5ccc2[nH]5)C=C4)C=C3)cc1
REMARK SMILES IDX 7 1 6 2 5 3 4 4 3 5 1 6 2 7 32 9 33 10 94 11 34 12 93 13
REMARK SMILES IDX 35 14 36 15 37 16 87 17 38 18 92 19 86 20 88 21 39 22 91 23
REMARK SMILES IDX 85 24 84 25 40 27 72 28 52 29 71 30 53 31 56 32 70 33 89 34
REMARK SMILES IDX 54 35 55 36 69 38 90 39 57 40 41 41 42 42 50 43 43 44 44 45
REMARK SMILES IDX 48 46 51 47 45 48 46 49 49 50 47 51 73 52 74 53 82 54 75 55
REMARK SMILES IDX 76 56 80 57 83 58 77 59 78 60 81 61 79 62 58 63 59 64 67 65
REMARK SMILES IDX 60 66 61 67 65 68 68 69 62 70 63 71 66 72 64 73 8 74 9 75
REMARK SMILES IDX 10 76 11 77 12 79 13 80 14 81 18 82 15 83 17 84 16 85 19 86
REMARK SMILES IDX 20 87 21 88 22 90 23 91 31 92 24 93 26 94 25 95 27 96 28 97
REMARK SMILES IDX 29 98 30 99
REMARK H PARENT 3 8 88 26 56 37 10 78 21 89
REMARK Flexibility Score: inf
ROOT
ATOM      1  C   UNL A   1      32.362  28.868  26.814  1.00  0.00     0.002 C 
ENDROOT
BRANCH   1   2
ATOM      2  C   UNL A   1      32.044  30.418  26.151  1.00  0.00     0.002 C 
BRANCH   2   3
ATOM      3  C   UNL A   1      31.714  31.748  26.861  1.00  0.00     0.021 C 
BRANCH   3   4
ATOM      4  C   UNL A   1      32.738  32.804  27.266  1.00  0.00     0.116 C 
BRANCH   4   5
ATOM      5  N   UNL A   1      32.291  34.143  27.592  1.00  0.00    -0.352 N 
ATOM      6  O   UNL A   1      32.480  36.091  28.781  1.00  0.00    -0.269 OA
ATOM      7  C   UNL A   1      32.891  34.965  28.534  1.00  0.00     0.251 C 
ATOM      8  H   UNL A   1      31.505  34.493  27.112  1.00  0.00     0.163 HD
BRANCH   7   9
ATOM      9  C   UNL A   1      34.061  34.424  29.270  1.00  0.00     0.039 A 
ATOM     10  C   UNL A   1      35.348  34.644  28.772  1.00  0.00     0.014 A 
ATOM     11  C   UNL A   1      33.862  33.595  30.377  1.00  0.00     0.014 A 
ATOM     12  C   UNL A   1      36.425  33.942  29.310  1.00  0.00     0.010 A 
ATOM     13  C   UNL A   1      34.956  32.941  30.957  1.00  0.00     0.010 A 
ATOM     14  C   UNL A   1      36.243  33.089  30.414  1.00  0.00    -0.014 A 
BRANCH  14  15
ATOM     15  C   UNL A   1      37.421  32.440  31.048  1.00  0.00     0.031 A 
ATOM     16  C   UNL A   1      38.179  31.333  30.368  1.00  0.00     0.074 A 
ATOM     17  C   UNL A   1      37.796  32.860  32.270  1.00  0.00     0.049 A 
ATOM     18  N   UNL A   1      39.194  30.633  30.813  1.00  0.00    -0.248 NA
ATOM     19  C   UNL A   1      37.740  30.959  29.016  1.00  0.00     0.031 C 
ATOM     20  C   UNL A   1      37.133  33.920  33.030  1.00  0.00     0.029 A 
ATOM     21  N   UNL A   1      38.818  32.454  33.090  1.00  0.00    -0.354 N 
ATOM     22  C   UNL A   1      39.501  29.722  29.810  1.00  0.00     0.074 A 
ATOM     23  C   UNL A   1      38.554  29.949  28.737  1.00  0.00     0.031 C 
ATOM     24  C   UNL A   1      37.780  34.102  34.190  1.00  0.00     0.029 A 
ATOM     25  C   UNL A   1      38.859  33.126  34.286  1.00  0.00     0.049 A 
ATOM     26  H   UNL A   1      39.462  31.749  32.844  1.00  0.00     0.167 HD
ATOM     27  C   UNL A   1      40.484  28.785  29.792  1.00  0.00     0.037 A 
ATOM     28  C   UNL A   1      39.652  32.957  35.359  1.00  0.00     0.037 A 
ATOM     29  C   UNL A   1      41.424  28.572  30.866  1.00  0.00     0.049 A 
ATOM     30  C   UNL A   1      40.705  31.889  35.326  1.00  0.00     0.074 A 
ATOM     31  C   UNL A   1      42.478  27.676  30.928  1.00  0.00     0.029 A 
ATOM     32  N   UNL A   1      41.416  29.256  32.074  1.00  0.00    -0.354 N 
ATOM     33  N   UNL A   1      41.004  31.054  34.361  1.00  0.00    -0.248 NA
ATOM     34  C   UNL A   1      41.526  31.736  36.533  1.00  0.00     0.031 C 
ATOM     35  C   UNL A   1      43.072  27.781  32.190  1.00  0.00     0.029 A 
ATOM     36  C   UNL A   1      42.427  28.782  32.896  1.00  0.00     0.049 A 
ATOM     37  H   UNL A   1      40.784  29.972  32.312  1.00  0.00     0.167 HD
ATOM     38  C   UNL A   1      42.056  30.286  34.836  1.00  0.00     0.074 A 
ATOM     39  C   UNL A   1      42.357  30.770  36.168  1.00  0.00     0.031 C 
ATOM     40  C   UNL A   1      42.710  29.269  34.224  1.00  0.00     0.037 A 
BRANCH  27  41
ATOM     41  C   UNL A   1      40.581  27.894  28.583  1.00  0.00     0.064 A 
ATOM     42  C   UNL A   1      39.888  26.677  28.501  1.00  0.00     0.173 A 
ATOM     43  C   UNL A   1      41.339  28.288  27.469  1.00  0.00     0.173 A 
ATOM     44  F   UNL A   1      39.152  26.247  29.537  1.00  0.00    -0.203 F 
ATOM     45  C   UNL A   1      39.973  25.877  27.362  1.00  0.00     0.198 A 
ATOM     46  C   UNL A   1      41.399  27.500  26.321  1.00  0.00     0.198 A 
ATOM     47  F   UNL A   1      42.014  29.448  27.486  1.00  0.00    -0.203 F 
ATOM     48  F   UNL A   1      39.337  24.697  27.326  1.00  0.00    -0.200 F 
ATOM     49  C   UNL A   1      40.723  26.291  26.272  1.00  0.00     0.200 A 
ATOM     50  F   UNL A   1      42.113  27.910  25.263  1.00  0.00    -0.200 F 
ATOM     51  F   UNL A   1      40.799  25.523  25.177  1.00  0.00    -0.200 F 
ENDBRANCH  27  41
BRANCH  28  52
ATOM     52  C   UNL A   1      39.463  33.823  36.551  1.00  0.00     0.064 A 
ATOM     53  C   UNL A   1      38.687  33.395  37.635  1.00  0.00     0.173 A 
ATOM     54  C   UNL A   1      40.087  35.077  36.645  1.00  0.00     0.173 A 
ATOM     55  F   UNL A   1      38.058  32.213  37.583  1.00  0.00    -0.203 F 
ATOM     56  C   UNL A   1      38.538  34.192  38.769  1.00  0.00     0.198 A 
ATOM     57  C   UNL A   1      39.962  35.858  37.791  1.00  0.00     0.198 A 
ATOM     58  F   UNL A   1      40.848  35.527  35.636  1.00  0.00    -0.203 F 
ATOM     59  F   UNL A   1      37.765  33.772  39.780  1.00  0.00    -0.200 F 
ATOM     60  C   UNL A   1      39.183  35.417  38.850  1.00  0.00     0.200 A 
ATOM     61  F   UNL A   1      40.605  37.031  37.874  1.00  0.00    -0.200 F 
ATOM     62  F   UNL A   1      39.054  36.173  39.948  1.00  0.00    -0.200 F 
ENDBRANCH  28  52
BRANCH  40  63
ATOM     63  C   UNL A   1      43.836  28.631  34.985  1.00  0.00     0.064 A 
ATOM     64  C   UNL A   1      45.155  29.095  34.875  1.00  0.00     0.173 A 
ATOM     65  C   UNL A   1      43.589  27.549  35.845  1.00  0.00     0.173 A 
ATOM     66  F   UNL A   1      45.446  30.113  34.052  1.00  0.00    -0.203 F 
ATOM     67  C   UNL A   1      46.190  28.481  35.577  1.00  0.00     0.198 A 
ATOM     68  C   UNL A   1      44.621  26.958  36.567  1.00  0.00     0.198 A 
ATOM     69  F   UNL A   1      42.344  27.069  35.987  1.00  0.00    -0.203 F 
ATOM     70  F   UNL A   1      47.451  28.906  35.414  1.00  0.00    -0.200 F 
ATOM     71  C   UNL A   1      45.922  27.418  36.425  1.00  0.00     0.200 A 
ATOM     72  F   UNL A   1      44.358  25.938  37.396  1.00  0.00    -0.200 F 
ATOM     73  F   UNL A   1      46.919  26.830  37.101  1.00  0.00    -0.200 F 
ENDBRANCH  40  63
ENDBRANCH  14  15
ENDBRANCH   7   9
ENDBRANCH   4   5
ENDBRANCH   3   4
ENDBRANCH   2   3
ENDBRANCH   1   2
BRANCH   1  74
ATOM     74  C   UNL A   1      31.401  26.921  27.041  1.00  0.00     0.021 C 
BRANCH  74  75
ATOM     75  C   UNL A   1      30.974  25.571  26.143  1.00  0.00     0.116 C 
BRANCH  75  76
ATOM     76  N   UNL A   1      29.746  25.556  25.399  1.00  0.00    -0.356 N 
ATOM     77  C   UNL A   1      29.449  26.218  24.252  1.00  0.00     0.223 C 
ATOM     78  H   UNL A   1      29.027  24.995  25.769  1.00  0.00     0.163 HD
ATOM     79  O   UNL A   1      28.475  25.827  23.609  1.00  0.00    -0.275 OA
BRANCH  77  80
ATOM     80  C   UNL A   1      30.252  27.460  23.887  1.00  0.00     0.091 C 
ATOM     81  C   UNL A   1      29.305  28.397  23.105  1.00  0.00     0.014 C 
ATOM     82  C   UNL A   1      31.622  27.270  23.185  1.00  0.00     0.091 C 
ATOM     83  C   UNL A   1      29.914  29.771  22.909  1.00  0.00     0.001 C 
ATOM     84  C   UNL A   1      32.188  28.656  22.762  1.00  0.00     0.014 C 
ATOM     85  C   UNL A   1      31.211  29.650  22.130  1.00  0.00     0.001 C 
BRANCH  82  86
ATOM     86  C   UNL A   1      31.629  26.199  22.084  1.00  0.00     0.228 C 
ATOM     87  O   UNL A   1      31.079  26.436  21.002  1.00  0.00    -0.274 OA
ATOM     88  N   UNL A   1      32.173  24.940  22.242  1.00  0.00    -0.326 N 
ATOM     89  H   UNL A   1      31.935  24.330  21.506  1.00  0.00     0.169 HD
BRANCH  88  90
ATOM     90  C   UNL A   1      32.996  24.322  23.217  1.00  0.00     0.041 A 
ATOM     91  C   UNL A   1      34.097  25.263  24.278  1.00  0.00     0.026 A 
ATOM     92  C   UNL A   1      33.014  22.527  23.292  1.00  0.00     0.039 A 
ATOM     93  C   UNL A   1      35.253  24.408  25.398  1.00  0.00     0.003 A 
ATOM     94  C   UNL A   1      34.119  21.663  24.436  1.00  0.00     0.058 A 
ATOM     95  C   UNL A   1      35.233  22.606  25.521  1.00  0.00     0.013 A 
BRANCH  94  96
ATOM     96  C   UNL A   1      33.817  20.221  24.756  1.00  0.00     0.416 C 
ATOM     97  F   UNL A   1      33.301  20.027  25.992  1.00  0.00    -0.166 F 
ATOM     98  F   UNL A   1      32.937  19.677  23.872  1.00  0.00    -0.166 F 
ATOM     99  F   UNL A   1      34.939  19.450  24.671  1.00  0.00    -0.166 F 
ENDBRANCH  94  96
ENDBRANCH  88  90
ENDBRANCH  82  86
ENDBRANCH  77  80
ENDBRANCH  75  76
ENDBRANCH  74  75
ENDBRANCH   1  74
TORSDOF 16
ENDMDL
MODEL 3
REMARK VINA RESULT:     -14.4      0.588      2.041
REMARK SMILES O=C(NCCCCCCNC(=O)[C@@H]1CCCC[C@@H]1C(=O)Nc1cccc(C(F)(F)F)c1)c1ccc(-c2c3nc(c(-c4c(F)c(F)c(F)c(F)c4F)c4ccc([nH]4)c(-c4c(F)c(F)c(F)c(F)c4F)c4nc(c(-c5c(F)c(F)c(F)c(F)c5F)c5ccc2[nH]5)C=C4)C=C3)cc1
REMARK SMILES IDX 7 1 6 2 5 3 4 4 3 5 1 6 2 7 32 9 33 10 94 11 34 12 93 13
REMARK SMILES IDX 35 14 36 15 37 16 87 17 38 18 92 19 86 20 88 21 39 22 91 23
REMARK SMILES IDX 85 24 84 25 40 27 72 28 52 29 71 30 53 31 56 32 70 33 89 34
REMARK SMILES IDX 54 35 55 36 69 38 90 39 57 40 41 41 42 42 50 43 43 44 44 45
REMARK SMILES IDX 48 46 51 47 45 48 46 49 49 50 47 51 73 52 74 53 82 54 75 55
REMARK SMILES IDX 76 56 80 57 83 58 77 59 78 60 81 61 79 62 58 63 59 64 67 65
REMARK SMILES IDX 60 66 61 67 65 68 68 69 62 70 63 71 66 72 64 73 8 74 9 75
REMARK SMILES IDX 10 76 11 77 12 79 13 80 14 81 18 82 15 83 17 84 16 85 19 86
REMARK SMILES IDX 20 87 21 88 22 90 23 91 31 92 24 93 26 94 25 95 27 96 28 97
REMARK SMILES IDX 29 98 30 99
REMARK H PARENT 3 8 88 26 56 37 10 78 21 89
REMARK Flexibility Score: inf
ROOT
ATOM      1  C   UNL A   1      36.482  22.847  24.186  1.00  0.00     0.002 C 
ENDROOT
BRANCH   1   2
ATOM      2  C   UNL A   1      36.888  21.454  25.102  1.00  0.00     0.002 C 
BRANCH   2   3
ATOM      3  C   UNL A   1      38.089  20.495  24.963  1.00  0.00     0.021 C 
BRANCH   3   4
ATOM      4  C   UNL A   1      39.244  20.387  25.953  1.00  0.00     0.116 C 
BRANCH   4   5
ATOM      5  N   UNL A   1      40.153  19.261  25.869  1.00  0.00    -0.352 N 
ATOM      6  O   UNL A   1      42.255  18.363  25.994  1.00  0.00    -0.269 OA
ATOM      7  C   UNL A   1      41.522  19.339  26.078  1.00  0.00     0.251 C 
ATOM      8  H   UNL A   1      39.771  18.381  25.647  1.00  0.00     0.163 HD
BRANCH   7   9
ATOM      9  C   UNL A   1      42.093  20.673  26.390  1.00  0.00     0.039 A 
ATOM     10  C   UNL A   1      42.277  21.046  27.724  1.00  0.00     0.014 A 
ATOM     11  C   UNL A   1      42.323  21.589  25.361  1.00  0.00     0.014 A 
ATOM     12  C   UNL A   1      42.577  22.371  28.035  1.00  0.00     0.010 A 
ATOM     13  C   UNL A   1      42.687  22.904  25.673  1.00  0.00     0.010 A 
ATOM     14  C   UNL A   1      42.794  23.313  27.013  1.00  0.00    -0.014 A 
BRANCH  14  15
ATOM     15  C   UNL A   1      43.228  24.693  27.360  1.00  0.00     0.031 A 
ATOM     16  C   UNL A   1      42.283  25.694  27.965  1.00  0.00     0.074 A 
ATOM     17  C   UNL A   1      44.504  25.040  27.105  1.00  0.00     0.049 A 
ATOM     18  N   UNL A   1      42.497  26.949  28.275  1.00  0.00    -0.248 NA
ATOM     19  C   UNL A   1      40.920  25.229  28.257  1.00  0.00     0.031 C 
ATOM     20  C   UNL A   1      45.509  24.156  26.513  1.00  0.00     0.029 A 
ATOM     21  N   UNL A   1      45.175  26.218  27.307  1.00  0.00    -0.354 N 
ATOM     22  C   UNL A   1      41.294  27.432  28.776  1.00  0.00     0.074 A 
ATOM     23  C   UNL A   1      40.349  26.335  28.715  1.00  0.00     0.031 C 
ATOM     24  C   UNL A   1      46.675  24.811  26.426  1.00  0.00     0.029 A 
ATOM     25  C   UNL A   1      46.483  26.180  26.890  1.00  0.00     0.049 A 
ATOM     26  H   UNL A   1      44.761  27.015  27.712  1.00  0.00     0.167 HD
ATOM     27  C   UNL A   1      41.012  28.675  29.242  1.00  0.00     0.037 A 
ATOM     28  C   UNL A   1      47.419  27.145  26.852  1.00  0.00     0.037 A 
ATOM     29  C   UNL A   1      41.965  29.757  29.301  1.00  0.00     0.049 A 
ATOM     30  C   UNL A   1      47.067  28.520  27.338  1.00  0.00     0.074 A 
ATOM     31  C   UNL A   1      41.787  31.040  29.791  1.00  0.00     0.029 A 
ATOM     32  N   UNL A   1      43.274  29.687  28.845  1.00  0.00    -0.354 N 
ATOM     33  N   UNL A   1      45.936  28.956  27.835  1.00  0.00    -0.248 NA
ATOM     34  C   UNL A   1      48.121  29.538  27.252  1.00  0.00     0.031 C 
ATOM     35  C   UNL A   1      42.970  31.759  29.583  1.00  0.00     0.029 A 
ATOM     36  C   UNL A   1      43.905  30.910  29.015  1.00  0.00     0.049 A 
ATOM     37  H   UNL A   1      43.693  28.885  28.456  1.00  0.00     0.167 HD
ATOM     38  C   UNL A   1      46.143  30.294  28.136  1.00  0.00     0.074 A 
ATOM     39  C   UNL A   1      47.517  30.591  27.784  1.00  0.00     0.031 C 
ATOM     40  C   UNL A   1      45.272  31.194  28.653  1.00  0.00     0.037 A 
BRANCH  27  41
ATOM     41  C   UNL A   1      39.606  28.949  29.701  1.00  0.00     0.064 A 
ATOM     42  C   UNL A   1      39.199  28.717  31.023  1.00  0.00     0.173 A 
ATOM     43  C   UNL A   1      38.665  29.502  28.817  1.00  0.00     0.173 A 
ATOM     44  F   UNL A   1      40.054  28.187  31.911  1.00  0.00    -0.203 F 
ATOM     45  C   UNL A   1      37.897  29.000  31.435  1.00  0.00     0.198 A 
ATOM     46  C   UNL A   1      37.373  29.810  29.239  1.00  0.00     0.198 A 
ATOM     47  F   UNL A   1      39.001  29.756  27.543  1.00  0.00    -0.203 F 
ATOM     48  F   UNL A   1      37.520  28.727  32.693  1.00  0.00    -0.200 F 
ATOM     49  C   UNL A   1      36.987  29.551  30.546  1.00  0.00     0.200 A 
ATOM     50  F   UNL A   1      36.500  30.357  28.381  1.00  0.00    -0.200 F 
ATOM     51  F   UNL A   1      35.739  29.828  30.945  1.00  0.00    -0.200 F 
ENDBRANCH  27  41
BRANCH  28  52
ATOM     52  C   UNL A   1      48.770  26.831  26.323  1.00  0.00     0.064 A 
ATOM     53  C   UNL A   1      49.756  26.279  27.151  1.00  0.00     0.173 A 
ATOM     54  C   UNL A   1      49.089  27.038  24.973  1.00  0.00     0.173 A 
ATOM     55  F   UNL A   1      49.502  26.079  28.453  1.00  0.00    -0.203 F 
ATOM     56  C   UNL A   1      51.013  25.950  26.649  1.00  0.00     0.198 A 
ATOM     57  C   UNL A   1      50.336  26.680  24.465  1.00  0.00     0.198 A 
ATOM     58  F   UNL A   1      48.176  27.557  24.138  1.00  0.00    -0.203 F 
ATOM     59  F   UNL A   1      51.948  25.451  27.468  1.00  0.00    -0.200 F 
ATOM     60  C   UNL A   1      51.299  26.142  25.305  1.00  0.00     0.200 A 
ATOM     61  F   UNL A   1      50.599  26.848  23.162  1.00  0.00    -0.200 F 
ATOM     62  F   UNL A   1      52.501  25.808  24.819  1.00  0.00    -0.200 F 
ENDBRANCH  28  52
BRANCH  40  63
ATOM     63  C   UNL A   1      45.792  32.582  28.893  1.00  0.00     0.064 A 
ATOM     64  C   UNL A   1      46.426  32.933  30.094  1.00  0.00     0.173 A 
ATOM     65  C   UNL A   1      45.666  33.568  27.902  1.00  0.00     0.173 A 
ATOM     66  F   UNL A   1      46.553  32.031  31.079  1.00  0.00    -0.203 F 
ATOM     67  C   UNL A   1      46.889  34.229  30.306  1.00  0.00     0.198 A 
ATOM     68  C   UNL A   1      46.158  34.854  28.107  1.00  0.00     0.198 A 
ATOM     69  F   UNL A   1      45.070  33.283  26.735  1.00  0.00    -0.203 F 
ATOM     70  F   UNL A   1      47.442  34.557  31.483  1.00  0.00    -0.200 F 
ATOM     71  C   UNL A   1      46.760  35.186  29.311  1.00  0.00     0.200 A 
ATOM     72  F   UNL A   1      46.042  35.776  27.140  1.00  0.00    -0.200 F 
ATOM     73  F   UNL A   1      47.208  36.433  29.516  1.00  0.00    -0.200 F 
ENDBRANCH  40  63
ENDBRANCH  14  15
ENDBRANCH   7   9
ENDBRANCH   4   5
ENDBRANCH   3   4
ENDBRANCH   2   3
ENDBRANCH   1   2
BRANCH   1  74
ATOM     74  C   UNL A   1      34.782  23.707  23.120  1.00  0.00     0.021 C 
BRANCH  74  75
ATOM     75  C   UNL A   1      33.520  23.257  22.112  1.00  0.00     0.116 C 
BRANCH  75  76
ATOM     76  N   UNL A   1      32.174  23.226  22.610  1.00  0.00    -0.356 N 
ATOM     77  C   UNL A   1      31.751  23.314  23.896  1.00  0.00     0.223 C 
ATOM     78  H   UNL A   1      31.467  23.126  21.932  1.00  0.00     0.163 HD
ATOM     79  O   UNL A   1      30.566  23.589  24.085  1.00  0.00    -0.275 OA
BRANCH  77  80
ATOM     80  C   UNL A   1      32.718  22.959  25.018  1.00  0.00     0.091 C 
ATOM     81  C   UNL A   1      32.620  21.433  25.236  1.00  0.00     0.014 C 
ATOM     82  C   UNL A   1      32.633  23.762  26.344  1.00  0.00     0.091 C 
ATOM     83  C   UNL A   1      33.717  20.927  26.150  1.00  0.00     0.001 C 
ATOM     84  C   UNL A   1      33.591  23.133  27.396  1.00  0.00     0.014 C 
ATOM     85  C   UNL A   1      33.611  21.607  27.503  1.00  0.00     0.001 C 
BRANCH  82  86
ATOM     86  C   UNL A   1      31.201  24.022  26.837  1.00  0.00     0.228 C 
ATOM     87  O   UNL A   1      30.560  23.101  27.357  1.00  0.00    -0.274 OA
ATOM     88  N   UNL A   1      30.547  25.229  26.688  1.00  0.00    -0.326 N 
ATOM     89  H   UNL A   1      29.587  25.166  26.900  1.00  0.00     0.169 HD
BRANCH  88  90
ATOM     90  C   UNL A   1      30.936  26.536  26.304  1.00  0.00     0.041 A 
ATOM     91  C   UNL A   1      31.641  27.707  27.468  1.00  0.00     0.026 A 
ATOM     92  C   UNL A   1      30.589  27.060  24.621  1.00  0.00     0.039 A 
ATOM     93  C   UNL A   1      31.970  29.427  26.961  1.00  0.00     0.003 A 
ATOM     94  C   UNL A   1      30.957  28.750  24.087  1.00  0.00     0.058 A 
ATOM     95  C   UNL A   1      31.679  29.943  25.255  1.00  0.00     0.013 A 
BRANCH  94  96
ATOM     96  C   UNL A   1      31.037  29.021  22.606  1.00  0.00     0.416 C 
ATOM     97  F   UNL A   1      32.290  29.267  22.157  1.00  0.00    -0.166 F 
ATOM     98  F   UNL A   1      30.552  27.983  21.872  1.00  0.00    -0.166 F 
ATOM     99  F   UNL A   1      30.275  30.097  22.258  1.00  0.00    -0.166 F 
ENDBRANCH  94  96
ENDBRANCH  88  90
ENDBRANCH  82  86
ENDBRANCH  77  80
ENDBRANCH  75  76
ENDBRANCH  74  75
ENDBRANCH   1  74
TORSDOF 16
ENDMDL
