MODEL 1
REMARK VINA RESULT:     -12.8      0.000      0.000
REMARK SMILES Cc1c(CC(=O)NCCCCCCNC(=O)c2ccc(-c3c4nc(c(-c5c(F)c(F)c(F)c(F)c5F)c5ccc([nH]5)c(-c5c(F)c(F)c(F)c(F)c5F)c5nc(c(-c6c(F)c(F)c(F)c(F)c6F)c6ccc3[nH]6)C=C5)C=C4)cc2)c(O)oc2cc(=O)cc(O)c1-2
REMARK SMILES IDX 10 1 9 2 8 3 7 4 5 5 6 6 4 8 3 9 1 10 2 11 90 12 80 13 83 14
REMARK SMILES IDX 88 15 82 16 84 17 87 18 85 19 86 20 81 21 89 23 11 25 12 26
REMARK SMILES IDX 13 27 14 28 15 29 16 31 17 32 18 33 79 34 19 35 78 36 20 37
REMARK SMILES IDX 21 38 22 39 72 40 23 41 77 42 71 43 73 44 24 45 76 46 70 47
REMARK SMILES IDX 69 48 25 50 57 51 37 52 56 53 38 54 41 55 55 56 74 57 39 58
REMARK SMILES IDX 40 59 54 61 75 62 42 63 26 64 27 65 35 66 28 67 29 68 33 69
REMARK SMILES IDX 36 70 30 71 31 72 34 73 32 74 58 75 59 76 67 77 60 78 61 79
REMARK SMILES IDX 65 80 68 81 62 82 63 83 66 84 64 85 43 86 44 87 52 88 45 89
REMARK SMILES IDX 46 90 50 91 53 92 47 93 48 94 51 95 49 96
REMARK H PARENT 7 7 81 22 89 24 14 30 73 49 41 60
REMARK Flexibility Score: inf
ROOT
ATOM      1  C   UNL A   1      32.386  29.872  26.870  1.00  0.00     0.002 C 
ENDROOT
BRANCH   1   2
ATOM      2  C   UNL A   1      31.778  28.553  27.367  1.00  0.00     0.021 C 
BRANCH   2   3
ATOM      3  C   UNL A   1      31.970  27.391  26.393  1.00  0.00     0.116 C 
BRANCH   3   4
ATOM      4  N   UNL A   1      31.104  26.283  26.735  1.00  0.00    -0.356 N 
ATOM      5  C   UNL A   1      31.316  24.946  26.585  1.00  0.00     0.224 C 
ATOM      6  O   UNL A   1      30.400  24.174  26.873  1.00  0.00    -0.275 OA
ATOM      7  H   UNL A   1      30.239  26.530  27.135  1.00  0.00     0.163 HD
BRANCH   5   8
ATOM      8  C   UNL A   1      32.687  24.425  26.155  1.00  0.00     0.143 C 
BRANCH   8   9
ATOM      9  C   UNL A   1      32.685  23.228  25.215  1.00  0.00     0.046 A 
ATOM     10  C   UNL A   1      33.381  21.751  27.184  1.00  0.00     0.046 C 
ATOM     11  C   UNL A   1      32.914  21.857  25.747  1.00  0.00    -0.026 A 
ATOM     12  C   UNL A   1      32.727  20.772  24.941  1.00  0.00     0.063 A 
ATOM     13  C   UNL A   1      32.444  23.373  23.890  1.00  0.00     0.286 A 
ATOM     14  C   UNL A   1      32.411  21.003  23.518  1.00  0.00     0.146 A 
ATOM     15  C   UNL A   1      32.823  19.358  25.373  1.00  0.00     0.130 A 
ATOM     16  O   UNL A   1      32.314  22.296  23.046  1.00  0.00    -0.425 OA
ATOM     17  C   UNL A   1      32.255  19.999  22.649  1.00  0.00     0.100 A 
ATOM     18  C   UNL A   1      32.679  18.347  24.505  1.00  0.00     0.099 A 
ATOM     19  C   UNL A   1      32.390  18.600  23.081  1.00  0.00     0.186 A 
ATOM     20  O   UNL A   1      32.253  17.674  22.292  1.00  0.00    -0.290 OA
BRANCH  13  21
ATOM     21  O   UNL A   1      32.258  24.596  23.281  1.00  0.00    -0.480 OA
ATOM     22  H   UNL A   1      32.812  25.319  23.502  1.00  0.00     0.297 HD
ENDBRANCH  13  21
BRANCH  15  23
ATOM     23  O   UNL A   1      33.013  19.104  26.715  1.00  0.00    -0.507 OA
ATOM     24  H   UNL A   1      32.351  18.655  27.204  1.00  0.00     0.293 HD
ENDBRANCH  15  23
ENDBRANCH   8   9
ENDBRANCH   5   8
ENDBRANCH   3   4
ENDBRANCH   2   3
ENDBRANCH   1   2
BRANCH   1  25
ATOM     25  C   UNL A   1      31.435  30.749  26.048  1.00  0.00     0.002 C 
BRANCH  25  26
ATOM     26  C   UNL A   1      31.284  32.183  26.560  1.00  0.00     0.021 C 
BRANCH  26  27
ATOM     27  C   UNL A   1      32.562  32.766  27.153  1.00  0.00     0.116 C 
BRANCH  27  28
ATOM     28  N   UNL A   1      32.376  34.144  27.583  1.00  0.00    -0.352 N 
ATOM     29  C   UNL A   1      33.004  34.826  28.594  1.00  0.00     0.251 C 
ATOM     30  H   UNL A   1      31.706  34.659  27.078  1.00  0.00     0.163 HD
ATOM     31  O   UNL A   1      32.579  35.916  28.970  1.00  0.00    -0.269 OA
BRANCH  29  32
ATOM     32  C   UNL A   1      34.190  34.234  29.242  1.00  0.00     0.039 A 
ATOM     33  C   UNL A   1      34.016  33.438  30.375  1.00  0.00     0.014 A 
ATOM     34  C   UNL A   1      35.468  34.461  28.724  1.00  0.00     0.014 A 
ATOM     35  C   UNL A   1      35.123  32.821  30.958  1.00  0.00     0.010 A 
ATOM     36  C   UNL A   1      36.559  33.782  29.258  1.00  0.00     0.010 A 
ATOM     37  C   UNL A   1      36.398  32.964  30.385  1.00  0.00    -0.014 A 
BRANCH  37  38
ATOM     38  C   UNL A   1      37.577  32.278  30.968  1.00  0.00     0.031 A 
ATOM     39  C   UNL A   1      38.071  32.665  32.333  1.00  0.00     0.074 A 
ATOM     40  C   UNL A   1      38.220  31.334  30.254  1.00  0.00     0.049 A 
ATOM     41  N   UNL A   1      39.097  32.203  33.002  1.00  0.00    -0.248 NA
ATOM     42  C   UNL A   1      37.328  33.724  33.033  1.00  0.00     0.031 C 
ATOM     43  C   UNL A   1      37.853  30.900  28.905  1.00  0.00     0.029 A 
ATOM     44  N   UNL A   1      39.316  30.567  30.563  1.00  0.00    -0.354 N 
ATOM     45  C   UNL A   1      39.119  32.913  34.193  1.00  0.00     0.074 A 
ATOM     46  C   UNL A   1      38.048  33.882  34.134  1.00  0.00     0.031 C 
ATOM     47  C   UNL A   1      38.684  29.920  28.518  1.00  0.00     0.029 A 
ATOM     48  C   UNL A   1      39.668  29.684  29.572  1.00  0.00     0.049 A 
ATOM     49  H   UNL A   1      39.804  30.643  31.415  1.00  0.00     0.167 HD
ATOM     50  C   UNL A   1      39.939  32.747  35.257  1.00  0.00     0.037 A 
ATOM     51  C   UNL A   1      40.670  28.785  29.520  1.00  0.00     0.037 A 
ATOM     52  C   UNL A   1      40.991  31.768  35.321  1.00  0.00     0.049 A 
ATOM     53  C   UNL A   1      41.594  28.650  30.701  1.00  0.00     0.074 A 
ATOM     54  C   UNL A   1      41.849  31.494  36.370  1.00  0.00     0.029 A 
ATOM     55  N   UNL A   1      41.330  30.905  34.288  1.00  0.00    -0.354 N 
ATOM     56  N   UNL A   1      41.567  29.284  31.848  1.00  0.00    -0.248 NA
ATOM     57  C   UNL A   1      42.685  27.673  30.582  1.00  0.00     0.031 C 
ATOM     58  C   UNL A   1      42.742  30.503  35.955  1.00  0.00     0.029 A 
ATOM     59  C   UNL A   1      42.405  30.117  34.667  1.00  0.00     0.049 A 
ATOM     60  H   UNL A   1      40.875  30.860  33.416  1.00  0.00     0.167 HD
ATOM     61  C   UNL A   1      42.617  28.769  32.595  1.00  0.00     0.074 A 
ATOM     62  C   UNL A   1      43.253  27.756  31.777  1.00  0.00     0.031 C 
ATOM     63  C   UNL A   1      43.022  29.107  33.844  1.00  0.00     0.037 A 
BRANCH  50  64
ATOM     64  C   UNL A   1      39.721  33.628  36.454  1.00  0.00     0.064 A 
ATOM     65  C   UNL A   1      40.321  34.893  36.549  1.00  0.00     0.173 A 
ATOM     66  C   UNL A   1      38.853  33.234  37.483  1.00  0.00     0.173 A 
ATOM     67  F   UNL A   1      41.168  35.312  35.597  1.00  0.00    -0.203 F 
ATOM     68  C   UNL A   1      40.073  35.723  37.639  1.00  0.00     0.198 A 
ATOM     69  C   UNL A   1      38.583  34.081  38.555  1.00  0.00     0.198 A 
ATOM     70  F   UNL A   1      38.250  32.037  37.438  1.00  0.00    -0.203 F 
ATOM     71  F   UNL A   1      40.687  36.912  37.725  1.00  0.00    -0.200 F 
ATOM     72  C   UNL A   1      39.197  35.322  38.634  1.00  0.00     0.200 A 
ATOM     73  F   UNL A   1      37.723  33.698  39.509  1.00  0.00    -0.200 F 
ATOM     74  F   UNL A   1      38.944  36.131  39.673  1.00  0.00    -0.200 F 
ENDBRANCH  50  64
BRANCH  51  75
ATOM     75  C   UNL A   1      40.826  27.922  28.321  1.00  0.00     0.064 A 
ATOM     76  C   UNL A   1      41.591  28.347  27.225  1.00  0.00     0.173 A 
ATOM     77  C   UNL A   1      40.237  26.651  28.249  1.00  0.00     0.173 A 
ATOM     78  F   UNL A   1      42.159  29.562  27.237  1.00  0.00    -0.203 F 
ATOM     79  C   UNL A   1      41.753  27.540  26.101  1.00  0.00     0.198 A 
ATOM     80  C   UNL A   1      40.422  25.832  27.136  1.00  0.00     0.198 A 
ATOM     81  F   UNL A   1      39.498  26.194  29.270  1.00  0.00    -0.203 F 
ATOM     82  F   UNL A   1      42.458  27.986  25.054  1.00  0.00    -0.200 F 
ATOM     83  C   UNL A   1      41.174  26.280  26.061  1.00  0.00     0.200 A 
ATOM     84  F   UNL A   1      39.876  24.609  27.109  1.00  0.00    -0.200 F 
ATOM     85  F   UNL A   1      41.341  25.498  24.985  1.00  0.00    -0.200 F 
ENDBRANCH  51  75
BRANCH  63  86
ATOM     86  C   UNL A   1      44.197  28.373  34.422  1.00  0.00     0.064 A 
ATOM     87  C   UNL A   1      45.498  28.889  34.334  1.00  0.00     0.173 A 
ATOM     88  C   UNL A   1      44.007  27.187  35.149  1.00  0.00     0.173 A 
ATOM     89  F   UNL A   1      45.733  30.012  33.641  1.00  0.00    -0.203 F 
ATOM     90  C   UNL A   1      46.567  28.238  34.943  1.00  0.00     0.198 A 
ATOM     91  C   UNL A   1      45.073  26.557  35.784  1.00  0.00     0.198 A 
ATOM     92  F   UNL A   1      42.780  26.657  35.271  1.00  0.00    -0.203 F 
ATOM     93  F   UNL A   1      47.807  28.730  34.819  1.00  0.00    -0.200 F 
ATOM     94  C   UNL A   1      46.352  27.080  35.677  1.00  0.00     0.200 A 
ATOM     95  F   UNL A   1      44.861  25.450  36.508  1.00  0.00    -0.200 F 
ATOM     96  F   UNL A   1      47.380  26.469  36.282  1.00  0.00    -0.200 F 
ENDBRANCH  63  86
ENDBRANCH  37  38
ENDBRANCH  29  32
ENDBRANCH  27  28
ENDBRANCH  26  27
ENDBRANCH  25  26
ENDBRANCH   1  25
TORSDOF 16
ENDMDL
MODEL 2
REMARK VINA RESULT:     -12.8      0.351      7.194
REMARK SMILES Cc1c(CC(=O)NCCCCCCNC(=O)c2ccc(-c3c4nc(c(-c5c(F)c(F)c(F)c(F)c5F)c5ccc([nH]5)c(-c5c(F)c(F)c(F)c(F)c5F)c5nc(c(-c6c(F)c(F)c(F)c(F)c6F)c6ccc3[nH]6)C=C5)C=C4)cc2)c(O)oc2cc(=O)cc(O)c1-2
REMARK SMILES IDX 10 1 9 2 8 3 7 4 5 5 6 6 4 8 3 9 1 10 2 11 90 12 80 13 83 14
REMARK SMILES IDX 88 15 82 16 84 17 87 18 85 19 86 20 81 21 89 23 11 25 12 26
REMARK SMILES IDX 13 27 14 28 15 29 16 31 17 32 18 33 79 34 19 35 78 36 20 37
REMARK SMILES IDX 21 38 22 39 72 40 23 41 77 42 71 43 73 44 24 45 76 46 70 47
REMARK SMILES IDX 69 48 25 50 57 51 37 52 56 53 38 54 41 55 55 56 74 57 39 58
REMARK SMILES IDX 40 59 54 61 75 62 42 63 26 64 27 65 35 66 28 67 29 68 33 69
REMARK SMILES IDX 36 70 30 71 31 72 34 73 32 74 58 75 59 76 67 77 60 78 61 79
REMARK SMILES IDX 65 80 68 81 62 82 63 83 66 84 64 85 43 86 44 87 52 88 45 89
REMARK SMILES IDX 46 90 50 91 53 92 47 93 48 94 51 95 49 96
REMARK H PARENT 7 7 81 22 89 24 14 30 73 49 41 60
REMARK Flexibility Score: inf
ROOT
ATOM      1  C   UNL A   1      32.490  29.613  26.794  1.00  0.00     0.002 C 
ENDROOT
BRANCH   1   2
ATOM      2  C   UNL A   1      31.867  28.321  27.341  1.00  0.00     0.021 C 
BRANCH   2   3
ATOM      3  C   UNL A   1      31.932  27.153  26.359  1.00  0.00     0.116 C 
BRANCH   3   4
ATOM      4  N   UNL A   1      31.184  26.018  26.857  1.00  0.00    -0.356 N 
ATOM      5  C   UNL A   1      31.469  24.690  26.761  1.00  0.00     0.224 C 
ATOM      6  O   UNL A   1      30.642  23.884  27.193  1.00  0.00    -0.275 OA
ATOM      7  H   UNL A   1      30.351  26.237  27.333  1.00  0.00     0.163 HD
BRANCH   5   8
ATOM      8  C   UNL A   1      32.819  24.226  26.215  1.00  0.00     0.143 C 
BRANCH   8   9
ATOM      9  C   UNL A   1      32.783  23.053  25.246  1.00  0.00     0.046 A 
ATOM     10  C   UNL A   1      33.450  21.511  27.175  1.00  0.00     0.046 C 
ATOM     11  C   UNL A   1      32.980  21.665  25.743  1.00  0.00    -0.026 A 
ATOM     12  C   UNL A   1      32.764  20.605  24.911  1.00  0.00     0.063 A 
ATOM     13  C   UNL A   1      32.541  23.237  23.927  1.00  0.00     0.286 A 
ATOM     14  C   UNL A   1      32.448  20.879  23.496  1.00  0.00     0.146 A 
ATOM     15  C   UNL A   1      32.826  19.179  25.308  1.00  0.00     0.130 A 
ATOM     16  O   UNL A   1      32.382  22.185  23.057  1.00  0.00    -0.425 OA
ATOM     17  C   UNL A   1      32.264  19.901  22.603  1.00  0.00     0.100 A 
ATOM     18  C   UNL A   1      32.652  18.193  24.416  1.00  0.00     0.099 A 
ATOM     19  C   UNL A   1      32.365  18.489  23.000  1.00  0.00     0.186 A 
ATOM     20  O   UNL A   1      32.203  17.587  22.188  1.00  0.00    -0.290 OA
BRANCH  13  21
ATOM     21  O   UNL A   1      32.385  24.480  23.349  1.00  0.00    -0.480 OA
ATOM     22  H   UNL A   1      32.671  24.627  22.469  1.00  0.00     0.297 HD
ENDBRANCH  13  21
BRANCH  15  23
ATOM     23  O   UNL A   1      33.013  18.886  26.642  1.00  0.00    -0.507 OA
ATOM     24  H   UNL A   1      33.194  19.575  27.252  1.00  0.00     0.293 HD
ENDBRANCH  15  23
ENDBRANCH   8   9
ENDBRANCH   5   8
ENDBRANCH   3   4
ENDBRANCH   2   3
ENDBRANCH   1   2
BRANCH   1  25
ATOM     25  C   UNL A   1      31.532  30.501  25.991  1.00  0.00     0.002 C 
BRANCH  25  26
ATOM     26  C   UNL A   1      31.377  31.925  26.530  1.00  0.00     0.021 C 
BRANCH  26  27
ATOM     27  C   UNL A   1      32.624  32.465  27.220  1.00  0.00     0.116 C 
BRANCH  27  28
ATOM     28  N   UNL A   1      32.497  33.881  27.531  1.00  0.00    -0.352 N 
ATOM     29  C   UNL A   1      33.134  34.613  28.500  1.00  0.00     0.251 C 
ATOM     30  H   UNL A   1      31.867  34.384  26.967  1.00  0.00     0.163 HD
ATOM     31  O   UNL A   1      32.755  35.749  28.774  1.00  0.00    -0.269 OA
BRANCH  29  32
ATOM     32  C   UNL A   1      34.272  34.020  29.228  1.00  0.00     0.039 A 
ATOM     33  C   UNL A   1      34.033  32.988  30.136  1.00  0.00     0.014 A 
ATOM     34  C   UNL A   1      35.573  34.481  29.005  1.00  0.00     0.014 A 
ATOM     35  C   UNL A   1      35.108  32.378  30.781  1.00  0.00     0.010 A 
ATOM     36  C   UNL A   1      36.649  33.818  29.587  1.00  0.00     0.010 A 
ATOM     37  C   UNL A   1      36.426  32.768  30.489  1.00  0.00    -0.014 A 
BRANCH  37  38
ATOM     38  C   UNL A   1      37.580  32.098  31.134  1.00  0.00     0.031 A 
ATOM     39  C   UNL A   1      38.336  31.028  30.397  1.00  0.00     0.074 A 
ATOM     40  C   UNL A   1      37.925  32.428  32.394  1.00  0.00     0.049 A 
ATOM     41  N   UNL A   1      39.354  30.310  30.799  1.00  0.00    -0.248 NA
ATOM     42  C   UNL A   1      37.877  30.709  29.036  1.00  0.00     0.031 C 
ATOM     43  C   UNL A   1      37.244  33.426  33.220  1.00  0.00     0.029 A 
ATOM     44  N   UNL A   1      38.935  31.963  33.199  1.00  0.00    -0.354 N 
ATOM     45  C   UNL A   1      39.653  29.460  29.744  1.00  0.00     0.074 A 
ATOM     46  C   UNL A   1      38.672  29.701  28.709  1.00  0.00     0.031 C 
ATOM     47  C   UNL A   1      37.877  33.525  34.400  1.00  0.00     0.029 A 
ATOM     48  C   UNL A   1      38.982  32.570  34.430  1.00  0.00     0.049 A 
ATOM     49  H   UNL A   1      39.566  31.261  32.920  1.00  0.00     0.167 HD
ATOM     50  C   UNL A   1      40.675  28.581  29.635  1.00  0.00     0.037 A 
ATOM     51  C   UNL A   1      39.822  32.377  35.466  1.00  0.00     0.037 A 
ATOM     52  C   UNL A   1      41.661  28.357  30.659  1.00  0.00     0.049 A 
ATOM     53  C   UNL A   1      40.926  31.363  35.334  1.00  0.00     0.074 A 
ATOM     54  C   UNL A   1      42.759  27.518  30.628  1.00  0.00     0.029 A 
ATOM     55  N   UNL A   1      41.662  28.976  31.901  1.00  0.00    -0.354 N 
ATOM     56  N   UNL A   1      41.237  30.609  34.308  1.00  0.00    -0.248 NA
ATOM     57  C   UNL A   1      41.799  31.175  36.502  1.00  0.00     0.031 C 
ATOM     58  C   UNL A   1      43.396  27.588  31.869  1.00  0.00     0.029 A 
ATOM     59  C   UNL A   1      42.730  28.514  32.655  1.00  0.00     0.049 A 
ATOM     60  H   UNL A   1      41.005  29.644  32.201  1.00  0.00     0.167 HD
ATOM     61  C   UNL A   1      42.351  29.875  34.695  1.00  0.00     0.074 A 
ATOM     62  C   UNL A   1      42.673  30.289  36.045  1.00  0.00     0.031 C 
ATOM     63  C   UNL A   1      43.041  28.941  33.996  1.00  0.00     0.037 A 
BRANCH  50  64
ATOM     64  C   UNL A   1      40.799  27.805  28.355  1.00  0.00     0.064 A 
ATOM     65  C   UNL A   1      41.555  28.289  27.276  1.00  0.00     0.173 A 
ATOM     66  C   UNL A   1      40.213  26.537  28.229  1.00  0.00     0.173 A 
ATOM     67  F   UNL A   1      42.126  29.501  27.342  1.00  0.00    -0.203 F 
ATOM     68  C   UNL A   1      41.704  27.540  26.112  1.00  0.00     0.198 A 
ATOM     69  C   UNL A   1      40.391  25.777  27.075  1.00  0.00     0.198 A 
ATOM     70  F   UNL A   1      39.484  26.025  29.231  1.00  0.00    -0.203 F 
ATOM     71  F   UNL A   1      42.400  28.040  25.081  1.00  0.00    -0.200 F 
ATOM     72  C   UNL A   1      41.132  26.281  26.017  1.00  0.00     0.200 A 
ATOM     73  F   UNL A   1      39.851  24.554  26.990  1.00  0.00    -0.200 F 
ATOM     74  F   UNL A   1      41.294  25.553  24.904  1.00  0.00    -0.200 F 
ENDBRANCH  50  64
BRANCH  51  75
ATOM     75  C   UNL A   1      39.670  33.189  36.701  1.00  0.00     0.064 A 
ATOM     76  C   UNL A   1      40.422  34.358  36.889  1.00  0.00     0.173 A 
ATOM     77  C   UNL A   1      38.760  32.832  37.707  1.00  0.00     0.173 A 
ATOM     78  F   UNL A   1      41.320  34.731  35.965  1.00  0.00    -0.203 F 
ATOM     79  C   UNL A   1      40.278  35.132  38.039  1.00  0.00     0.198 A 
ATOM     80  C   UNL A   1      38.596  33.623  38.844  1.00  0.00     0.198 A 
ATOM     81  F   UNL A   1      38.013  31.727  37.576  1.00  0.00    -0.203 F 
ATOM     82  F   UNL A   1      41.036  36.223  38.208  1.00  0.00    -0.200 F 
ATOM     83  C   UNL A   1      39.359  34.768  39.011  1.00  0.00     0.200 A 
ATOM     84  F   UNL A   1      37.694  33.277  39.773  1.00  0.00    -0.200 F 
ATOM     85  F   UNL A   1      39.210  35.520  40.111  1.00  0.00    -0.200 F 
ENDBRANCH  51  75
BRANCH  63  86
ATOM     86  C   UNL A   1      44.226  28.304  34.662  1.00  0.00     0.064 A 
ATOM     87  C   UNL A   1      45.496  28.896  34.620  1.00  0.00     0.173 A 
ATOM     88  C   UNL A   1      44.070  27.138  35.428  1.00  0.00     0.173 A 
ATOM     89  F   UNL A   1      45.700  30.005  33.893  1.00  0.00    -0.203 F 
ATOM     90  C   UNL A   1      46.569  28.337  35.308  1.00  0.00     0.198 A 
ATOM     91  C   UNL A   1      45.137  26.600  36.141  1.00  0.00     0.198 A 
ATOM     92  F   UNL A   1      42.872  26.537  35.509  1.00  0.00    -0.203 F 
ATOM     93  F   UNL A   1      47.782  28.902  35.226  1.00  0.00    -0.200 F 
ATOM     94  C   UNL A   1      46.386  27.198  36.077  1.00  0.00     0.200 A 
ATOM     95  F   UNL A   1      44.954  25.511  36.899  1.00  0.00    -0.200 F 
ATOM     96  F   UNL A   1      47.415  26.675  36.758  1.00  0.00    -0.200 F 
ENDBRANCH  63  86
ENDBRANCH  37  38
ENDBRANCH  29  32
ENDBRANCH  27  28
ENDBRANCH  26  27
ENDBRANCH  25  26
ENDBRANCH   1  25
TORSDOF 16
ENDMDL
MODEL 3
REMARK VINA RESULT:     -12.7      0.722      7.470
REMARK SMILES Cc1c(CC(=O)NCCCCCCNC(=O)c2ccc(-c3c4nc(c(-c5c(F)c(F)c(F)c(F)c5F)c5ccc([nH]5)c(-c5c(F)c(F)c(F)c(F)c5F)c5nc(c(-c6c(F)c(F)c(F)c(F)c6F)c6ccc3[nH]6)C=C5)C=C4)cc2)c(O)oc2cc(=O)cc(O)c1-2
REMARK SMILES IDX 10 1 9 2 8 3 7 4 5 5 6 6 4 8 3 9 1 10 2 11 90 12 80 13 83 14
REMARK SMILES IDX 88 15 82 16 84 17 87 18 85 19 86 20 81 21 89 23 11 25 12 26
REMARK SMILES IDX 13 27 14 28 15 29 16 31 17 32 18 33 79 34 19 35 78 36 20 37
REMARK SMILES IDX 21 38 22 39 72 40 23 41 77 42 71 43 73 44 24 45 76 46 70 47
REMARK SMILES IDX 69 48 25 50 57 51 37 52 56 53 38 54 41 55 55 56 74 57 39 58
REMARK SMILES IDX 40 59 54 61 75 62 42 63 26 64 27 65 35 66 28 67 29 68 33 69
REMARK SMILES IDX 36 70 30 71 31 72 34 73 32 74 58 75 59 76 67 77 60 78 61 79
REMARK SMILES IDX 65 80 68 81 62 82 63 83 66 84 64 85 43 86 44 87 52 88 45 89
REMARK SMILES IDX 46 90 50 91 53 92 47 93 48 94 51 95 49 96
REMARK H PARENT 7 7 81 22 89 24 14 30 73 49 41 60
REMARK Flexibility Score: inf
ROOT
ATOM      1  C   UNL A   1      32.528  29.529  26.688  1.00  0.00     0.002 C 
ENDROOT
BRANCH   1   2
ATOM      2  C   UNL A   1      31.786  28.290  27.207  1.00  0.00     0.021 C 
BRANCH   2   3
ATOM      3  C   UNL A   1      31.939  27.067  26.303  1.00  0.00     0.116 C 
BRANCH   3   4
ATOM      4  N   UNL A   1      31.275  25.916  26.876  1.00  0.00    -0.356 N 
ATOM      5  C   UNL A   1      31.506  24.592  26.657  1.00  0.00     0.224 C 
ATOM      6  O   UNL A   1      30.759  23.773  27.197  1.00  0.00    -0.275 OA
ATOM      7  H   UNL A   1      30.554  26.118  27.515  1.00  0.00     0.163 HD
BRANCH   5   8
ATOM      8  C   UNL A   1      32.715  24.143  25.836  1.00  0.00     0.143 C 
BRANCH   8   9
ATOM      9  C   UNL A   1      32.805  22.654  25.535  1.00  0.00     0.046 A 
ATOM     10  C   UNL A   1      31.460  23.062  23.397  1.00  0.00     0.046 C 
ATOM     11  C   UNL A   1      32.282  22.117  24.250  1.00  0.00    -0.026 A 
ATOM     12  C   UNL A   1      32.528  20.821  23.900  1.00  0.00     0.063 A 
ATOM     13  C   UNL A   1      33.386  21.793  26.404  1.00  0.00     0.286 A 
ATOM     14  C   UNL A   1      33.217  19.953  24.874  1.00  0.00     0.146 A 
ATOM     15  C   UNL A   1      32.153  20.196  22.611  1.00  0.00     0.130 A 
ATOM     16  O   UNL A   1      33.588  20.468  26.099  1.00  0.00    -0.425 OA
ATOM     17  C   UNL A   1      33.460  18.661  24.632  1.00  0.00     0.100 A 
ATOM     18  C   UNL A   1      32.384  18.898  22.365  1.00  0.00     0.099 A 
ATOM     19  C   UNL A   1      33.050  18.041  23.364  1.00  0.00     0.186 A 
ATOM     20  O   UNL A   1      33.264  16.857  23.135  1.00  0.00    -0.290 OA
BRANCH  13  21
ATOM     21  O   UNL A   1      33.868  22.171  27.640  1.00  0.00    -0.480 OA
ATOM     22  H   UNL A   1      34.696  21.850  27.938  1.00  0.00     0.297 HD
ENDBRANCH  13  21
BRANCH  15  23
ATOM     23  O   UNL A   1      31.604  21.002  21.637  1.00  0.00    -0.507 OA
ATOM     24  H   UNL A   1      31.691  20.770  20.733  1.00  0.00     0.293 HD
ENDBRANCH  15  23
ENDBRANCH   8   9
ENDBRANCH   5   8
ENDBRANCH   3   4
ENDBRANCH   2   3
ENDBRANCH   1   2
BRANCH   1  25
ATOM     25  C   UNL A   1      31.667  30.504  25.877  1.00  0.00     0.002 C 
BRANCH  25  26
ATOM     26  C   UNL A   1      31.404  31.846  26.564  1.00  0.00     0.021 C 
BRANCH  26  27
ATOM     27  C   UNL A   1      32.630  32.448  27.240  1.00  0.00     0.116 C 
BRANCH  27  28
ATOM     28  N   UNL A   1      32.446  33.862  27.530  1.00  0.00    -0.352 N 
ATOM     29  C   UNL A   1      33.040  34.630  28.499  1.00  0.00     0.251 C 
ATOM     30  H   UNL A   1      31.806  34.334  26.950  1.00  0.00     0.163 HD
ATOM     31  O   UNL A   1      32.615  35.754  28.752  1.00  0.00    -0.269 OA
BRANCH  29  32
ATOM     32  C   UNL A   1      34.188  34.089  29.251  1.00  0.00     0.039 A 
ATOM     33  C   UNL A   1      33.950  33.282  30.365  1.00  0.00     0.014 A 
ATOM     34  C   UNL A   1      35.497  34.374  28.850  1.00  0.00     0.014 A 
ATOM     35  C   UNL A   1      35.027  32.713  31.044  1.00  0.00     0.010 A 
ATOM     36  C   UNL A   1      36.565  33.743  29.479  1.00  0.00     0.010 A 
ATOM     37  C   UNL A   1      36.341  32.915  30.588  1.00  0.00    -0.014 A 
BRANCH  37  38
ATOM     38  C   UNL A   1      37.492  32.281  31.274  1.00  0.00     0.031 A 
ATOM     39  C   UNL A   1      38.245  31.166  30.605  1.00  0.00     0.074 A 
ATOM     40  C   UNL A   1      37.837  32.687  32.513  1.00  0.00     0.049 A 
ATOM     41  N   UNL A   1      39.259  30.469  31.051  1.00  0.00    -0.248 NA
ATOM     42  C   UNL A   1      37.785  30.766  29.266  1.00  0.00     0.031 C 
ATOM     43  C   UNL A   1      37.159  33.736  33.275  1.00  0.00     0.029 A 
ATOM     44  N   UNL A   1      38.844  32.268  33.345  1.00  0.00    -0.354 N 
ATOM     45  C   UNL A   1      39.555  29.556  30.050  1.00  0.00     0.074 A 
ATOM     46  C   UNL A   1      38.577  29.737  29.002  1.00  0.00     0.031 C 
ATOM     47  C   UNL A   1      37.791  33.904  34.448  1.00  0.00     0.029 A 
ATOM     48  C   UNL A   1      38.892  32.948  34.537  1.00  0.00     0.049 A 
ATOM     49  H   UNL A   1      39.473  31.548  33.110  1.00  0.00     0.167 HD
ATOM     50  C   UNL A   1      40.575  28.668  29.996  1.00  0.00     0.037 A 
ATOM     51  C   UNL A   1      39.730  32.816  35.584  1.00  0.00     0.037 A 
ATOM     52  C   UNL A   1      41.559  28.503  31.033  1.00  0.00     0.049 A 
ATOM     53  C   UNL A   1      40.831  31.792  35.515  1.00  0.00     0.074 A 
ATOM     54  C   UNL A   1      42.654  27.660  31.054  1.00  0.00     0.029 A 
ATOM     55  N   UNL A   1      41.561  29.197  32.235  1.00  0.00    -0.354 N 
ATOM     56  N   UNL A   1      41.140  30.975  34.538  1.00  0.00    -0.248 NA
ATOM     57  C   UNL A   1      41.701  31.671  36.694  1.00  0.00     0.031 C 
ATOM     58  C   UNL A   1      43.290  27.803  32.290  1.00  0.00     0.029 A 
ATOM     59  C   UNL A   1      42.626  28.778  33.017  1.00  0.00     0.049 A 
ATOM     60  H   UNL A   1      40.906  29.884  32.494  1.00  0.00     0.167 HD
ATOM     61  C   UNL A   1      42.250  30.262  34.970  1.00  0.00     0.074 A 
ATOM     62  C   UNL A   1      42.573  30.756  36.293  1.00  0.00     0.031 C 
ATOM     63  C   UNL A   1      42.938  29.284  34.330  1.00  0.00     0.037 A 
BRANCH  50  64
ATOM     64  C   UNL A   1      40.697  27.815  28.766  1.00  0.00     0.064 A 
ATOM     65  C   UNL A   1      39.995  26.606  28.642  1.00  0.00     0.173 A 
ATOM     66  C   UNL A   1      41.468  28.240  27.675  1.00  0.00     0.173 A 
ATOM     67  F   UNL A   1      39.252  26.149  29.661  1.00  0.00    -0.203 F 
ATOM     68  C   UNL A   1      40.075  25.847  27.478  1.00  0.00     0.198 A 
ATOM     69  C   UNL A   1      41.520  27.494  26.500  1.00  0.00     0.198 A 
ATOM     70  F   UNL A   1      42.155  29.390  27.739  1.00  0.00    -0.203 F 
ATOM     71  F   UNL A   1      39.425  24.677  27.398  1.00  0.00    -0.200 F 
ATOM     72  C   UNL A   1      40.828  26.296  26.405  1.00  0.00     0.200 A 
ATOM     73  F   UNL A   1      42.236  27.938  25.457  1.00  0.00    -0.200 F 
ATOM     74  F   UNL A   1      40.888  25.574  25.277  1.00  0.00    -0.200 F 
ENDBRANCH  50  64
BRANCH  51  75
ATOM     75  C   UNL A   1      39.580  33.702  36.767  1.00  0.00     0.064 A 
ATOM     76  C   UNL A   1      40.215  34.952  36.813  1.00  0.00     0.173 A 
ATOM     77  C   UNL A   1      38.786  33.335  37.864  1.00  0.00     0.173 A 
ATOM     78  F   UNL A   1      41.000  35.341  35.798  1.00  0.00    -0.203 F 
ATOM     79  C   UNL A   1      40.071  35.795  37.913  1.00  0.00     0.198 A 
ATOM     80  C   UNL A   1      38.619  34.191  38.952  1.00  0.00     0.198 A 
ATOM     81  F   UNL A   1      38.154  32.153  37.870  1.00  0.00    -0.203 F 
ATOM     82  F   UNL A   1      40.718  36.966  37.946  1.00  0.00    -0.200 F 
ATOM     83  C   UNL A   1      39.266  35.416  38.978  1.00  0.00     0.200 A 
ATOM     84  F   UNL A   1      37.828  33.829  39.970  1.00  0.00    -0.200 F 
ATOM     85  F   UNL A   1      39.117  36.233  40.030  1.00  0.00    -0.200 F 
ENDBRANCH  51  75
BRANCH  63  86
ATOM     86  C   UNL A   1      44.120  28.685  35.035  1.00  0.00     0.064 A 
ATOM     87  C   UNL A   1      43.994  27.537  35.830  1.00  0.00     0.173 A 
ATOM     88  C   UNL A   1      45.407  29.211  34.840  1.00  0.00     0.173 A 
ATOM     89  F   UNL A   1      42.784  27.002  36.057  1.00  0.00    -0.203 F 
ATOM     90  C   UNL A   1      45.110  26.945  36.414  1.00  0.00     0.198 A 
ATOM     91  C   UNL A   1      46.524  28.597  35.398  1.00  0.00     0.198 A 
ATOM     92  F   UNL A   1      45.583  30.303  34.080  1.00  0.00    -0.203 F 
ATOM     93  F   UNL A   1      44.962  25.867  37.197  1.00  0.00    -0.200 F 
ATOM     94  C   UNL A   1      46.375  27.468  36.188  1.00  0.00     0.200 A 
ATOM     95  F   UNL A   1      47.747  29.093  35.163  1.00  0.00    -0.200 F 
ATOM     96  F   UNL A   1      47.450  26.882  36.731  1.00  0.00    -0.200 F 
ENDBRANCH  63  86
ENDBRANCH  37  38
ENDBRANCH  29  32
ENDBRANCH  27  28
ENDBRANCH  26  27
ENDBRANCH  25  26
ENDBRANCH   1  25
TORSDOF 16
ENDMDL
