MODEL 1
REMARK VINA RESULT:     -11.4      0.000      0.000
REMARK SMILES CCN(c1ccnc(C(=O)NCCCCCCNC(=O)c2ccc(-c3c4nc(c(-c5c(F)c(F)c(F)c(F)c5F)c5ccc([nH]5)c(-c5c(F)c(F)c(F)c(F)c5F)c5nc(c(-c6c(F)c(F)c(F)c(F)c6F)c6ccc3[nH]6)C=C5)C=C4)cc2)c1)S(=O)(=O)c1ccccc1
REMARK SMILES IDX 14 1 13 2 12 3 11 4 9 5 10 6 8 8 4 9 5 10 84 11 6 12 7 13
REMARK SMILES IDX 3 14 2 15 1 16 85 17 86 18 87 19 88 20 89 21 93 22 90 23
REMARK SMILES IDX 92 24 91 25 15 26 16 27 17 28 18 29 19 30 20 32 21 33 22 34
REMARK SMILES IDX 83 35 23 36 82 37 24 38 25 39 26 40 76 41 27 42 81 43 75 44
REMARK SMILES IDX 77 45 28 46 80 47 74 48 73 49 29 51 61 52 41 53 60 54 42 55
REMARK SMILES IDX 45 56 59 57 78 58 43 59 44 60 58 62 79 63 46 64 30 65 31 66
REMARK SMILES IDX 39 67 32 68 33 69 37 70 40 71 34 72 35 73 38 74 36 75 62 76
REMARK SMILES IDX 63 77 71 78 64 79 65 80 69 81 72 82 66 83 67 84 70 85 68 86
REMARK SMILES IDX 47 87 48 88 56 89 49 90 50 91 54 92 57 93 51 94 52 95 55 96
REMARK SMILES IDX 53 97
REMARK H PARENT 11 7 18 31 77 50 45 61
REMARK Flexibility Score: inf
ROOT
ATOM      1  C   UNL A   1      35.377  32.728  28.158  1.00  0.00     0.002 C 
ENDROOT
BRANCH   1   2
ATOM      2  C   UNL A   1      35.158  31.260  28.523  1.00  0.00     0.021 C 
BRANCH   2   3
ATOM      3  C   UNL A   1      34.580  30.362  27.441  1.00  0.00     0.116 C 
BRANCH   3   4
ATOM      4  N   UNL A   1      33.264  30.734  26.975  1.00  0.00    -0.351 N 
ATOM      5  C   UNL A   1      32.468  30.186  25.984  1.00  0.00     0.269 C 
ATOM      6  O   UNL A   1      31.371  30.719  25.807  1.00  0.00    -0.268 OA
ATOM      7  H   UNL A   1      32.868  31.506  27.438  1.00  0.00     0.163 HD
BRANCH   5   8
ATOM      8  C   UNL A   1      32.871  28.995  25.141  1.00  0.00     0.130 A 
ATOM      9  C   UNL A   1      33.077  26.641  24.702  1.00  0.00     0.056 A 
ATOM     10  C   UNL A   1      33.497  26.953  23.411  1.00  0.00     0.047 A 
ATOM     11  C   UNL A   1      32.786  27.680  25.575  1.00  0.00     0.061 A 
ATOM     12  C   UNL A   1      33.574  28.284  23.048  1.00  0.00     0.114 A 
ATOM     13  N   UNL A   1      33.267  29.300  23.877  1.00  0.00    -0.251 NA
BRANCH   9  14
ATOM     14  N   UNL A   1      33.020  25.245  25.087  1.00  0.00    -0.266 N 
BRANCH  14  15
ATOM     15  C   UNL A   1      34.096  24.784  26.032  1.00  0.00     0.132 C 
ATOM     16  C   UNL A   1      35.233  24.032  25.352  1.00  0.00     0.028 C 
ENDBRANCH  14  15
BRANCH  14  17
ATOM     17  S   UNL A   1      31.519  24.420  25.259  1.00  0.00     0.264 S 
ATOM     18  O   UNL A   1      31.260  24.259  26.667  1.00  0.00    -0.201 OA
ATOM     19  O   UNL A   1      30.554  25.092  24.399  1.00  0.00    -0.201 OA
BRANCH  17  20
ATOM     20  C   UNL A   1      31.751  22.799  24.557  1.00  0.00     0.088 A 
ATOM     21  C   UNL A   1      31.928  21.686  25.376  1.00  0.00     0.022 A 
ATOM     22  C   UNL A   1      31.815  22.677  23.161  1.00  0.00     0.022 A 
ATOM     23  C   UNL A   1      32.237  20.458  24.782  1.00  0.00     0.001 A 
ATOM     24  C   UNL A   1      32.157  21.462  22.580  1.00  0.00     0.001 A 
ATOM     25  C   UNL A   1      32.376  20.353  23.394  1.00  0.00     0.000 A 
ENDBRANCH  17  20
ENDBRANCH  14  17
ENDBRANCH   9  14
ENDBRANCH   5   8
ENDBRANCH   3   4
ENDBRANCH   2   3
ENDBRANCH   1   2
BRANCH   1  26
ATOM     26  C   UNL A   1      35.039  33.778  29.219  1.00  0.00     0.002 C 
BRANCH  26  27
ATOM     27  C   UNL A   1      33.630  34.370  29.193  1.00  0.00     0.021 C 
BRANCH  27  28
ATOM     28  C   UNL A   1      33.520  35.871  29.427  1.00  0.00     0.116 C 
BRANCH  28  29
ATOM     29  N   UNL A   1      32.595  36.229  30.487  1.00  0.00    -0.352 N 
ATOM     30  C   UNL A   1      32.641  35.905  31.822  1.00  0.00     0.251 C 
ATOM     31  H   UNL A   1      31.827  36.780  30.211  1.00  0.00     0.163 HD
ATOM     32  O   UNL A   1      31.718  36.213  32.570  1.00  0.00    -0.269 OA
BRANCH  30  33
ATOM     33  C   UNL A   1      33.797  35.152  32.355  1.00  0.00     0.039 A 
ATOM     34  C   UNL A   1      33.601  33.847  32.818  1.00  0.00     0.014 A 
ATOM     35  C   UNL A   1      35.070  35.724  32.382  1.00  0.00     0.014 A 
ATOM     36  C   UNL A   1      34.695  33.089  33.241  1.00  0.00     0.010 A 
ATOM     37  C   UNL A   1      36.169  34.945  32.732  1.00  0.00     0.010 A 
ATOM     38  C   UNL A   1      35.992  33.621  33.167  1.00  0.00    -0.014 A 
BRANCH  38  39
ATOM     39  C   UNL A   1      37.190  32.835  33.559  1.00  0.00     0.031 A 
ATOM     40  C   UNL A   1      37.868  33.125  34.868  1.00  0.00     0.074 A 
ATOM     41  C   UNL A   1      37.722  31.941  32.705  1.00  0.00     0.049 A 
ATOM     42  N   UNL A   1      39.007  32.679  35.333  1.00  0.00    -0.248 NA
ATOM     43  C   UNL A   1      37.185  34.074  35.760  1.00  0.00     0.031 C 
ATOM     44  C   UNL A   1      37.166  31.581  31.401  1.00  0.00     0.029 A 
ATOM     45  N   UNL A   1      38.864  31.185  32.800  1.00  0.00    -0.354 N 
ATOM     46  C   UNL A   1      39.188  33.313  36.554  1.00  0.00     0.074 A 
ATOM     47  C   UNL A   1      38.070  34.214  36.734  1.00  0.00     0.031 C 
ATOM     48  C   UNL A   1      37.956  30.660  30.825  1.00  0.00     0.029 A 
ATOM     49  C   UNL A   1      39.100  30.404  31.695  1.00  0.00     0.049 A 
ATOM     50  H   UNL A   1      39.456  31.201  33.586  1.00  0.00     0.167 HD
ATOM     51  C   UNL A   1      40.187  33.146  37.454  1.00  0.00     0.037 A 
ATOM     52  C   UNL A   1      40.133  29.586  31.412  1.00  0.00     0.037 A 
ATOM     53  C   UNL A   1      41.284  32.232  37.276  1.00  0.00     0.049 A 
ATOM     54  C   UNL A   1      41.258  29.452  32.404  1.00  0.00     0.074 A 
ATOM     55  C   UNL A   1      42.322  31.948  38.146  1.00  0.00     0.029 A 
ATOM     56  N   UNL A   1      41.487  31.457  36.142  1.00  0.00    -0.354 N 
ATOM     57  N   UNL A   1      41.398  30.018  33.579  1.00  0.00    -0.248 NA
ATOM     58  C   UNL A   1      42.372  28.570  32.028  1.00  0.00     0.031 C 
ATOM     59  C   UNL A   1      43.182  31.042  37.518  1.00  0.00     0.029 A 
ATOM     60  C   UNL A   1      42.648  30.713  36.280  1.00  0.00     0.049 A 
ATOM     61  H   UNL A   1      40.894  31.437  35.356  1.00  0.00     0.167 HD
ATOM     62  C   UNL A   1      42.586  29.525  34.102  1.00  0.00     0.074 A 
ATOM     63  C   UNL A   1      43.134  28.620  33.113  1.00  0.00     0.031 C 
ATOM     64  C   UNL A   1      43.165  29.794  35.297  1.00  0.00     0.037 A 
BRANCH  51  65
ATOM     65  C   UNL A   1      40.139  33.983  38.701  1.00  0.00     0.064 A 
ATOM     66  C   UNL A   1      39.403  33.588  39.829  1.00  0.00     0.173 A 
ATOM     67  C   UNL A   1      40.835  35.200  38.767  1.00  0.00     0.173 A 
ATOM     68  F   UNL A   1      38.711  32.439  39.817  1.00  0.00    -0.203 F 
ATOM     69  C   UNL A   1      39.324  34.404  40.955  1.00  0.00     0.198 A 
ATOM     70  C   UNL A   1      40.785  35.994  39.909  1.00  0.00     0.198 A 
ATOM     71  F   UNL A   1      41.563  35.622  37.722  1.00  0.00    -0.203 F 
ATOM     72  F   UNL A   1      38.554  34.040  41.990  1.00  0.00    -0.200 F 
ATOM     73  C   UNL A   1      40.018  35.603  40.996  1.00  0.00     0.200 A 
ATOM     74  F   UNL A   1      41.469  37.146  39.953  1.00  0.00    -0.200 F 
ATOM     75  F   UNL A   1      39.937  36.389  42.079  1.00  0.00    -0.200 F 
ENDBRANCH  51  65
BRANCH  52  76
ATOM     76  C   UNL A   1      40.133  28.801  30.150  1.00  0.00     0.064 A 
ATOM     77  C   UNL A   1      39.492  27.555  30.089  1.00  0.00     0.173 A 
ATOM     78  C   UNL A   1      40.753  29.273  28.985  1.00  0.00     0.173 A 
ATOM     79  F   UNL A   1      38.903  27.052  31.184  1.00  0.00    -0.203 F 
ATOM     80  C   UNL A   1      39.484  26.806  28.915  1.00  0.00     0.198 A 
ATOM     81  C   UNL A   1      40.721  28.534  27.803  1.00  0.00     0.198 A 
ATOM     82  F   UNL A   1      41.377  30.460  28.990  1.00  0.00    -0.203 F 
ATOM     83  F   UNL A   1      38.897  25.601  28.897  1.00  0.00    -0.200 F 
ATOM     84  C   UNL A   1      40.092  27.299  27.772  1.00  0.00     0.200 A 
ATOM     85  F   UNL A   1      41.299  29.020  26.695  1.00  0.00    -0.200 F 
ATOM     86  F   UNL A   1      40.078  26.581  26.639  1.00  0.00    -0.200 F 
ENDBRANCH  52  76
BRANCH  64  87
ATOM     87  C   UNL A   1      44.424  29.054  35.646  1.00  0.00     0.064 A 
ATOM     88  C   UNL A   1      45.693  29.592  35.396  1.00  0.00     0.173 A 
ATOM     89  C   UNL A   1      44.350  27.825  36.321  1.00  0.00     0.173 A 
ATOM     90  F   UNL A   1      45.817  30.755  34.740  1.00  0.00    -0.203 F 
ATOM     91  C   UNL A   1      46.844  28.921  35.802  1.00  0.00     0.198 A 
ATOM     92  C   UNL A   1      45.501  27.173  36.751  1.00  0.00     0.198 A 
ATOM     93  F   UNL A   1      43.157  27.271  36.589  1.00  0.00    -0.203 F 
ATOM     94  F   UNL A   1      48.051  29.438  35.527  1.00  0.00    -0.200 F 
ATOM     95  C   UNL A   1      46.748  27.720  36.489  1.00  0.00     0.200 A 
ATOM     96  F   UNL A   1      45.404  26.020  37.428  1.00  0.00    -0.200 F 
ATOM     97  F   UNL A   1      47.857  27.088  36.899  1.00  0.00    -0.200 F 
ENDBRANCH  64  87
ENDBRANCH  38  39
ENDBRANCH  30  33
ENDBRANCH  28  29
ENDBRANCH  27  28
ENDBRANCH  26  27
ENDBRANCH   1  26
TORSDOF 17
ENDMDL
MODEL 2
REMARK VINA RESULT:     -11.3      6.165     10.896
REMARK SMILES CCN(c1ccnc(C(=O)NCCCCCCNC(=O)c2ccc(-c3c4nc(c(-c5c(F)c(F)c(F)c(F)c5F)c5ccc([nH]5)c(-c5c(F)c(F)c(F)c(F)c5F)c5nc(c(-c6c(F)c(F)c(F)c(F)c6F)c6ccc3[nH]6)C=C5)C=C4)cc2)c1)S(=O)(=O)c1ccccc1
REMARK SMILES IDX 14 1 13 2 12 3 11 4 9 5 10 6 8 8 4 9 5 10 84 11 6 12 7 13
REMARK SMILES IDX 3 14 2 15 1 16 85 17 86 18 87 19 88 20 89 21 93 22 90 23
REMARK SMILES IDX 92 24 91 25 15 26 16 27 17 28 18 29 19 30 20 32 21 33 22 34
REMARK SMILES IDX 83 35 23 36 82 37 24 38 25 39 26 40 76 41 27 42 81 43 75 44
REMARK SMILES IDX 77 45 28 46 80 47 74 48 73 49 29 51 61 52 41 53 60 54 42 55
REMARK SMILES IDX 45 56 59 57 78 58 43 59 44 60 58 62 79 63 46 64 30 65 31 66
REMARK SMILES IDX 39 67 32 68 33 69 37 70 40 71 34 72 35 73 38 74 36 75 62 76
REMARK SMILES IDX 63 77 71 78 64 79 65 80 69 81 72 82 66 83 67 84 70 85 68 86
REMARK SMILES IDX 47 87 48 88 56 89 49 90 50 91 54 92 57 93 51 94 52 95 55 96
REMARK SMILES IDX 53 97
REMARK H PARENT 11 7 18 31 77 50 45 61
REMARK Flexibility Score: inf
ROOT
ATOM      1  C   UNL A   1      35.206  20.967  24.541  1.00  0.00     0.002 C 
ENDROOT
BRANCH   1   2
ATOM      2  C   UNL A   1      34.176  19.959  25.052  1.00  0.00     0.021 C 
BRANCH   2   3
ATOM      3  C   UNL A   1      32.713  20.281  24.789  1.00  0.00     0.116 C 
BRANCH   3   4
ATOM      4  N   UNL A   1      32.296  20.163  23.411  1.00  0.00    -0.351 N 
ATOM      5  C   UNL A   1      32.152  21.123  22.425  1.00  0.00     0.269 C 
ATOM      6  O   UNL A   1      31.778  20.721  21.322  1.00  0.00    -0.268 OA
ATOM      7  H   UNL A   1      32.078  19.247  23.126  1.00  0.00     0.163 HD
BRANCH   5   8
ATOM      8  C   UNL A   1      32.429  22.596  22.636  1.00  0.00     0.130 A 
ATOM      9  C   UNL A   1      32.004  24.745  23.626  1.00  0.00     0.056 A 
ATOM     10  C   UNL A   1      33.178  25.209  23.038  1.00  0.00     0.047 A 
ATOM     11  C   UNL A   1      31.622  23.429  23.397  1.00  0.00     0.061 A 
ATOM     12  C   UNL A   1      33.927  24.331  22.280  1.00  0.00     0.114 A 
ATOM     13  N   UNL A   1      33.581  23.045  22.073  1.00  0.00    -0.251 NA
BRANCH   9  14
ATOM     14  N   UNL A   1      31.210  25.675  24.402  1.00  0.00    -0.266 N 
BRANCH  14  15
ATOM     15  C   UNL A   1      29.798  25.884  23.926  1.00  0.00     0.132 C 
ATOM     16  C   UNL A   1      29.504  27.309  23.476  1.00  0.00     0.028 C 
ENDBRANCH  14  15
BRANCH  14  17
ATOM     17  S   UNL A   1      31.418  25.835  26.103  1.00  0.00     0.264 S 
ATOM     18  O   UNL A   1      30.112  25.960  26.700  1.00  0.00    -0.201 OA
ATOM     19  O   UNL A   1      32.331  24.783  26.530  1.00  0.00    -0.201 OA
BRANCH  17  20
ATOM     20  C   UNL A   1      32.286  27.369  26.363  1.00  0.00     0.088 A 
ATOM     21  C   UNL A   1      33.651  27.470  26.105  1.00  0.00     0.022 A 
ATOM     22  C   UNL A   1      31.576  28.457  26.894  1.00  0.00     0.022 A 
ATOM     23  C   UNL A   1      34.314  28.652  26.447  1.00  0.00     0.001 A 
ATOM     24  C   UNL A   1      32.249  29.616  27.265  1.00  0.00     0.001 A 
ATOM     25  C   UNL A   1      33.621  29.709  27.047  1.00  0.00     0.000 A 
ENDBRANCH  17  20
ENDBRANCH  14  17
ENDBRANCH   9  14
ENDBRANCH   5   8
ENDBRANCH   3   4
ENDBRANCH   2   3
ENDBRANCH   1   2
BRANCH   1  26
ATOM     26  C   UNL A   1      36.471  21.170  25.379  1.00  0.00     0.002 C 
BRANCH  26  27
ATOM     27  C   UNL A   1      37.663  20.262  25.076  1.00  0.00     0.021 C 
BRANCH  27  28
ATOM     28  C   UNL A   1      38.965  20.591  25.795  1.00  0.00     0.116 C 
BRANCH  28  29
ATOM     29  N   UNL A   1      39.917  19.494  25.806  1.00  0.00    -0.352 N 
ATOM     30  C   UNL A   1      41.276  19.529  26.007  1.00  0.00     0.251 C 
ATOM     31  H   UNL A   1      39.535  18.600  25.646  1.00  0.00     0.163 HD
ATOM     32  O   UNL A   1      41.950  18.511  25.887  1.00  0.00    -0.269 OA
BRANCH  30  33
ATOM     33  C   UNL A   1      41.936  20.810  26.338  1.00  0.00     0.039 A 
ATOM     34  C   UNL A   1      42.280  21.684  25.301  1.00  0.00     0.014 A 
ATOM     35  C   UNL A   1      42.198  21.157  27.665  1.00  0.00     0.014 A 
ATOM     36  C   UNL A   1      42.822  22.936  25.600  1.00  0.00     0.010 A 
ATOM     37  C   UNL A   1      42.667  22.432  27.965  1.00  0.00     0.010 A 
ATOM     38  C   UNL A   1      42.986  23.333  26.936  1.00  0.00    -0.014 A 
BRANCH  38  39
ATOM     39  C   UNL A   1      43.511  24.673  27.302  1.00  0.00     0.031 A 
ATOM     40  C   UNL A   1      42.575  25.703  27.871  1.00  0.00     0.074 A 
ATOM     41  C   UNL A   1      44.790  24.996  27.033  1.00  0.00     0.049 A 
ATOM     42  N   UNL A   1      42.780  26.973  28.109  1.00  0.00    -0.248 NA
ATOM     43  C   UNL A   1      41.214  25.244  28.184  1.00  0.00     0.031 C 
ATOM     44  C   UNL A   1      45.790  24.090  26.470  1.00  0.00     0.029 A 
ATOM     45  N   UNL A   1      45.461  26.184  27.182  1.00  0.00    -0.354 N 
ATOM     46  C   UNL A   1      41.569  27.468  28.570  1.00  0.00     0.074 A 
ATOM     47  C   UNL A   1      40.621  26.376  28.530  1.00  0.00     0.031 C 
ATOM     48  C   UNL A   1      46.954  24.749  26.338  1.00  0.00     0.029 A 
ATOM     49  C   UNL A   1      46.767  26.134  26.758  1.00  0.00     0.049 A 
ATOM     50  H   UNL A   1      45.047  26.993  27.558  1.00  0.00     0.167 HD
ATOM     51  C   UNL A   1      41.277  28.718  29.006  1.00  0.00     0.037 A 
ATOM     52  C   UNL A   1      47.700  27.104  26.701  1.00  0.00     0.037 A 
ATOM     53  C   UNL A   1      42.232  29.793  29.063  1.00  0.00     0.049 A 
ATOM     54  C   UNL A   1      47.341  28.497  27.144  1.00  0.00     0.074 A 
ATOM     55  C   UNL A   1      42.055  31.081  29.534  1.00  0.00     0.029 A 
ATOM     56  N   UNL A   1      43.546  29.702  28.624  1.00  0.00    -0.354 N 
ATOM     57  N   UNL A   1      46.208  28.947  27.626  1.00  0.00    -0.248 NA
ATOM     58  C   UNL A   1      48.391  29.521  27.031  1.00  0.00     0.031 C 
ATOM     59  C   UNL A   1      43.246  31.787  29.332  1.00  0.00     0.029 A 
ATOM     60  C   UNL A   1      44.184  30.921  28.791  1.00  0.00     0.049 A 
ATOM     61  H   UNL A   1      43.964  28.892  28.251  1.00  0.00     0.167 HD
ATOM     62  C   UNL A   1      46.420  30.288  27.917  1.00  0.00     0.074 A 
ATOM     63  C   UNL A   1      47.790  30.583  27.550  1.00  0.00     0.031 C 
ATOM     64  C   UNL A   1      45.559  31.190  28.448  1.00  0.00     0.037 A 
BRANCH  51  65
ATOM     65  C   UNL A   1      39.863  28.984  29.440  1.00  0.00     0.064 A 
ATOM     66  C   UNL A   1      39.437  28.748  30.756  1.00  0.00     0.173 A 
ATOM     67  C   UNL A   1      38.920  29.478  28.526  1.00  0.00     0.173 A 
ATOM     68  F   UNL A   1      40.294  28.265  31.669  1.00  0.00    -0.203 F 
ATOM     69  C   UNL A   1      38.109  28.945  31.126  1.00  0.00     0.198 A 
ATOM     70  C   UNL A   1      37.602  29.712  28.909  1.00  0.00     0.198 A 
ATOM     71  F   UNL A   1      39.275  29.732  27.257  1.00  0.00    -0.203 F 
ATOM     72  F   UNL A   1      37.709  28.641  32.368  1.00  0.00    -0.200 F 
ATOM     73  C   UNL A   1      37.194  29.431  30.204  1.00  0.00     0.200 A 
ATOM     74  F   UNL A   1      36.724  30.196  28.021  1.00  0.00    -0.200 F 
ATOM     75  F   UNL A   1      35.915  29.618  30.561  1.00  0.00    -0.200 F 
ENDBRANCH  51  65
BRANCH  52  76
ATOM     76  C   UNL A   1      49.077  26.782  26.240  1.00  0.00     0.064 A 
ATOM     77  C   UNL A   1      50.036  26.306  27.147  1.00  0.00     0.173 A 
ATOM     78  C   UNL A   1      49.462  26.927  24.900  1.00  0.00     0.173 A 
ATOM     79  F   UNL A   1      49.720  26.171  28.443  1.00  0.00    -0.203 F 
ATOM     80  C   UNL A   1      51.330  26.002  26.733  1.00  0.00     0.198 A 
ATOM     81  C   UNL A   1      50.750  26.597  24.483  1.00  0.00     0.198 A 
ATOM     82  F   UNL A   1      48.581  27.376  23.993  1.00  0.00    -0.203 F 
ATOM     83  F   UNL A   1      52.236  25.586  27.627  1.00  0.00    -0.200 F 
ATOM     84  C   UNL A   1      51.684  26.140  25.400  1.00  0.00     0.200 A 
ATOM     85  F   UNL A   1      51.085  26.719  23.190  1.00  0.00    -0.200 F 
ATOM     86  F   UNL A   1      52.927  25.839  24.999  1.00  0.00    -0.200 F 
ENDBRANCH  52  76
BRANCH  64  87
ATOM     87  C   UNL A   1      46.079  32.568  28.736  1.00  0.00     0.064 A 
ATOM     88  C   UNL A   1      46.758  32.871  29.923  1.00  0.00     0.173 A 
ATOM     89  C   UNL A   1      45.969  33.576  27.765  1.00  0.00     0.173 A 
ATOM     90  F   UNL A   1      46.876  31.947  30.889  1.00  0.00    -0.203 F 
ATOM     91  C   UNL A   1      47.301  34.137  30.132  1.00  0.00     0.198 A 
ATOM     92  C   UNL A   1      46.538  34.829  27.964  1.00  0.00     0.198 A 
ATOM     93  F   UNL A   1      45.332  33.334  26.608  1.00  0.00    -0.203 F 
ATOM     94  F   UNL A   1      47.922  34.415  31.287  1.00  0.00    -0.200 F 
ATOM     95  C   UNL A   1      47.202  35.110  29.148  1.00  0.00     0.200 A 
ATOM     96  F   UNL A   1      46.454  35.763  27.006  1.00  0.00    -0.200 F 
ATOM     97  F   UNL A   1      47.746  36.319  29.342  1.00  0.00    -0.200 F 
ENDBRANCH  64  87
ENDBRANCH  38  39
ENDBRANCH  30  33
ENDBRANCH  28  29
ENDBRANCH  27  28
ENDBRANCH  26  27
ENDBRANCH   1  26
TORSDOF 17
ENDMDL
MODEL 3
REMARK VINA RESULT:     -11.0      6.707     12.298
REMARK SMILES CCN(c1ccnc(C(=O)NCCCCCCNC(=O)c2ccc(-c3c4nc(c(-c5c(F)c(F)c(F)c(F)c5F)c5ccc([nH]5)c(-c5c(F)c(F)c(F)c(F)c5F)c5nc(c(-c6c(F)c(F)c(F)c(F)c6F)c6ccc3[nH]6)C=C5)C=C4)cc2)c1)S(=O)(=O)c1ccccc1
REMARK SMILES IDX 14 1 13 2 12 3 11 4 9 5 10 6 8 8 4 9 5 10 84 11 6 12 7 13
REMARK SMILES IDX 3 14 2 15 1 16 85 17 86 18 87 19 88 20 89 21 93 22 90 23
REMARK SMILES IDX 92 24 91 25 15 26 16 27 17 28 18 29 19 30 20 32 21 33 22 34
REMARK SMILES IDX 83 35 23 36 82 37 24 38 25 39 26 40 76 41 27 42 81 43 75 44
REMARK SMILES IDX 77 45 28 46 80 47 74 48 73 49 29 51 61 52 41 53 60 54 42 55
REMARK SMILES IDX 45 56 59 57 78 58 43 59 44 60 58 62 79 63 46 64 30 65 31 66
REMARK SMILES IDX 39 67 32 68 33 69 37 70 40 71 34 72 35 73 38 74 36 75 62 76
REMARK SMILES IDX 63 77 71 78 64 79 65 80 69 81 72 82 66 83 67 84 70 85 68 86
REMARK SMILES IDX 47 87 48 88 56 89 49 90 50 91 54 92 57 93 51 94 52 95 55 96
REMARK SMILES IDX 53 97
REMARK H PARENT 11 7 18 31 77 50 45 61
REMARK Flexibility Score: inf
ROOT
ATOM      1  C   UNL A   1      40.495  22.465  26.160  1.00  0.00     0.002 C 
ENDROOT
BRANCH   1   2
ATOM      2  C   UNL A   1      39.570  23.269  27.074  1.00  0.00     0.021 C 
BRANCH   2   3
ATOM      3  C   UNL A   1      38.269  23.770  26.466  1.00  0.00     0.116 C 
BRANCH   3   4
ATOM      4  N   UNL A   1      37.952  23.227  25.165  1.00  0.00    -0.351 N 
ATOM      5  C   UNL A   1      36.751  23.168  24.479  1.00  0.00     0.269 C 
ATOM      6  O   UNL A   1      36.783  22.641  23.366  1.00  0.00    -0.268 OA
ATOM      7  H   UNL A   1      38.716  22.831  24.688  1.00  0.00     0.163 HD
BRANCH   5   8
ATOM      8  C   UNL A   1      35.445  23.711  25.017  1.00  0.00     0.130 A 
ATOM      9  C   UNL A   1      33.526  25.157  24.950  1.00  0.00     0.056 A 
ATOM     10  C   UNL A   1      33.003  24.456  26.033  1.00  0.00     0.047 A 
ATOM     11  C   UNL A   1      34.772  24.789  24.459  1.00  0.00     0.061 A 
ATOM     12  C   UNL A   1      33.732  23.403  26.551  1.00  0.00     0.114 A 
ATOM     13  N   UNL A   1      34.928  23.018  26.065  1.00  0.00    -0.251 NA
BRANCH   9  14
ATOM     14  N   UNL A   1      32.769  26.276  24.425  1.00  0.00    -0.266 N 
BRANCH  14  15
ATOM     15  C   UNL A   1      33.208  27.638  24.890  1.00  0.00     0.132 C 
ATOM     16  C   UNL A   1      32.928  27.905  26.363  1.00  0.00     0.028 C 
ENDBRANCH  14  15
BRANCH  14  17
ATOM     17  S   UNL A   1      32.104  26.246  22.838  1.00  0.00     0.264 S 
ATOM     18  O   UNL A   1      33.117  26.710  21.923  1.00  0.00    -0.201 OA
ATOM     19  O   UNL A   1      31.480  24.943  22.653  1.00  0.00    -0.201 OA
BRANCH  17  20
ATOM     20  C   UNL A   1      30.774  27.430  22.825  1.00  0.00     0.088 A 
ATOM     21  C   UNL A   1      30.980  28.732  22.373  1.00  0.00     0.022 A 
ATOM     22  C   UNL A   1      29.527  27.041  23.340  1.00  0.00     0.022 A 
ATOM     23  C   UNL A   1      29.943  29.661  22.504  1.00  0.00     0.001 A 
ATOM     24  C   UNL A   1      28.514  27.979  23.500  1.00  0.00     0.001 A 
ATOM     25  C   UNL A   1      28.726  29.292  23.088  1.00  0.00     0.000 A 
ENDBRANCH  17  20
ENDBRANCH  14  17
ENDBRANCH   9  14
ENDBRANCH   5   8
ENDBRANCH   3   4
ENDBRANCH   2   3
ENDBRANCH   1   2
BRANCH   1  26
ATOM     26  C   UNL A   1      41.395  21.413  26.813  1.00  0.00     0.002 C 
BRANCH  26  27
ATOM     27  C   UNL A   1      41.493  20.053  26.124  1.00  0.00     0.021 C 
BRANCH  27  28
ATOM     28  C   UNL A   1      42.678  19.178  26.516  1.00  0.00     0.116 C 
BRANCH  28  29
ATOM     29  N   UNL A   1      43.458  18.713  25.382  1.00  0.00    -0.352 N 
ATOM     30  C   UNL A   1      44.315  19.420  24.573  1.00  0.00     0.251 C 
ATOM     31  H   UNL A   1      43.359  17.759  25.163  1.00  0.00     0.163 HD
ATOM     32  O   UNL A   1      44.826  18.890  23.592  1.00  0.00    -0.269 OA
BRANCH  30  33
ATOM     33  C   UNL A   1      44.599  20.842  24.868  1.00  0.00     0.039 A 
ATOM     34  C   UNL A   1      44.150  21.823  23.978  1.00  0.00     0.014 A 
ATOM     35  C   UNL A   1      45.288  21.206  26.027  1.00  0.00     0.014 A 
ATOM     36  C   UNL A   1      44.330  23.173  24.286  1.00  0.00     0.010 A 
ATOM     37  C   UNL A   1      45.400  22.550  26.369  1.00  0.00     0.010 A 
ATOM     38  C   UNL A   1      44.925  23.547  25.500  1.00  0.00    -0.014 A 
BRANCH  38  39
ATOM     39  C   UNL A   1      45.092  24.970  25.892  1.00  0.00     0.031 A 
ATOM     40  C   UNL A   1      46.446  25.611  25.785  1.00  0.00     0.074 A 
ATOM     41  C   UNL A   1      44.062  25.649  26.431  1.00  0.00     0.049 A 
ATOM     42  N   UNL A   1      46.852  26.778  26.216  1.00  0.00    -0.248 NA
ATOM     43  C   UNL A   1      47.495  24.814  25.131  1.00  0.00     0.031 C 
ATOM     44  C   UNL A   1      42.704  25.133  26.601  1.00  0.00     0.029 A 
ATOM     45  N   UNL A   1      44.005  26.916  26.955  1.00  0.00    -0.354 N 
ATOM     46  C   UNL A   1      48.204  26.841  25.913  1.00  0.00     0.074 A 
ATOM     47  C   UNL A   1      48.563  25.576  25.308  1.00  0.00     0.031 C 
ATOM     48  C   UNL A   1      41.942  26.081  27.171  1.00  0.00     0.029 A 
ATOM     49  C   UNL A   1      42.769  27.251  27.453  1.00  0.00     0.049 A 
ATOM     50  H   UNL A   1      44.776  27.528  26.971  1.00  0.00     0.167 HD
ATOM     51  C   UNL A   1      49.067  27.869  26.103  1.00  0.00     0.037 A 
ATOM     52  C   UNL A   1      42.357  28.369  28.081  1.00  0.00     0.037 A 
ATOM     53  C   UNL A   1      48.696  29.131  26.686  1.00  0.00     0.049 A 
ATOM     54  C   UNL A   1      43.344  29.480  28.327  1.00  0.00     0.074 A 
ATOM     55  C   UNL A   1      49.478  30.256  26.879  1.00  0.00     0.029 A 
ATOM     56  N   UNL A   1      47.433  29.431  27.177  1.00  0.00    -0.354 N 
ATOM     57  N   UNL A   1      44.610  29.552  27.992  1.00  0.00    -0.248 NA
ATOM     58  C   UNL A   1      42.846  30.663  29.043  1.00  0.00     0.031 C 
ATOM     59  C   UNL A   1      48.704  31.218  27.535  1.00  0.00     0.029 A 
ATOM     60  C   UNL A   1      47.422  30.716  27.696  1.00  0.00     0.049 A 
ATOM     61  H   UNL A   1      46.660  28.822  27.159  1.00  0.00     0.167 HD
ATOM     62  C   UNL A   1      45.046  30.802  28.413  1.00  0.00     0.074 A 
ATOM     63  C   UNL A   1      43.912  31.452  29.034  1.00  0.00     0.031 C 
ATOM     64  C   UNL A   1      46.274  31.361  28.286  1.00  0.00     0.037 A 
BRANCH  51  65
ATOM     65  C   UNL A   1      50.495  27.656  25.688  1.00  0.00     0.064 A 
ATOM     66  C   UNL A   1      51.494  27.323  26.616  1.00  0.00     0.173 A 
ATOM     67  C   UNL A   1      50.872  27.791  24.343  1.00  0.00     0.173 A 
ATOM     68  F   UNL A   1      51.191  27.192  27.917  1.00  0.00    -0.203 F 
ATOM     69  C   UNL A   1      52.822  27.186  26.223  1.00  0.00     0.198 A 
ATOM     70  C   UNL A   1      52.195  27.614  23.946  1.00  0.00     0.198 A 
ATOM     71  F   UNL A   1      49.957  28.097  23.410  1.00  0.00    -0.203 F 
ATOM     72  F   UNL A   1      53.769  26.943  27.140  1.00  0.00    -0.200 F 
ATOM     73  C   UNL A   1      53.171  27.327  24.888  1.00  0.00     0.200 A 
ATOM     74  F   UNL A   1      52.527  27.735  22.654  1.00  0.00    -0.200 F 
ATOM     75  F   UNL A   1      54.451  27.198  24.511  1.00  0.00    -0.200 F 
ENDBRANCH  51  65
BRANCH  52  76
ATOM     76  C   UNL A   1      40.934  28.510  28.487  1.00  0.00     0.064 A 
ATOM     77  C   UNL A   1      40.530  28.173  29.787  1.00  0.00     0.173 A 
ATOM     78  C   UNL A   1      39.957  28.990  27.604  1.00  0.00     0.173 A 
ATOM     79  F   UNL A   1      41.425  27.690  30.661  1.00  0.00    -0.203 F 
ATOM     80  C   UNL A   1      39.201  28.298  30.183  1.00  0.00     0.198 A 
ATOM     81  C   UNL A   1      38.632  29.139  28.010  1.00  0.00     0.198 A 
ATOM     82  F   UNL A   1      40.293  29.329  26.350  1.00  0.00    -0.203 F 
ATOM     83  F   UNL A   1      38.836  27.933  31.419  1.00  0.00    -0.200 F 
ATOM     84  C   UNL A   1      38.254  28.788  29.296  1.00  0.00     0.200 A 
ATOM     85  F   UNL A   1      37.722  29.626  27.154  1.00  0.00    -0.200 F 
ATOM     86  F   UNL A   1      36.976  28.915  29.680  1.00  0.00    -0.200 F 
ENDBRANCH  52  76
BRANCH  64  87
ATOM     87  C   UNL A   1      46.453  32.773  28.763  1.00  0.00     0.064 A 
ATOM     88  C   UNL A   1      46.219  33.872  27.928  1.00  0.00     0.173 A 
ATOM     89  C   UNL A   1      46.779  33.023  30.106  1.00  0.00     0.173 A 
ATOM     90  F   UNL A   1      45.919  33.686  26.633  1.00  0.00    -0.203 F 
ATOM     91  C   UNL A   1      46.313  35.173  28.417  1.00  0.00     0.198 A 
ATOM     92  C   UNL A   1      46.844  34.322  30.598  1.00  0.00     0.198 A 
ATOM     93  F   UNL A   1      47.008  32.003  30.948  1.00  0.00    -0.203 F 
ATOM     94  F   UNL A   1      46.114  36.213  27.594  1.00  0.00    -0.200 F 
ATOM     95  C   UNL A   1      46.613  35.397  29.753  1.00  0.00     0.200 A 
ATOM     96  F   UNL A   1      47.119  34.534  31.892  1.00  0.00    -0.200 F 
ATOM     97  F   UNL A   1      46.680  36.649  30.227  1.00  0.00    -0.200 F 
ENDBRANCH  64  87
ENDBRANCH  38  39
ENDBRANCH  30  33
ENDBRANCH  28  29
ENDBRANCH  27  28
ENDBRANCH  26  27
ENDBRANCH   1  26
TORSDOF 17
ENDMDL
