MODEL 1
REMARK VINA RESULT:     -12.3      0.000      0.000
REMARK SMILES COc1ccc2c(c1)C=C(C(=O)NCCCCCCNC(=O)c1ccc(-c3c4nc(c(-c5c(F)c(F)c(F)c(F)c5F)c5ccc([nH]5)c(-c5c(F)c(F)c(F)c(F)c5F)c5nc(c(-c6c(F)c(F)c(F)c(F)c6F)c6ccc3[nH]6)C=C5)C=C4)cc1)[C@H](C(F)(F)F)O2
REMARK SMILES IDX 17 1 16 2 15 3 14 4 13 5 11 6 12 7 10 9 3 10 4 11 8 12 5 13
REMARK SMILES IDX 7 14 6 15 9 16 91 17 86 18 2 19 1 20 87 21 88 22 89 23 90 24
REMARK SMILES IDX 18 25 19 26 20 27 21 28 22 30 23 31 24 32 85 33 25 34 84 35
REMARK SMILES IDX 26 36 27 37 28 38 78 39 29 40 83 41 77 42 79 43 30 44 82 45
REMARK SMILES IDX 76 46 75 47 31 49 63 50 43 51 62 52 44 53 47 54 61 55 80 56
REMARK SMILES IDX 45 57 46 58 60 60 81 61 48 62 32 63 33 64 41 65 34 66 35 67
REMARK SMILES IDX 39 68 42 69 36 70 37 71 40 72 38 73 64 74 65 75 73 76 66 77
REMARK SMILES IDX 67 78 71 79 74 80 68 81 69 82 72 83 70 84 49 85 50 86 58 87
REMARK SMILES IDX 51 88 52 89 56 90 59 91 53 92 54 93 57 94 55 95
REMARK H PARENT 13 8 20 29 79 48 47 59
REMARK Flexibility Score: inf
ROOT
ATOM      1  C   UNL A   1      37.379  21.208  24.615  1.00  0.00     0.002 C 
ENDROOT
BRANCH   1   2
ATOM      2  C   UNL A   1      37.287  22.242  25.743  1.00  0.00     0.002 C 
BRANCH   2   3
ATOM      3  C   UNL A   1      37.107  23.692  25.270  1.00  0.00     0.021 C 
BRANCH   3   4
ATOM      4  C   UNL A   1      35.649  24.041  24.943  1.00  0.00     0.116 C 
BRANCH   4   5
ATOM      5  N   UNL A   1      34.804  23.693  26.073  1.00  0.00    -0.352 N 
ATOM      6  C   UNL A   1      33.787  22.805  26.228  1.00  0.00     0.251 C 
ATOM      7  O   UNL A   1      33.101  22.884  27.243  1.00  0.00    -0.270 OA
ATOM      8  H   UNL A   1      35.009  24.203  26.890  1.00  0.00     0.163 HD
BRANCH   6   9
ATOM      9  C   UNL A   1      33.534  21.697  25.270  1.00  0.00     0.067 C 
ATOM     10  C   UNL A   1      33.794  17.099  23.832  1.00  0.00     0.119 A 
ATOM     11  C   UNL A   1      32.831  17.340  22.853  1.00  0.00     0.050 A 
ATOM     12  C   UNL A   1      34.235  18.141  24.646  1.00  0.00     0.058 A 
ATOM     13  C   UNL A   1      32.319  18.630  22.690  1.00  0.00     0.051 A 
ATOM     14  C   UNL A   1      33.729  19.434  24.477  1.00  0.00     0.021 A 
ATOM     15  C   UNL A   1      32.763  19.673  23.504  1.00  0.00     0.128 A 
ATOM     16  C   UNL A   1      34.126  20.501  25.379  1.00  0.00     0.025 C 
ATOM     17  O   UNL A   1      32.153  20.877  23.336  1.00  0.00    -0.475 OA
ATOM     18  C   UNL A   1      32.665  22.036  24.059  1.00  0.00     0.314 C 
BRANCH  10  19
ATOM     19  O   UNL A   1      34.287  15.859  24.133  1.00  0.00    -0.497 OA
ATOM     20  C   UNL A   1      35.056  15.821  25.331  1.00  0.00     0.278 C 
ENDBRANCH  10  19
BRANCH  18  21
ATOM     21  C   UNL A   1      31.469  22.983  24.312  1.00  0.00     0.429 C 
ATOM     22  F   UNL A   1      31.848  24.261  24.535  1.00  0.00    -0.167 F 
ATOM     23  F   UNL A   1      30.651  23.034  23.226  1.00  0.00    -0.167 F 
ATOM     24  F   UNL A   1      30.705  22.581  25.355  1.00  0.00    -0.167 F 
ENDBRANCH  18  21
ENDBRANCH   6   9
ENDBRANCH   4   5
ENDBRANCH   3   4
ENDBRANCH   2   3
ENDBRANCH   1   2
BRANCH   1  25
ATOM     25  C   UNL A   1      38.193  19.956  24.950  1.00  0.00     0.021 C 
BRANCH  25  26
ATOM     26  C   UNL A   1      39.152  20.127  26.126  1.00  0.00     0.116 C 
BRANCH  26  27
ATOM     27  N   UNL A   1      40.218  19.138  26.097  1.00  0.00    -0.352 N 
ATOM     28  C   UNL A   1      41.577  19.325  26.093  1.00  0.00     0.251 C 
ATOM     29  H   UNL A   1      39.921  18.199  26.079  1.00  0.00     0.163 HD
ATOM     30  O   UNL A   1      42.330  18.391  25.833  1.00  0.00    -0.269 OA
BRANCH  28  31
ATOM     31  C   UNL A   1      42.138  20.659  26.394  1.00  0.00     0.039 A 
ATOM     32  C   UNL A   1      42.533  21.481  25.335  1.00  0.00     0.014 A 
ATOM     33  C   UNL A   1      42.293  21.087  27.715  1.00  0.00     0.014 A 
ATOM     34  C   UNL A   1      43.034  22.757  25.601  1.00  0.00     0.010 A 
ATOM     35  C   UNL A   1      42.731  22.382  27.976  1.00  0.00     0.010 A 
ATOM     36  C   UNL A   1      43.109  23.228  26.922  1.00  0.00    -0.014 A 
BRANCH  36  37
ATOM     37  C   UNL A   1      43.579  24.604  27.223  1.00  0.00     0.031 A 
ATOM     38  C   UNL A   1      42.616  25.635  27.741  1.00  0.00     0.074 A 
ATOM     39  C   UNL A   1      44.858  24.941  26.962  1.00  0.00     0.049 A 
ATOM     40  N   UNL A   1      42.814  26.906  27.981  1.00  0.00    -0.248 NA
ATOM     41  C   UNL A   1      41.240  25.182  28.001  1.00  0.00     0.031 C 
ATOM     42  C   UNL A   1      45.874  24.041  26.416  1.00  0.00     0.029 A 
ATOM     43  N   UNL A   1      45.515  26.137  27.106  1.00  0.00    -0.354 N 
ATOM     44  C   UNL A   1      41.588  27.406  28.402  1.00  0.00     0.074 A 
ATOM     45  C   UNL A   1      40.642  26.314  28.342  1.00  0.00     0.031 C 
ATOM     46  C   UNL A   1      47.030  24.712  26.283  1.00  0.00     0.029 A 
ATOM     47  C   UNL A   1      46.826  26.096  26.698  1.00  0.00     0.049 A 
ATOM     48  H   UNL A   1      45.088  26.947  27.467  1.00  0.00     0.167 HD
ATOM     49  C   UNL A   1      41.287  28.658  28.821  1.00  0.00     0.037 A 
ATOM     50  C   UNL A   1      47.755  27.070  26.652  1.00  0.00     0.037 A 
ATOM     51  C   UNL A   1      42.239  29.735  28.906  1.00  0.00     0.049 A 
ATOM     52  C   UNL A   1      47.391  28.454  27.121  1.00  0.00     0.074 A 
ATOM     53  C   UNL A   1      42.047  31.021  29.379  1.00  0.00     0.029 A 
ATOM     54  N   UNL A   1      43.565  29.649  28.506  1.00  0.00    -0.354 N 
ATOM     55  N   UNL A   1      46.247  28.897  27.582  1.00  0.00    -0.248 NA
ATOM     56  C   UNL A   1      48.451  29.471  27.068  1.00  0.00     0.031 C 
ATOM     57  C   UNL A   1      43.243  31.729  29.222  1.00  0.00     0.029 A 
ATOM     58  C   UNL A   1      44.196  30.868  28.700  1.00  0.00     0.049 A 
ATOM     59  H   UNL A   1      43.993  28.843  28.140  1.00  0.00     0.167 HD
ATOM     60  C   UNL A   1      46.456  30.232  27.899  1.00  0.00     0.074 A 
ATOM     61  C   UNL A   1      47.841  30.523  27.593  1.00  0.00     0.031 C 
ATOM     62  C   UNL A   1      45.578  31.138  28.398  1.00  0.00     0.037 A 
BRANCH  49  63
ATOM     63  C   UNL A   1      39.869  28.936  29.225  1.00  0.00     0.064 A 
ATOM     64  C   UNL A   1      38.904  29.346  28.292  1.00  0.00     0.173 A 
ATOM     65  C   UNL A   1      39.456  28.742  30.552  1.00  0.00     0.173 A 
ATOM     66  F   UNL A   1      39.248  29.556  27.013  1.00  0.00    -0.203 F 
ATOM     67  C   UNL A   1      37.585  29.573  28.677  1.00  0.00     0.198 A 
ATOM     68  C   UNL A   1      38.130  28.942  30.927  1.00  0.00     0.198 A 
ATOM     69  F   UNL A   1      40.336  28.346  31.483  1.00  0.00    -0.203 F 
ATOM     70  F   UNL A   1      36.692  30.006  27.777  1.00  0.00    -0.200 F 
ATOM     71  C   UNL A   1      37.197  29.364  29.992  1.00  0.00     0.200 A 
ATOM     72  F   UNL A   1      37.754  28.726  32.196  1.00  0.00    -0.200 F 
ATOM     73  F   UNL A   1      35.925  29.572  30.357  1.00  0.00    -0.200 F 
ENDBRANCH  49  63
BRANCH  50  74
ATOM     74  C   UNL A   1      49.124  26.771  26.156  1.00  0.00     0.064 A 
ATOM     75  C   UNL A   1      50.112  26.279  27.020  1.00  0.00     0.173 A 
ATOM     76  C   UNL A   1      49.476  26.982  24.815  1.00  0.00     0.173 A 
ATOM     77  F   UNL A   1      49.828  26.081  28.316  1.00  0.00    -0.203 F 
ATOM     78  C   UNL A   1      51.406  26.033  26.568  1.00  0.00     0.198 A 
ATOM     79  C   UNL A   1      50.763  26.707  24.357  1.00  0.00     0.198 A 
ATOM     80  F   UNL A   1      48.567  27.447  23.946  1.00  0.00    -0.203 F 
ATOM     81  F   UNL A   1      52.344  25.612  27.427  1.00  0.00    -0.200 F 
ATOM     82  C   UNL A   1      51.730  26.243  25.236  1.00  0.00     0.200 A 
ATOM     83  F   UNL A   1      51.068  26.898  23.067  1.00  0.00    -0.200 F 
ATOM     84  F   UNL A   1      52.975  26.005  24.802  1.00  0.00    -0.200 F 
ENDBRANCH  50  74
BRANCH  62  85
ATOM     85  C   UNL A   1      46.098  32.518  28.676  1.00  0.00     0.064 A 
ATOM     86  C   UNL A   1      46.677  32.852  29.910  1.00  0.00     0.173 A 
ATOM     87  C   UNL A   1      46.051  33.507  27.682  1.00  0.00     0.173 A 
ATOM     88  F   UNL A   1      46.730  31.946  30.897  1.00  0.00    -0.203 F 
ATOM     89  C   UNL A   1      47.166  34.134  30.145  1.00  0.00     0.198 A 
ATOM     90  C   UNL A   1      46.569  34.778  27.911  1.00  0.00     0.198 A 
ATOM     91  F   UNL A   1      45.515  33.236  26.482  1.00  0.00    -0.203 F 
ATOM     92  F   UNL A   1      47.670  34.445  31.347  1.00  0.00    -0.200 F 
ATOM     93  C   UNL A   1      47.119  35.093  29.144  1.00  0.00     0.200 A 
ATOM     94  F   UNL A   1      46.536  35.699  26.938  1.00  0.00    -0.200 F 
ATOM     95  F   UNL A   1      47.597  36.324  29.371  1.00  0.00    -0.200 F 
ENDBRANCH  62  85
ENDBRANCH  36  37
ENDBRANCH  28  31
ENDBRANCH  26  27
ENDBRANCH  25  26
ENDBRANCH   1  25
TORSDOF 15
ENDMDL
MODEL 2
REMARK VINA RESULT:     -12.3      6.350     11.683
REMARK SMILES COc1ccc2c(c1)C=C(C(=O)NCCCCCCNC(=O)c1ccc(-c3c4nc(c(-c5c(F)c(F)c(F)c(F)c5F)c5ccc([nH]5)c(-c5c(F)c(F)c(F)c(F)c5F)c5nc(c(-c6c(F)c(F)c(F)c(F)c6F)c6ccc3[nH]6)C=C5)C=C4)cc1)[C@H](C(F)(F)F)O2
REMARK SMILES IDX 17 1 16 2 15 3 14 4 13 5 11 6 12 7 10 9 3 10 4 11 8 12 5 13
REMARK SMILES IDX 7 14 6 15 9 16 91 17 86 18 2 19 1 20 87 21 88 22 89 23 90 24
REMARK SMILES IDX 18 25 19 26 20 27 21 28 22 30 23 31 24 32 85 33 25 34 84 35
REMARK SMILES IDX 26 36 27 37 28 38 78 39 29 40 83 41 77 42 79 43 30 44 82 45
REMARK SMILES IDX 76 46 75 47 31 49 63 50 43 51 62 52 44 53 47 54 61 55 80 56
REMARK SMILES IDX 45 57 46 58 60 60 81 61 48 62 32 63 33 64 41 65 34 66 35 67
REMARK SMILES IDX 39 68 42 69 36 70 37 71 40 72 38 73 64 74 65 75 73 76 66 77
REMARK SMILES IDX 67 78 71 79 74 80 68 81 69 82 72 83 70 84 49 85 50 86 58 87
REMARK SMILES IDX 51 88 52 89 56 90 59 91 53 92 54 93 57 94 55 95
REMARK H PARENT 13 8 20 29 79 48 47 59
REMARK Flexibility Score: inf
ROOT
ATOM      1  C   UNL A   1      31.615  30.735  26.166  1.00  0.00     0.002 C 
ENDROOT
BRANCH   1   2
ATOM      2  C   UNL A   1      32.426  29.786  27.058  1.00  0.00     0.002 C 
BRANCH   2   3
ATOM      3  C   UNL A   1      33.700  29.228  26.408  1.00  0.00     0.021 C 
BRANCH   3   4
ATOM      4  C   UNL A   1      33.611  27.727  26.102  1.00  0.00     0.116 C 
BRANCH   4   5
ATOM      5  N   UNL A   1      33.915  27.502  24.699  1.00  0.00    -0.352 N 
ATOM      6  C   UNL A   1      33.134  27.347  23.598  1.00  0.00     0.251 C 
ATOM      7  O   UNL A   1      33.665  26.945  22.565  1.00  0.00    -0.270 OA
ATOM      8  H   UNL A   1      34.880  27.451  24.508  1.00  0.00     0.163 HD
BRANCH   6   9
ATOM      9  C   UNL A   1      31.698  27.729  23.569  1.00  0.00     0.067 C 
ATOM     10  C   UNL A   1      28.074  30.822  22.814  1.00  0.00     0.119 A 
ATOM     11  C   UNL A   1      27.159  29.772  22.840  1.00  0.00     0.050 A 
ATOM     12  C   UNL A   1      29.428  30.572  23.033  1.00  0.00     0.058 A 
ATOM     13  C   UNL A   1      27.605  28.472  23.093  1.00  0.00     0.051 A 
ATOM     14  C   UNL A   1      29.873  29.272  23.295  1.00  0.00     0.021 A 
ATOM     15  C   UNL A   1      28.959  28.223  23.315  1.00  0.00     0.128 A 
ATOM     16  C   UNL A   1      31.292  28.998  23.441  1.00  0.00     0.025 C 
ATOM     17  O   UNL A   1      29.320  26.919  23.469  1.00  0.00    -0.475 OA
ATOM     18  C   UNL A   1      30.696  26.607  23.839  1.00  0.00     0.314 C 
BRANCH  10  19
ATOM     19  O   UNL A   1      27.753  32.110  22.484  1.00  0.00    -0.497 OA
ATOM     20  C   UNL A   1      28.764  33.058  22.815  1.00  0.00     0.278 C 
ENDBRANCH  10  19
BRANCH  18  21
ATOM     21  C   UNL A   1      31.029  25.223  23.232  1.00  0.00     0.429 C 
ATOM     22  F   UNL A   1      29.981  24.371  23.259  1.00  0.00    -0.167 F 
ATOM     23  F   UNL A   1      31.368  25.338  21.919  1.00  0.00    -0.167 F 
ATOM     24  F   UNL A   1      32.075  24.627  23.852  1.00  0.00    -0.167 F 
ENDBRANCH  18  21
ENDBRANCH   6   9
ENDBRANCH   4   5
ENDBRANCH   3   4
ENDBRANCH   2   3
ENDBRANCH   1   2
BRANCH   1  25
ATOM     25  C   UNL A   1      31.415  32.142  26.734  1.00  0.00     0.021 C 
BRANCH  25  26
ATOM     26  C   UNL A   1      32.696  32.805  27.236  1.00  0.00     0.116 C 
BRANCH  26  27
ATOM     27  N   UNL A   1      32.469  34.190  27.617  1.00  0.00    -0.352 N 
ATOM     28  C   UNL A   1      33.023  34.910  28.645  1.00  0.00     0.251 C 
ATOM     29  H   UNL A   1      31.826  34.681  27.056  1.00  0.00     0.163 HD
ATOM     30  O   UNL A   1      32.549  35.995  28.967  1.00  0.00    -0.269 OA
BRANCH  28  31
ATOM     31  C   UNL A   1      34.191  34.372  29.375  1.00  0.00     0.039 A 
ATOM     32  C   UNL A   1      33.980  33.666  30.562  1.00  0.00     0.014 A 
ATOM     33  C   UNL A   1      35.489  34.584  28.900  1.00  0.00     0.014 A 
ATOM     34  C   UNL A   1      35.070  33.124  31.246  1.00  0.00     0.010 A 
ATOM     35  C   UNL A   1      36.567  33.988  29.547  1.00  0.00     0.010 A 
ATOM     36  C   UNL A   1      36.369  33.256  30.728  1.00  0.00    -0.014 A 
BRANCH  36  37
ATOM     37  C   UNL A   1      37.535  32.634  31.405  1.00  0.00     0.031 A 
ATOM     38  C   UNL A   1      38.258  31.485  30.761  1.00  0.00     0.074 A 
ATOM     39  C   UNL A   1      37.896  33.060  32.631  1.00  0.00     0.049 A 
ATOM     40  N   UNL A   1      39.238  30.756  31.230  1.00  0.00    -0.248 NA
ATOM     41  C   UNL A   1      37.800  31.084  29.420  1.00  0.00     0.031 C 
ATOM     42  C   UNL A   1      37.244  34.136  33.377  1.00  0.00     0.029 A 
ATOM     43  N   UNL A   1      38.890  32.627  33.472  1.00  0.00    -0.354 N 
ATOM     44  C   UNL A   1      39.503  29.805  30.252  1.00  0.00     0.074 A 
ATOM     45  C   UNL A   1      38.551  30.018  29.185  1.00  0.00     0.031 C 
ATOM     46  C   UNL A   1      37.862  34.290  34.560  1.00  0.00     0.029 A 
ATOM     47  C   UNL A   1      38.928  33.298  34.670  1.00  0.00     0.049 A 
ATOM     48  H   UNL A   1      39.516  31.904  33.240  1.00  0.00     0.167 HD
ATOM     49  C   UNL A   1      40.467  28.853  30.240  1.00  0.00     0.037 A 
ATOM     50  C   UNL A   1      39.726  33.125  35.741  1.00  0.00     0.037 A 
ATOM     51  C   UNL A   1      41.431  28.663  31.293  1.00  0.00     0.049 A 
ATOM     52  C   UNL A   1      40.787  32.058  35.701  1.00  0.00     0.074 A 
ATOM     53  C   UNL A   1      42.487  27.771  31.344  1.00  0.00     0.029 A 
ATOM     54  N   UNL A   1      41.453  29.379  32.481  1.00  0.00    -0.354 N 
ATOM     55  N   UNL A   1      41.072  31.210  34.743  1.00  0.00    -0.248 NA
ATOM     56  C   UNL A   1      41.641  31.929  36.890  1.00  0.00     0.031 C 
ATOM     57  C   UNL A   1      43.120  27.913  32.584  1.00  0.00     0.029 A 
ATOM     58  C   UNL A   1      42.491  28.930  33.283  1.00  0.00     0.049 A 
ATOM     59  H   UNL A   1      40.825  30.098  32.719  1.00  0.00     0.167 HD
ATOM     60  C   UNL A   1      42.152  30.468  35.200  1.00  0.00     0.074 A 
ATOM     61  C   UNL A   1      42.482  30.976  36.515  1.00  0.00     0.031 C 
ATOM     62  C   UNL A   1      42.811  29.454  34.586  1.00  0.00     0.037 A 
BRANCH  49  63
ATOM     63  C   UNL A   1      40.535  27.944  29.048  1.00  0.00     0.064 A 
ATOM     64  C   UNL A   1      39.759  26.777  28.968  1.00  0.00     0.173 A 
ATOM     65  C   UNL A   1      41.347  28.268  27.951  1.00  0.00     0.173 A 
ATOM     66  F   UNL A   1      38.974  26.416  29.994  1.00  0.00    -0.203 F 
ATOM     67  C   UNL A   1      39.811  25.957  27.843  1.00  0.00     0.198 A 
ATOM     68  C   UNL A   1      41.374  27.461  26.817  1.00  0.00     0.198 A 
ATOM     69  F   UNL A   1      42.105  29.374  27.974  1.00  0.00    -0.203 F 
ATOM     70  F   UNL A   1      39.094  24.826  27.807  1.00  0.00    -0.200 F 
ATOM     71  C   UNL A   1      40.612  26.304  26.765  1.00  0.00     0.200 A 
ATOM     72  F   UNL A   1      42.139  27.805  25.770  1.00  0.00    -0.200 F 
ATOM     73  F   UNL A   1      40.652  25.519  25.680  1.00  0.00    -0.200 F 
ENDBRANCH  49  63
BRANCH  50  74
ATOM     74  C   UNL A   1      39.562  33.990  36.939  1.00  0.00     0.064 A 
ATOM     75  C   UNL A   1      40.197  35.237  37.020  1.00  0.00     0.173 A 
ATOM     76  C   UNL A   1      38.781  33.584  38.031  1.00  0.00     0.173 A 
ATOM     77  F   UNL A   1      40.971  35.660  36.009  1.00  0.00    -0.203 F 
ATOM     78  C   UNL A   1      40.077  36.034  38.156  1.00  0.00     0.198 A 
ATOM     79  C   UNL A   1      38.637  34.395  39.154  1.00  0.00     0.198 A 
ATOM     80  F   UNL A   1      38.148  32.401  38.002  1.00  0.00    -0.203 F 
ATOM     81  F   UNL A   1      40.736  37.198  38.227  1.00  0.00    -0.200 F 
ATOM     82  C   UNL A   1      39.294  35.615  39.221  1.00  0.00     0.200 A 
ATOM     83  F   UNL A   1      37.869  33.993  40.175  1.00  0.00    -0.200 F 
ATOM     84  F   UNL A   1      39.178  36.382  40.313  1.00  0.00    -0.200 F 
ENDBRANCH  50  74
BRANCH  62  85
ATOM     85  C   UNL A   1      43.975  28.851  35.315  1.00  0.00     0.064 A 
ATOM     86  C   UNL A   1      45.286  29.312  35.120  1.00  0.00     0.173 A 
ATOM     87  C   UNL A   1      43.772  27.823  36.249  1.00  0.00     0.173 A 
ATOM     88  F   UNL A   1      45.533  30.282  34.226  1.00  0.00    -0.203 F 
ATOM     89  C   UNL A   1      46.353  28.750  35.814  1.00  0.00     0.198 A 
ATOM     90  C   UNL A   1      44.838  27.284  36.964  1.00  0.00     0.198 A 
ATOM     91  F   UNL A   1      42.538  27.351  36.478  1.00  0.00    -0.203 F 
ATOM     92  F   UNL A   1      47.602  29.173  35.577  1.00  0.00    -0.200 F 
ATOM     93  C   UNL A   1      46.127  27.742  36.741  1.00  0.00     0.200 A 
ATOM     94  F   UNL A   1      44.617  26.321  37.869  1.00  0.00    -0.200 F 
ATOM     95  F   UNL A   1      47.156  27.207  37.414  1.00  0.00    -0.200 F 
ENDBRANCH  62  85
ENDBRANCH  36  37
ENDBRANCH  28  31
ENDBRANCH  26  27
ENDBRANCH  25  26
ENDBRANCH   1  25
TORSDOF 15
ENDMDL
MODEL 3
REMARK VINA RESULT:     -12.2      6.327     11.637
REMARK SMILES COc1ccc2c(c1)C=C(C(=O)NCCCCCCNC(=O)c1ccc(-c3c4nc(c(-c5c(F)c(F)c(F)c(F)c5F)c5ccc([nH]5)c(-c5c(F)c(F)c(F)c(F)c5F)c5nc(c(-c6c(F)c(F)c(F)c(F)c6F)c6ccc3[nH]6)C=C5)C=C4)cc1)[C@H](C(F)(F)F)O2
REMARK SMILES IDX 17 1 16 2 15 3 14 4 13 5 11 6 12 7 10 9 3 10 4 11 8 12 5 13
REMARK SMILES IDX 7 14 6 15 9 16 91 17 86 18 2 19 1 20 87 21 88 22 89 23 90 24
REMARK SMILES IDX 18 25 19 26 20 27 21 28 22 30 23 31 24 32 85 33 25 34 84 35
REMARK SMILES IDX 26 36 27 37 28 38 78 39 29 40 83 41 77 42 79 43 30 44 82 45
REMARK SMILES IDX 76 46 75 47 31 49 63 50 43 51 62 52 44 53 47 54 61 55 80 56
REMARK SMILES IDX 45 57 46 58 60 60 81 61 48 62 32 63 33 64 41 65 34 66 35 67
REMARK SMILES IDX 39 68 42 69 36 70 37 71 40 72 38 73 64 74 65 75 73 76 66 77
REMARK SMILES IDX 67 78 71 79 74 80 68 81 69 82 72 83 70 84 49 85 50 86 58 87
REMARK SMILES IDX 51 88 52 89 56 90 59 91 53 92 54 93 57 94 55 95
REMARK H PARENT 13 8 20 29 79 48 47 59
REMARK Flexibility Score: inf
ROOT
ATOM      1  C   UNL A   1      31.478  30.751  26.239  1.00  0.00     0.002 C 
ENDROOT
BRANCH   1   2
ATOM      2  C   UNL A   1      32.513  29.988  27.074  1.00  0.00     0.002 C 
BRANCH   2   3
ATOM      3  C   UNL A   1      33.718  29.466  26.279  1.00  0.00     0.021 C 
BRANCH   3   4
ATOM      4  C   UNL A   1      33.680  27.948  26.055  1.00  0.00     0.116 C 
BRANCH   4   5
ATOM      5  N   UNL A   1      33.974  27.659  24.661  1.00  0.00    -0.352 N 
ATOM      6  C   UNL A   1      33.185  27.457  23.574  1.00  0.00     0.251 C 
ATOM      7  O   UNL A   1      33.707  27.007  22.557  1.00  0.00    -0.270 OA
ATOM      8  H   UNL A   1      34.937  27.597  24.466  1.00  0.00     0.163 HD
BRANCH   6   9
ATOM      9  C   UNL A   1      31.749  27.842  23.537  1.00  0.00     0.067 C 
ATOM     10  C   UNL A   1      28.128  30.903  22.645  1.00  0.00     0.119 A 
ATOM     11  C   UNL A   1      27.210  29.859  22.739  1.00  0.00     0.050 A 
ATOM     12  C   UNL A   1      29.483  30.660  22.865  1.00  0.00     0.058 A 
ATOM     13  C   UNL A   1      27.654  28.574  23.060  1.00  0.00     0.051 A 
ATOM     14  C   UNL A   1      29.927  29.375  23.195  1.00  0.00     0.021 A 
ATOM     15  C   UNL A   1      29.010  28.332  23.282  1.00  0.00     0.128 A 
ATOM     16  C   UNL A   1      31.346  29.104  23.342  1.00  0.00     0.025 C 
ATOM     17  O   UNL A   1      29.368  27.038  23.507  1.00  0.00    -0.475 OA
ATOM     18  C   UNL A   1      30.746  26.741  23.880  1.00  0.00     0.314 C 
BRANCH  10  19
ATOM     19  O   UNL A   1      27.809  32.171  22.246  1.00  0.00    -0.497 OA
ATOM     20  C   UNL A   1      28.028  32.411  20.859  1.00  0.00     0.278 C 
ENDBRANCH  10  19
BRANCH  18  21
ATOM     21  C   UNL A   1      31.069  25.324  23.349  1.00  0.00     0.429 C 
ATOM     22  F   UNL A   1      32.071  24.724  24.029  1.00  0.00    -0.167 F 
ATOM     23  F   UNL A   1      29.996  24.499  23.484  1.00  0.00    -0.167 F 
ATOM     24  F   UNL A   1      31.393  25.328  22.034  1.00  0.00    -0.167 F 
ENDBRANCH  18  21
ENDBRANCH   6   9
ENDBRANCH   4   5
ENDBRANCH   3   4
ENDBRANCH   2   3
ENDBRANCH   1   2
BRANCH   1  25
ATOM     25  C   UNL A   1      31.402  32.253  26.520  1.00  0.00     0.021 C 
BRANCH  25  26
ATOM     26  C   UNL A   1      32.614  32.817  27.256  1.00  0.00     0.116 C 
BRANCH  26  27
ATOM     27  N   UNL A   1      32.418  34.210  27.626  1.00  0.00    -0.352 N 
ATOM     28  C   UNL A   1      33.000  34.931  28.638  1.00  0.00     0.251 C 
ATOM     29  H   UNL A   1      31.776  34.707  27.069  1.00  0.00     0.163 HD
ATOM     30  O   UNL A   1      32.550  36.027  28.955  1.00  0.00    -0.269 OA
BRANCH  28  31
ATOM     31  C   UNL A   1      34.168  34.380  29.356  1.00  0.00     0.039 A 
ATOM     32  C   UNL A   1      33.962  33.682  30.548  1.00  0.00     0.014 A 
ATOM     33  C   UNL A   1      35.464  34.571  28.865  1.00  0.00     0.014 A 
ATOM     34  C   UNL A   1      35.052  33.128  31.223  1.00  0.00     0.010 A 
ATOM     35  C   UNL A   1      36.541  33.963  29.502  1.00  0.00     0.010 A 
ATOM     36  C   UNL A   1      36.347  33.239  30.689  1.00  0.00    -0.014 A 
BRANCH  36  37
ATOM     37  C   UNL A   1      37.511  32.603  31.355  1.00  0.00     0.031 A 
ATOM     38  C   UNL A   1      38.233  31.464  30.691  1.00  0.00     0.074 A 
ATOM     39  C   UNL A   1      37.873  33.008  32.589  1.00  0.00     0.049 A 
ATOM     40  N   UNL A   1      39.212  30.726  31.148  1.00  0.00    -0.248 NA
ATOM     41  C   UNL A   1      37.775  31.088  29.344  1.00  0.00     0.031 C 
ATOM     42  C   UNL A   1      37.222  34.072  33.353  1.00  0.00     0.029 A 
ATOM     43  N   UNL A   1      38.866  32.559  33.422  1.00  0.00    -0.354 N 
ATOM     44  C   UNL A   1      39.476  29.792  30.153  1.00  0.00     0.074 A 
ATOM     45  C   UNL A   1      38.524  30.025  29.089  1.00  0.00     0.031 C 
ATOM     46  C   UNL A   1      37.841  34.203  34.538  1.00  0.00     0.029 A 
ATOM     47  C   UNL A   1      38.905  33.209  34.631  1.00  0.00     0.049 A 
ATOM     48  H   UNL A   1      39.492  31.839  33.177  1.00  0.00     0.167 HD
ATOM     49  C   UNL A   1      40.439  28.840  30.125  1.00  0.00     0.037 A 
ATOM     50  C   UNL A   1      39.702  33.016  35.699  1.00  0.00     0.037 A 
ATOM     51  C   UNL A   1      41.401  28.630  31.174  1.00  0.00     0.049 A 
ATOM     52  C   UNL A   1      40.762  31.948  35.640  1.00  0.00     0.074 A 
ATOM     53  C   UNL A   1      42.456  27.735  31.210  1.00  0.00     0.029 A 
ATOM     54  N   UNL A   1      41.424  29.325  32.374  1.00  0.00    -0.354 N 
ATOM     55  N   UNL A   1      41.046  31.117  34.668  1.00  0.00    -0.248 NA
ATOM     56  C   UNL A   1      41.616  31.797  36.827  1.00  0.00     0.031 C 
ATOM     57  C   UNL A   1      43.090  27.854  32.452  1.00  0.00     0.029 A 
ATOM     58  C   UNL A   1      42.462  28.861  33.169  1.00  0.00     0.049 A 
ATOM     59  H   UNL A   1      40.798  30.040  32.625  1.00  0.00     0.167 HD
ATOM     60  C   UNL A   1      42.125  30.365  35.112  1.00  0.00     0.074 A 
ATOM     61  C   UNL A   1      42.456  30.849  36.436  1.00  0.00     0.031 C 
ATOM     62  C   UNL A   1      42.782  29.361  34.481  1.00  0.00     0.037 A 
BRANCH  49  63
ATOM     63  C   UNL A   1      40.505  27.951  28.917  1.00  0.00     0.064 A 
ATOM     64  C   UNL A   1      39.767  26.760  28.839  1.00  0.00     0.173 A 
ATOM     65  C   UNL A   1      41.276  28.319  27.804  1.00  0.00     0.173 A 
ATOM     66  F   UNL A   1      39.021  26.357  29.878  1.00  0.00    -0.203 F 
ATOM     67  C   UNL A   1      39.817  25.959  27.700  1.00  0.00     0.198 A 
ATOM     68  C   UNL A   1      41.301  27.531  26.657  1.00  0.00     0.198 A 
ATOM     69  F   UNL A   1      41.997  29.449  27.825  1.00  0.00    -0.203 F 
ATOM     70  F   UNL A   1      39.137  24.805  27.665  1.00  0.00    -0.200 F 
ATOM     71  C   UNL A   1      40.576  26.349  26.607  1.00  0.00     0.200 A 
ATOM     72  F   UNL A   1      42.025  27.915  25.596  1.00  0.00    -0.200 F 
ATOM     73  F   UNL A   1      40.614  25.583  25.509  1.00  0.00    -0.200 F 
ENDBRANCH  49  63
BRANCH  50  74
ATOM     74  C   UNL A   1      39.540  33.860  36.912  1.00  0.00     0.064 A 
ATOM     75  C   UNL A   1      38.756  33.427  37.991  1.00  0.00     0.173 A 
ATOM     76  C   UNL A   1      40.152  35.117  37.014  1.00  0.00     0.173 A 
ATOM     77  F   UNL A   1      38.134  32.240  37.932  1.00  0.00    -0.203 F 
ATOM     78  C   UNL A   1      38.571  34.231  39.113  1.00  0.00     0.198 A 
ATOM     79  C   UNL A   1      39.990  35.907  38.150  1.00  0.00     0.198 A 
ATOM     80  F   UNL A   1      40.917  35.576  36.011  1.00  0.00    -0.203 F 
ATOM     81  F   UNL A   1      37.775  33.814  40.108  1.00  0.00    -0.200 F 
ATOM     82  C   UNL A   1      39.191  35.468  39.194  1.00  0.00     0.200 A 
ATOM     83  F   UNL A   1      40.603  37.096  38.230  1.00  0.00    -0.200 F 
ATOM     84  F   UNL A   1      39.013  36.240  40.275  1.00  0.00    -0.200 F 
ENDBRANCH  50  74
BRANCH  62  85
ATOM     85  C   UNL A   1      43.946  28.743  35.199  1.00  0.00     0.064 A 
ATOM     86  C   UNL A   1      43.790  27.622  36.027  1.00  0.00     0.173 A 
ATOM     87  C   UNL A   1      45.240  29.258  35.027  1.00  0.00     0.173 A 
ATOM     88  F   UNL A   1      42.570  27.103  36.237  1.00  0.00    -0.203 F 
ATOM     89  C   UNL A   1      44.882  27.054  36.676  1.00  0.00     0.198 A 
ATOM     90  C   UNL A   1      46.335  28.669  35.653  1.00  0.00     0.198 A 
ATOM     91  F   UNL A   1      45.445  30.325  34.239  1.00  0.00    -0.203 F 
ATOM     92  F   UNL A   1      44.703  26.014  37.501  1.00  0.00    -0.200 F 
ATOM     93  C   UNL A   1      46.154  27.573  36.482  1.00  0.00     0.200 A 
ATOM     94  F   UNL A   1      47.565  29.163  35.453  1.00  0.00    -0.200 F 
ATOM     95  F   UNL A   1      47.206  27.021  37.103  1.00  0.00    -0.200 F 
ENDBRANCH  62  85
ENDBRANCH  36  37
ENDBRANCH  28  31
ENDBRANCH  26  27
ENDBRANCH  25  26
ENDBRANCH   1  25
TORSDOF 15
ENDMDL
