MODEL 1
REMARK VINA RESULT:     -11.9      0.000      0.000
REMARK SMILES O=C(NCCCCCCNC(=O)C1([C@H]2CCC[C@H]2O)CCCCC1)c1ccc(-c2c3nc(c(-c4c(F)c(F)c(F)c(F)c4F)c4ccc([nH]4)c(-c4c(F)c(F)c(F)c(F)c4F)c4nc(c(-c5c(F)c(F)c(F)c(F)c5F)c5ccc2[nH]5)C=C4)C=C3)cc1
REMARK SMILES IDX 6 1 5 2 4 3 3 4 1 5 2 6 25 8 26 9 87 10 27 11 86 12 28 13
REMARK SMILES IDX 29 14 30 15 80 16 31 17 85 18 79 19 81 20 32 21 84 22 78 23
REMARK SMILES IDX 77 24 33 26 65 27 45 28 64 29 46 30 49 31 63 32 82 33 47 34
REMARK SMILES IDX 48 35 62 37 83 38 50 39 34 40 35 41 43 42 36 43 37 44 41 45
REMARK SMILES IDX 44 46 38 47 39 48 42 49 40 50 66 51 67 52 75 53 68 54 69 55
REMARK SMILES IDX 73 56 76 57 70 58 71 59 74 60 72 61 51 62 52 63 60 64 53 65
REMARK SMILES IDX 54 66 58 67 61 68 55 69 56 70 59 71 57 72 7 73 8 74 9 75
REMARK SMILES IDX 10 76 11 77 12 79 13 80 20 81 24 82 21 83 23 84 22 85 14 86
REMARK SMILES IDX 15 87 18 88 16 89 17 90 19 91
REMARK H PARENT 3 7 81 25 49 36 10 78 19 92
REMARK Flexibility Score: inf
ROOT
ATOM      1  C   UNL A   1      31.405  30.845  26.083  1.00  0.00     0.002 C 
ENDROOT
BRANCH   1   2
ATOM      2  C   UNL A   1      31.327  32.310  26.513  1.00  0.00     0.021 C 
BRANCH   2   3
ATOM      3  C   UNL A   1      32.614  32.841  27.127  1.00  0.00     0.116 C 
BRANCH   3   4
ATOM      4  N   UNL A   1      32.451  34.197  27.624  1.00  0.00    -0.352 N 
ATOM      5  O   UNL A   1      32.637  35.865  29.134  1.00  0.00    -0.269 OA
ATOM      6  C   UNL A   1      33.056  34.801  28.698  1.00  0.00     0.251 C 
ATOM      7  H   UNL A   1      31.819  34.760  27.121  1.00  0.00     0.163 HD
BRANCH   6   8
ATOM      8  C   UNL A   1      34.218  34.145  29.328  1.00  0.00     0.039 A 
ATOM      9  C   UNL A   1      34.028  33.223  30.360  1.00  0.00     0.014 A 
ATOM     10  C   UNL A   1      35.504  34.444  28.874  1.00  0.00     0.014 A 
ATOM     11  C   UNL A   1      35.126  32.700  31.027  1.00  0.00     0.010 A 
ATOM     12  C   UNL A   1      36.606  33.838  29.481  1.00  0.00     0.010 A 
ATOM     13  C   UNL A   1      36.425  32.975  30.573  1.00  0.00    -0.014 A 
BRANCH  13  14
ATOM     14  C   UNL A   1      37.570  32.272  31.201  1.00  0.00     0.031 A 
ATOM     15  C   UNL A   1      38.037  32.621  32.583  1.00  0.00     0.074 A 
ATOM     16  C   UNL A   1      38.178  31.296  30.499  1.00  0.00     0.049 A 
ATOM     17  N   UNL A   1      39.025  32.107  33.271  1.00  0.00    -0.248 NA
ATOM     18  C   UNL A   1      37.308  33.688  33.285  1.00  0.00     0.031 C 
ATOM     19  C   UNL A   1      37.812  30.884  29.141  1.00  0.00     0.029 A 
ATOM     20  N   UNL A   1      39.219  30.467  30.827  1.00  0.00    -0.354 N 
ATOM     21  C   UNL A   1      39.049  32.796  34.477  1.00  0.00     0.074 A 
ATOM     22  C   UNL A   1      37.993  33.785  34.416  1.00  0.00     0.031 C 
ATOM     23  C   UNL A   1      38.584  29.854  28.769  1.00  0.00     0.029 A 
ATOM     24  C   UNL A   1      39.549  29.583  29.828  1.00  0.00     0.049 A 
ATOM     25  H   UNL A   1      39.685  30.501  31.693  1.00  0.00     0.167 HD
ATOM     26  C   UNL A   1      39.873  32.609  35.536  1.00  0.00     0.037 A 
ATOM     27  C   UNL A   1      40.537  28.674  29.759  1.00  0.00     0.037 A 
ATOM     28  C   UNL A   1      40.918  31.616  35.582  1.00  0.00     0.049 A 
ATOM     29  C   UNL A   1      41.462  28.523  30.931  1.00  0.00     0.074 A 
ATOM     30  C   UNL A   1      41.786  31.326  36.619  1.00  0.00     0.029 A 
ATOM     31  N   UNL A   1      41.242  30.758  34.539  1.00  0.00    -0.354 N 
ATOM     32  N   UNL A   1      41.449  29.151  32.082  1.00  0.00    -0.248 NA
ATOM     33  C   UNL A   1      42.540  27.537  30.796  1.00  0.00     0.031 C 
ATOM     34  C   UNL A   1      42.674  30.336  36.184  1.00  0.00     0.029 A 
ATOM     35  C   UNL A   1      42.317  29.959  34.900  1.00  0.00     0.049 A 
ATOM     36  H   UNL A   1      40.778  30.724  33.671  1.00  0.00     0.167 HD
ATOM     37  C   UNL A   1      42.497  28.620  32.817  1.00  0.00     0.074 A 
ATOM     38  C   UNL A   1      43.113  27.604  31.988  1.00  0.00     0.031 C 
ATOM     39  C   UNL A   1      42.915  28.946  34.065  1.00  0.00     0.037 A 
BRANCH  26  40
ATOM     40  C   UNL A   1      39.701  33.509  36.727  1.00  0.00     0.064 A 
ATOM     41  C   UNL A   1      40.330  34.761  36.805  1.00  0.00     0.173 A 
ATOM     42  C   UNL A   1      38.849  33.139  37.779  1.00  0.00     0.173 A 
ATOM     43  F   UNL A   1      41.162  35.162  35.831  1.00  0.00    -0.203 F 
ATOM     44  C   UNL A   1      40.132  35.596  37.903  1.00  0.00     0.198 A 
ATOM     45  C   UNL A   1      38.628  33.990  38.860  1.00  0.00     0.198 A 
ATOM     46  F   UNL A   1      38.215  31.957  37.752  1.00  0.00    -0.203 F 
ATOM     47  F   UNL A   1      40.778  36.768  37.976  1.00  0.00    -0.200 F 
ATOM     48  C   UNL A   1      39.275  35.214  38.924  1.00  0.00     0.200 A 
ATOM     49  F   UNL A   1      37.787  33.626  39.837  1.00  0.00    -0.200 F 
ATOM     50  F   UNL A   1      39.076  36.024  39.972  1.00  0.00    -0.200 F 
ENDBRANCH  26  40
BRANCH  27  51
ATOM     51  C   UNL A   1      40.704  27.854  28.531  1.00  0.00     0.064 A 
ATOM     52  C   UNL A   1      41.512  28.291  27.473  1.00  0.00     0.173 A 
ATOM     53  C   UNL A   1      40.058  26.616  28.390  1.00  0.00     0.173 A 
ATOM     54  F   UNL A   1      42.138  29.475  27.553  1.00  0.00    -0.203 F 
ATOM     55  C   UNL A   1      41.650  27.532  26.313  1.00  0.00     0.198 A 
ATOM     56  C   UNL A   1      40.227  25.842  27.245  1.00  0.00     0.198 A 
ATOM     57  F   UNL A   1      39.280  26.147  29.376  1.00  0.00    -0.203 F 
ATOM     58  F   UNL A   1      42.388  27.998  25.296  1.00  0.00    -0.200 F 
ATOM     59  C   UNL A   1      41.013  26.306  26.203  1.00  0.00     0.200 A 
ATOM     60  F   UNL A   1      39.626  24.647  27.153  1.00  0.00    -0.200 F 
ATOM     61  F   UNL A   1      41.151  25.574  25.088  1.00  0.00    -0.200 F 
ENDBRANCH  27  51
BRANCH  39  62
ATOM     62  C   UNL A   1      44.065  28.163  34.627  1.00  0.00     0.064 A 
ATOM     63  C   UNL A   1      43.874  26.952  35.309  1.00  0.00     0.173 A 
ATOM     64  C   UNL A   1      45.382  28.620  34.457  1.00  0.00     0.173 A 
ATOM     65  F   UNL A   1      42.634  26.481  35.514  1.00  0.00    -0.203 F 
ATOM     66  C   UNL A   1      44.955  26.244  35.826  1.00  0.00     0.198 A 
ATOM     67  C   UNL A   1      46.462  27.890  34.943  1.00  0.00     0.198 A 
ATOM     68  F   UNL A   1      45.621  29.768  33.807  1.00  0.00    -0.203 F 
ATOM     69  F   UNL A   1      44.744  25.119  36.525  1.00  0.00    -0.200 F 
ATOM     70  C   UNL A   1      46.248  26.708  35.635  1.00  0.00     0.200 A 
ATOM     71  F   UNL A   1      47.711  28.333  34.744  1.00  0.00    -0.200 F 
ATOM     72  F   UNL A   1      47.289  26.021  36.127  1.00  0.00    -0.200 F 
ENDBRANCH  39  62
ENDBRANCH  13  14
ENDBRANCH   6   8
ENDBRANCH   3   4
ENDBRANCH   2   3
ENDBRANCH   1   2
BRANCH   1  73
ATOM     73  C   UNL A   1      32.493  30.024  26.788  1.00  0.00     0.002 C 
BRANCH  73  74
ATOM     74  C   UNL A   1      32.045  28.640  27.267  1.00  0.00     0.021 C 
BRANCH  74  75
ATOM     75  C   UNL A   1      31.722  27.681  26.128  1.00  0.00     0.116 C 
BRANCH  75  76
ATOM     76  N   UNL A   1      31.278  26.404  26.631  1.00  0.00    -0.356 N 
ATOM     77  C   UNL A   1      31.551  25.124  26.292  1.00  0.00     0.226 C 
ATOM     78  H   UNL A   1      30.642  26.481  27.377  1.00  0.00     0.163 HD
ATOM     79  O   UNL A   1      30.941  24.283  26.969  1.00  0.00    -0.274 OA
BRANCH  77  80
ATOM     80  C   UNL A   1      32.629  24.669  25.247  1.00  0.00     0.054 C 
ATOM     81  C   UNL A   1      33.986  25.037  25.956  1.00  0.00     0.017 C 
ATOM     82  C   UNL A   1      32.651  23.139  25.006  1.00  0.00     0.017 C 
ATOM     83  C   UNL A   1      35.263  24.452  25.367  1.00  0.00     0.001 C 
ATOM     84  C   UNL A   1      33.933  22.524  24.447  1.00  0.00     0.001 C 
ATOM     85  C   UNL A   1      35.179  22.947  25.196  1.00  0.00     0.000 C 
BRANCH  80  86
ATOM     86  C   UNL A   1      32.397  25.597  23.995  1.00  0.00     0.033 C 
ATOM     87  C   UNL A   1      33.521  25.721  22.949  1.00  0.00     0.007 C 
ATOM     88  C   UNL A   1      31.114  25.429  23.151  1.00  0.00     0.118 C 
ATOM     89  C   UNL A   1      32.851  25.918  21.589  1.00  0.00     0.003 C 
ATOM     90  C   UNL A   1      31.403  26.262  21.905  1.00  0.00     0.032 C 
BRANCH  88  91
ATOM     91  O   UNL A   1      30.851  24.093  22.751  1.00  0.00    -0.393 OA
ATOM     92  H   UNL A   1      31.524  23.809  22.113  1.00  0.00     0.210 HD
ENDBRANCH  88  91
ENDBRANCH  80  86
ENDBRANCH  77  80
ENDBRANCH  75  76
ENDBRANCH  74  75
ENDBRANCH  73  74
ENDBRANCH   1  73
TORSDOF 15
ENDMDL
MODEL 2
REMARK VINA RESULT:     -11.9      0.447      7.417
REMARK SMILES O=C(NCCCCCCNC(=O)C1([C@H]2CCC[C@H]2O)CCCCC1)c1ccc(-c2c3nc(c(-c4c(F)c(F)c(F)c(F)c4F)c4ccc([nH]4)c(-c4c(F)c(F)c(F)c(F)c4F)c4nc(c(-c5c(F)c(F)c(F)c(F)c5F)c5ccc2[nH]5)C=C4)C=C3)cc1
REMARK SMILES IDX 6 1 5 2 4 3 3 4 1 5 2 6 25 8 26 9 87 10 27 11 86 12 28 13
REMARK SMILES IDX 29 14 30 15 80 16 31 17 85 18 79 19 81 20 32 21 84 22 78 23
REMARK SMILES IDX 77 24 33 26 65 27 45 28 64 29 46 30 49 31 63 32 82 33 47 34
REMARK SMILES IDX 48 35 62 37 83 38 50 39 34 40 35 41 43 42 36 43 37 44 41 45
REMARK SMILES IDX 44 46 38 47 39 48 42 49 40 50 66 51 67 52 75 53 68 54 69 55
REMARK SMILES IDX 73 56 76 57 70 58 71 59 74 60 72 61 51 62 52 63 60 64 53 65
REMARK SMILES IDX 54 66 58 67 61 68 55 69 56 70 59 71 57 72 7 73 8 74 9 75
REMARK SMILES IDX 10 76 11 77 12 79 13 80 20 81 24 82 21 83 23 84 22 85 14 86
REMARK SMILES IDX 15 87 18 88 16 89 17 90 19 91
REMARK H PARENT 3 7 81 25 49 36 10 78 19 92
REMARK Flexibility Score: inf
ROOT
ATOM      1  C   UNL A   1      31.352  30.787  26.217  1.00  0.00     0.002 C 
ENDROOT
BRANCH   1   2
ATOM      2  C   UNL A   1      31.315  32.289  26.498  1.00  0.00     0.021 C 
BRANCH   2   3
ATOM      3  C   UNL A   1      32.575  32.822  27.164  1.00  0.00     0.116 C 
BRANCH   3   4
ATOM      4  N   UNL A   1      32.408  34.198  27.602  1.00  0.00    -0.352 N 
ATOM      5  O   UNL A   1      32.595  35.932  29.035  1.00  0.00    -0.269 OA
ATOM      6  C   UNL A   1      33.016  34.850  28.645  1.00  0.00     0.251 C 
ATOM      7  H   UNL A   1      31.772  34.735  27.077  1.00  0.00     0.163 HD
BRANCH   6   8
ATOM      8  C   UNL A   1      34.184  34.228  29.297  1.00  0.00     0.039 A 
ATOM      9  C   UNL A   1      34.001  33.329  30.350  1.00  0.00     0.014 A 
ATOM     10  C   UNL A   1      35.468  34.534  28.843  1.00  0.00     0.014 A 
ATOM     11  C   UNL A   1      35.103  32.838  31.036  1.00  0.00     0.010 A 
ATOM     12  C   UNL A   1      36.575  33.960  29.470  1.00  0.00     0.010 A 
ATOM     13  C   UNL A   1      36.401  33.121  30.582  1.00  0.00    -0.014 A 
BRANCH  13  14
ATOM     14  C   UNL A   1      37.552  32.451  31.234  1.00  0.00     0.031 A 
ATOM     15  C   UNL A   1      38.304  31.349  30.550  1.00  0.00     0.074 A 
ATOM     16  C   UNL A   1      37.918  32.869  32.462  1.00  0.00     0.049 A 
ATOM     17  N   UNL A   1      39.326  30.656  30.985  1.00  0.00    -0.248 NA
ATOM     18  C   UNL A   1      37.848  30.964  29.205  1.00  0.00     0.031 C 
ATOM     19  C   UNL A   1      37.248  33.926  33.224  1.00  0.00     0.029 A 
ATOM     20  N   UNL A   1      38.942  32.469  33.281  1.00  0.00    -0.354 N 
ATOM     21  C   UNL A   1      39.626  29.747  29.980  1.00  0.00     0.074 A 
ATOM     22  C   UNL A   1      38.660  29.955  28.923  1.00  0.00     0.031 C 
ATOM     23  C   UNL A   1      37.902  34.122  34.377  1.00  0.00     0.029 A 
ATOM     24  C   UNL A   1      38.988  33.154  34.471  1.00  0.00     0.049 A 
ATOM     25  H   UNL A   1      39.581  31.761  33.040  1.00  0.00     0.167 HD
ATOM     26  C   UNL A   1      40.624  28.830  29.946  1.00  0.00     0.037 A 
ATOM     27  C   UNL A   1      39.798  33.001  35.533  1.00  0.00     0.037 A 
ATOM     28  C   UNL A   1      41.582  28.638  31.007  1.00  0.00     0.049 A 
ATOM     29  C   UNL A   1      40.864  31.947  35.483  1.00  0.00     0.074 A 
ATOM     30  C   UNL A   1      42.649  27.759  31.057  1.00  0.00     0.029 A 
ATOM     31  N   UNL A   1      41.580  29.331  32.212  1.00  0.00    -0.354 N 
ATOM     32  N   UNL A   1      41.165  31.121  34.510  1.00  0.00    -0.248 NA
ATOM     33  C   UNL A   1      41.704  31.802  36.677  1.00  0.00     0.031 C 
ATOM     34  C   UNL A   1      43.255  27.876  32.312  1.00  0.00     0.029 A 
ATOM     35  C   UNL A   1      42.611  28.876  33.020  1.00  0.00     0.049 A 
ATOM     36  H   UNL A   1      40.941  30.039  32.454  1.00  0.00     0.167 HD
ATOM     37  C   UNL A   1      42.243  30.376  34.964  1.00  0.00     0.074 A 
ATOM     38  C   UNL A   1      42.556  30.864  36.292  1.00  0.00     0.031 C 
ATOM     39  C   UNL A   1      42.913  29.377  34.339  1.00  0.00     0.037 A 
BRANCH  26  40
ATOM     40  C   UNL A   1      40.723  27.945  28.736  1.00  0.00     0.064 A 
ATOM     41  C   UNL A   1      40.004  26.743  28.638  1.00  0.00     0.173 A 
ATOM     42  C   UNL A   1      41.503  28.331  27.636  1.00  0.00     0.173 A 
ATOM     43  F   UNL A   1      39.250  26.321  29.664  1.00  0.00    -0.203 F 
ATOM     44  C   UNL A   1      40.083  25.952  27.494  1.00  0.00     0.198 A 
ATOM     45  C   UNL A   1      41.555  27.554  26.481  1.00  0.00     0.198 A 
ATOM     46  F   UNL A   1      42.204  29.475  27.671  1.00  0.00    -0.203 F 
ATOM     47  F   UNL A   1      39.423  24.787  27.441  1.00  0.00    -0.200 F 
ATOM     48  C   UNL A   1      40.851  26.362  26.414  1.00  0.00     0.200 A 
ATOM     49  F   UNL A   1      42.284  27.960  25.433  1.00  0.00    -0.200 F 
ATOM     50  F   UNL A   1      40.915  25.605  25.310  1.00  0.00    -0.200 F 
ENDBRANCH  26  40
BRANCH  27  51
ATOM     51  C   UNL A   1      39.615  33.861  36.732  1.00  0.00     0.064 A 
ATOM     52  C   UNL A   1      40.230  35.116  36.823  1.00  0.00     0.173 A 
ATOM     53  C   UNL A   1      38.820  33.444  37.811  1.00  0.00     0.173 A 
ATOM     54  F   UNL A   1      41.013  35.552  35.824  1.00  0.00    -0.203 F 
ATOM     55  C   UNL A   1      40.077  35.912  37.956  1.00  0.00     0.198 A 
ATOM     56  C   UNL A   1      38.638  34.257  38.927  1.00  0.00     0.198 A 
ATOM     57  F   UNL A   1      38.201  32.255  37.772  1.00  0.00    -0.203 F 
ATOM     58  F   UNL A   1      40.718  37.085  38.038  1.00  0.00    -0.200 F 
ATOM     59  C   UNL A   1      39.277  35.484  39.004  1.00  0.00     0.200 A 
ATOM     60  F   UNL A   1      37.846  33.849  39.928  1.00  0.00    -0.200 F 
ATOM     61  F   UNL A   1      39.125  36.253  40.091  1.00  0.00    -0.200 F 
ENDBRANCH  27  51
BRANCH  39  62
ATOM     62  C   UNL A   1      44.080  28.776  35.067  1.00  0.00     0.064 A 
ATOM     63  C   UNL A   1      43.939  27.648  35.889  1.00  0.00     0.173 A 
ATOM     64  C   UNL A   1      45.364  29.322  34.916  1.00  0.00     0.173 A 
ATOM     65  F   UNL A   1      42.730  27.099  36.080  1.00  0.00    -0.203 F 
ATOM     66  C   UNL A   1      45.034  27.109  36.559  1.00  0.00     0.198 A 
ATOM     67  C   UNL A   1      46.463  28.759  35.558  1.00  0.00     0.198 A 
ATOM     68  F   UNL A   1      45.556  30.397  34.137  1.00  0.00    -0.203 F 
ATOM     69  F   UNL A   1      44.865  26.068  37.385  1.00  0.00    -0.200 F 
ATOM     70  C   UNL A   1      46.296  27.659  36.385  1.00  0.00     0.200 A 
ATOM     71  F   UNL A   1      47.683  29.281  35.377  1.00  0.00    -0.200 F 
ATOM     72  F   UNL A   1      47.351  27.134  37.025  1.00  0.00    -0.200 F 
ENDBRANCH  39  62
ENDBRANCH  13  14
ENDBRANCH   6   8
ENDBRANCH   3   4
ENDBRANCH   2   3
ENDBRANCH   1   2
BRANCH   1  73
ATOM     73  C   UNL A   1      32.392  30.004  27.030  1.00  0.00     0.002 C 
BRANCH  73  74
ATOM     74  C   UNL A   1      31.974  28.582  27.411  1.00  0.00     0.021 C 
BRANCH  74  75
ATOM     75  C   UNL A   1      31.809  27.658  26.211  1.00  0.00     0.116 C 
BRANCH  75  76
ATOM     76  N   UNL A   1      31.246  26.389  26.604  1.00  0.00    -0.356 N 
ATOM     77  C   UNL A   1      31.460  25.113  26.209  1.00  0.00     0.226 C 
ATOM     78  H   UNL A   1      30.561  26.468  27.306  1.00  0.00     0.163 HD
ATOM     79  O   UNL A   1      30.748  24.281  26.789  1.00  0.00    -0.274 OA
BRANCH  77  80
ATOM     80  C   UNL A   1      32.582  24.643  25.219  1.00  0.00     0.054 C 
ATOM     81  C   UNL A   1      33.907  25.037  25.973  1.00  0.00     0.017 C 
ATOM     82  C   UNL A   1      32.624  23.108  25.012  1.00  0.00     0.017 C 
ATOM     83  C   UNL A   1      35.210  24.449  25.448  1.00  0.00     0.001 C 
ATOM     84  C   UNL A   1      33.931  22.490  24.520  1.00  0.00     0.001 C 
ATOM     85  C   UNL A   1      35.144  22.939  25.308  1.00  0.00     0.000 C 
BRANCH  80  86
ATOM     86  C   UNL A   1      32.394  25.541  23.938  1.00  0.00     0.033 C 
ATOM     87  C   UNL A   1      33.504  25.545  22.868  1.00  0.00     0.007 C 
ATOM     88  C   UNL A   1      31.086  25.440  23.122  1.00  0.00     0.118 C 
ATOM     89  C   UNL A   1      32.822  25.743  21.514  1.00  0.00     0.003 C 
ATOM     90  C   UNL A   1      31.411  26.204  21.842  1.00  0.00     0.032 C 
BRANCH  88  91
ATOM     91  O   UNL A   1      30.717  24.114  22.776  1.00  0.00    -0.393 OA
ATOM     92  H   UNL A   1      31.225  23.830  21.999  1.00  0.00     0.210 HD
ENDBRANCH  88  91
ENDBRANCH  80  86
ENDBRANCH  77  80
ENDBRANCH  75  76
ENDBRANCH  74  75
ENDBRANCH  73  74
ENDBRANCH   1  73
TORSDOF 15
ENDMDL
MODEL 3
REMARK VINA RESULT:     -11.8      1.001      7.628
REMARK SMILES O=C(NCCCCCCNC(=O)C1([C@H]2CCC[C@H]2O)CCCCC1)c1ccc(-c2c3nc(c(-c4c(F)c(F)c(F)c(F)c4F)c4ccc([nH]4)c(-c4c(F)c(F)c(F)c(F)c4F)c4nc(c(-c5c(F)c(F)c(F)c(F)c5F)c5ccc2[nH]5)C=C4)C=C3)cc1
REMARK SMILES IDX 6 1 5 2 4 3 3 4 1 5 2 6 25 8 26 9 87 10 27 11 86 12 28 13
REMARK SMILES IDX 29 14 30 15 80 16 31 17 85 18 79 19 81 20 32 21 84 22 78 23
REMARK SMILES IDX 77 24 33 26 65 27 45 28 64 29 46 30 49 31 63 32 82 33 47 34
REMARK SMILES IDX 48 35 62 37 83 38 50 39 34 40 35 41 43 42 36 43 37 44 41 45
REMARK SMILES IDX 44 46 38 47 39 48 42 49 40 50 66 51 67 52 75 53 68 54 69 55
REMARK SMILES IDX 73 56 76 57 70 58 71 59 74 60 72 61 51 62 52 63 60 64 53 65
REMARK SMILES IDX 54 66 58 67 61 68 55 69 56 70 59 71 57 72 7 73 8 74 9 75
REMARK SMILES IDX 10 76 11 77 12 79 13 80 20 81 24 82 21 83 23 84 22 85 14 86
REMARK SMILES IDX 15 87 18 88 16 89 17 90 19 91
REMARK H PARENT 3 7 81 25 49 36 10 78 19 92
REMARK Flexibility Score: inf
ROOT
ATOM      1  C   UNL A   1      31.519  30.806  26.100  1.00  0.00     0.002 C 
ENDROOT
BRANCH   1   2
ATOM      2  C   UNL A   1      31.383  32.238  26.617  1.00  0.00     0.021 C 
BRANCH   2   3
ATOM      3  C   UNL A   1      32.674  32.815  27.177  1.00  0.00     0.116 C 
BRANCH   3   4
ATOM      4  N   UNL A   1      32.497  34.184  27.631  1.00  0.00    -0.352 N 
ATOM      5  O   UNL A   1      32.655  35.898  29.092  1.00  0.00    -0.269 OA
ATOM      6  C   UNL A   1      33.085  34.824  28.693  1.00  0.00     0.251 C 
ATOM      7  H   UNL A   1      31.868  34.727  27.104  1.00  0.00     0.163 HD
BRANCH   6   8
ATOM      8  C   UNL A   1      34.244  34.195  29.357  1.00  0.00     0.039 A 
ATOM      9  C   UNL A   1      34.047  33.294  30.406  1.00  0.00     0.014 A 
ATOM     10  C   UNL A   1      35.534  34.498  28.917  1.00  0.00     0.014 A 
ATOM     11  C   UNL A   1      35.139  32.798  31.102  1.00  0.00     0.010 A 
ATOM     12  C   UNL A   1      36.632  33.918  29.554  1.00  0.00     0.010 A 
ATOM     13  C   UNL A   1      36.443  33.078  30.662  1.00  0.00    -0.014 A 
BRANCH  13  14
ATOM     14  C   UNL A   1      37.585  32.402  31.325  1.00  0.00     0.031 A 
ATOM     15  C   UNL A   1      38.327  31.285  30.654  1.00  0.00     0.074 A 
ATOM     16  C   UNL A   1      37.951  32.828  32.550  1.00  0.00     0.049 A 
ATOM     17  N   UNL A   1      39.340  30.586  31.099  1.00  0.00    -0.248 NA
ATOM     18  C   UNL A   1      37.872  30.892  29.311  1.00  0.00     0.031 C 
ATOM     19  C   UNL A   1      37.290  33.899  33.299  1.00  0.00     0.029 A 
ATOM     20  N   UNL A   1      38.968  32.425  33.376  1.00  0.00    -0.354 N 
ATOM     21  C   UNL A   1      39.634  29.663  30.104  1.00  0.00     0.074 A 
ATOM     22  C   UNL A   1      38.673  29.871  29.041  1.00  0.00     0.031 C 
ATOM     23  C   UNL A   1      37.942  34.099  34.452  1.00  0.00     0.029 A 
ATOM     24  C   UNL A   1      39.018  33.121  34.559  1.00  0.00     0.049 A 
ATOM     25  H   UNL A   1      39.600  31.707  33.144  1.00  0.00     0.167 HD
ATOM     26  C   UNL A   1      40.622  28.736  30.083  1.00  0.00     0.037 A 
ATOM     27  C   UNL A   1      39.822  32.970  35.626  1.00  0.00     0.037 A 
ATOM     28  C   UNL A   1      41.574  28.544  31.149  1.00  0.00     0.049 A 
ATOM     29  C   UNL A   1      40.877  31.904  35.589  1.00  0.00     0.074 A 
ATOM     30  C   UNL A   1      42.632  27.654  31.210  1.00  0.00     0.029 A 
ATOM     31  N   UNL A   1      41.576  29.248  32.346  1.00  0.00    -0.354 N 
ATOM     32  N   UNL A   1      41.172  31.065  34.626  1.00  0.00    -0.248 NA
ATOM     33  C   UNL A   1      41.712  31.761  36.788  1.00  0.00     0.031 C 
ATOM     34  C   UNL A   1      43.235  27.777  32.466  1.00  0.00     0.029 A 
ATOM     35  C   UNL A   1      42.599  28.791  33.163  1.00  0.00     0.049 A 
ATOM     36  H   UNL A   1      40.944  29.965  32.580  1.00  0.00     0.167 HD
ATOM     37  C   UNL A   1      42.241  30.314  35.091  1.00  0.00     0.074 A 
ATOM     38  C   UNL A   1      42.555  30.811  36.415  1.00  0.00     0.031 C 
ATOM     39  C   UNL A   1      42.902  29.301  34.477  1.00  0.00     0.037 A 
BRANCH  26  40
ATOM     40  C   UNL A   1      40.716  27.837  28.882  1.00  0.00     0.064 A 
ATOM     41  C   UNL A   1      41.597  28.106  27.824  1.00  0.00     0.173 A 
ATOM     42  C   UNL A   1      39.954  26.660  28.815  1.00  0.00     0.173 A 
ATOM     43  F   UNL A   1      42.343  29.221  27.831  1.00  0.00    -0.203 F 
ATOM     44  C   UNL A   1      41.694  27.243  26.734  1.00  0.00     0.198 A 
ATOM     45  C   UNL A   1      40.077  25.783  27.740  1.00  0.00     0.198 A 
ATOM     46  F   UNL A   1      39.102  26.349  29.804  1.00  0.00    -0.203 F 
ATOM     47  F   UNL A   1      42.511  27.543  25.714  1.00  0.00    -0.200 F 
ATOM     48  C   UNL A   1      40.940  26.079  26.697  1.00  0.00     0.200 A 
ATOM     49  F   UNL A   1      39.360  24.651  27.714  1.00  0.00    -0.200 F 
ATOM     50  F   UNL A   1      41.045  25.244  25.654  1.00  0.00    -0.200 F 
ENDBRANCH  26  40
BRANCH  27  51
ATOM     51  C   UNL A   1      39.644  33.843  36.816  1.00  0.00     0.064 A 
ATOM     52  C   UNL A   1      38.857  33.437  37.900  1.00  0.00     0.173 A 
ATOM     53  C   UNL A   1      40.260  35.102  36.891  1.00  0.00     0.173 A 
ATOM     54  F   UNL A   1      38.235  32.248  37.869  1.00  0.00    -0.203 F 
ATOM     55  C   UNL A   1      38.673  34.264  39.006  1.00  0.00     0.198 A 
ATOM     56  C   UNL A   1      40.105  35.913  38.013  1.00  0.00     0.198 A 
ATOM     57  F   UNL A   1      41.032  35.536  35.885  1.00  0.00    -0.203 F 
ATOM     58  F   UNL A   1      37.874  33.872  40.007  1.00  0.00    -0.200 F 
ATOM     59  C   UNL A   1      39.302  35.498  39.063  1.00  0.00     0.200 A 
ATOM     60  F   UNL A   1      40.733  37.095  38.074  1.00  0.00    -0.200 F 
ATOM     61  F   UNL A   1      39.129  36.292  40.130  1.00  0.00    -0.200 F 
ENDBRANCH  27  51
BRANCH  39  62
ATOM     62  C   UNL A   1      44.061  28.695  35.215  1.00  0.00     0.064 A 
ATOM     63  C   UNL A   1      43.900  27.593  36.068  1.00  0.00     0.173 A 
ATOM     64  C   UNL A   1      45.355  29.210  35.044  1.00  0.00     0.173 A 
ATOM     65  F   UNL A   1      42.680  27.074  36.280  1.00  0.00    -0.203 F 
ATOM     66  C   UNL A   1      44.988  27.049  36.746  1.00  0.00     0.198 A 
ATOM     67  C   UNL A   1      46.445  28.640  35.695  1.00  0.00     0.198 A 
ATOM     68  F   UNL A   1      45.565  30.259  34.235  1.00  0.00    -0.203 F 
ATOM     69  F   UNL A   1      44.801  26.033  37.601  1.00  0.00    -0.200 F 
ATOM     70  C   UNL A   1      46.260  27.567  36.552  1.00  0.00     0.200 A 
ATOM     71  F   UNL A   1      47.675  29.131  35.494  1.00  0.00    -0.200 F 
ATOM     72  F   UNL A   1      47.307  27.036  37.200  1.00  0.00    -0.200 F 
ENDBRANCH  39  62
ENDBRANCH  13  14
ENDBRANCH   6   8
ENDBRANCH   3   4
ENDBRANCH   2   3
ENDBRANCH   1   2
BRANCH   1  73
ATOM     73  C   UNL A   1      32.077  29.802  27.118  1.00  0.00     0.002 C 
BRANCH  73  74
ATOM     74  C   UNL A   1      33.493  29.302  26.818  1.00  0.00     0.021 C 
BRANCH  74  75
ATOM     75  C   UNL A   1      33.523  28.075  25.915  1.00  0.00     0.116 C 
BRANCH  75  76
ATOM     76  N   UNL A   1      32.738  27.000  26.471  1.00  0.00    -0.356 N 
ATOM     77  C   UNL A   1      31.664  26.307  26.030  1.00  0.00     0.226 C 
ATOM     78  H   UNL A   1      33.050  26.710  27.358  1.00  0.00     0.163 HD
ATOM     79  O   UNL A   1      31.258  25.447  26.826  1.00  0.00    -0.274 OA
BRANCH  77  80
ATOM     80  C   UNL A   1      31.025  26.429  24.603  1.00  0.00     0.054 C 
ATOM     81  C   UNL A   1      29.492  26.197  24.880  1.00  0.00     0.017 C 
ATOM     82  C   UNL A   1      31.158  27.844  23.983  1.00  0.00     0.017 C 
ATOM     83  C   UNL A   1      28.519  26.553  23.765  1.00  0.00     0.001 C 
ATOM     84  C   UNL A   1      30.171  28.237  22.886  1.00  0.00     0.001 C 
ATOM     85  C   UNL A   1      28.726  27.966  23.251  1.00  0.00     0.000 C 
BRANCH  80  86
ATOM     86  C   UNL A   1      31.623  25.222  23.786  1.00  0.00     0.033 C 
ATOM     87  C   UNL A   1      33.087  24.814  24.036  1.00  0.00     0.007 C 
ATOM     88  C   UNL A   1      30.860  23.879  23.744  1.00  0.00     0.118 C 
ATOM     89  C   UNL A   1      33.173  23.300  23.837  1.00  0.00     0.003 C 
ATOM     90  C   UNL A   1      31.877  22.917  23.138  1.00  0.00     0.032 C 
BRANCH  88  91
ATOM     91  O   UNL A   1      30.476  23.388  25.018  1.00  0.00    -0.393 OA
ATOM     92  H   UNL A   1      29.878  22.632  24.906  1.00  0.00     0.210 HD
ENDBRANCH  88  91
ENDBRANCH  80  86
ENDBRANCH  77  80
ENDBRANCH  75  76
ENDBRANCH  74  75
ENDBRANCH  73  74
ENDBRANCH   1  73
TORSDOF 15
ENDMDL
