MODEL 1
REMARK VINA RESULT:     -13.5      0.000      0.000
REMARK SMILES Cc1c(C(=O)NCCCCCCNC(=O)c2ccc(-c3c4nc(c(-c5c(F)c(F)c(F)c(F)c5F)c5ccc([nH]5)c(-c5c(F)c(F)c(F)c(F)c5F)c5nc(c(-c6c(F)c(F)c(F)c(F)c6F)c6ccc3[nH]6)C=C5)C=C4)cc2)oc2c1/C(=N/NC(=O)C(c1ccccc1)c1ccccc1)CCC2
REMARK SMILES IDX 9 1 8 2 7 3 6 4 4 5 5 6 3 8 1 9 2 10 81 11 79 12 80 13 82 14
REMARK SMILES IDX 102 15 83 16 100 17 101 18 84 19 85 20 86 22 87 23 88 24
REMARK SMILES IDX 89 25 93 26 90 27 92 28 91 29 94 30 95 31 99 32 96 33 98 34
REMARK SMILES IDX 97 35 10 36 11 37 12 38 13 39 14 40 15 42 16 43 17 44 78 45
REMARK SMILES IDX 18 46 77 47 19 48 20 49 21 50 71 51 22 52 76 53 70 54 72 55
REMARK SMILES IDX 23 56 75 57 69 58 68 59 24 61 56 62 36 63 55 64 37 65 40 66
REMARK SMILES IDX 54 67 73 68 38 69 39 70 53 72 74 73 41 74 25 75 26 76 34 77
REMARK SMILES IDX 27 78 28 79 32 80 35 81 29 82 30 83 33 84 31 85 57 86 58 87
REMARK SMILES IDX 66 88 59 89 60 90 64 91 67 92 61 93 62 94 65 95 63 96 42 97
REMARK SMILES IDX 43 98 51 99 44 100 45 101 49 102 52 103 46 104 47 105 50 106
REMARK SMILES IDX 48 107
REMARK H PARENT 6 7 84 21 13 41 72 60 40 71
REMARK Flexibility Score: inf
ROOT
ATOM      1  C   UNL A   1      39.203  21.524  25.942  1.00  0.00     0.002 C 
ENDROOT
BRANCH   1   2
ATOM      2  C   UNL A   1      38.683  22.859  26.486  1.00  0.00     0.021 C 
BRANCH   2   3
ATOM      3  C   UNL A   1      37.412  23.331  25.775  1.00  0.00     0.116 C 
BRANCH   3   4
ATOM      4  N   UNL A   1      37.435  23.037  24.337  1.00  0.00    -0.349 N 
ATOM      5  C   UNL A   1      36.418  23.040  23.388  1.00  0.00     0.287 C 
ATOM      6  O   UNL A   1      36.737  22.875  22.211  1.00  0.00    -0.266 OA
ATOM      7  H   UNL A   1      38.321  22.796  23.985  1.00  0.00     0.163 HD
BRANCH   5   8
ATOM      8  C   UNL A   1      35.062  23.298  23.825  1.00  0.00     0.195 A 
ATOM      9  C   UNL A   1      33.936  24.944  22.164  1.00  0.00     0.049 C 
ATOM     10  C   UNL A   1      34.012  24.125  23.399  1.00  0.00     0.010 A 
ATOM     11  C   UNL A   1      33.096  24.158  24.505  1.00  0.00     0.043 A 
ATOM     12  O   UNL A   1      34.691  22.657  24.959  1.00  0.00    -0.455 OA
ATOM     13  C   UNL A   1      33.651  23.317  25.445  1.00  0.00     0.114 A 
ATOM     14  C   UNL A   1      31.896  24.912  24.878  1.00  0.00     0.072 C 
ATOM     15  C   UNL A   1      33.373  23.140  26.878  1.00  0.00     0.076 C 
ATOM     16  N   UNL A   1      31.190  25.429  23.919  1.00  0.00    -0.177 NA
ATOM     17  C   UNL A   1      31.772  24.963  26.385  1.00  0.00     0.059 C 
ATOM     18  C   UNL A   1      31.967  23.627  27.101  1.00  0.00     0.014 C 
BRANCH  16  19
ATOM     19  N   UNL A   1      30.022  26.151  23.840  1.00  0.00    -0.246 N 
ATOM     20  C   UNL A   1      29.556  27.433  23.605  1.00  0.00     0.252 C 
ATOM     21  H   UNL A   1      29.258  25.554  24.005  1.00  0.00     0.193 HD
ATOM     22  O   UNL A   1      28.336  27.615  23.756  1.00  0.00    -0.272 OA
BRANCH  20  23
ATOM     23  C   UNL A   1      30.432  28.624  23.158  1.00  0.00     0.140 C 
BRANCH  23  24
ATOM     24  C   UNL A   1      29.460  29.809  22.770  1.00  0.00    -0.031 A 
ATOM     25  C   UNL A   1      29.216  30.866  23.691  1.00  0.00     0.005 A 
ATOM     26  C   UNL A   1      28.823  29.937  21.525  1.00  0.00     0.005 A 
ATOM     27  C   UNL A   1      28.557  32.048  23.344  1.00  0.00     0.000 A 
ATOM     28  C   UNL A   1      28.129  31.119  21.181  1.00  0.00     0.000 A 
ATOM     29  C   UNL A   1      28.028  32.186  22.075  1.00  0.00     0.000 A 
ENDBRANCH  23  24
BRANCH  23  30
ATOM     30  C   UNL A   1      31.627  28.727  24.193  1.00  0.00    -0.031 A 
ATOM     31  C   UNL A   1      31.472  28.869  25.582  1.00  0.00     0.005 A 
ATOM     32  C   UNL A   1      32.961  28.531  23.740  1.00  0.00     0.005 A 
ATOM     33  C   UNL A   1      32.544  28.593  26.458  1.00  0.00     0.000 A 
ATOM     34  C   UNL A   1      34.015  28.226  24.603  1.00  0.00     0.000 A 
ATOM     35  C   UNL A   1      33.798  28.222  25.969  1.00  0.00     0.000 A 
ENDBRANCH  23  30
ENDBRANCH  20  23
ENDBRANCH  16  19
ENDBRANCH   5   8
ENDBRANCH   3   4
ENDBRANCH   2   3
ENDBRANCH   1   2
BRANCH   1  36
ATOM     36  C   UNL A   1      40.400  20.925  26.702  1.00  0.00     0.002 C 
BRANCH  36  37
ATOM     37  C   UNL A   1      41.108  19.736  26.034  1.00  0.00     0.021 C 
BRANCH  37  38
ATOM     38  C   UNL A   1      42.562  19.593  26.451  1.00  0.00     0.116 C 
BRANCH  38  39
ATOM     39  N   UNL A   1      43.488  19.906  25.359  1.00  0.00    -0.352 N 
ATOM     40  C   UNL A   1      43.881  21.144  24.877  1.00  0.00     0.251 C 
ATOM     41  H   UNL A   1      43.884  19.129  24.904  1.00  0.00     0.163 HD
ATOM     42  O   UNL A   1      44.378  21.271  23.777  1.00  0.00    -0.269 OA
BRANCH  40  43
ATOM     43  C   UNL A   1      43.688  22.313  25.752  1.00  0.00     0.039 A 
ATOM     44  C   UNL A   1      44.544  22.591  26.821  1.00  0.00     0.014 A 
ATOM     45  C   UNL A   1      42.638  23.164  25.437  1.00  0.00     0.014 A 
ATOM     46  C   UNL A   1      44.370  23.783  27.519  1.00  0.00     0.010 A 
ATOM     47  C   UNL A   1      42.615  24.421  25.966  1.00  0.00     0.010 A 
ATOM     48  C   UNL A   1      43.408  24.700  27.071  1.00  0.00    -0.014 A 
BRANCH  48  49
ATOM     49  C   UNL A   1      43.235  26.004  27.697  1.00  0.00     0.031 A 
ATOM     50  C   UNL A   1      44.197  27.045  27.248  1.00  0.00     0.074 A 
ATOM     51  C   UNL A   1      42.135  26.298  28.427  1.00  0.00     0.049 A 
ATOM     52  N   UNL A   1      45.090  27.658  27.952  1.00  0.00    -0.248 NA
ATOM     53  C   UNL A   1      44.254  27.359  25.810  1.00  0.00     0.031 C 
ATOM     54  C   UNL A   1      40.944  25.469  28.664  1.00  0.00     0.029 A 
ATOM     55  N   UNL A   1      41.799  27.468  29.032  1.00  0.00    -0.354 N 
ATOM     56  C   UNL A   1      45.691  28.577  27.094  1.00  0.00     0.074 A 
ATOM     57  C   UNL A   1      45.269  28.224  25.765  1.00  0.00     0.031 C 
ATOM     58  C   UNL A   1      39.938  26.236  29.136  1.00  0.00     0.029 A 
ATOM     59  C   UNL A   1      40.468  27.554  29.422  1.00  0.00     0.049 A 
ATOM     60  H   UNL A   1      42.445  28.195  29.180  1.00  0.00     0.167 HD
ATOM     61  C   UNL A   1      46.278  29.705  27.582  1.00  0.00     0.037 A 
ATOM     62  C   UNL A   1      39.842  28.643  29.926  1.00  0.00     0.037 A 
ATOM     63  C   UNL A   1      46.538  29.580  28.994  1.00  0.00     0.049 A 
ATOM     64  C   UNL A   1      40.899  29.560  30.418  1.00  0.00     0.074 A 
ATOM     65  C   UNL A   1      47.304  28.736  29.775  1.00  0.00     0.029 A 
ATOM     66  N   UNL A   1      45.655  30.181  29.857  1.00  0.00    -0.354 N 
ATOM     67  N   UNL A   1      41.687  29.287  31.421  1.00  0.00    -0.248 NA
ATOM     68  C   UNL A   1      41.383  30.579  29.502  1.00  0.00     0.031 C 
ATOM     69  C   UNL A   1      46.526  28.514  30.951  1.00  0.00     0.029 A 
ATOM     70  C   UNL A   1      45.367  29.286  30.854  1.00  0.00     0.049 A 
ATOM     71  H   UNL A   1      45.295  31.093  29.774  1.00  0.00     0.167 HD
ATOM     72  C   UNL A   1      42.929  29.772  31.038  1.00  0.00     0.074 A 
ATOM     73  C   UNL A   1      42.658  30.637  29.892  1.00  0.00     0.031 C 
ATOM     74  C   UNL A   1      44.078  29.200  31.503  1.00  0.00     0.037 A 
BRANCH  61  75
ATOM     75  C   UNL A   1      46.249  31.053  26.893  1.00  0.00     0.064 A 
ATOM     76  C   UNL A   1      47.434  31.817  26.841  1.00  0.00     0.173 A 
ATOM     77  C   UNL A   1      45.066  31.753  26.572  1.00  0.00     0.173 A 
ATOM     78  F   UNL A   1      48.619  31.261  27.137  1.00  0.00    -0.203 F 
ATOM     79  C   UNL A   1      47.420  33.191  26.585  1.00  0.00     0.198 A 
ATOM     80  C   UNL A   1      45.062  33.113  26.264  1.00  0.00     0.198 A 
ATOM     81  F   UNL A   1      43.855  31.192  26.652  1.00  0.00    -0.203 F 
ATOM     82  F   UNL A   1      48.553  33.898  26.684  1.00  0.00    -0.200 F 
ATOM     83  C   UNL A   1      46.232  33.840  26.306  1.00  0.00     0.200 A 
ATOM     84  F   UNL A   1      43.897  33.726  26.012  1.00  0.00    -0.200 F 
ATOM     85  F   UNL A   1      46.204  35.167  26.129  1.00  0.00    -0.200 F 
ENDBRANCH  61  75
BRANCH  62  86
ATOM     86  C   UNL A   1      38.449  29.084  29.686  1.00  0.00     0.064 A 
ATOM     87  C   UNL A   1      37.627  29.494  30.747  1.00  0.00     0.173 A 
ATOM     88  C   UNL A   1      37.994  29.386  28.387  1.00  0.00     0.173 A 
ATOM     89  F   UNL A   1      38.012  29.287  32.014  1.00  0.00    -0.203 F 
ATOM     90  C   UNL A   1      36.433  30.189  30.522  1.00  0.00     0.198 A 
ATOM     91  C   UNL A   1      36.802  30.077  28.164  1.00  0.00     0.198 A 
ATOM     92  F   UNL A   1      38.749  29.105  27.314  1.00  0.00    -0.203 F 
ATOM     93  F   UNL A   1      35.706  30.623  31.562  1.00  0.00    -0.200 F 
ATOM     94  C   UNL A   1      36.029  30.490  29.232  1.00  0.00     0.200 A 
ATOM     95  F   UNL A   1      36.445  30.398  26.912  1.00  0.00    -0.200 F 
ATOM     96  F   UNL A   1      34.921  31.215  29.019  1.00  0.00    -0.200 F 
ENDBRANCH  62  86
BRANCH  74  97
ATOM     97  C   UNL A   1      43.964  28.228  32.647  1.00  0.00     0.064 A 
ATOM     98  C   UNL A   1      43.866  26.833  32.497  1.00  0.00     0.173 A 
ATOM     99  C   UNL A   1      44.108  28.724  33.950  1.00  0.00     0.173 A 
ATOM    100  F   UNL A   1      43.819  26.271  31.285  1.00  0.00    -0.203 F 
ATOM    101  C   UNL A   1      43.875  25.982  33.602  1.00  0.00     0.198 A 
ATOM    102  C   UNL A   1      44.153  27.871  35.048  1.00  0.00     0.198 A 
ATOM    103  F   UNL A   1      44.259  30.042  34.152  1.00  0.00    -0.203 F 
ATOM    104  F   UNL A   1      43.772  24.655  33.431  1.00  0.00    -0.200 F 
ATOM    105  C   UNL A   1      44.028  26.501  34.876  1.00  0.00     0.200 A 
ATOM    106  F   UNL A   1      44.348  28.375  36.274  1.00  0.00    -0.200 F 
ATOM    107  F   UNL A   1      44.080  25.682  35.936  1.00  0.00    -0.200 F 
ENDBRANCH  74  97
ENDBRANCH  48  49
ENDBRANCH  40  43
ENDBRANCH  38  39
ENDBRANCH  37  38
ENDBRANCH  36  37
ENDBRANCH   1  36
TORSDOF 17
ENDMDL
MODEL 2
REMARK VINA RESULT:     -13.3      2.322      3.707
REMARK SMILES Cc1c(C(=O)NCCCCCCNC(=O)c2ccc(-c3c4nc(c(-c5c(F)c(F)c(F)c(F)c5F)c5ccc([nH]5)c(-c5c(F)c(F)c(F)c(F)c5F)c5nc(c(-c6c(F)c(F)c(F)c(F)c6F)c6ccc3[nH]6)C=C5)C=C4)cc2)oc2c1/C(=N/NC(=O)C(c1ccccc1)c1ccccc1)CCC2
REMARK SMILES IDX 9 1 8 2 7 3 6 4 4 5 5 6 3 8 1 9 2 10 81 11 79 12 80 13 82 14
REMARK SMILES IDX 102 15 83 16 100 17 101 18 84 19 85 20 86 22 87 23 88 24
REMARK SMILES IDX 89 25 93 26 90 27 92 28 91 29 94 30 95 31 99 32 96 33 98 34
REMARK SMILES IDX 97 35 10 36 11 37 12 38 13 39 14 40 15 42 16 43 17 44 78 45
REMARK SMILES IDX 18 46 77 47 19 48 20 49 21 50 71 51 22 52 76 53 70 54 72 55
REMARK SMILES IDX 23 56 75 57 69 58 68 59 24 61 56 62 36 63 55 64 37 65 40 66
REMARK SMILES IDX 54 67 73 68 38 69 39 70 53 72 74 73 41 74 25 75 26 76 34 77
REMARK SMILES IDX 27 78 28 79 32 80 35 81 29 82 30 83 33 84 31 85 57 86 58 87
REMARK SMILES IDX 66 88 59 89 60 90 64 91 67 92 61 93 62 94 65 95 63 96 42 97
REMARK SMILES IDX 43 98 51 99 44 100 45 101 49 102 52 103 46 104 47 105 50 106
REMARK SMILES IDX 48 107
REMARK H PARENT 6 7 84 21 13 41 72 60 40 71
REMARK Flexibility Score: inf
ROOT
ATOM      1  C   UNL A   1      36.277  22.862  25.419  1.00  0.00     0.002 C 
ENDROOT
BRANCH   1   2
ATOM      2  C   UNL A   1      36.160  21.334  25.413  1.00  0.00     0.021 C 
BRANCH   2   3
ATOM      3  C   UNL A   1      34.898  20.835  26.123  1.00  0.00     0.116 C 
BRANCH   3   4
ATOM      4  N   UNL A   1      34.107  19.928  25.284  1.00  0.00    -0.349 N 
ATOM      5  C   UNL A   1      33.041  20.174  24.424  1.00  0.00     0.287 C 
ATOM      6  O   UNL A   1      32.636  19.237  23.738  1.00  0.00    -0.266 OA
ATOM      7  H   UNL A   1      34.376  18.982  25.340  1.00  0.00     0.163 HD
BRANCH   5   8
ATOM      8  C   UNL A   1      32.516  21.520  24.340  1.00  0.00     0.195 A 
ATOM      9  C   UNL A   1      34.010  22.910  22.734  1.00  0.00     0.049 C 
ATOM     10  C   UNL A   1      32.910  22.711  23.711  1.00  0.00     0.010 A 
ATOM     11  C   UNL A   1      32.140  23.740  24.353  1.00  0.00     0.043 A 
ATOM     12  O   UNL A   1      31.411  21.756  25.086  1.00  0.00    -0.455 OA
ATOM     13  C   UNL A   1      31.336  23.068  25.248  1.00  0.00     0.114 A 
ATOM     14  C   UNL A   1      32.115  25.205  24.370  1.00  0.00     0.072 C 
ATOM     15  C   UNL A   1      30.543  23.543  26.392  1.00  0.00     0.076 C 
ATOM     16  N   UNL A   1      32.595  25.825  23.336  1.00  0.00    -0.177 NA
ATOM     17  C   UNL A   1      31.550  25.692  25.686  1.00  0.00     0.059 C 
ATOM     18  C   UNL A   1      30.264  25.000  26.140  1.00  0.00     0.014 C 
BRANCH  16  19
ATOM     19  N   UNL A   1      32.724  27.139  22.951  1.00  0.00    -0.246 N 
ATOM     20  C   UNL A   1      32.217  28.399  23.217  1.00  0.00     0.252 C 
ATOM     21  H   UNL A   1      33.409  27.207  22.249  1.00  0.00     0.193 HD
ATOM     22  O   UNL A   1      32.609  29.320  22.480  1.00  0.00    -0.272 OA
BRANCH  20  23
ATOM     23  C   UNL A   1      31.233  28.733  24.360  1.00  0.00     0.140 C 
BRANCH  23  24
ATOM     24  C   UNL A   1      32.070  29.393  25.528  1.00  0.00    -0.031 A 
ATOM     25  C   UNL A   1      33.250  28.759  26.010  1.00  0.00     0.005 A 
ATOM     26  C   UNL A   1      31.762  30.625  26.127  1.00  0.00     0.005 A 
ATOM     27  C   UNL A   1      34.156  29.382  26.872  1.00  0.00     0.000 A 
ATOM     28  C   UNL A   1      32.661  31.244  27.023  1.00  0.00     0.000 A 
ATOM     29  C   UNL A   1      33.872  30.641  27.366  1.00  0.00     0.000 A 
ENDBRANCH  23  24
BRANCH  23  30
ATOM     30  C   UNL A   1      29.950  29.371  23.686  1.00  0.00    -0.031 A 
ATOM     31  C   UNL A   1      28.910  28.637  23.091  1.00  0.00     0.005 A 
ATOM     32  C   UNL A   1      29.732  30.773  23.790  1.00  0.00     0.005 A 
ATOM     33  C   UNL A   1      27.656  29.237  22.843  1.00  0.00     0.000 A 
ATOM     34  C   UNL A   1      28.484  31.362  23.576  1.00  0.00     0.000 A 
ATOM     35  C   UNL A   1      27.430  30.583  23.135  1.00  0.00     0.000 A 
ENDBRANCH  23  30
ENDBRANCH  20  23
ENDBRANCH  16  19
ENDBRANCH   5   8
ENDBRANCH   3   4
ENDBRANCH   2   3
ENDBRANCH   1   2
BRANCH   1  36
ATOM     36  C   UNL A   1      37.657  23.414  25.819  1.00  0.00     0.002 C 
BRANCH  36  37
ATOM     37  C   UNL A   1      38.746  22.374  26.128  1.00  0.00     0.021 C 
BRANCH  37  38
ATOM     38  C   UNL A   1      39.901  22.938  26.938  1.00  0.00     0.116 C 
BRANCH  38  39
ATOM     39  N   UNL A   1      41.198  22.701  26.298  1.00  0.00    -0.352 N 
ATOM     40  C   UNL A   1      42.134  23.620  25.855  1.00  0.00     0.251 C 
ATOM     41  H   UNL A   1      41.436  21.756  26.163  1.00  0.00     0.163 HD
ATOM     42  O   UNL A   1      42.995  23.319  25.056  1.00  0.00    -0.269 OA
BRANCH  40  43
ATOM     43  C   UNL A   1      42.059  24.989  26.396  1.00  0.00     0.039 A 
ATOM     44  C   UNL A   1      41.200  25.953  25.861  1.00  0.00     0.014 A 
ATOM     45  C   UNL A   1      42.850  25.270  27.501  1.00  0.00     0.014 A 
ATOM     46  C   UNL A   1      41.094  27.181  26.508  1.00  0.00     0.010 A 
ATOM     47  C   UNL A   1      42.576  26.373  28.255  1.00  0.00     0.010 A 
ATOM     48  C   UNL A   1      41.779  27.375  27.717  1.00  0.00    -0.014 A 
BRANCH  48  49
ATOM     49  C   UNL A   1      41.642  28.599  28.493  1.00  0.00     0.031 A 
ATOM     50  C   UNL A   1      42.703  29.612  28.252  1.00  0.00     0.074 A 
ATOM     51  C   UNL A   1      40.509  28.883  29.175  1.00  0.00     0.049 A 
ATOM     52  N   UNL A   1      43.575  30.064  29.092  1.00  0.00    -0.248 NA
ATOM     53  C   UNL A   1      42.897  30.098  26.876  1.00  0.00     0.031 C 
ATOM     54  C   UNL A   1      39.250  28.123  29.217  1.00  0.00     0.029 A 
ATOM     55  N   UNL A   1      40.203  29.990  29.901  1.00  0.00    -0.354 N 
ATOM     56  C   UNL A   1      44.302  31.034  28.406  1.00  0.00     0.074 A 
ATOM     57  C   UNL A   1      43.966  30.882  27.015  1.00  0.00     0.031 C 
ATOM     58  C   UNL A   1      38.262  28.900  29.712  1.00  0.00     0.029 A 
ATOM     59  C   UNL A   1      38.854  30.128  30.203  1.00  0.00     0.049 A 
ATOM     60  H   UNL A   1      40.881  30.643  30.188  1.00  0.00     0.167 HD
ATOM     61  C   UNL A   1      44.922  32.045  29.076  1.00  0.00     0.037 A 
ATOM     62  C   UNL A   1      38.262  31.190  30.798  1.00  0.00     0.037 A 
ATOM     63  C   UNL A   1      45.059  31.726  30.476  1.00  0.00     0.049 A 
ATOM     64  C   UNL A   1      39.335  31.956  31.479  1.00  0.00     0.074 A 
ATOM     65  C   UNL A   1      45.702  30.737  31.192  1.00  0.00     0.029 A 
ATOM     66  N   UNL A   1      44.151  32.281  31.344  1.00  0.00    -0.354 N 
ATOM     67  N   UNL A   1      40.020  31.502  32.492  1.00  0.00    -0.248 NA
ATOM     68  C   UNL A   1      39.957  33.041  30.740  1.00  0.00     0.031 C 
ATOM     69  C   UNL A   1      44.819  30.430  32.271  1.00  0.00     0.029 A 
ATOM     70  C   UNL A   1      43.725  31.293  32.193  1.00  0.00     0.049 A 
ATOM     71  H   UNL A   1      43.859  33.221  31.354  1.00  0.00     0.167 HD
ATOM     72  C   UNL A   1      41.318  31.935  32.264  1.00  0.00     0.074 A 
ATOM     73  C   UNL A   1      41.197  32.954  31.224  1.00  0.00     0.031 C 
ATOM     74  C   UNL A   1      42.385  31.224  32.732  1.00  0.00     0.037 A 
BRANCH  61  75
ATOM     75  C   UNL A   1      45.037  33.467  28.568  1.00  0.00     0.064 A 
ATOM     76  C   UNL A   1      43.856  34.197  28.315  1.00  0.00     0.173 A 
ATOM     77  C   UNL A   1      46.217  34.023  28.028  1.00  0.00     0.173 A 
ATOM     78  F   UNL A   1      42.672  33.761  28.770  1.00  0.00    -0.203 F 
ATOM     79  C   UNL A   1      43.848  35.336  27.503  1.00  0.00     0.198 A 
ATOM     80  C   UNL A   1      46.213  35.188  27.264  1.00  0.00     0.198 A 
ATOM     81  F   UNL A   1      47.403  33.411  28.113  1.00  0.00    -0.203 F 
ATOM     82  F   UNL A   1      42.684  35.913  27.179  1.00  0.00    -0.200 F 
ATOM     83  C   UNL A   1      45.026  35.824  26.970  1.00  0.00     0.200 A 
ATOM     84  F   UNL A   1      47.364  35.636  26.742  1.00  0.00    -0.200 F 
ATOM     85  F   UNL A   1      45.015  36.873  26.137  1.00  0.00    -0.200 F 
ENDBRANCH  61  75
BRANCH  62  86
ATOM     86  C   UNL A   1      36.925  31.761  30.519  1.00  0.00     0.064 A 
ATOM     87  C   UNL A   1      35.974  31.910  31.540  1.00  0.00     0.173 A 
ATOM     88  C   UNL A   1      36.660  32.437  29.311  1.00  0.00     0.173 A 
ATOM     89  F   UNL A   1      36.177  31.339  32.736  1.00  0.00    -0.203 F 
ATOM     90  C   UNL A   1      34.838  32.709  31.372  1.00  0.00     0.198 A 
ATOM     91  C   UNL A   1      35.525  33.231  29.143  1.00  0.00     0.198 A 
ATOM     92  F   UNL A   1      37.549  32.420  28.306  1.00  0.00    -0.203 F 
ATOM     93  F   UNL A   1      33.984  32.881  32.392  1.00  0.00    -0.200 F 
ATOM     94  C   UNL A   1      34.621  33.378  30.178  1.00  0.00     0.200 A 
ATOM     95  F   UNL A   1      35.349  33.907  27.999  1.00  0.00    -0.200 F 
ATOM     96  F   UNL A   1      33.569  34.198  30.041  1.00  0.00    -0.200 F 
ENDBRANCH  62  86
BRANCH  74  97
ATOM     97  C   UNL A   1      42.116  30.130  33.729  1.00  0.00     0.064 A 
ATOM     98  C   UNL A   1      41.726  28.822  33.387  1.00  0.00     0.173 A 
ATOM     99  C   UNL A   1      42.408  30.378  35.077  1.00  0.00     0.173 A 
ATOM    100  F   UNL A   1      41.519  28.476  32.112  1.00  0.00    -0.203 F 
ATOM    101  C   UNL A   1      41.601  27.825  34.354  1.00  0.00     0.198 A 
ATOM    102  C   UNL A   1      42.317  29.374  36.035  1.00  0.00     0.198 A 
ATOM    103  F   UNL A   1      42.836  31.593  35.456  1.00  0.00    -0.203 F 
ATOM    104  F   UNL A   1      41.219  26.588  34.001  1.00  0.00    -0.200 F 
ATOM    105  C   UNL A   1      41.905  28.100  35.676  1.00  0.00     0.200 A 
ATOM    106  F   UNL A   1      42.659  29.633  37.305  1.00  0.00    -0.200 F 
ATOM    107  F   UNL A   1      41.827  27.133  36.601  1.00  0.00    -0.200 F 
ENDBRANCH  74  97
ENDBRANCH  48  49
ENDBRANCH  40  43
ENDBRANCH  38  39
ENDBRANCH  37  38
ENDBRANCH  36  37
ENDBRANCH   1  36
TORSDOF 17
ENDMDL
MODEL 3
REMARK VINA RESULT:     -13.2      3.139      9.095
REMARK SMILES Cc1c(C(=O)NCCCCCCNC(=O)c2ccc(-c3c4nc(c(-c5c(F)c(F)c(F)c(F)c5F)c5ccc([nH]5)c(-c5c(F)c(F)c(F)c(F)c5F)c5nc(c(-c6c(F)c(F)c(F)c(F)c6F)c6ccc3[nH]6)C=C5)C=C4)cc2)oc2c1/C(=N/NC(=O)C(c1ccccc1)c1ccccc1)CCC2
REMARK SMILES IDX 9 1 8 2 7 3 6 4 4 5 5 6 3 8 1 9 2 10 81 11 79 12 80 13 82 14
REMARK SMILES IDX 102 15 83 16 100 17 101 18 84 19 85 20 86 22 87 23 88 24
REMARK SMILES IDX 89 25 93 26 90 27 92 28 91 29 94 30 95 31 99 32 96 33 98 34
REMARK SMILES IDX 97 35 10 36 11 37 12 38 13 39 14 40 15 42 16 43 17 44 78 45
REMARK SMILES IDX 18 46 77 47 19 48 20 49 21 50 71 51 22 52 76 53 70 54 72 55
REMARK SMILES IDX 23 56 75 57 69 58 68 59 24 61 56 62 36 63 55 64 37 65 40 66
REMARK SMILES IDX 54 67 73 68 38 69 39 70 53 72 74 73 41 74 25 75 26 76 34 77
REMARK SMILES IDX 27 78 28 79 32 80 35 81 29 82 30 83 33 84 31 85 57 86 58 87
REMARK SMILES IDX 66 88 59 89 60 90 64 91 67 92 61 93 62 94 65 95 63 96 42 97
REMARK SMILES IDX 43 98 51 99 44 100 45 101 49 102 52 103 46 104 47 105 50 106
REMARK SMILES IDX 48 107
REMARK H PARENT 6 7 84 21 13 41 72 60 40 71
REMARK Flexibility Score: inf
ROOT
ATOM      1  C   UNL A   1      32.974  30.148  26.937  1.00  0.00     0.002 C 
ENDROOT
BRANCH   1   2
ATOM      2  C   UNL A   1      31.664  30.477  26.213  1.00  0.00     0.021 C 
BRANCH   2   3
ATOM      3  C   UNL A   1      31.429  29.590  24.987  1.00  0.00     0.116 C 
BRANCH   3   4
ATOM      4  N   UNL A   1      32.512  29.700  24.003  1.00  0.00    -0.349 N 
ATOM      5  C   UNL A   1      33.308  28.726  23.407  1.00  0.00     0.287 C 
ATOM      6  O   UNL A   1      34.069  29.083  22.509  1.00  0.00    -0.266 OA
ATOM      7  H   UNL A   1      32.711  30.620  23.715  1.00  0.00     0.163 HD
BRANCH   5   8
ATOM      8  C   UNL A   1      33.150  27.350  23.830  1.00  0.00     0.195 A 
ATOM      9  C   UNL A   1      33.250  25.809  21.743  1.00  0.00     0.049 C 
ATOM     10  C   UNL A   1      33.051  26.109  23.183  1.00  0.00     0.010 A 
ATOM     11  C   UNL A   1      32.535  25.213  24.180  1.00  0.00     0.043 A 
ATOM     12  O   UNL A   1      32.988  27.171  25.162  1.00  0.00    -0.455 OA
ATOM     13  C   UNL A   1      32.431  25.981  25.320  1.00  0.00     0.114 A 
ATOM     14  C   UNL A   1      32.018  23.843  24.223  1.00  0.00     0.072 C 
ATOM     15  C   UNL A   1      31.715  25.753  26.585  1.00  0.00     0.076 C 
ATOM     16  N   UNL A   1      32.407  23.025  23.292  1.00  0.00    -0.177 NA
ATOM     17  C   UNL A   1      31.051  23.696  25.377  1.00  0.00     0.059 C 
ATOM     18  C   UNL A   1      31.538  24.265  26.710  1.00  0.00     0.014 C 
BRANCH  16  19
ATOM     19  N   UNL A   1      32.193  21.698  22.998  1.00  0.00    -0.246 N 
ATOM     20  C   UNL A   1      32.464  20.427  23.474  1.00  0.00     0.252 C 
ATOM     21  H   UNL A   1      31.670  21.629  22.168  1.00  0.00     0.193 HD
ATOM     22  O   UNL A   1      32.122  19.480  22.747  1.00  0.00    -0.272 OA
BRANCH  20  23
ATOM     23  C   UNL A   1      33.130  20.115  24.832  1.00  0.00     0.140 C 
BRANCH  23  24
ATOM     24  C   UNL A   1      33.343  18.550  24.907  1.00  0.00    -0.031 A 
ATOM     25  C   UNL A   1      34.531  17.963  24.387  1.00  0.00     0.005 A 
ATOM     26  C   UNL A   1      32.443  17.656  25.508  1.00  0.00     0.005 A 
ATOM     27  C   UNL A   1      34.891  16.633  24.615  1.00  0.00     0.000 A 
ATOM     28  C   UNL A   1      32.791  16.302  25.714  1.00  0.00     0.000 A 
ATOM     29  C   UNL A   1      34.027  15.801  25.300  1.00  0.00     0.000 A 
ENDBRANCH  23  24
BRANCH  23  30
ATOM     30  C   UNL A   1      34.264  21.200  25.045  1.00  0.00    -0.031 A 
ATOM     31  C   UNL A   1      35.181  21.603  24.060  1.00  0.00     0.005 A 
ATOM     32  C   UNL A   1      34.303  21.939  26.261  1.00  0.00     0.005 A 
ATOM     33  C   UNL A   1      35.909  22.805  24.202  1.00  0.00     0.000 A 
ATOM     34  C   UNL A   1      34.997  23.144  26.391  1.00  0.00     0.000 A 
ATOM     35  C   UNL A   1      35.776  23.598  25.342  1.00  0.00     0.000 A 
ENDBRANCH  23  30
ENDBRANCH  20  23
ENDBRANCH  16  19
ENDBRANCH   5   8
ENDBRANCH   3   4
ENDBRANCH   2   3
ENDBRANCH   1   2
BRANCH   1  36
ATOM     36  C   UNL A   1      33.699  31.351  27.564  1.00  0.00     0.002 C 
BRANCH  36  37
ATOM     37  C   UNL A   1      35.225  31.232  27.706  1.00  0.00     0.021 C 
BRANCH  37  38
ATOM     38  C   UNL A   1      35.878  32.494  28.243  1.00  0.00     0.116 C 
BRANCH  38  39
ATOM     39  N   UNL A   1      35.394  32.846  29.581  1.00  0.00    -0.352 N 
ATOM     40  C   UNL A   1      35.649  32.226  30.793  1.00  0.00     0.251 C 
ATOM     41  H   UNL A   1      34.803  33.632  29.624  1.00  0.00     0.163 HD
ATOM     42  O   UNL A   1      34.938  32.399  31.761  1.00  0.00    -0.269 OA
BRANCH  40  43
ATOM     43  C   UNL A   1      36.828  31.346  30.877  1.00  0.00     0.039 A 
ATOM     44  C   UNL A   1      36.724  29.955  30.781  1.00  0.00     0.014 A 
ATOM     45  C   UNL A   1      38.063  31.963  31.007  1.00  0.00     0.014 A 
ATOM     46  C   UNL A   1      37.895  29.203  30.741  1.00  0.00     0.010 A 
ATOM     47  C   UNL A   1      39.197  31.253  30.739  1.00  0.00     0.010 A 
ATOM     48  C   UNL A   1      39.130  29.867  30.705  1.00  0.00    -0.014 A 
BRANCH  48  49
ATOM     49  C   UNL A   1      40.389  29.147  30.571  1.00  0.00     0.031 A 
ATOM     50  C   UNL A   1      41.106  28.901  31.850  1.00  0.00     0.074 A 
ATOM     51  C   UNL A   1      40.738  28.539  29.414  1.00  0.00     0.049 A 
ATOM     52  N   UNL A   1      42.263  29.349  32.211  1.00  0.00    -0.248 NA
ATOM     53  C   UNL A   1      40.398  28.161  32.908  1.00  0.00     0.031 C 
ATOM     54  C   UNL A   1      39.958  28.415  28.173  1.00  0.00     0.029 A 
ATOM     55  N   UNL A   1      41.841  27.795  29.139  1.00  0.00    -0.354 N 
ATOM     56  C   UNL A   1      42.518  28.789  33.462  1.00  0.00     0.074 A 
ATOM     57  C   UNL A   1      41.274  28.224  33.912  1.00  0.00     0.031 C 
ATOM     58  C   UNL A   1      40.493  27.454  27.390  1.00  0.00     0.029 A 
ATOM     59  C   UNL A   1      41.752  27.041  27.976  1.00  0.00     0.049 A 
ATOM     60  H   UNL A   1      42.637  27.789  29.718  1.00  0.00     0.167 HD
ATOM     61  C   UNL A   1      43.795  28.617  33.901  1.00  0.00     0.037 A 
ATOM     62  C   UNL A   1      42.646  26.123  27.537  1.00  0.00     0.037 A 
ATOM     63  C   UNL A   1      44.714  29.427  33.139  1.00  0.00     0.049 A 
ATOM     64  C   UNL A   1      43.923  26.393  28.241  1.00  0.00     0.074 A 
ATOM     65  C   UNL A   1      44.875  30.782  32.926  1.00  0.00     0.029 A 
ATOM     66  N   UNL A   1      45.428  28.808  32.143  1.00  0.00    -0.354 N 
ATOM     67  N   UNL A   1      44.632  27.475  28.071  1.00  0.00    -0.248 NA
ATOM     68  C   UNL A   1      44.174  25.670  29.476  1.00  0.00     0.031 C 
ATOM     69  C   UNL A   1      45.257  30.896  31.555  1.00  0.00     0.029 A 
ATOM     70  C   UNL A   1      45.375  29.607  31.031  1.00  0.00     0.049 A 
ATOM     71  H   UNL A   1      45.894  27.945  32.215  1.00  0.00     0.167 HD
ATOM     72  C   UNL A   1      45.092  27.800  29.338  1.00  0.00     0.074 A 
ATOM     73  C   UNL A   1      44.856  26.603  30.143  1.00  0.00     0.031 C 
ATOM     74  C   UNL A   1      45.350  29.097  29.679  1.00  0.00     0.037 A 
BRANCH  61  75
ATOM     75  C   UNL A   1      44.267  27.439  34.726  1.00  0.00     0.064 A 
ATOM     76  C   UNL A   1      44.065  26.135  34.229  1.00  0.00     0.173 A 
ATOM     77  C   UNL A   1      44.612  27.516  36.093  1.00  0.00     0.173 A 
ATOM     78  F   UNL A   1      43.723  25.937  32.946  1.00  0.00    -0.203 F 
ATOM     79  C   UNL A   1      44.107  25.010  35.058  1.00  0.00     0.198 A 
ATOM     80  C   UNL A   1      44.706  26.388  36.905  1.00  0.00     0.198 A 
ATOM     81  F   UNL A   1      44.759  28.682  36.732  1.00  0.00    -0.203 F 
ATOM     82  F   UNL A   1      43.771  23.809  34.569  1.00  0.00    -0.200 F 
ATOM     83  C   UNL A   1      44.418  25.139  36.399  1.00  0.00     0.200 A 
ATOM     84  F   UNL A   1      44.993  26.536  38.207  1.00  0.00    -0.200 F 
ATOM     85  F   UNL A   1      44.392  24.075  37.211  1.00  0.00    -0.200 F 
ENDBRANCH  61  75
BRANCH  62  86
ATOM     86  C   UNL A   1      42.371  24.846  26.840  1.00  0.00     0.064 A 
ATOM     87  C   UNL A   1      43.050  24.504  25.661  1.00  0.00     0.173 A 
ATOM     88  C   UNL A   1      41.651  23.812  27.472  1.00  0.00     0.173 A 
ATOM     89  F   UNL A   1      43.797  25.418  25.026  1.00  0.00    -0.203 F 
ATOM     90  C   UNL A   1      43.033  23.198  25.158  1.00  0.00     0.198 A 
ATOM     91  C   UNL A   1      41.632  22.511  26.968  1.00  0.00     0.198 A 
ATOM     92  F   UNL A   1      41.036  24.023  28.646  1.00  0.00    -0.203 F 
ATOM     93  F   UNL A   1      43.747  22.893  24.065  1.00  0.00    -0.200 F 
ATOM     94  C   UNL A   1      42.333  22.201  25.819  1.00  0.00     0.200 A 
ATOM     95  F   UNL A   1      40.987  21.547  27.641  1.00  0.00    -0.200 F 
ATOM     96  F   UNL A   1      42.373  20.936  25.375  1.00  0.00    -0.200 F 
ENDBRANCH  62  86
BRANCH  74  97
ATOM     97  C   UNL A   1      45.394  30.116  28.572  1.00  0.00     0.064 A 
ATOM     98  C   UNL A   1      44.291  30.884  28.156  1.00  0.00     0.173 A 
ATOM     99  C   UNL A   1      46.640  30.429  28.013  1.00  0.00     0.173 A 
ATOM    100  F   UNL A   1      43.085  30.714  28.707  1.00  0.00    -0.203 F 
ATOM    101  C   UNL A   1      44.427  31.890  27.200  1.00  0.00     0.198 A 
ATOM    102  C   UNL A   1      46.780  31.457  27.086  1.00  0.00     0.198 A 
ATOM    103  F   UNL A   1      47.738  29.767  28.410  1.00  0.00    -0.203 F 
ATOM    104  F   UNL A   1      43.357  32.603  26.815  1.00  0.00    -0.200 F 
ATOM    105  C   UNL A   1      45.673  32.182  26.672  1.00  0.00     0.200 A 
ATOM    106  F   UNL A   1      47.996  31.766  26.614  1.00  0.00    -0.200 F 
ATOM    107  F   UNL A   1      45.813  33.177  25.786  1.00  0.00    -0.200 F 
ENDBRANCH  74  97
ENDBRANCH  48  49
ENDBRANCH  40  43
ENDBRANCH  38  39
ENDBRANCH  37  38
ENDBRANCH  36  37
ENDBRANCH   1  36
TORSDOF 17
ENDMDL
