MODEL 1
REMARK VINA RESULT:     -11.7      0.000      0.000
REMARK SMILES NC(=O)[C@H]1CCCN1S(=O)(=O)Cc1ccc(C(=O)NCCCCCCNC(=O)c2ccc(-c3c4nc(c(-c5c(F)c(F)c(F)c(F)c5F)c5ccc([nH]5)c(-c5c(F)c(F)c(F)c(F)c5F)c5nc(c(-c6c(F)c(F)c(F)c(F)c6F)c6ccc3[nH]6)C=C5)C=C4)cc2)cc1
REMARK SMILES IDX 21 1 20 2 19 3 17 4 18 5 16 7 13 8 14 9 93 10 15 11 92 12
REMARK SMILES IDX 12 13 9 14 10 15 11 16 8 17 4 18 5 19 6 20 7 21 2 22 1 23
REMARK SMILES IDX 3 26 22 27 23 28 24 29 25 30 26 31 27 32 28 34 29 35 30 36
REMARK SMILES IDX 91 37 31 38 90 39 32 40 33 41 34 42 84 43 35 44 89 45 83 46
REMARK SMILES IDX 85 47 36 48 88 49 82 50 81 51 37 53 69 54 49 55 68 56 50 57
REMARK SMILES IDX 53 58 67 59 86 60 51 61 52 62 66 64 87 65 54 66 38 67 39 68
REMARK SMILES IDX 47 69 40 70 41 71 45 72 48 73 42 74 43 75 46 76 44 77 70 78
REMARK SMILES IDX 71 79 79 80 72 81 73 82 77 83 80 84 74 85 75 86 78 87 76 88
REMARK SMILES IDX 55 89 56 90 64 91 57 92 58 93 62 94 65 95 59 96 60 97 63 98
REMARK SMILES IDX 61 99
REMARK H PARENT 19 6 1 24 1 25 26 33 85 52 53 63
REMARK Flexibility Score: inf
ROOT
ATOM      1  C   UNL A   1      39.983  22.899  26.874  1.00  0.00     0.021 C 
ENDROOT
BRANCH   1   2
ATOM      2  C   UNL A   1      38.613  22.787  26.202  1.00  0.00     0.116 C 
BRANCH   2   3
ATOM      3  N   UNL A   1      38.468  21.463  25.639  1.00  0.00    -0.352 N 
ATOM      4  C   UNL A   1      37.427  20.857  24.990  1.00  0.00     0.251 C 
ATOM      5  O   UNL A   1      37.555  19.673  24.683  1.00  0.00    -0.269 OA
ATOM      6  H   UNL A   1      39.264  20.893  25.741  1.00  0.00     0.163 HD
BRANCH   4   7
ATOM      7  C   UNL A   1      36.203  21.592  24.576  1.00  0.00     0.039 A 
ATOM      8  C   UNL A   1      34.040  23.214  23.736  1.00  0.00    -0.032 A 
ATOM      9  C   UNL A   1      35.293  23.313  23.125  1.00  0.00     0.005 A 
ATOM     10  C   UNL A   1      33.879  22.263  24.756  1.00  0.00     0.005 A 
ATOM     11  C   UNL A   1      36.359  22.510  23.535  1.00  0.00     0.014 A 
ATOM     12  C   UNL A   1      34.938  21.436  25.144  1.00  0.00     0.014 A 
BRANCH   8  13
ATOM     13  C   UNL A   1      32.895  24.142  23.431  1.00  0.00     0.189 C 
BRANCH  13  14
ATOM     14  S   UNL A   1      33.374  25.851  23.166  1.00  0.00     0.219 S 
ATOM     15  O   UNL A   1      33.899  25.952  21.815  1.00  0.00    -0.212 OA
ATOM     16  O   UNL A   1      34.174  26.309  24.280  1.00  0.00    -0.212 OA
BRANCH  14  17
ATOM     17  N   UNL A   1      31.918  26.722  23.173  1.00  0.00    -0.189 NA
ATOM     18  C   UNL A   1      31.799  27.859  24.140  1.00  0.00     0.161 C 
ATOM     19  C   UNL A   1      31.064  27.231  25.315  1.00  0.00     0.032 C 
ATOM     20  C   UNL A   1      30.049  26.318  24.650  1.00  0.00     0.019 C 
ATOM     21  C   UNL A   1      30.697  25.881  23.339  1.00  0.00     0.103 C 
BRANCH  18  22
ATOM     22  C   UNL A   1      31.074  29.024  23.424  1.00  0.00     0.235 C 
ATOM     23  N   UNL A   1      31.406  29.312  22.134  1.00  0.00    -0.368 N 
ATOM     24  H   UNL A   1      30.956  30.049  21.662  1.00  0.00     0.159 HD
ATOM     25  H   UNL A   1      32.096  28.781  21.673  1.00  0.00     0.159 HD
ATOM     26  O   UNL A   1      30.178  29.682  23.952  1.00  0.00    -0.273 OA
ENDBRANCH  18  22
ENDBRANCH  14  17
ENDBRANCH  13  14
ENDBRANCH   8  13
ENDBRANCH   4   7
ENDBRANCH   2   3
ENDBRANCH   1   2
BRANCH   1  27
ATOM     27  C   UNL A   1      41.064  22.093  26.143  1.00  0.00     0.002 C 
BRANCH  27  28
ATOM     28  C   UNL A   1      41.605  20.900  26.939  1.00  0.00     0.002 C 
BRANCH  28  29
ATOM     29  C   UNL A   1      41.872  19.651  26.097  1.00  0.00     0.021 C 
BRANCH  29  30
ATOM     30  C   UNL A   1      43.256  19.053  26.321  1.00  0.00     0.116 C 
BRANCH  30  31
ATOM     31  N   UNL A   1      43.926  18.790  25.056  1.00  0.00    -0.352 N 
ATOM     32  C   UNL A   1      44.491  19.678  24.178  1.00  0.00     0.251 C 
ATOM     33  H   UNL A   1      43.980  17.842  24.794  1.00  0.00     0.163 HD
ATOM     34  O   UNL A   1      44.769  19.333  23.035  1.00  0.00    -0.269 OA
BRANCH  32  35
ATOM     35  C   UNL A   1      44.758  21.060  24.620  1.00  0.00     0.039 A 
ATOM     36  C   UNL A   1      44.273  22.124  23.858  1.00  0.00     0.014 A 
ATOM     37  C   UNL A   1      45.493  21.300  25.786  1.00  0.00     0.014 A 
ATOM     38  C   UNL A   1      44.485  23.432  24.293  1.00  0.00     0.010 A 
ATOM     39  C   UNL A   1      45.629  22.598  26.261  1.00  0.00     0.010 A 
ATOM     40  C   UNL A   1      45.137  23.678  25.513  1.00  0.00    -0.014 A 
BRANCH  40  41
ATOM     41  C   UNL A   1      45.320  25.059  26.019  1.00  0.00     0.031 A 
ATOM     42  C   UNL A   1      46.679  25.699  25.990  1.00  0.00     0.074 A 
ATOM     43  C   UNL A   1      44.273  25.712  26.559  1.00  0.00     0.049 A 
ATOM     44  N   UNL A   1      47.052  26.873  26.433  1.00  0.00    -0.248 NA
ATOM     45  C   UNL A   1      47.771  24.903  25.409  1.00  0.00     0.031 C 
ATOM     46  C   UNL A   1      42.918  25.176  26.684  1.00  0.00     0.029 A 
ATOM     47  N   UNL A   1      44.188  26.965  27.109  1.00  0.00    -0.354 N 
ATOM     48  C   UNL A   1      48.418  26.950  26.194  1.00  0.00     0.074 A 
ATOM     49  C   UNL A   1      48.821  25.680  25.628  1.00  0.00     0.031 C 
ATOM     50  C   UNL A   1      42.128  26.106  27.245  1.00  0.00     0.029 A 
ATOM     51  C   UNL A   1      42.931  27.283  27.560  1.00  0.00     0.049 A 
ATOM     52  H   UNL A   1      44.956  27.579  27.174  1.00  0.00     0.167 HD
ATOM     53  C   UNL A   1      49.255  27.993  26.403  1.00  0.00     0.037 A 
ATOM     54  C   UNL A   1      42.479  28.398  28.167  1.00  0.00     0.037 A 
ATOM     55  C   UNL A   1      48.843  29.257  26.957  1.00  0.00     0.049 A 
ATOM     56  C   UNL A   1      43.435  29.533  28.415  1.00  0.00     0.074 A 
ATOM     57  C   UNL A   1      49.599  30.397  27.163  1.00  0.00     0.029 A 
ATOM     58  N   UNL A   1      47.560  29.543  27.403  1.00  0.00    -0.354 N 
ATOM     59  N   UNL A   1      44.710  29.623  28.121  1.00  0.00    -0.248 NA
ATOM     60  C   UNL A   1      42.887  30.724  29.076  1.00  0.00     0.031 C 
ATOM     61  C   UNL A   1      48.791  31.351  27.790  1.00  0.00     0.029 A 
ATOM     62  C   UNL A   1      47.512  30.831  27.913  1.00  0.00     0.049 A 
ATOM     63  H   UNL A   1      46.797  28.922  27.364  1.00  0.00     0.167 HD
ATOM     64  C   UNL A   1      45.108  30.888  28.529  1.00  0.00     0.074 A 
ATOM     65  C   UNL A   1      43.935  31.535  29.079  1.00  0.00     0.031 C 
ATOM     66  C   UNL A   1      46.334  31.463  28.454  1.00  0.00     0.037 A 
BRANCH  53  67
ATOM     67  C   UNL A   1      50.700  27.807  26.036  1.00  0.00     0.064 A 
ATOM     68  C   UNL A   1      51.668  27.458  26.992  1.00  0.00     0.173 A 
ATOM     69  C   UNL A   1      51.123  27.960  24.707  1.00  0.00     0.173 A 
ATOM     70  F   UNL A   1      51.321  27.309  28.280  1.00  0.00    -0.203 F 
ATOM     71  C   UNL A   1      53.007  27.312  26.640  1.00  0.00     0.198 A 
ATOM     72  C   UNL A   1      52.458  27.776  24.351  1.00  0.00     0.198 A 
ATOM     73  F   UNL A   1      50.242  28.286  23.749  1.00  0.00    -0.203 F 
ATOM     74  F   UNL A   1      53.920  27.042  27.583  1.00  0.00    -0.200 F 
ATOM     75  C   UNL A   1      53.400  27.464  25.319  1.00  0.00     0.200 A 
ATOM     76  F   UNL A   1      52.832  27.907  23.071  1.00  0.00    -0.200 F 
ATOM     77  F   UNL A   1      54.687  27.317  24.980  1.00  0.00    -0.200 F 
ENDBRANCH  53  67
BRANCH  54  78
ATOM     78  C   UNL A   1      41.049  28.500  28.556  1.00  0.00     0.064 A 
ATOM     79  C   UNL A   1      40.621  28.107  29.832  1.00  0.00     0.173 A 
ATOM     80  C   UNL A   1      40.082  28.994  27.667  1.00  0.00     0.173 A 
ATOM     81  F   UNL A   1      41.503  27.611  30.711  1.00  0.00    -0.203 F 
ATOM     82  C   UNL A   1      39.278  28.184  30.197  1.00  0.00     0.198 A 
ATOM     83  C   UNL A   1      38.744  29.100  28.045  1.00  0.00     0.198 A 
ATOM     84  F   UNL A   1      40.439  29.390  26.438  1.00  0.00    -0.203 F 
ATOM     85  F   UNL A   1      38.889  27.756  31.406  1.00  0.00    -0.200 F 
ATOM     86  C   UNL A   1      38.342  28.686  29.305  1.00  0.00     0.200 A 
ATOM     87  F   UNL A   1      37.847  29.603  27.186  1.00  0.00    -0.200 F 
ATOM     88  F   UNL A   1      37.052  28.766  29.659  1.00  0.00    -0.200 F 
ENDBRANCH  54  78
BRANCH  66  89
ATOM     89  C   UNL A   1      46.463  32.878  28.943  1.00  0.00     0.064 A 
ATOM     90  C   UNL A   1      46.814  33.175  30.269  1.00  0.00     0.173 A 
ATOM     91  C   UNL A   1      46.270  33.952  28.060  1.00  0.00     0.173 A 
ATOM     92  F   UNL A   1      46.996  32.185  31.157  1.00  0.00    -0.203 F 
ATOM     93  C   UNL A   1      46.936  34.493  30.699  1.00  0.00     0.198 A 
ATOM     94  C   UNL A   1      46.429  35.269  28.485  1.00  0.00     0.198 A 
ATOM     95  F   UNL A   1      45.940  33.725  26.780  1.00  0.00    -0.203 F 
ATOM     96  F   UNL A   1      47.218  34.752  31.983  1.00  0.00    -0.200 F 
ATOM     97  C   UNL A   1      46.753  35.538  29.806  1.00  0.00     0.200 A 
ATOM     98  F   UNL A   1      46.269  36.275  27.615  1.00  0.00    -0.200 F 
ATOM     99  F   UNL A   1      46.882  36.806  30.220  1.00  0.00    -0.200 F 
ENDBRANCH  66  89
ENDBRANCH  40  41
ENDBRANCH  32  35
ENDBRANCH  30  31
ENDBRANCH  29  30
ENDBRANCH  28  29
ENDBRANCH  27  28
ENDBRANCH   1  27
TORSDOF 17
ENDMDL
MODEL 2
REMARK VINA RESULT:     -11.2      1.326      2.217
REMARK SMILES NC(=O)[C@H]1CCCN1S(=O)(=O)Cc1ccc(C(=O)NCCCCCCNC(=O)c2ccc(-c3c4nc(c(-c5c(F)c(F)c(F)c(F)c5F)c5ccc([nH]5)c(-c5c(F)c(F)c(F)c(F)c5F)c5nc(c(-c6c(F)c(F)c(F)c(F)c6F)c6ccc3[nH]6)C=C5)C=C4)cc2)cc1
REMARK SMILES IDX 21 1 20 2 19 3 17 4 18 5 16 7 13 8 14 9 93 10 15 11 92 12
REMARK SMILES IDX 12 13 9 14 10 15 11 16 8 17 4 18 5 19 6 20 7 21 2 22 1 23
REMARK SMILES IDX 3 26 22 27 23 28 24 29 25 30 26 31 27 32 28 34 29 35 30 36
REMARK SMILES IDX 91 37 31 38 90 39 32 40 33 41 34 42 84 43 35 44 89 45 83 46
REMARK SMILES IDX 85 47 36 48 88 49 82 50 81 51 37 53 69 54 49 55 68 56 50 57
REMARK SMILES IDX 53 58 67 59 86 60 51 61 52 62 66 64 87 65 54 66 38 67 39 68
REMARK SMILES IDX 47 69 40 70 41 71 45 72 48 73 42 74 43 75 46 76 44 77 70 78
REMARK SMILES IDX 71 79 79 80 72 81 73 82 77 83 80 84 74 85 75 86 78 87 76 88
REMARK SMILES IDX 55 89 56 90 64 91 57 92 58 93 62 94 65 95 59 96 60 97 63 98
REMARK SMILES IDX 61 99
REMARK H PARENT 19 6 1 24 1 25 26 33 85 52 53 63
REMARK Flexibility Score: inf
ROOT
ATOM      1  C   UNL A   1      38.659  22.872  26.512  1.00  0.00     0.021 C 
ENDROOT
BRANCH   1   2
ATOM      2  C   UNL A   1      37.733  21.877  25.808  1.00  0.00     0.116 C 
BRANCH   2   3
ATOM      3  N   UNL A   1      37.612  22.248  24.415  1.00  0.00    -0.352 N 
ATOM      4  C   UNL A   1      36.590  22.823  23.710  1.00  0.00     0.251 C 
ATOM      5  O   UNL A   1      36.734  22.955  22.496  1.00  0.00    -0.269 OA
ATOM      6  H   UNL A   1      38.410  22.049  23.875  1.00  0.00     0.163 HD
BRANCH   4   7
ATOM      7  C   UNL A   1      35.368  23.362  24.364  1.00  0.00     0.039 A 
ATOM      8  C   UNL A   1      32.903  24.316  25.377  1.00  0.00    -0.032 A 
ATOM      9  C   UNL A   1      32.957  23.175  24.572  1.00  0.00     0.005 A 
ATOM     10  C   UNL A   1      34.112  24.955  25.694  1.00  0.00     0.005 A 
ATOM     11  C   UNL A   1      34.173  22.701  24.077  1.00  0.00     0.014 A 
ATOM     12  C   UNL A   1      35.333  24.460  25.224  1.00  0.00     0.014 A 
BRANCH   8  13
ATOM     13  C   UNL A   1      31.615  24.951  25.828  1.00  0.00     0.189 C 
BRANCH  13  14
ATOM     14  S   UNL A   1      30.963  26.189  24.703  1.00  0.00     0.219 S 
ATOM     15  O   UNL A   1      29.535  25.954  24.577  1.00  0.00    -0.212 OA
ATOM     16  O   UNL A   1      31.787  26.247  23.517  1.00  0.00    -0.212 OA
BRANCH  14  17
ATOM     17  N   UNL A   1      31.128  27.662  25.529  1.00  0.00    -0.189 NA
ATOM     18  C   UNL A   1      32.030  28.693  24.925  1.00  0.00     0.161 C 
ATOM     19  C   UNL A   1      33.335  28.486  25.679  1.00  0.00     0.032 C 
ATOM     20  C   UNL A   1      32.883  28.202  27.099  1.00  0.00     0.019 C 
ATOM     21  C   UNL A   1      31.521  27.526  26.962  1.00  0.00     0.103 C 
BRANCH  18  22
ATOM     22  C   UNL A   1      31.357  30.077  25.092  1.00  0.00     0.235 C 
ATOM     23  N   UNL A   1      30.380  30.443  24.215  1.00  0.00    -0.368 N 
ATOM     24  H   UNL A   1      29.940  31.319  24.305  1.00  0.00     0.159 HD
ATOM     25  H   UNL A   1      30.113  29.831  23.491  1.00  0.00     0.159 HD
ATOM     26  O   UNL A   1      31.632  30.851  26.007  1.00  0.00    -0.273 OA
ENDBRANCH  18  22
ENDBRANCH  14  17
ENDBRANCH  13  14
ENDBRANCH   8  13
ENDBRANCH   4   7
ENDBRANCH   2   3
ENDBRANCH   1   2
BRANCH   1  27
ATOM     27  C   UNL A   1      40.142  22.521  26.336  1.00  0.00     0.002 C 
BRANCH  27  28
ATOM     28  C   UNL A   1      40.610  21.326  27.175  1.00  0.00     0.002 C 
BRANCH  28  29
ATOM     29  C   UNL A   1      40.842  20.045  26.371  1.00  0.00     0.021 C 
BRANCH  29  30
ATOM     30  C   UNL A   1      42.019  19.218  26.874  1.00  0.00     0.116 C 
BRANCH  30  31
ATOM     31  N   UNL A   1      42.866  18.783  25.774  1.00  0.00    -0.352 N 
ATOM     32  C   UNL A   1      43.643  19.536  24.933  1.00  0.00     0.251 C 
ATOM     33  H   UNL A   1      42.882  17.812  25.610  1.00  0.00     0.163 HD
ATOM     34  O   UNL A   1      44.077  19.060  23.890  1.00  0.00    -0.269 OA
BRANCH  32  35
ATOM     35  C   UNL A   1      43.948  20.934  25.292  1.00  0.00     0.039 A 
ATOM     36  C   UNL A   1      43.945  21.909  24.293  1.00  0.00     0.014 A 
ATOM     37  C   UNL A   1      44.244  21.276  26.615  1.00  0.00     0.014 A 
ATOM     38  C   UNL A   1      44.191  23.240  24.632  1.00  0.00     0.010 A 
ATOM     39  C   UNL A   1      44.405  22.611  26.964  1.00  0.00     0.010 A 
ATOM     40  C   UNL A   1      44.392  23.605  25.974  1.00  0.00    -0.014 A 
BRANCH  40  41
ATOM     41  C   UNL A   1      44.597  25.021  26.360  1.00  0.00     0.031 A 
ATOM     42  C   UNL A   1      45.960  25.644  26.246  1.00  0.00     0.074 A 
ATOM     43  C   UNL A   1      43.569  25.727  26.868  1.00  0.00     0.049 A 
ATOM     44  N   UNL A   1      46.353  26.847  26.582  1.00  0.00    -0.248 NA
ATOM     45  C   UNL A   1      47.032  24.792  25.708  1.00  0.00     0.031 C 
ATOM     46  C   UNL A   1      42.212  25.216  27.069  1.00  0.00     0.029 A 
ATOM     47  N   UNL A   1      43.506  27.022  27.314  1.00  0.00    -0.354 N 
ATOM     48  C   UNL A   1      47.713  26.891  26.307  1.00  0.00     0.074 A 
ATOM     49  C   UNL A   1      48.092  25.575  25.838  1.00  0.00     0.031 C 
ATOM     50  C   UNL A   1      41.443  26.196  27.569  1.00  0.00     0.029 A 
ATOM     51  C   UNL A   1      42.262  27.387  27.767  1.00  0.00     0.049 A 
ATOM     52  H   UNL A   1      44.280  27.631  27.311  1.00  0.00     0.167 HD
ATOM     53  C   UNL A   1      48.562  27.940  26.409  1.00  0.00     0.037 A 
ATOM     54  C   UNL A   1      41.834  28.552  28.290  1.00  0.00     0.037 A 
ATOM     55  C   UNL A   1      48.173  29.249  26.866  1.00  0.00     0.049 A 
ATOM     56  C   UNL A   1      42.804  29.695  28.421  1.00  0.00     0.074 A 
ATOM     57  C   UNL A   1      48.943  30.395  26.960  1.00  0.00     0.029 A 
ATOM     58  N   UNL A   1      46.904  29.583  27.317  1.00  0.00    -0.354 N 
ATOM     59  N   UNL A   1      44.072  29.749  28.091  1.00  0.00    -0.248 NA
ATOM     60  C   UNL A   1      42.280  30.941  28.994  1.00  0.00     0.031 C 
ATOM     61  C   UNL A   1      48.157  31.404  27.525  1.00  0.00     0.029 A 
ATOM     62  C   UNL A   1      46.877  30.909  27.720  1.00  0.00     0.049 A 
ATOM     63  H   UNL A   1      46.135  28.968  27.347  1.00  0.00     0.167 HD
ATOM     64  C   UNL A   1      44.490  31.039  28.384  1.00  0.00     0.074 A 
ATOM     65  C   UNL A   1      43.335  31.741  28.906  1.00  0.00     0.031 C 
ATOM     66  C   UNL A   1      45.717  31.595  28.234  1.00  0.00     0.037 A 
BRANCH  53  67
ATOM     67  C   UNL A   1      49.997  27.711  26.026  1.00  0.00     0.064 A 
ATOM     68  C   UNL A   1      50.991  27.464  26.988  1.00  0.00     0.173 A 
ATOM     69  C   UNL A   1      50.384  27.718  24.677  1.00  0.00     0.173 A 
ATOM     70  F   UNL A   1      50.678  27.456  28.293  1.00  0.00    -0.203 F 
ATOM     71  C   UNL A   1      52.319  27.276  26.617  1.00  0.00     0.198 A 
ATOM     72  C   UNL A   1      51.708  27.492  24.307  1.00  0.00     0.198 A 
ATOM     73  F   UNL A   1      49.477  27.941  23.714  1.00  0.00    -0.203 F 
ATOM     74  F   UNL A   1      53.258  27.107  27.558  1.00  0.00    -0.200 F 
ATOM     75  C   UNL A   1      52.676  27.283  25.278  1.00  0.00     0.200 A 
ATOM     76  F   UNL A   1      52.048  27.483  23.011  1.00  0.00    -0.200 F 
ATOM     77  F   UNL A   1      53.954  27.097  24.921  1.00  0.00    -0.200 F 
ENDBRANCH  53  67
BRANCH  54  78
ATOM     78  C   UNL A   1      40.414  28.701  28.702  1.00  0.00     0.064 A 
ATOM     79  C   UNL A   1      39.437  29.108  27.783  1.00  0.00     0.173 A 
ATOM     80  C   UNL A   1      40.003  28.437  30.017  1.00  0.00     0.173 A 
ATOM     81  F   UNL A   1      39.782  29.390  26.519  1.00  0.00    -0.203 F 
ATOM     82  C   UNL A   1      38.107  29.267  28.168  1.00  0.00     0.198 A 
ATOM     83  C   UNL A   1      38.666  28.566  30.393  1.00  0.00     0.198 A 
ATOM     84  F   UNL A   1      40.896  28.038  30.934  1.00  0.00    -0.203 F 
ATOM     85  F   UNL A   1      37.203  29.703  27.281  1.00  0.00    -0.200 F 
ATOM     86  C   UNL A   1      37.722  28.989  29.471  1.00  0.00     0.200 A 
ATOM     87  F   UNL A   1      38.297  28.279  31.649  1.00  0.00    -0.200 F 
ATOM     88  F   UNL A   1      36.442  29.135  29.839  1.00  0.00    -0.200 F 
ENDBRANCH  54  78
BRANCH  66  89
ATOM     89  C   UNL A   1      45.869  33.044  28.601  1.00  0.00     0.064 A 
ATOM     90  C   UNL A   1      45.617  34.072  27.680  1.00  0.00     0.173 A 
ATOM     91  C   UNL A   1      46.234  33.408  29.906  1.00  0.00     0.173 A 
ATOM     92  F   UNL A   1      45.279  33.778  26.415  1.00  0.00    -0.203 F 
ATOM     93  C   UNL A   1      45.756  35.408  28.044  1.00  0.00     0.198 A 
ATOM     94  C   UNL A   1      46.337  34.746  30.277  1.00  0.00     0.198 A 
ATOM     95  F   UNL A   1      46.479  32.465  30.829  1.00  0.00    -0.203 F 
ATOM     96  F   UNL A   1      45.564  36.371  27.132  1.00  0.00    -0.200 F 
ATOM     97  C   UNL A   1      46.107  35.745  29.342  1.00  0.00     0.200 A 
ATOM     98  F   UNL A   1      46.657  35.068  31.537  1.00  0.00    -0.200 F 
ATOM     99  F   UNL A   1      46.229  37.033  29.693  1.00  0.00    -0.200 F 
ENDBRANCH  66  89
ENDBRANCH  40  41
ENDBRANCH  32  35
ENDBRANCH  30  31
ENDBRANCH  29  30
ENDBRANCH  28  29
ENDBRANCH  27  28
ENDBRANCH   1  27
TORSDOF 17
ENDMDL
MODEL 3
REMARK VINA RESULT:     -11.2      0.778      2.211
REMARK SMILES NC(=O)[C@H]1CCCN1S(=O)(=O)Cc1ccc(C(=O)NCCCCCCNC(=O)c2ccc(-c3c4nc(c(-c5c(F)c(F)c(F)c(F)c5F)c5ccc([nH]5)c(-c5c(F)c(F)c(F)c(F)c5F)c5nc(c(-c6c(F)c(F)c(F)c(F)c6F)c6ccc3[nH]6)C=C5)C=C4)cc2)cc1
REMARK SMILES IDX 21 1 20 2 19 3 17 4 18 5 16 7 13 8 14 9 93 10 15 11 92 12
REMARK SMILES IDX 12 13 9 14 10 15 11 16 8 17 4 18 5 19 6 20 7 21 2 22 1 23
REMARK SMILES IDX 3 26 22 27 23 28 24 29 25 30 26 31 27 32 28 34 29 35 30 36
REMARK SMILES IDX 91 37 31 38 90 39 32 40 33 41 34 42 84 43 35 44 89 45 83 46
REMARK SMILES IDX 85 47 36 48 88 49 82 50 81 51 37 53 69 54 49 55 68 56 50 57
REMARK SMILES IDX 53 58 67 59 86 60 51 61 52 62 66 64 87 65 54 66 38 67 39 68
REMARK SMILES IDX 47 69 40 70 41 71 45 72 48 73 42 74 43 75 46 76 44 77 70 78
REMARK SMILES IDX 71 79 79 80 72 81 73 82 77 83 80 84 74 85 75 86 78 87 76 88
REMARK SMILES IDX 55 89 56 90 64 91 57 92 58 93 62 94 65 95 59 96 60 97 63 98
REMARK SMILES IDX 61 99
REMARK H PARENT 19 6 1 24 1 25 26 33 85 52 53 63
REMARK Flexibility Score: inf
ROOT
ATOM      1  C   UNL A   1      41.250  21.921  26.127  1.00  0.00     0.021 C 
ENDROOT
BRANCH   1   2
ATOM      2  C   UNL A   1      39.783  21.876  26.557  1.00  0.00     0.116 C 
BRANCH   2   3
ATOM      3  N   UNL A   1      39.103  20.838  25.814  1.00  0.00    -0.352 N 
ATOM      4  C   UNL A   1      37.889  20.814  25.182  1.00  0.00     0.251 C 
ATOM      5  O   UNL A   1      37.522  19.750  24.687  1.00  0.00    -0.269 OA
ATOM      6  H   UNL A   1      39.604  19.993  25.753  1.00  0.00     0.163 HD
BRANCH   4   7
ATOM      7  C   UNL A   1      37.055  22.031  25.003  1.00  0.00     0.039 A 
ATOM      8  C   UNL A   1      35.277  24.227  24.830  1.00  0.00    -0.032 A 
ATOM      9  C   UNL A   1      35.419  23.508  26.020  1.00  0.00     0.005 A 
ATOM     10  C   UNL A   1      36.067  23.848  23.734  1.00  0.00     0.005 A 
ATOM     11  C   UNL A   1      36.299  22.428  26.107  1.00  0.00     0.014 A 
ATOM     12  C   UNL A   1      36.973  22.787  23.832  1.00  0.00     0.014 A 
BRANCH   8  13
ATOM     13  C   UNL A   1      34.250  25.311  24.635  1.00  0.00     0.189 C 
BRANCH  13  14
ATOM     14  S   UNL A   1      32.979  24.921  23.430  1.00  0.00     0.219 S 
ATOM     15  O   UNL A   1      32.101  23.929  24.028  1.00  0.00    -0.212 OA
ATOM     16  O   UNL A   1      33.591  24.655  22.148  1.00  0.00    -0.212 OA
BRANCH  14  17
ATOM     17  N   UNL A   1      32.059  26.339  23.288  1.00  0.00    -0.189 NA
ATOM     18  C   UNL A   1      32.140  27.329  24.409  1.00  0.00     0.161 C 
ATOM     19  C   UNL A   1      30.915  26.995  25.247  1.00  0.00     0.032 C 
ATOM     20  C   UNL A   1      29.852  26.679  24.210  1.00  0.00     0.019 C 
ATOM     21  C   UNL A   1      30.610  26.111  23.014  1.00  0.00     0.103 C 
BRANCH  18  22
ATOM     22  C   UNL A   1      32.180  28.749  23.793  1.00  0.00     0.235 C 
ATOM     23  N   UNL A   1      31.709  29.797  24.525  1.00  0.00    -0.368 N 
ATOM     24  H   UNL A   1      31.726  30.707  24.150  1.00  0.00     0.159 HD
ATOM     25  H   UNL A   1      31.353  29.645  25.431  1.00  0.00     0.159 HD
ATOM     26  O   UNL A   1      32.656  28.986  22.683  1.00  0.00    -0.273 OA
ENDBRANCH  18  22
ENDBRANCH  14  17
ENDBRANCH  13  14
ENDBRANCH   8  13
ENDBRANCH   4   7
ENDBRANCH   2   3
ENDBRANCH   1   2
BRANCH   1  27
ATOM     27  C   UNL A   1      42.172  21.177  27.103  1.00  0.00     0.002 C 
BRANCH  27  28
ATOM     28  C   UNL A   1      41.860  19.683  27.247  1.00  0.00     0.002 C 
BRANCH  28  29
ATOM     29  C   UNL A   1      42.370  18.820  26.092  1.00  0.00     0.021 C 
BRANCH  29  30
ATOM     30  C   UNL A   1      43.884  18.642  26.089  1.00  0.00     0.116 C 
BRANCH  30  31
ATOM     31  N   UNL A   1      44.408  18.612  24.732  1.00  0.00    -0.352 N 
ATOM     32  C   UNL A   1      44.702  19.659  23.898  1.00  0.00     0.251 C 
ATOM     33  H   UNL A   1      44.573  17.715  24.362  1.00  0.00     0.163 HD
ATOM     34  O   UNL A   1      44.872  19.472  22.698  1.00  0.00    -0.269 OA
BRANCH  32  35
ATOM     35  C   UNL A   1      44.807  21.020  24.456  1.00  0.00     0.039 A 
ATOM     36  C   UNL A   1      45.504  21.214  25.650  1.00  0.00     0.014 A 
ATOM     37  C   UNL A   1      44.210  22.102  23.801  1.00  0.00     0.014 A 
ATOM     38  C   UNL A   1      45.644  22.504  26.161  1.00  0.00     0.010 A 
ATOM     39  C   UNL A   1      44.421  23.393  24.266  1.00  0.00     0.010 A 
ATOM     40  C   UNL A   1      45.131  23.606  25.458  1.00  0.00    -0.014 A 
BRANCH  40  41
ATOM     41  C   UNL A   1      45.319  24.990  25.956  1.00  0.00     0.031 A 
ATOM     42  C   UNL A   1      46.679  25.628  25.911  1.00  0.00     0.074 A 
ATOM     43  C   UNL A   1      44.278  25.646  26.501  1.00  0.00     0.049 A 
ATOM     44  N   UNL A   1      47.057  26.804  26.345  1.00  0.00    -0.248 NA
ATOM     45  C   UNL A   1      47.766  24.828  25.325  1.00  0.00     0.031 C 
ATOM     46  C   UNL A   1      42.923  25.112  26.641  1.00  0.00     0.029 A 
ATOM     47  N   UNL A   1      44.199  26.902  27.045  1.00  0.00    -0.354 N 
ATOM     48  C   UNL A   1      48.420  26.879  26.094  1.00  0.00     0.074 A 
ATOM     49  C   UNL A   1      48.817  25.607  25.531  1.00  0.00     0.031 C 
ATOM     50  C   UNL A   1      42.139  26.045  27.203  1.00  0.00     0.029 A 
ATOM     51  C   UNL A   1      42.945  27.223  27.506  1.00  0.00     0.049 A 
ATOM     52  H   UNL A   1      44.967  27.516  27.101  1.00  0.00     0.167 HD
ATOM     53  C   UNL A   1      49.260  27.923  26.291  1.00  0.00     0.037 A 
ATOM     54  C   UNL A   1      42.500  28.341  28.111  1.00  0.00     0.037 A 
ATOM     55  C   UNL A   1      48.853  29.190  26.841  1.00  0.00     0.049 A 
ATOM     56  C   UNL A   1      43.458  29.477  28.345  1.00  0.00     0.074 A 
ATOM     57  C   UNL A   1      49.612  30.330  27.036  1.00  0.00     0.029 A 
ATOM     58  N   UNL A   1      47.575  29.479  27.298  1.00  0.00    -0.354 N 
ATOM     59  N   UNL A   1      44.730  29.565  28.039  1.00  0.00    -0.248 NA
ATOM     60  C   UNL A   1      42.916  30.671  29.005  1.00  0.00     0.031 C 
ATOM     61  C   UNL A   1      48.810  31.288  27.665  1.00  0.00     0.029 A 
ATOM     62  C   UNL A   1      47.531  30.769  27.802  1.00  0.00     0.049 A 
ATOM     63  H   UNL A   1      46.810  28.859  27.268  1.00  0.00     0.167 HD
ATOM     64  C   UNL A   1      45.133  30.832  28.438  1.00  0.00     0.074 A 
ATOM     65  C   UNL A   1      43.965  31.482  28.995  1.00  0.00     0.031 C 
ATOM     66  C   UNL A   1      46.358  31.406  28.350  1.00  0.00     0.037 A 
BRANCH  53  67
ATOM     67  C   UNL A   1      50.701  27.734  25.913  1.00  0.00     0.064 A 
ATOM     68  C   UNL A   1      51.152  27.917  24.595  1.00  0.00     0.173 A 
ATOM     69  C   UNL A   1      51.653  27.384  26.883  1.00  0.00     0.173 A 
ATOM     70  F   UNL A   1      50.283  28.242  23.624  1.00  0.00    -0.203 F 
ATOM     71  C   UNL A   1      52.487  27.716  24.257  1.00  0.00     0.198 A 
ATOM     72  C   UNL A   1      52.995  27.220  26.549  1.00  0.00     0.198 A 
ATOM     73  F   UNL A   1      51.282  27.203  28.160  1.00  0.00    -0.203 F 
ATOM     74  F   UNL A   1      52.878  27.834  22.980  1.00  0.00    -0.200 F 
ATOM     75  C   UNL A   1      53.409  27.375  25.234  1.00  0.00     0.200 A 
ATOM     76  F   UNL A   1      53.887  26.908  27.498  1.00  0.00    -0.200 F 
ATOM     77  F   UNL A   1      54.695  27.188  24.909  1.00  0.00    -0.200 F 
ENDBRANCH  53  67
BRANCH  54  78
ATOM     78  C   UNL A   1      41.072  28.447  28.512  1.00  0.00     0.064 A 
ATOM     79  C   UNL A   1      40.115  28.972  27.632  1.00  0.00     0.173 A 
ATOM     80  C   UNL A   1      40.635  28.026  29.776  1.00  0.00     0.173 A 
ATOM     81  F   UNL A   1      40.487  29.406  26.420  1.00  0.00    -0.203 F 
ATOM     82  C   UNL A   1      38.779  29.091  28.009  1.00  0.00     0.198 A 
ATOM     83  C   UNL A   1      39.292  28.116  30.140  1.00  0.00     0.198 A 
ATOM     84  F   UNL A   1      41.508  27.510  30.652  1.00  0.00    -0.203 F 
ATOM     85  F   UNL A   1      37.894  29.641  27.166  1.00  0.00    -0.200 F 
ATOM     86  C   UNL A   1      38.368  28.657  29.260  1.00  0.00     0.200 A 
ATOM     87  F   UNL A   1      38.897  27.678  31.343  1.00  0.00    -0.200 F 
ATOM     88  F   UNL A   1      37.081  28.765  29.620  1.00  0.00    -0.200 F 
ENDBRANCH  54  78
BRANCH  66  89
ATOM     89  C   UNL A   1      46.493  32.822  28.830  1.00  0.00     0.064 A 
ATOM     90  C   UNL A   1      46.276  33.918  27.979  1.00  0.00     0.173 A 
ATOM     91  C   UNL A   1      46.807  33.087  30.172  1.00  0.00     0.173 A 
ATOM     92  F   UNL A   1      45.988  33.719  26.684  1.00  0.00    -0.203 F 
ATOM     93  C   UNL A   1      46.398  35.223  28.448  1.00  0.00     0.198 A 
ATOM     94  C   UNL A   1      46.892  34.394  30.646  1.00  0.00     0.198 A 
ATOM     95  F   UNL A   1      47.018  32.078  31.030  1.00  0.00    -0.203 F 
ATOM     96  F   UNL A   1      46.240  36.252  27.604  1.00  0.00    -0.200 F 
ATOM     97  C   UNL A   1      46.697  35.460  29.781  1.00  0.00     0.200 A 
ATOM     98  F   UNL A   1      47.163  34.620  31.938  1.00  0.00    -0.200 F 
ATOM     99  F   UNL A   1      46.803  36.718  30.231  1.00  0.00    -0.200 F 
ENDBRANCH  66  89
ENDBRANCH  40  41
ENDBRANCH  32  35
ENDBRANCH  30  31
ENDBRANCH  29  30
ENDBRANCH  28  29
ENDBRANCH  27  28
ENDBRANCH   1  27
TORSDOF 17
ENDMDL
