MODEL 1
REMARK VINA RESULT:     -13.4      0.000      0.000
REMARK SMILES Cc1ccc(C)c([C@H]2[NH2+][C@@H](C(=O)NCCCCCCNC(=O)c3ccc(-c4c5nc(c(-c6c(F)c(F)c(F)c(F)c6F)c6ccc([nH]6)c(-c6c(F)c(F)c(F)c(F)c6F)c6nc(c(-c7c(F)c(F)c(F)c(F)c7F)c7ccc4[nH]7)C=C6)C=C5)cc3)Cc3c2[nH]c2ccccc32)c1
REMARK SMILES IDX 17 1 16 2 15 3 14 4 13 5 11 6 12 7 10 9 8 10 9 11 88 12
REMARK SMILES IDX 87 15 89 16 86 17 95 18 90 19 94 21 91 22 93 23 92 24 7 25
REMARK SMILES IDX 1 26 2 27 3 28 96 29 4 30 5 31 6 32 18 33 19 34 20 35 21 36
REMARK SMILES IDX 22 38 23 39 24 40 85 41 25 42 84 43 26 44 27 45 28 46 78 47
REMARK SMILES IDX 29 48 83 49 77 50 79 51 30 52 82 53 76 54 75 55 31 57 63 58
REMARK SMILES IDX 43 59 62 60 44 61 47 62 61 63 80 64 45 65 46 66 60 68 81 69
REMARK SMILES IDX 48 70 32 71 33 72 41 73 34 74 35 75 39 76 42 77 36 78 37 79
REMARK SMILES IDX 40 80 38 81 64 82 65 83 73 84 66 85 67 86 71 87 74 88 68 89
REMARK SMILES IDX 69 90 72 91 70 92 49 93 50 94 58 95 51 96 52 97 56 98 59 99
REMARK SMILES IDX 53 100 54 101 57 102 55 103
REMARK H PARENT 13 8 9 13 9 14 89 20 20 37 79 56 47 67
REMARK Flexibility Score: inf
ROOT
ATOM      1  C   UNL A   1      41.888  19.594  27.517  1.00  0.00     0.002 C 
ENDROOT
BRANCH   1   2
ATOM      2  C   UNL A   1      41.729  21.122  27.431  1.00  0.00     0.002 C 
BRANCH   2   3
ATOM      3  C   UNL A   1      41.075  21.658  26.165  1.00  0.00     0.021 C 
BRANCH   3   4
ATOM      4  C   UNL A   1      39.556  21.551  26.210  1.00  0.00     0.116 C 
BRANCH   4   5
ATOM      5  N   UNL A   1      38.953  22.811  26.610  1.00  0.00    -0.351 N 
ATOM      6  C   UNL A   1      37.884  23.540  26.203  1.00  0.00     0.278 C 
ATOM      7  O   UNL A   1      37.753  24.644  26.756  1.00  0.00    -0.268 OA
ATOM      8  H   UNL A   1      39.435  23.237  27.355  1.00  0.00     0.163 HD
BRANCH   6   9
ATOM      9  C   UNL A   1      36.783  23.072  25.224  1.00  0.00     0.277 C 
ATOM     10  C   UNL A   1      34.888  24.144  23.924  1.00  0.00     0.262 C 
ATOM     11  N   UNL A   1      35.997  24.278  24.894  1.00  0.00    -0.325 N 
ATOM     12  C   UNL A   1      34.295  22.747  23.986  1.00  0.00     0.083 A 
ATOM     13  H   UNL A   1      35.596  24.625  25.765  1.00  0.00     0.347 HD
ATOM     14  H   UNL A   1      36.664  24.897  24.434  1.00  0.00     0.347 HD
ATOM     15  C   UNL A   1      34.793  21.713  24.748  1.00  0.00    -0.006 A 
ATOM     16  N   UNL A   1      33.249  22.221  23.262  1.00  0.00    -0.353 N 
ATOM     17  C   UNL A   1      35.876  21.958  25.711  1.00  0.00     0.114 C 
ATOM     18  C   UNL A   1      34.061  20.538  24.507  1.00  0.00     0.003 A 
ATOM     19  C   UNL A   1      33.075  20.879  23.583  1.00  0.00     0.046 A 
ATOM     20  H   UNL A   1      32.704  22.722  22.613  1.00  0.00     0.166 HD
ATOM     21  C   UNL A   1      34.138  19.226  25.011  1.00  0.00     0.010 A 
ATOM     22  C   UNL A   1      32.135  19.934  23.148  1.00  0.00     0.026 A 
ATOM     23  C   UNL A   1      33.213  18.277  24.583  1.00  0.00     0.001 A 
ATOM     24  C   UNL A   1      32.223  18.631  23.667  1.00  0.00     0.002 A 
BRANCH  10  25
ATOM     25  C   UNL A   1      33.969  25.338  24.231  1.00  0.00     0.019 A 
ATOM     26  C   UNL A   1      33.557  28.018  26.947  1.00  0.00     0.044 C 
ATOM     27  C   UNL A   1      33.413  27.262  25.660  1.00  0.00    -0.051 A 
ATOM     28  C   UNL A   1      32.667  27.821  24.623  1.00  0.00     0.004 A 
ATOM     29  C   UNL A   1      34.068  26.037  25.455  1.00  0.00     0.014 A 
ATOM     30  C   UNL A   1      32.541  27.151  23.411  1.00  0.00     0.004 A 
ATOM     31  C   UNL A   1      33.159  25.906  23.204  1.00  0.00    -0.042 A 
ATOM     32  C   UNL A   1      33.033  25.322  21.818  1.00  0.00     0.045 C 
ENDBRANCH  10  25
ENDBRANCH   6   9
ENDBRANCH   4   5
ENDBRANCH   3   4
ENDBRANCH   2   3
ENDBRANCH   1   2
BRANCH   1  33
ATOM     33  C   UNL A   1      42.927  18.851  26.648  1.00  0.00     0.021 C 
BRANCH  33  34
ATOM     34  C   UNL A   1      43.179  19.293  25.200  1.00  0.00     0.116 C 
BRANCH  34  35
ATOM     35  N   UNL A   1      44.592  19.544  24.897  1.00  0.00    -0.352 N 
ATOM     36  C   UNL A   1      45.341  20.706  24.789  1.00  0.00     0.251 C 
ATOM     37  H   UNL A   1      45.111  18.724  24.736  1.00  0.00     0.163 HD
ATOM     38  O   UNL A   1      46.424  20.678  24.226  1.00  0.00    -0.269 OA
BRANCH  36  39
ATOM     39  C   UNL A   1      44.855  21.976  25.375  1.00  0.00     0.039 A 
ATOM     40  C   UNL A   1      44.030  22.874  24.688  1.00  0.00     0.014 A 
ATOM     41  C   UNL A   1      45.286  22.307  26.645  1.00  0.00     0.014 A 
ATOM     42  C   UNL A   1      43.691  24.084  25.304  1.00  0.00     0.010 A 
ATOM     43  C   UNL A   1      44.765  23.348  27.341  1.00  0.00     0.010 A 
ATOM     44  C   UNL A   1      44.097  24.313  26.626  1.00  0.00    -0.014 A 
BRANCH  44  45
ATOM     45  C   UNL A   1      43.842  25.541  27.351  1.00  0.00     0.031 A 
ATOM     46  C   UNL A   1      44.734  26.659  26.995  1.00  0.00     0.074 A 
ATOM     47  C   UNL A   1      42.700  25.763  28.039  1.00  0.00     0.049 A 
ATOM     48  N   UNL A   1      45.620  27.222  27.741  1.00  0.00    -0.248 NA
ATOM     49  C   UNL A   1      44.717  27.137  25.604  1.00  0.00     0.031 C 
ATOM     50  C   UNL A   1      41.498  24.921  28.142  1.00  0.00     0.029 A 
ATOM     51  N   UNL A   1      42.332  26.887  28.707  1.00  0.00    -0.354 N 
ATOM     52  C   UNL A   1      46.157  28.248  26.978  1.00  0.00     0.074 A 
ATOM     53  C   UNL A   1      45.705  28.031  25.627  1.00  0.00     0.031 C 
ATOM     54  C   UNL A   1      40.478  25.652  28.644  1.00  0.00     0.029 A 
ATOM     55  C   UNL A   1      40.989  26.950  29.043  1.00  0.00     0.049 A 
ATOM     56  H   UNL A   1      42.970  27.600  28.935  1.00  0.00     0.167 HD
ATOM     57  C   UNL A   1      46.734  29.328  27.570  1.00  0.00     0.037 A 
ATOM     58  C   UNL A   1      40.348  28.024  29.565  1.00  0.00     0.037 A 
ATOM     59  C   UNL A   1      47.010  29.078  28.964  1.00  0.00     0.049 A 
ATOM     60  C   UNL A   1      41.389  28.921  30.137  1.00  0.00     0.074 A 
ATOM     61  C   UNL A   1      47.729  28.109  29.643  1.00  0.00     0.029 A 
ATOM     62  N   UNL A   1      46.181  29.639  29.907  1.00  0.00    -0.354 N 
ATOM     63  N   UNL A   1      42.120  28.624  31.178  1.00  0.00    -0.248 NA
ATOM     64  C   UNL A   1      41.933  29.958  29.271  1.00  0.00     0.031 C 
ATOM     65  C   UNL A   1      46.932  27.793  30.785  1.00  0.00     0.029 A 
ATOM     66  C   UNL A   1      45.817  28.632  30.768  1.00  0.00     0.049 A 
ATOM     67  H   UNL A   1      45.902  30.582  29.956  1.00  0.00     0.167 HD
ATOM     68  C   UNL A   1      43.384  29.110  30.873  1.00  0.00     0.074 A 
ATOM     69  C   UNL A   1      43.186  30.000  29.732  1.00  0.00     0.031 C 
ATOM     70  C   UNL A   1      44.512  28.528  31.379  1.00  0.00     0.037 A 
BRANCH  57  71
ATOM     71  C   UNL A   1      46.736  30.713  26.981  1.00  0.00     0.064 A 
ATOM     72  C   UNL A   1      47.936  31.449  26.968  1.00  0.00     0.173 A 
ATOM     73  C   UNL A   1      45.567  31.447  26.682  1.00  0.00     0.173 A 
ATOM     74  F   UNL A   1      49.103  30.856  27.263  1.00  0.00    -0.203 F 
ATOM     75  C   UNL A   1      47.953  32.826  26.739  1.00  0.00     0.198 A 
ATOM     76  C   UNL A   1      45.596  32.809  26.392  1.00  0.00     0.198 A 
ATOM     77  F   UNL A   1      44.344  30.911  26.772  1.00  0.00    -0.203 F 
ATOM     78  F   UNL A   1      49.102  33.505  26.862  1.00  0.00    -0.200 F 
ATOM     79  C   UNL A   1      46.783  33.505  26.453  1.00  0.00     0.200 A 
ATOM     80  F   UNL A   1      44.447  33.452  26.137  1.00  0.00    -0.200 F 
ATOM     81  F   UNL A   1      46.790  34.834  26.289  1.00  0.00    -0.200 F 
ENDBRANCH  57  71
BRANCH  58  82
ATOM     82  C   UNL A   1      38.947  28.455  29.347  1.00  0.00     0.064 A 
ATOM     83  C   UNL A   1      38.072  28.647  30.429  1.00  0.00     0.173 A 
ATOM     84  C   UNL A   1      38.513  28.943  28.099  1.00  0.00     0.173 A 
ATOM     85  F   UNL A   1      38.426  28.252  31.660  1.00  0.00    -0.203 F 
ATOM     86  C   UNL A   1      36.848  29.310  30.275  1.00  0.00     0.198 A 
ATOM     87  C   UNL A   1      37.288  29.595  27.944  1.00  0.00     0.198 A 
ATOM     88  F   UNL A   1      39.308  28.884  27.021  1.00  0.00    -0.203 F 
ATOM     89  F   UNL A   1      36.070  29.532  31.344  1.00  0.00    -0.200 F 
ATOM     90  C   UNL A   1      36.462  29.791  29.035  1.00  0.00     0.200 A 
ATOM     91  F   UNL A   1      36.945  30.086  26.745  1.00  0.00    -0.200 F 
ATOM     92  F   UNL A   1      35.321  30.480  28.899  1.00  0.00    -0.200 F 
ENDBRANCH  58  82
BRANCH  70  93
ATOM     93  C   UNL A   1      44.359  27.511  32.479  1.00  0.00     0.064 A 
ATOM     94  C   UNL A   1      44.234  26.127  32.261  1.00  0.00     0.173 A 
ATOM     95  C   UNL A   1      44.505  27.938  33.806  1.00  0.00     0.173 A 
ATOM     96  F   UNL A   1      44.198  25.622  31.023  1.00  0.00    -0.203 F 
ATOM     97  C   UNL A   1      44.210  25.223  33.323  1.00  0.00     0.198 A 
ATOM     98  C   UNL A   1      44.520  27.031  34.863  1.00  0.00     0.198 A 
ATOM     99  F   UNL A   1      44.686  29.240  34.077  1.00  0.00    -0.203 F 
ATOM    100  F   UNL A   1      44.078  23.910  33.084  1.00  0.00    -0.200 F 
ATOM    101  C   UNL A   1      44.361  25.675  34.623  1.00  0.00     0.200 A 
ATOM    102  F   UNL A   1      44.717  27.468  36.114  1.00  0.00    -0.200 F 
ATOM    103  F   UNL A   1      44.382  24.803  35.640  1.00  0.00    -0.200 F 
ENDBRANCH  70  93
ENDBRANCH  44  45
ENDBRANCH  36  39
ENDBRANCH  34  35
ENDBRANCH  33  34
ENDBRANCH   1  33
TORSDOF 14
ENDMDL
MODEL 2
REMARK VINA RESULT:     -12.7      4.186     10.064
REMARK SMILES Cc1ccc(C)c([C@H]2[NH2+][C@@H](C(=O)NCCCCCCNC(=O)c3ccc(-c4c5nc(c(-c6c(F)c(F)c(F)c(F)c6F)c6ccc([nH]6)c(-c6c(F)c(F)c(F)c(F)c6F)c6nc(c(-c7c(F)c(F)c(F)c(F)c7F)c7ccc4[nH]7)C=C6)C=C5)cc3)Cc3c2[nH]c2ccccc32)c1
REMARK SMILES IDX 17 1 16 2 15 3 14 4 13 5 11 6 12 7 10 9 8 10 9 11 88 12
REMARK SMILES IDX 87 15 89 16 86 17 95 18 90 19 94 21 91 22 93 23 92 24 7 25
REMARK SMILES IDX 1 26 2 27 3 28 96 29 4 30 5 31 6 32 18 33 19 34 20 35 21 36
REMARK SMILES IDX 22 38 23 39 24 40 85 41 25 42 84 43 26 44 27 45 28 46 78 47
REMARK SMILES IDX 29 48 83 49 77 50 79 51 30 52 82 53 76 54 75 55 31 57 63 58
REMARK SMILES IDX 43 59 62 60 44 61 47 62 61 63 80 64 45 65 46 66 60 68 81 69
REMARK SMILES IDX 48 70 32 71 33 72 41 73 34 74 35 75 39 76 42 77 36 78 37 79
REMARK SMILES IDX 40 80 38 81 64 82 65 83 73 84 66 85 67 86 71 87 74 88 68 89
REMARK SMILES IDX 69 90 72 91 70 92 49 93 50 94 58 95 51 96 52 97 56 98 59 99
REMARK SMILES IDX 53 100 54 101 57 102 55 103
REMARK H PARENT 13 8 9 13 9 14 89 20 20 37 79 56 47 67
REMARK Flexibility Score: inf
ROOT
ATOM      1  C   UNL A   1      34.279  35.636  28.295  1.00  0.00     0.002 C 
ENDROOT
BRANCH   1   2
ATOM      2  C   UNL A   1      34.924  34.277  27.970  1.00  0.00     0.002 C 
BRANCH   2   3
ATOM      3  C   UNL A   1      34.409  33.084  28.764  1.00  0.00     0.021 C 
BRANCH   3   4
ATOM      4  C   UNL A   1      33.734  32.047  27.876  1.00  0.00     0.116 C 
BRANCH   4   5
ATOM      5  N   UNL A   1      34.628  30.938  27.592  1.00  0.00    -0.351 N 
ATOM      6  C   UNL A   1      34.471  29.647  27.206  1.00  0.00     0.278 C 
ATOM      7  O   UNL A   1      35.514  28.975  27.159  1.00  0.00    -0.268 OA
ATOM      8  H   UNL A   1      35.575  31.180  27.708  1.00  0.00     0.163 HD
BRANCH   6   9
ATOM      9  C   UNL A   1      33.156  28.997  26.717  1.00  0.00     0.277 C 
ATOM     10  C   UNL A   1      32.268  26.646  26.383  1.00  0.00     0.262 C 
ATOM     11  N   UNL A   1      33.386  27.539  26.755  1.00  0.00    -0.325 N 
ATOM     12  C   UNL A   1      31.361  27.325  25.371  1.00  0.00     0.083 A 
ATOM     13  H   UNL A   1      34.158  27.339  26.119  1.00  0.00     0.347 HD
ATOM     14  H   UNL A   1      33.557  27.336  27.740  1.00  0.00     0.347 HD
ATOM     15  C   UNL A   1      31.489  28.631  24.950  1.00  0.00    -0.006 A 
ATOM     16  N   UNL A   1      30.225  26.836  24.766  1.00  0.00    -0.353 N 
ATOM     17  C   UNL A   1      32.660  29.425  25.349  1.00  0.00     0.114 C 
ATOM     18  C   UNL A   1      30.438  28.964  24.079  1.00  0.00     0.003 A 
ATOM     19  C   UNL A   1      29.659  27.814  23.955  1.00  0.00     0.046 A 
ATOM     20  H   UNL A   1      29.866  25.928  24.890  1.00  0.00     0.166 HD
ATOM     21  C   UNL A   1      30.097  30.132  23.371  1.00  0.00     0.010 A 
ATOM     22  C   UNL A   1      28.535  27.791  23.117  1.00  0.00     0.026 A 
ATOM     23  C   UNL A   1      28.980  30.122  22.540  1.00  0.00     0.001 A 
ATOM     24  C   UNL A   1      28.215  28.964  22.413  1.00  0.00     0.002 A 
BRANCH  10  25
ATOM     25  C   UNL A   1      32.952  25.330  25.976  1.00  0.00     0.019 A 
ATOM     26  C   UNL A   1      36.485  24.060  25.178  1.00  0.00     0.044 C 
ATOM     27  C   UNL A   1      35.020  24.086  25.496  1.00  0.00    -0.051 A 
ATOM     28  C   UNL A   1      34.351  22.882  25.722  1.00  0.00     0.004 A 
ATOM     29  C   UNL A   1      34.323  25.297  25.638  1.00  0.00     0.014 A 
ATOM     30  C   UNL A   1      32.999  22.882  26.044  1.00  0.00     0.004 A 
ATOM     31  C   UNL A   1      32.280  24.085  26.152  1.00  0.00    -0.042 A 
ATOM     32  C   UNL A   1      30.845  23.965  26.603  1.00  0.00     0.045 C 
ENDBRANCH  10  25
ENDBRANCH   6   9
ENDBRANCH   4   5
ENDBRANCH   3   4
ENDBRANCH   2   3
ENDBRANCH   1   2
BRANCH   1  33
ATOM     33  C   UNL A   1      33.129  35.747  29.320  1.00  0.00     0.021 C 
BRANCH  33  34
ATOM     34  C   UNL A   1      33.343  36.493  30.644  1.00  0.00     0.116 C 
BRANCH  34  35
ATOM     35  N   UNL A   1      32.787  35.798  31.810  1.00  0.00    -0.352 N 
ATOM     36  C   UNL A   1      33.186  34.673  32.516  1.00  0.00     0.251 C 
ATOM     37  H   UNL A   1      31.966  36.212  32.160  1.00  0.00     0.163 HD
ATOM     38  O   UNL A   1      32.396  34.111  33.256  1.00  0.00    -0.269 OA
BRANCH  36  39
ATOM     39  C   UNL A   1      34.572  34.162  32.403  1.00  0.00     0.039 A 
ATOM     40  C   UNL A   1      35.703  34.977  32.522  1.00  0.00     0.014 A 
ATOM     41  C   UNL A   1      34.744  32.823  32.113  1.00  0.00     0.014 A 
ATOM     42  C   UNL A   1      36.966  34.410  32.320  1.00  0.00     0.010 A 
ATOM     43  C   UNL A   1      35.958  32.219  32.165  1.00  0.00     0.010 A 
ATOM     44  C   UNL A   1      37.068  33.027  32.113  1.00  0.00    -0.014 A 
BRANCH  44  45
ATOM     45  C   UNL A   1      38.313  32.335  31.852  1.00  0.00     0.031 A 
ATOM     46  C   UNL A   1      39.097  32.010  33.057  1.00  0.00     0.074 A 
ATOM     47  C   UNL A   1      38.586  31.738  30.670  1.00  0.00     0.049 A 
ATOM     48  N   UNL A   1      40.243  32.488  33.397  1.00  0.00    -0.248 NA
ATOM     49  C   UNL A   1      38.483  31.130  34.062  1.00  0.00     0.031 C 
ATOM     50  C   UNL A   1      37.727  31.582  29.487  1.00  0.00     0.029 A 
ATOM     51  N   UNL A   1      39.688  31.020  30.333  1.00  0.00    -0.354 N 
ATOM     52  C   UNL A   1      40.587  31.840  34.574  1.00  0.00     0.074 A 
ATOM     53  C   UNL A   1      39.399  31.166  35.030  1.00  0.00     0.031 C 
ATOM     54  C   UNL A   1      38.257  30.649  28.665  1.00  0.00     0.029 A 
ATOM     55  C   UNL A   1      39.558  30.263  29.179  1.00  0.00     0.049 A 
ATOM     56  H   UNL A   1      40.515  31.036  30.866  1.00  0.00     0.167 HD
ATOM     57  C   UNL A   1      41.890  31.718  34.948  1.00  0.00     0.037 A 
ATOM     58  C   UNL A   1      40.447  29.348  28.721  1.00  0.00     0.037 A 
ATOM     59  C   UNL A   1      42.738  32.610  34.195  1.00  0.00     0.049 A 
ATOM     60  C   UNL A   1      41.750  29.633  29.384  1.00  0.00     0.074 A 
ATOM     61  C   UNL A   1      42.750  33.979  33.988  1.00  0.00     0.029 A 
ATOM     62  N   UNL A   1      43.506  32.086  33.182  1.00  0.00    -0.354 N 
ATOM     63  N   UNL A   1      42.464  30.704  29.165  1.00  0.00    -0.248 NA
ATOM     64  C   UNL A   1      42.033  28.941  30.634  1.00  0.00     0.031 C 
ATOM     65  C   UNL A   1      43.066  34.139  32.605  1.00  0.00     0.029 A 
ATOM     66  C   UNL A   1      43.293  32.869  32.073  1.00  0.00     0.049 A 
ATOM     67  H   UNL A   1      44.096  31.299  33.240  1.00  0.00     0.167 HD
ATOM     68  C   UNL A   1      42.965  31.056  30.410  1.00  0.00     0.074 A 
ATOM     69  C   UNL A   1      42.743  29.886  31.255  1.00  0.00     0.031 C 
ATOM     70  C   UNL A   1      43.244  32.356  30.724  1.00  0.00     0.037 A 
BRANCH  57  71
ATOM     71  C   UNL A   1      42.435  30.561  35.742  1.00  0.00     0.064 A 
ATOM     72  C   UNL A   1      43.293  30.822  36.826  1.00  0.00     0.173 A 
ATOM     73  C   UNL A   1      42.372  29.214  35.322  1.00  0.00     0.173 A 
ATOM     74  F   UNL A   1      43.448  32.072  37.289  1.00  0.00    -0.203 F 
ATOM     75  C   UNL A   1      44.079  29.820  37.401  1.00  0.00     0.198 A 
ATOM     76  C   UNL A   1      43.110  28.207  35.939  1.00  0.00     0.198 A 
ATOM     77  F   UNL A   1      41.692  28.836  34.234  1.00  0.00    -0.203 F 
ATOM     78  F   UNL A   1      44.974  30.139  38.345  1.00  0.00    -0.200 F 
ATOM     79  C   UNL A   1      43.987  28.514  36.956  1.00  0.00     0.200 A 
ATOM     80  F   UNL A   1      43.021  26.951  35.479  1.00  0.00    -0.200 F 
ATOM     81  F   UNL A   1      44.780  27.564  37.467  1.00  0.00    -0.200 F 
ENDBRANCH  57  71
BRANCH  58  82
ATOM     82  C   UNL A   1      40.177  28.090  27.985  1.00  0.00     0.064 A 
ATOM     83  C   UNL A   1      40.836  27.800  26.780  1.00  0.00     0.173 A 
ATOM     84  C   UNL A   1      39.469  27.028  28.580  1.00  0.00     0.173 A 
ATOM     85  F   UNL A   1      41.570  28.742  26.170  1.00  0.00    -0.203 F 
ATOM     86  C   UNL A   1      40.810  26.519  26.217  1.00  0.00     0.198 A 
ATOM     87  C   UNL A   1      39.433  25.752  28.013  1.00  0.00     0.198 A 
ATOM     88  F   UNL A   1      38.874  27.177  29.773  1.00  0.00    -0.203 F 
ATOM     89  F   UNL A   1      41.506  26.265  25.100  1.00  0.00    -0.200 F 
ATOM     90  C   UNL A   1      40.116  25.494  26.839  1.00  0.00     0.200 A 
ATOM     91  F   UNL A   1      38.787  24.763  28.646  1.00  0.00    -0.200 F 
ATOM     92  F   UNL A   1      40.141  24.253  26.334  1.00  0.00    -0.200 F 
ENDBRANCH  58  82
BRANCH  70  93
ATOM     93  C   UNL A   1      43.248  33.374  29.613  1.00  0.00     0.064 A 
ATOM     94  C   UNL A   1      42.149  34.190  29.288  1.00  0.00     0.173 A 
ATOM     95  C   UNL A   1      44.458  33.643  28.960  1.00  0.00     0.173 A 
ATOM     96  F   UNL A   1      40.986  34.075  29.939  1.00  0.00    -0.203 F 
ATOM     97  C   UNL A   1      42.248  35.192  28.325  1.00  0.00     0.198 A 
ATOM     98  C   UNL A   1      44.565  34.671  28.025  1.00  0.00     0.198 A 
ATOM     99  F   UNL A   1      45.558  32.938  29.266  1.00  0.00    -0.203 F 
ATOM    100  F   UNL A   1      41.179  35.947  28.029  1.00  0.00    -0.200 F 
ATOM    101  C   UNL A   1      43.458  35.438  27.700  1.00  0.00     0.200 A 
ATOM    102  F   UNL A   1      45.751  34.936  27.461  1.00  0.00    -0.200 F 
ATOM    103  F   UNL A   1      43.565  36.430  26.806  1.00  0.00    -0.200 F 
ENDBRANCH  70  93
ENDBRANCH  44  45
ENDBRANCH  36  39
ENDBRANCH  34  35
ENDBRANCH  33  34
ENDBRANCH   1  33
TORSDOF 14
ENDMDL
MODEL 3
REMARK VINA RESULT:     -12.6      2.970      8.791
REMARK SMILES Cc1ccc(C)c([C@H]2[NH2+][C@@H](C(=O)NCCCCCCNC(=O)c3ccc(-c4c5nc(c(-c6c(F)c(F)c(F)c(F)c6F)c6ccc([nH]6)c(-c6c(F)c(F)c(F)c(F)c6F)c6nc(c(-c7c(F)c(F)c(F)c(F)c7F)c7ccc4[nH]7)C=C6)C=C5)cc3)Cc3c2[nH]c2ccccc32)c1
REMARK SMILES IDX 17 1 16 2 15 3 14 4 13 5 11 6 12 7 10 9 8 10 9 11 88 12
REMARK SMILES IDX 87 15 89 16 86 17 95 18 90 19 94 21 91 22 93 23 92 24 7 25
REMARK SMILES IDX 1 26 2 27 3 28 96 29 4 30 5 31 6 32 18 33 19 34 20 35 21 36
REMARK SMILES IDX 22 38 23 39 24 40 85 41 25 42 84 43 26 44 27 45 28 46 78 47
REMARK SMILES IDX 29 48 83 49 77 50 79 51 30 52 82 53 76 54 75 55 31 57 63 58
REMARK SMILES IDX 43 59 62 60 44 61 47 62 61 63 80 64 45 65 46 66 60 68 81 69
REMARK SMILES IDX 48 70 32 71 33 72 41 73 34 74 35 75 39 76 42 77 36 78 37 79
REMARK SMILES IDX 40 80 38 81 64 82 65 83 73 84 66 85 67 86 71 87 74 88 68 89
REMARK SMILES IDX 69 90 72 91 70 92 49 93 50 94 58 95 51 96 52 97 56 98 59 99
REMARK SMILES IDX 53 100 54 101 57 102 55 103
REMARK H PARENT 13 8 9 13 9 14 89 20 20 37 79 56 47 67
REMARK Flexibility Score: inf
ROOT
ATOM      1  C   UNL A   1      33.391  29.104  24.657  1.00  0.00     0.002 C 
ENDROOT
BRANCH   1   2
ATOM      2  C   UNL A   1      32.071  28.714  23.968  1.00  0.00     0.002 C 
BRANCH   2   3
ATOM      3  C   UNL A   1      32.162  27.617  22.917  1.00  0.00     0.021 C 
BRANCH   3   4
ATOM      4  C   UNL A   1      31.238  26.446  23.223  1.00  0.00     0.116 C 
BRANCH   4   5
ATOM      5  N   UNL A   1      31.239  26.133  24.642  1.00  0.00    -0.351 N 
ATOM      6  C   UNL A   1      31.960  25.316  25.449  1.00  0.00     0.278 C 
ATOM      7  O   UNL A   1      31.579  25.263  26.629  1.00  0.00    -0.268 OA
ATOM      8  H   UNL A   1      30.552  26.635  25.137  1.00  0.00     0.163 HD
BRANCH   6   9
ATOM      9  C   UNL A   1      33.252  24.561  25.059  1.00  0.00     0.277 C 
ATOM     10  C   UNL A   1      33.853  22.272  24.148  1.00  0.00     0.262 C 
ATOM     11  N   UNL A   1      32.821  23.215  24.633  1.00  0.00    -0.325 N 
ATOM     12  C   UNL A   1      35.185  22.552  24.824  1.00  0.00     0.083 A 
ATOM     13  H   UNL A   1      32.363  22.777  25.432  1.00  0.00     0.347 HD
ATOM     14  H   UNL A   1      32.230  23.384  23.819  1.00  0.00     0.347 HD
ATOM     15  C   UNL A   1      35.431  23.608  25.674  1.00  0.00    -0.006 A 
ATOM     16  N   UNL A   1      36.387  21.900  24.663  1.00  0.00    -0.353 N 
ATOM     17  C   UNL A   1      34.327  24.467  26.125  1.00  0.00     0.114 C 
ATOM     18  C   UNL A   1      36.784  23.621  26.050  1.00  0.00     0.003 A 
ATOM     19  C   UNL A   1      37.372  22.523  25.422  1.00  0.00     0.046 A 
ATOM     20  H   UNL A   1      36.529  21.109  24.094  1.00  0.00     0.166 HD
ATOM     21  C   UNL A   1      37.551  24.453  26.887  1.00  0.00     0.010 A 
ATOM     22  C   UNL A   1      38.726  22.219  25.619  1.00  0.00     0.026 A 
ATOM     23  C   UNL A   1      38.899  24.163  27.086  1.00  0.00     0.001 A 
ATOM     24  C   UNL A   1      39.474  23.058  26.462  1.00  0.00     0.002 A 
BRANCH  10  25
ATOM     25  C   UNL A   1      33.219  20.884  24.340  1.00  0.00     0.019 A 
ATOM     26  C   UNL A   1      32.153  17.894  22.184  1.00  0.00     0.044 C 
ATOM     27  C   UNL A   1      32.499  18.740  23.372  1.00  0.00    -0.051 A 
ATOM     28  C   UNL A   1      32.534  18.153  24.638  1.00  0.00     0.004 A 
ATOM     29  C   UNL A   1      32.854  20.092  23.230  1.00  0.00     0.014 A 
ATOM     30  C   UNL A   1      32.878  18.912  25.751  1.00  0.00     0.004 A 
ATOM     31  C   UNL A   1      33.198  20.275  25.629  1.00  0.00    -0.042 A 
ATOM     32  C   UNL A   1      33.650  20.969  26.891  1.00  0.00     0.045 C 
ENDBRANCH  10  25
ENDBRANCH   6   9
ENDBRANCH   4   5
ENDBRANCH   3   4
ENDBRANCH   2   3
ENDBRANCH   1   2
BRANCH   1  33
ATOM     33  C   UNL A   1      33.868  28.377  25.934  1.00  0.00     0.021 C 
BRANCH  33  34
ATOM     34  C   UNL A   1      33.930  29.127  27.272  1.00  0.00     0.116 C 
BRANCH  34  35
ATOM     35  N   UNL A   1      34.174  30.565  27.133  1.00  0.00    -0.352 N 
ATOM     36  C   UNL A   1      35.161  31.406  27.626  1.00  0.00     0.251 C 
ATOM     37  H   UNL A   1      33.503  31.027  26.581  1.00  0.00     0.163 HD
ATOM     38  O   UNL A   1      34.983  32.613  27.629  1.00  0.00    -0.269 OA
BRANCH  36  39
ATOM     39  C   UNL A   1      36.445  30.856  28.121  1.00  0.00     0.039 A 
ATOM     40  C   UNL A   1      37.290  31.548  28.996  1.00  0.00     0.014 A 
ATOM     41  C   UNL A   1      36.843  29.621  27.647  1.00  0.00     0.014 A 
ATOM     42  C   UNL A   1      38.518  30.972  29.341  1.00  0.00     0.010 A 
ATOM     43  C   UNL A   1      37.901  28.951  28.167  1.00  0.00     0.010 A 
ATOM     44  C   UNL A   1      38.817  29.680  28.889  1.00  0.00    -0.014 A 
BRANCH  44  45
ATOM     45  C   UNL A   1      40.069  28.999  29.146  1.00  0.00     0.031 A 
ATOM     46  C   UNL A   1      40.356  28.762  30.572  1.00  0.00     0.074 A 
ATOM     47  C   UNL A   1      40.754  28.338  28.186  1.00  0.00     0.049 A 
ATOM     48  N   UNL A   1      41.299  29.284  31.277  1.00  0.00    -0.248 NA
ATOM     49  C   UNL A   1      39.414  27.931  31.336  1.00  0.00     0.031 C 
ATOM     50  C   UNL A   1      40.388  28.094  26.782  1.00  0.00     0.029 A 
ATOM     51  N   UNL A   1      41.902  27.624  28.321  1.00  0.00    -0.354 N 
ATOM     52  C   UNL A   1      41.187  28.715  32.537  1.00  0.00     0.074 A 
ATOM     53  C   UNL A   1      39.912  28.044  32.568  1.00  0.00     0.031 C 
ATOM     54  C   UNL A   1      41.180  27.125  26.272  1.00  0.00     0.029 A 
ATOM     55  C   UNL A   1      42.201  26.797  27.250  1.00  0.00     0.049 A 
ATOM     56  H   UNL A   1      42.476  27.690  29.117  1.00  0.00     0.167 HD
ATOM     57  C   UNL A   1      42.261  28.642  33.368  1.00  0.00     0.037 A 
ATOM     58  C   UNL A   1      43.194  25.876  27.208  1.00  0.00     0.037 A 
ATOM     59  C   UNL A   1      43.328  29.505  32.923  1.00  0.00     0.049 A 
ATOM     60  C   UNL A   1      44.164  26.226  28.281  1.00  0.00     0.074 A 
ATOM     61  C   UNL A   1      43.419  30.859  32.649  1.00  0.00     0.029 A 
ATOM     62  N   UNL A   1      44.412  28.937  32.296  1.00  0.00    -0.354 N 
ATOM     63  N   UNL A   1      44.911  27.297  28.272  1.00  0.00    -0.248 NA
ATOM     64  C   UNL A   1      43.968  25.617  29.589  1.00  0.00     0.031 C 
ATOM     65  C   UNL A   1      44.220  30.943  31.470  1.00  0.00     0.029 A 
ATOM     66  C   UNL A   1      44.622  29.648  31.139  1.00  0.00     0.049 A 
ATOM     67  H   UNL A   1      44.938  28.168  32.615  1.00  0.00     0.167 HD
ATOM     68  C   UNL A   1      44.922  27.734  29.589  1.00  0.00     0.074 A 
ATOM     69  C   UNL A   1      44.404  26.611  30.367  1.00  0.00     0.031 C 
ATOM     70  C   UNL A   1      45.071  29.056  29.901  1.00  0.00     0.037 A 
BRANCH  57  71
ATOM     71  C   UNL A   1      42.475  27.546  34.377  1.00  0.00     0.064 A 
ATOM     72  C   UNL A   1      43.050  26.333  33.956  1.00  0.00     0.173 A 
ATOM     73  C   UNL A   1      41.897  27.533  35.666  1.00  0.00     0.173 A 
ATOM     74  F   UNL A   1      43.603  26.226  32.738  1.00  0.00    -0.203 F 
ATOM     75  C   UNL A   1      42.989  25.178  34.739  1.00  0.00     0.198 A 
ATOM     76  C   UNL A   1      41.895  26.397  36.470  1.00  0.00     0.198 A 
ATOM     77  F   UNL A   1      41.212  28.576  36.152  1.00  0.00    -0.203 F 
ATOM     78  F   UNL A   1      43.436  24.016  34.244  1.00  0.00    -0.200 F 
ATOM     79  C   UNL A   1      42.411  25.211  35.995  1.00  0.00     0.200 A 
ATOM     80  F   UNL A   1      41.311  26.445  37.676  1.00  0.00    -0.200 F 
ATOM     81  F   UNL A   1      42.302  24.093  36.724  1.00  0.00    -0.200 F 
ENDBRANCH  57  71
BRANCH  58  82
ATOM     82  C   UNL A   1      43.209  24.570  26.505  1.00  0.00     0.064 A 
ATOM     83  C   UNL A   1      43.903  24.408  25.295  1.00  0.00     0.173 A 
ATOM     84  C   UNL A   1      42.769  23.390  27.136  1.00  0.00     0.173 A 
ATOM     85  F   UNL A   1      44.395  25.476  24.651  1.00  0.00    -0.203 F 
ATOM     86  C   UNL A   1      44.162  23.140  24.761  1.00  0.00     0.198 A 
ATOM     87  C   UNL A   1      43.018  22.126  26.598  1.00  0.00     0.198 A 
ATOM     88  F   UNL A   1      42.171  23.431  28.335  1.00  0.00    -0.203 F 
ATOM     89  F   UNL A   1      44.884  23.023  23.638  1.00  0.00    -0.200 F 
ATOM     90  C   UNL A   1      43.728  22.000  25.418  1.00  0.00     0.200 A 
ATOM     91  F   UNL A   1      42.623  21.032  27.264  1.00  0.00    -0.200 F 
ATOM     92  F   UNL A   1      44.029  20.785  24.940  1.00  0.00    -0.200 F 
ENDBRANCH  58  82
BRANCH  70  93
ATOM     93  C   UNL A   1      45.483  30.005  28.806  1.00  0.00     0.064 A 
ATOM     94  C   UNL A   1      44.580  30.661  27.951  1.00  0.00     0.173 A 
ATOM     95  C   UNL A   1      46.830  30.385  28.727  1.00  0.00     0.173 A 
ATOM     96  F   UNL A   1      43.264  30.440  28.033  1.00  0.00    -0.203 F 
ATOM     97  C   UNL A   1      45.013  31.616  27.031  1.00  0.00     0.198 A 
ATOM     98  C   UNL A   1      47.255  31.366  27.834  1.00  0.00     0.198 A 
ATOM     99  F   UNL A   1      47.733  29.837  29.555  1.00  0.00    -0.203 F 
ATOM    100  F   UNL A   1      44.130  32.217  26.221  1.00  0.00    -0.200 F 
ATOM    101  C   UNL A   1      46.349  31.973  26.979  1.00  0.00     0.200 A 
ATOM    102  F   UNL A   1      48.540  31.744  27.823  1.00  0.00    -0.200 F 
ATOM    103  F   UNL A   1      46.760  32.922  26.126  1.00  0.00    -0.200 F 
ENDBRANCH  70  93
ENDBRANCH  44  45
ENDBRANCH  36  39
ENDBRANCH  34  35
ENDBRANCH  33  34
ENDBRANCH   1  33
TORSDOF 14
ENDMDL
