MODEL 1
REMARK VINA RESULT:      -9.9      0.000      0.000
REMARK SMILES CC(C)[NH2+][C@@]1(C(=O)NCCCCCCNC(=O)c2ccc(-c3c4nc(c(-c5c(F)c(F)c(F)c(F)c5F)c5ccc([nH]5)c(-c5c(F)c(F)c(F)c(F)c5F)c5nc(c(-c6c(F)c(F)c(F)c(F)c6F)c6ccc3[nH]6)C=C5)C=C4)cc2)CCC[C@@H]([NH+]2CCS(=O)CC2)C1
REMARK SMILES IDX 11 1 10 2 9 3 8 4 6 5 7 6 5 8 81 9 92 10 82 11 84 12 83 13
REMARK SMILES IDX 4 14 2 17 1 18 3 19 85 20 86 21 91 22 87 24 90 25 88 26
REMARK SMILES IDX 89 27 12 28 13 29 14 30 15 31 16 32 17 34 18 35 19 36 80 37
REMARK SMILES IDX 20 38 79 39 21 40 22 41 23 42 73 43 24 44 78 45 72 46 74 47
REMARK SMILES IDX 25 48 77 49 71 50 70 51 26 53 58 54 38 55 57 56 39 57 42 58
REMARK SMILES IDX 56 59 75 60 40 61 41 62 55 64 76 65 43 66 27 67 28 68 36 69
REMARK SMILES IDX 29 70 30 71 34 72 37 73 31 74 32 75 35 76 33 77 59 78 60 79
REMARK SMILES IDX 68 80 61 81 62 82 66 83 69 84 63 85 64 86 67 87 65 88 44 89
REMARK SMILES IDX 45 90 53 91 46 92 47 93 51 94 54 95 48 96 49 97 52 98 50 99
REMARK H PARENT 8 7 4 15 4 16 85 23 15 33 74 52 42 63
REMARK Flexibility Score: inf
ROOT
ATOM      1  C   UNL A   1      37.720  32.951  29.331  1.00  0.00     0.002 C 
ENDROOT
BRANCH   1   2
ATOM      2  C   UNL A   1      38.696  33.937  29.978  1.00  0.00     0.021 C 
BRANCH   2   3
ATOM      3  C   UNL A   1      38.132  34.685  31.190  1.00  0.00     0.116 C 
BRANCH   3   4
ATOM      4  N   UNL A   1      39.072  34.768  32.279  1.00  0.00    -0.351 N 
ATOM      5  C   UNL A   1      39.191  34.186  33.495  1.00  0.00     0.281 C 
ATOM      6  O   UNL A   1      40.195  34.575  34.116  1.00  0.00    -0.268 OA
ATOM      7  H   UNL A   1      39.805  35.400  32.094  1.00  0.00     0.163 HD
BRANCH   5   8
ATOM      8  C   UNL A   1      38.146  33.181  34.202  1.00  0.00     0.181 C 
ATOM      9  C   UNL A   1      38.068  31.800  33.517  1.00  0.00     0.079 C 
ATOM     10  C   UNL A   1      36.809  33.934  34.371  1.00  0.00     0.144 C 
ATOM     11  C   UNL A   1      36.901  31.528  32.574  1.00  0.00     0.013 C 
ATOM     12  C   UNL A   1      35.715  33.678  33.325  1.00  0.00     0.190 C 
ATOM     13  C   UNL A   1      35.594  32.179  33.003  1.00  0.00     0.065 C 
BRANCH   8  14
ATOM     14  N   UNL A   1      38.763  33.021  35.559  1.00  0.00    -0.331 N 
ATOM     15  H   UNL A   1      38.888  32.015  35.674  1.00  0.00     0.347 HD
ATOM     16  H   UNL A   1      39.536  33.678  35.467  1.00  0.00     0.347 HD
BRANCH  14  17
ATOM     17  C   UNL A   1      38.216  33.478  36.826  1.00  0.00     0.176 C 
ATOM     18  C   UNL A   1      37.973  32.236  37.698  1.00  0.00     0.075 C 
ATOM     19  C   UNL A   1      39.076  34.462  37.613  1.00  0.00     0.075 C 
ENDBRANCH  14  17
ENDBRANCH   8  14
BRANCH  12  20
ATOM     20  N   UNL A   1      34.418  34.342  33.581  1.00  0.00    -0.331 N 
ATOM     21  C   UNL A   1      34.391  35.721  34.077  1.00  0.00     0.276 C 
ATOM     22  C   UNL A   1      33.330  34.099  32.619  1.00  0.00     0.276 C 
ATOM     23  H   UNL A   1      34.215  33.786  34.413  1.00  0.00     0.348 HD
ATOM     24  C   UNL A   1      34.565  36.784  33.002  1.00  0.00     0.166 C 
ATOM     25  C   UNL A   1      33.268  35.025  31.400  1.00  0.00     0.166 C 
ATOM     26  S   UNL A   1      33.179  36.784  31.832  1.00  0.00     0.032 S 
ATOM     27  O   UNL A   1      31.912  37.018  32.599  1.00  0.00    -0.259 OA
ENDBRANCH  12  20
ENDBRANCH   5   8
ENDBRANCH   3   4
ENDBRANCH   2   3
ENDBRANCH   1   2
BRANCH   1  28
ATOM     28  C   UNL A   1      36.836  33.532  28.220  1.00  0.00     0.002 C 
BRANCH  28  29
ATOM     29  C   UNL A   1      35.329  33.540  28.498  1.00  0.00     0.021 C 
BRANCH  29  30
ATOM     30  C   UNL A   1      34.828  32.408  29.394  1.00  0.00     0.116 C 
BRANCH  30  31
ATOM     31  N   UNL A   1      34.215  31.337  28.626  1.00  0.00    -0.352 N 
ATOM     32  C   UNL A   1      34.777  30.240  28.026  1.00  0.00     0.251 C 
ATOM     33  H   UNL A   1      33.239  31.411  28.520  1.00  0.00     0.163 HD
ATOM     34  O   UNL A   1      34.120  29.577  27.229  1.00  0.00    -0.269 OA
BRANCH  32  35
ATOM     35  C   UNL A   1      36.169  29.844  28.329  1.00  0.00     0.039 A 
ATOM     36  C   UNL A   1      36.466  29.353  29.603  1.00  0.00     0.014 A 
ATOM     37  C   UNL A   1      37.191  30.017  27.390  1.00  0.00     0.014 A 
ATOM     38  C   UNL A   1      37.778  28.995  29.924  1.00  0.00     0.010 A 
ATOM     39  C   UNL A   1      38.486  29.601  27.689  1.00  0.00     0.010 A 
ATOM     40  C   UNL A   1      38.794  29.096  28.961  1.00  0.00    -0.014 A 
BRANCH  40  41
ATOM     41  C   UNL A   1      40.192  28.705  29.275  1.00  0.00     0.031 A 
ATOM     42  C   UNL A   1      41.073  29.631  30.067  1.00  0.00     0.074 A 
ATOM     43  C   UNL A   1      40.682  27.543  28.802  1.00  0.00     0.049 A 
ATOM     44  N   UNL A   1      42.342  29.515  30.364  1.00  0.00    -0.248 NA
ATOM     45  C   UNL A   1      40.449  30.866  30.571  1.00  0.00     0.031 C 
ATOM     46  C   UNL A   1      39.936  26.577  27.994  1.00  0.00     0.029 A 
ATOM     47  N   UNL A   1      41.930  26.984  28.919  1.00  0.00    -0.354 N 
ATOM     48  C   UNL A   1      42.670  30.661  31.078  1.00  0.00     0.074 A 
ATOM     49  C   UNL A   1      41.481  31.485  31.126  1.00  0.00     0.031 C 
ATOM     50  C   UNL A   1      40.737  25.541  27.697  1.00  0.00     0.029 A 
ATOM     51  C   UNL A   1      42.061  25.784  28.263  1.00  0.00     0.049 A 
ATOM     52  H   UNL A   1      42.662  27.403  29.427  1.00  0.00     0.167 HD
ATOM     53  C   UNL A   1      43.848  30.985  31.661  1.00  0.00     0.037 A 
ATOM     54  C   UNL A   1      43.132  24.981  28.123  1.00  0.00     0.037 A 
ATOM     55  C   UNL A   1      45.023  30.154  31.632  1.00  0.00     0.049 A 
ATOM     56  C   UNL A   1      44.431  25.369  28.779  1.00  0.00     0.074 A 
ATOM     57  C   UNL A   1      46.256  30.380  32.216  1.00  0.00     0.029 A 
ATOM     58  N   UNL A   1      45.105  28.929  30.986  1.00  0.00    -0.354 N 
ATOM     59  N   UNL A   1      44.713  26.433  29.489  1.00  0.00    -0.248 NA
ATOM     60  C   UNL A   1      45.557  24.439  28.619  1.00  0.00     0.031 C 
ATOM     61  C   UNL A   1      47.095  29.306  31.898  1.00  0.00     0.029 A 
ATOM     62  C   UNL A   1      46.371  28.392  31.152  1.00  0.00     0.049 A 
ATOM     63  H   UNL A   1      44.372  28.505  30.483  1.00  0.00     0.167 HD
ATOM     64  C   UNL A   1      46.034  26.284  29.889  1.00  0.00     0.074 A 
ATOM     65  C   UNL A   1      46.495  25.021  29.353  1.00  0.00     0.031 C 
ATOM     66  C   UNL A   1      46.800  27.121  30.630  1.00  0.00     0.037 A 
BRANCH  53  67
ATOM     67  C   UNL A   1      43.927  32.290  32.397  1.00  0.00     0.064 A 
ATOM     68  C   UNL A   1      44.333  33.469  31.752  1.00  0.00     0.173 A 
ATOM     69  C   UNL A   1      43.538  32.379  33.742  1.00  0.00     0.173 A 
ATOM     70  F   UNL A   1      44.724  33.435  30.470  1.00  0.00    -0.203 F 
ATOM     71  C   UNL A   1      44.364  34.683  32.432  1.00  0.00     0.198 A 
ATOM     72  C   UNL A   1      43.546  33.601  34.411  1.00  0.00     0.198 A 
ATOM     73  F   UNL A   1      43.136  31.284  34.405  1.00  0.00    -0.203 F 
ATOM     74  F   UNL A   1      44.791  35.789  31.805  1.00  0.00    -0.200 F 
ATOM     75  C   UNL A   1      43.963  34.750  33.758  1.00  0.00     0.200 A 
ATOM     76  F   UNL A   1      43.145  33.666  35.689  1.00  0.00    -0.200 F 
ATOM     77  F   UNL A   1      43.982  35.923  34.407  1.00  0.00    -0.200 F 
ENDBRANCH  53  67
BRANCH  54  78
ATOM     78  C   UNL A   1      43.025  23.720  27.343  1.00  0.00     0.064 A 
ATOM     79  C   UNL A   1      42.524  22.549  27.931  1.00  0.00     0.173 A 
ATOM     80  C   UNL A   1      43.447  23.649  26.008  1.00  0.00     0.173 A 
ATOM     81  F   UNL A   1      42.127  22.561  29.212  1.00  0.00    -0.203 F 
ATOM     82  C   UNL A   1      42.479  21.349  27.223  1.00  0.00     0.198 A 
ATOM     83  C   UNL A   1      43.374  22.456  25.291  1.00  0.00     0.198 A 
ATOM     84  F   UNL A   1      43.928  24.742  25.397  1.00  0.00    -0.203 F 
ATOM     85  F   UNL A   1      42.051  20.234  27.828  1.00  0.00    -0.200 F 
ATOM     86  C   UNL A   1      42.901  21.305  25.903  1.00  0.00     0.200 A 
ATOM     87  F   UNL A   1      43.769  22.421  24.011  1.00  0.00    -0.200 F 
ATOM     88  F   UNL A   1      42.863  20.150  25.224  1.00  0.00    -0.200 F 
ENDBRANCH  54  78
BRANCH  66  89
ATOM     89  C   UNL A   1      48.197  26.674  30.949  1.00  0.00     0.064 A 
ATOM     90  C   UNL A   1      48.474  25.863  32.059  1.00  0.00     0.173 A 
ATOM     91  C   UNL A   1      49.262  27.030  30.110  1.00  0.00     0.173 A 
ATOM     92  F   UNL A   1      47.491  25.508  32.900  1.00  0.00    -0.203 F 
ATOM     93  C   UNL A   1      49.774  25.446  32.331  1.00  0.00     0.198 A 
ATOM     94  C   UNL A   1      50.557  26.587  30.369  1.00  0.00     0.198 A 
ATOM     95  F   UNL A   1      49.047  27.799  29.032  1.00  0.00    -0.203 F 
ATOM     96  F   UNL A   1      50.025  24.709  33.422  1.00  0.00    -0.200 F 
ATOM     97  C   UNL A   1      50.812  25.801  31.482  1.00  0.00     0.200 A 
ATOM     98  F   UNL A   1      51.556  26.922  29.541  1.00  0.00    -0.200 F 
ATOM     99  F   UNL A   1      52.062  25.394  31.742  1.00  0.00    -0.200 F 
ENDBRANCH  66  89
ENDBRANCH  40  41
ENDBRANCH  32  35
ENDBRANCH  30  31
ENDBRANCH  29  30
ENDBRANCH  28  29
ENDBRANCH   1  28
TORSDOF 16
ENDMDL
MODEL 2
REMARK VINA RESULT:      -9.8      4.379     10.707
REMARK SMILES CC(C)[NH2+][C@@]1(C(=O)NCCCCCCNC(=O)c2ccc(-c3c4nc(c(-c5c(F)c(F)c(F)c(F)c5F)c5ccc([nH]5)c(-c5c(F)c(F)c(F)c(F)c5F)c5nc(c(-c6c(F)c(F)c(F)c(F)c6F)c6ccc3[nH]6)C=C5)C=C4)cc2)CCC[C@@H]([NH+]2CCS(=O)CC2)C1
REMARK SMILES IDX 11 1 10 2 9 3 8 4 6 5 7 6 5 8 81 9 92 10 82 11 84 12 83 13
REMARK SMILES IDX 4 14 2 17 1 18 3 19 85 20 86 21 91 22 87 24 90 25 88 26
REMARK SMILES IDX 89 27 12 28 13 29 14 30 15 31 16 32 17 34 18 35 19 36 80 37
REMARK SMILES IDX 20 38 79 39 21 40 22 41 23 42 73 43 24 44 78 45 72 46 74 47
REMARK SMILES IDX 25 48 77 49 71 50 70 51 26 53 58 54 38 55 57 56 39 57 42 58
REMARK SMILES IDX 56 59 75 60 40 61 41 62 55 64 76 65 43 66 27 67 28 68 36 69
REMARK SMILES IDX 29 70 30 71 34 72 37 73 31 74 32 75 35 76 33 77 59 78 60 79
REMARK SMILES IDX 68 80 61 81 62 82 66 83 69 84 63 85 64 86 67 87 65 88 44 89
REMARK SMILES IDX 45 90 53 91 46 92 47 93 51 94 54 95 48 96 49 97 52 98 50 99
REMARK H PARENT 8 7 4 15 4 16 85 23 15 33 74 52 42 63
REMARK Flexibility Score: inf
ROOT
ATOM      1  C   UNL A   1      34.301  30.782  27.581  1.00  0.00     0.002 C 
ENDROOT
BRANCH   1   2
ATOM      2  C   UNL A   1      35.057  29.465  27.393  1.00  0.00     0.021 C 
BRANCH   2   3
ATOM      3  C   UNL A   1      34.340  28.444  26.504  1.00  0.00     0.116 C 
BRANCH   3   4
ATOM      4  N   UNL A   1      34.208  28.890  25.139  1.00  0.00    -0.351 N 
ATOM      5  C   UNL A   1      33.272  28.761  24.171  1.00  0.00     0.281 C 
ATOM      6  O   UNL A   1      33.596  29.329  23.113  1.00  0.00    -0.268 OA
ATOM      7  H   UNL A   1      34.986  29.415  24.841  1.00  0.00     0.163 HD
BRANCH   5   8
ATOM      8  C   UNL A   1      31.913  27.894  24.236  1.00  0.00     0.181 C 
ATOM      9  C   UNL A   1      31.090  28.143  25.517  1.00  0.00     0.079 C 
ATOM     10  C   UNL A   1      32.278  26.424  23.936  1.00  0.00     0.144 C 
ATOM     11  C   UNL A   1      31.188  27.123  26.646  1.00  0.00     0.013 C 
ATOM     12  C   UNL A   1      32.453  25.479  25.133  1.00  0.00     0.190 C 
ATOM     13  C   UNL A   1      31.336  25.685  26.170  1.00  0.00     0.065 C 
BRANCH   8  14
ATOM     14  N   UNL A   1      31.161  28.435  23.057  1.00  0.00    -0.331 N 
ATOM     15  H   UNL A   1      31.808  29.084  22.608  1.00  0.00     0.347 HD
ATOM     16  H   UNL A   1      30.861  27.556  22.636  1.00  0.00     0.347 HD
BRANCH  14  17
ATOM     17  C   UNL A   1      29.885  29.132  23.080  1.00  0.00     0.176 C 
ATOM     18  C   UNL A   1      29.857  30.078  21.869  1.00  0.00     0.075 C 
ATOM     19  C   UNL A   1      28.639  28.253  23.038  1.00  0.00     0.075 C 
ENDBRANCH  14  17
ENDBRANCH   8  14
BRANCH  12  20
ATOM     20  N   UNL A   1      32.702  24.060  24.796  1.00  0.00    -0.331 N 
ATOM     21  C   UNL A   1      33.561  23.723  23.658  1.00  0.00     0.276 C 
ATOM     22  C   UNL A   1      32.905  23.124  25.914  1.00  0.00     0.276 C 
ATOM     23  H   UNL A   1      31.760  23.903  24.439  1.00  0.00     0.348 HD
ATOM     24  C   UNL A   1      35.053  23.771  23.952  1.00  0.00     0.166 C 
ATOM     25  C   UNL A   1      34.337  22.981  26.443  1.00  0.00     0.166 C 
ATOM     26  S   UNL A   1      35.536  22.512  25.165  1.00  0.00     0.032 S 
ATOM     27  O   UNL A   1      35.152  21.166  24.629  1.00  0.00    -0.259 OA
ENDBRANCH  12  20
ENDBRANCH   5   8
ENDBRANCH   3   4
ENDBRANCH   2   3
ENDBRANCH   1   2
BRANCH   1  28
ATOM     28  C   UNL A   1      32.776  30.694  27.435  1.00  0.00     0.002 C 
BRANCH  28  29
ATOM     29  C   UNL A   1      32.042  32.027  27.252  1.00  0.00     0.021 C 
BRANCH  29  30
ATOM     30  C   UNL A   1      32.928  33.208  26.860  1.00  0.00     0.116 C 
BRANCH  30  31
ATOM     31  N   UNL A   1      32.620  34.400  27.633  1.00  0.00    -0.352 N 
ATOM     32  C   UNL A   1      33.079  34.807  28.859  1.00  0.00     0.251 C 
ATOM     33  H   UNL A   1      31.979  35.014  27.207  1.00  0.00     0.163 HD
ATOM     34  O   UNL A   1      32.521  35.732  29.442  1.00  0.00    -0.269 OA
BRANCH  32  35
ATOM     35  C   UNL A   1      34.241  34.145  29.488  1.00  0.00     0.039 A 
ATOM     36  C   UNL A   1      35.525  34.488  29.058  1.00  0.00     0.014 A 
ATOM     37  C   UNL A   1      34.070  33.143  30.448  1.00  0.00     0.014 A 
ATOM     38  C   UNL A   1      36.639  33.860  29.618  1.00  0.00     0.010 A 
ATOM     39  C   UNL A   1      35.183  32.562  31.051  1.00  0.00     0.010 A 
ATOM     40  C   UNL A   1      36.477  32.906  30.635  1.00  0.00    -0.014 A 
BRANCH  40  41
ATOM     41  C   UNL A   1      37.648  32.239  31.258  1.00  0.00     0.031 A 
ATOM     42  C   UNL A   1      38.379  31.155  30.514  1.00  0.00     0.074 A 
ATOM     43  C   UNL A   1      38.019  32.571  32.509  1.00  0.00     0.049 A 
ATOM     44  N   UNL A   1      39.362  30.391  30.918  1.00  0.00    -0.248 NA
ATOM     45  C   UNL A   1      37.928  30.876  29.141  1.00  0.00     0.031 C 
ATOM     46  C   UNL A   1      37.368  33.581  33.344  1.00  0.00     0.029 A 
ATOM     47  N   UNL A   1      39.025  32.081  33.304  1.00  0.00    -0.354 N 
ATOM     48  C   UNL A   1      39.639  29.538  29.857  1.00  0.00     0.074 A 
ATOM     49  C   UNL A   1      38.687  29.842  28.809  1.00  0.00     0.031 C 
ATOM     50  C   UNL A   1      37.998  33.644  34.529  1.00  0.00     0.029 A 
ATOM     51  C   UNL A   1      39.072  32.656  34.551  1.00  0.00     0.049 A 
ATOM     52  H   UNL A   1      39.655  31.384  33.008  1.00  0.00     0.167 HD
ATOM     53  C   UNL A   1      40.612  28.602  29.757  1.00  0.00     0.037 A 
ATOM     54  C   UNL A   1      39.882  32.402  35.596  1.00  0.00     0.037 A 
ATOM     55  C   UNL A   1      41.572  28.317  30.791  1.00  0.00     0.049 A 
ATOM     56  C   UNL A   1      40.953  31.353  35.458  1.00  0.00     0.074 A 
ATOM     57  C   UNL A   1      42.615  27.408  30.774  1.00  0.00     0.029 A 
ATOM     58  N   UNL A   1      41.608  28.946  32.027  1.00  0.00    -0.354 N 
ATOM     59  N   UNL A   1      41.232  30.587  34.432  1.00  0.00    -0.248 NA
ATOM     60  C   UNL A   1      41.826  31.141  36.619  1.00  0.00     0.031 C 
ATOM     61  C   UNL A   1      43.264  27.465  32.012  1.00  0.00     0.029 A 
ATOM     62  C   UNL A   1      42.652  28.439  32.783  1.00  0.00     0.049 A 
ATOM     63  H   UNL A   1      40.983  29.647  32.323  1.00  0.00     0.167 HD
ATOM     64  C   UNL A   1      42.331  29.828  34.812  1.00  0.00     0.074 A 
ATOM     65  C   UNL A   1      42.677  30.236  36.157  1.00  0.00     0.031 C 
ATOM     66  C   UNL A   1      42.993  28.876  34.111  1.00  0.00     0.037 A 
BRANCH  53  67
ATOM     67  C   UNL A   1      40.703  27.824  28.476  1.00  0.00     0.064 A 
ATOM     68  C   UNL A   1      41.493  28.269  27.406  1.00  0.00     0.173 A 
ATOM     69  C   UNL A   1      40.041  26.594  28.337  1.00  0.00     0.173 A 
ATOM     70  F   UNL A   1      42.137  29.443  27.486  1.00  0.00    -0.203 F 
ATOM     71  C   UNL A   1      41.604  27.521  26.238  1.00  0.00     0.198 A 
ATOM     72  C   UNL A   1      40.176  25.836  27.176  1.00  0.00     0.198 A 
ATOM     73  F   UNL A   1      39.276  26.120  29.332  1.00  0.00    -0.203 F 
ATOM     74  F   UNL A   1      42.336  27.985  25.215  1.00  0.00    -0.200 F 
ATOM     75  C   UNL A   1      40.952  26.302  26.126  1.00  0.00     0.200 A 
ATOM     76  F   UNL A   1      39.556  24.652  27.075  1.00  0.00    -0.200 F 
ATOM     77  F   UNL A   1      41.071  25.578  25.005  1.00  0.00    -0.200 F 
ENDBRANCH  53  67
BRANCH  54  78
ATOM     78  C   UNL A   1      39.726  33.162  36.865  1.00  0.00     0.064 A 
ATOM     79  C   UNL A   1      38.779  32.775  37.824  1.00  0.00     0.173 A 
ATOM     80  C   UNL A   1      40.495  34.304  37.131  1.00  0.00     0.173 A 
ATOM     81  F   UNL A   1      38.004  31.703  37.605  1.00  0.00    -0.203 F 
ATOM     82  C   UNL A   1      38.585  33.520  38.987  1.00  0.00     0.198 A 
ATOM     83  C   UNL A   1      40.322  35.031  38.308  1.00  0.00     0.198 A 
ATOM     84  F   UNL A   1      41.419  34.713  36.249  1.00  0.00    -0.203 F 
ATOM     85  F   UNL A   1      37.634  33.160  39.858  1.00  0.00    -0.200 F 
ATOM     86  C   UNL A   1      39.360  34.644  39.229  1.00  0.00     0.200 A 
ATOM     87  F   UNL A   1      41.081  36.109  38.545  1.00  0.00    -0.200 F 
ATOM     88  F   UNL A   1      39.170  35.363  40.344  1.00  0.00    -0.200 F 
ENDBRANCH  54  78
BRANCH  66  89
ATOM     89  C   UNL A   1      44.189  28.248  34.765  1.00  0.00     0.064 A 
ATOM     90  C   UNL A   1      45.468  28.812  34.657  1.00  0.00     0.173 A 
ATOM     91  C   UNL A   1      44.043  27.089  35.542  1.00  0.00     0.173 A 
ATOM     92  F   UNL A   1      45.661  29.912  33.913  1.00  0.00    -0.203 F 
ATOM     93  C   UNL A   1      46.563  28.223  35.282  1.00  0.00     0.198 A 
ATOM     94  C   UNL A   1      45.135  26.519  36.189  1.00  0.00     0.198 A 
ATOM     95  F   UNL A   1      42.838  26.515  35.681  1.00  0.00    -0.203 F 
ATOM     96  F   UNL A   1      47.785  28.752  35.128  1.00  0.00    -0.200 F 
ATOM     97  C   UNL A   1      46.395  27.082  36.053  1.00  0.00     0.200 A 
ATOM     98  F   UNL A   1      44.968  25.424  36.944  1.00  0.00    -0.200 F 
ATOM     99  F   UNL A   1      47.449  26.520  36.660  1.00  0.00    -0.200 F 
ENDBRANCH  66  89
ENDBRANCH  40  41
ENDBRANCH  32  35
ENDBRANCH  30  31
ENDBRANCH  29  30
ENDBRANCH  28  29
ENDBRANCH   1  28
TORSDOF 16
ENDMDL
MODEL 3
REMARK VINA RESULT:      -9.7      5.637     11.609
REMARK SMILES CC(C)[NH2+][C@@]1(C(=O)NCCCCCCNC(=O)c2ccc(-c3c4nc(c(-c5c(F)c(F)c(F)c(F)c5F)c5ccc([nH]5)c(-c5c(F)c(F)c(F)c(F)c5F)c5nc(c(-c6c(F)c(F)c(F)c(F)c6F)c6ccc3[nH]6)C=C5)C=C4)cc2)CCC[C@@H]([NH+]2CCS(=O)CC2)C1
REMARK SMILES IDX 11 1 10 2 9 3 8 4 6 5 7 6 5 8 81 9 92 10 82 11 84 12 83 13
REMARK SMILES IDX 4 14 2 17 1 18 3 19 85 20 86 21 91 22 87 24 90 25 88 26
REMARK SMILES IDX 89 27 12 28 13 29 14 30 15 31 16 32 17 34 18 35 19 36 80 37
REMARK SMILES IDX 20 38 79 39 21 40 22 41 23 42 73 43 24 44 78 45 72 46 74 47
REMARK SMILES IDX 25 48 77 49 71 50 70 51 26 53 58 54 38 55 57 56 39 57 42 58
REMARK SMILES IDX 56 59 75 60 40 61 41 62 55 64 76 65 43 66 27 67 28 68 36 69
REMARK SMILES IDX 29 70 30 71 34 72 37 73 31 74 32 75 35 76 33 77 59 78 60 79
REMARK SMILES IDX 68 80 61 81 62 82 66 83 69 84 63 85 64 86 67 87 65 88 44 89
REMARK SMILES IDX 45 90 53 91 46 92 47 93 51 94 54 95 48 96 49 97 52 98 50 99
REMARK H PARENT 8 7 4 15 4 16 85 23 15 33 74 52 42 63
REMARK Flexibility Score: inf
ROOT
ATOM      1  C   UNL A   1      32.056  27.360  22.446  1.00  0.00     0.002 C 
ENDROOT
BRANCH   1   2
ATOM      2  C   UNL A   1      31.817  26.035  21.718  1.00  0.00     0.021 C 
BRANCH   2   3
ATOM      3  C   UNL A   1      32.967  25.030  21.836  1.00  0.00     0.116 C 
BRANCH   3   4
ATOM      4  N   UNL A   1      32.509  23.663  21.870  1.00  0.00    -0.351 N 
ATOM      5  C   UNL A   1      32.571  22.650  22.764  1.00  0.00     0.281 C 
ATOM      6  O   UNL A   1      32.023  21.612  22.351  1.00  0.00    -0.268 OA
ATOM      7  H   UNL A   1      32.037  23.406  21.045  1.00  0.00     0.163 HD
BRANCH   5   8
ATOM      8  C   UNL A   1      33.344  22.642  24.180  1.00  0.00     0.181 C 
ATOM      9  C   UNL A   1      34.756  23.260  24.107  1.00  0.00     0.079 C 
ATOM     10  C   UNL A   1      33.254  21.213  24.758  1.00  0.00     0.144 C 
ATOM     11  C   UNL A   1      35.952  22.317  24.032  1.00  0.00     0.013 C 
ATOM     12  C   UNL A   1      34.465  20.292  24.557  1.00  0.00     0.190 C 
ATOM     13  C   UNL A   1      35.781  21.036  24.835  1.00  0.00     0.065 C 
BRANCH   8  14
ATOM     14  N   UNL A   1      32.461  23.532  25.003  1.00  0.00    -0.331 N 
ATOM     15  H   UNL A   1      32.751  23.369  25.968  1.00  0.00     0.347 HD
ATOM     16  H   UNL A   1      32.610  24.412  24.511  1.00  0.00     0.347 HD
BRANCH  14  17
ATOM     17  C   UNL A   1      31.008  23.527  25.041  1.00  0.00     0.176 C 
ATOM     18  C   UNL A   1      30.586  23.005  26.423  1.00  0.00     0.075 C 
ATOM     19  C   UNL A   1      30.325  24.869  24.800  1.00  0.00     0.075 C 
ENDBRANCH  14  17
ENDBRANCH   8  14
BRANCH  12  20
ATOM     20  N   UNL A   1      34.376  18.969  25.214  1.00  0.00    -0.331 N 
ATOM     21  C   UNL A   1      33.070  18.448  25.628  1.00  0.00     0.276 C 
ATOM     22  C   UNL A   1      35.238  17.895  24.694  1.00  0.00     0.276 C 
ATOM     23  H   UNL A   1      34.791  19.292  26.088  1.00  0.00     0.348 HD
ATOM     24  C   UNL A   1      32.266  17.795  24.513  1.00  0.00     0.166 C 
ATOM     25  C   UNL A   1      34.683  17.066  23.531  1.00  0.00     0.166 C 
ATOM     26  S   UNL A   1      33.080  16.299  23.890  1.00  0.00     0.032 S 
ATOM     27  O   UNL A   1      33.258  15.346  25.034  1.00  0.00    -0.259 OA
ENDBRANCH  12  20
ENDBRANCH   5   8
ENDBRANCH   3   4
ENDBRANCH   2   3
ENDBRANCH   1   2
BRANCH   1  28
ATOM     28  C   UNL A   1      33.524  27.695  22.740  1.00  0.00     0.002 C 
BRANCH  28  29
ATOM     29  C   UNL A   1      33.777  29.030  23.450  1.00  0.00     0.021 C 
BRANCH  29  30
ATOM     30  C   UNL A   1      33.668  28.986  24.973  1.00  0.00     0.116 C 
BRANCH  30  31
ATOM     31  N   UNL A   1      33.013  30.169  25.507  1.00  0.00    -0.352 N 
ATOM     32  C   UNL A   1      33.255  30.876  26.656  1.00  0.00     0.251 C 
ATOM     33  H   UNL A   1      32.277  30.518  24.954  1.00  0.00     0.163 HD
ATOM     34  O   UNL A   1      32.440  31.709  27.042  1.00  0.00    -0.269 OA
BRANCH  32  35
ATOM     35  C   UNL A   1      34.489  30.647  27.438  1.00  0.00     0.039 A 
ATOM     36  C   UNL A   1      34.695  29.392  28.016  1.00  0.00     0.014 A 
ATOM     37  C   UNL A   1      35.406  31.679  27.658  1.00  0.00     0.014 A 
ATOM     38  C   UNL A   1      35.841  29.158  28.780  1.00  0.00     0.010 A 
ATOM     39  C   UNL A   1      36.578  31.426  28.367  1.00  0.00     0.010 A 
ATOM     40  C   UNL A   1      36.802  30.167  28.944  1.00  0.00    -0.014 A 
BRANCH  40  41
ATOM     41  C   UNL A   1      38.035  29.934  29.737  1.00  0.00     0.031 A 
ATOM     42  C   UNL A   1      39.104  29.015  29.213  1.00  0.00     0.074 A 
ATOM     43  C   UNL A   1      38.167  30.506  30.949  1.00  0.00     0.049 A 
ATOM     44  N   UNL A   1      40.207  28.611  29.791  1.00  0.00    -0.248 NA
ATOM     45  C   UNL A   1      38.893  28.457  27.867  1.00  0.00     0.031 C 
ATOM     46  C   UNL A   1      37.185  31.388  31.580  1.00  0.00     0.029 A 
ATOM     47  N   UNL A   1      39.177  30.418  31.875  1.00  0.00    -0.354 N 
ATOM     48  C   UNL A   1      40.813  27.747  28.889  1.00  0.00     0.074 A 
ATOM     49  C   UNL A   1      39.933  27.644  27.744  1.00  0.00     0.031 C 
ATOM     50  C   UNL A   1      37.644  31.768  32.783  1.00  0.00     0.029 A 
ATOM     51  C   UNL A   1      38.934  31.130  33.025  1.00  0.00     0.049 A 
ATOM     52  H   UNL A   1      39.998  29.894  31.729  1.00  0.00     0.167 HD
ATOM     53  C   UNL A   1      42.006  27.116  28.994  1.00  0.00     0.037 A 
ATOM     54  C   UNL A   1      39.666  31.242  34.150  1.00  0.00     0.037 A 
ATOM     55  C   UNL A   1      42.891  27.238  30.123  1.00  0.00     0.049 A 
ATOM     56  C   UNL A   1      40.987  30.525  34.241  1.00  0.00     0.074 A 
ATOM     57  C   UNL A   1      44.135  26.663  30.312  1.00  0.00     0.029 A 
ATOM     58  N   UNL A   1      42.625  27.998  31.253  1.00  0.00    -0.354 N 
ATOM     59  N   UNL A   1      41.569  29.749  33.361  1.00  0.00    -0.248 NA
ATOM     60  C   UNL A   1      41.755  30.709  35.479  1.00  0.00     0.031 C 
ATOM     61  C   UNL A   1      44.609  27.048  31.571  1.00  0.00     0.029 A 
ATOM     62  C   UNL A   1      43.679  27.899  32.146  1.00  0.00     0.049 A 
ATOM     63  H   UNL A   1      41.807  28.527  31.399  1.00  0.00     0.167 HD
ATOM     64  C   UNL A   1      42.783  29.379  33.923  1.00  0.00     0.074 A 
ATOM     65  C   UNL A   1      42.862  30.028  35.214  1.00  0.00     0.031 C 
ATOM     66  C   UNL A   1      43.747  28.572  33.417  1.00  0.00     0.037 A 
BRANCH  53  67
ATOM     67  C   UNL A   1      42.438  26.245  27.851  1.00  0.00     0.064 A 
ATOM     68  C   UNL A   1      41.948  24.938  27.704  1.00  0.00     0.173 A 
ATOM     69  C   UNL A   1      43.303  26.737  26.862  1.00  0.00     0.173 A 
ATOM     70  F   UNL A   1      41.127  24.417  28.628  1.00  0.00    -0.203 F 
ATOM     71  C   UNL A   1      42.323  24.151  26.619  1.00  0.00     0.198 A 
ATOM     72  C   UNL A   1      43.654  25.955  25.764  1.00  0.00     0.198 A 
ATOM     73  F   UNL A   1      43.796  27.981  26.952  1.00  0.00    -0.203 F 
ATOM     74  F   UNL A   1      41.871  22.893  26.519  1.00  0.00    -0.200 F 
ATOM     75  C   UNL A   1      43.169  24.662  25.646  1.00  0.00     0.200 A 
ATOM     76  F   UNL A   1      44.461  26.455  24.818  1.00  0.00    -0.200 F 
ATOM     77  F   UNL A   1      43.517  23.906  24.595  1.00  0.00    -0.200 F 
ENDBRANCH  53  67
BRANCH  54  78
ATOM     78  C   UNL A   1      39.177  32.076  35.279  1.00  0.00     0.064 A 
ATOM     79  C   UNL A   1      39.465  33.447  35.339  1.00  0.00     0.173 A 
ATOM     80  C   UNL A   1      38.442  31.517  36.334  1.00  0.00     0.173 A 
ATOM     81  F   UNL A   1      40.183  34.023  34.364  1.00  0.00    -0.203 F 
ATOM     82  C   UNL A   1      39.063  34.221  36.427  1.00  0.00     0.198 A 
ATOM     83  C   UNL A   1      38.014  32.298  37.407  1.00  0.00     0.198 A 
ATOM     84  F   UNL A   1      38.135  30.212  36.323  1.00  0.00    -0.203 F 
ATOM     85  F   UNL A   1      39.401  35.515  36.485  1.00  0.00    -0.200 F 
ATOM     86  C   UNL A   1      38.335  33.646  37.458  1.00  0.00     0.200 A 
ATOM     87  F   UNL A   1      37.300  31.742  38.395  1.00  0.00    -0.200 F 
ATOM     88  F   UNL A   1      37.953  34.390  38.505  1.00  0.00    -0.200 F 
ENDBRANCH  54  78
BRANCH  66  89
ATOM     89  C   UNL A   1      44.990  28.387  34.237  1.00  0.00     0.064 A 
ATOM     90  C   UNL A   1      46.083  29.259  34.124  1.00  0.00     0.173 A 
ATOM     91  C   UNL A   1      45.070  27.348  35.175  1.00  0.00     0.173 A 
ATOM     92  F   UNL A   1      46.059  30.260  33.230  1.00  0.00    -0.203 F 
ATOM     93  C   UNL A   1      47.222  29.080  34.904  1.00  0.00     0.198 A 
ATOM     94  C   UNL A   1      46.200  27.189  35.973  1.00  0.00     0.198 A 
ATOM     95  F   UNL A   1      44.049  26.491  35.325  1.00  0.00    -0.203 F 
ATOM     96  F   UNL A   1      48.273  29.897  34.748  1.00  0.00    -0.200 F 
ATOM     97  C   UNL A   1      47.276  28.051  35.832  1.00  0.00     0.200 A 
ATOM     98  F   UNL A   1      46.245  26.202  36.878  1.00  0.00    -0.200 F 
ATOM     99  F   UNL A   1      48.371  27.885  36.586  1.00  0.00    -0.200 F 
ENDBRANCH  66  89
ENDBRANCH  40  41
ENDBRANCH  32  35
ENDBRANCH  30  31
ENDBRANCH  29  30
ENDBRANCH  28  29
ENDBRANCH   1  28
TORSDOF 16
ENDMDL
