MODEL 1
REMARK VINA RESULT:     -11.7      0.000      0.000
REMARK SMILES C=CCOc1ccc(C(=O)N2CCC[C@H]2C(=O)NCCCCCCNC(=O)c2ccc(-c3c4nc(c(-c5c(F)c(F)c(F)c(F)c5F)c5ccc([nH]5)c(-c5c(F)c(F)c(F)c(F)c5F)c5nc(c(-c6c(F)c(F)c(F)c(F)c6F)c6ccc3[nH]6)C=C5)C=C4)cc2)cc1
REMARK SMILES IDX 20 1 19 2 18 3 16 4 17 5 15 7 11 8 12 9 13 10 14 11 9 12
REMARK SMILES IDX 10 13 8 14 5 15 6 16 92 17 7 18 91 19 4 20 3 21 2 22 1 23
REMARK SMILES IDX 21 24 22 25 23 26 24 27 25 28 26 29 27 31 28 32 29 33 90 34
REMARK SMILES IDX 30 35 89 36 31 37 32 38 33 39 83 40 34 41 88 42 82 43 84 44
REMARK SMILES IDX 35 45 87 46 81 47 80 48 36 50 68 51 48 52 67 53 49 54 52 55
REMARK SMILES IDX 66 56 85 57 50 58 51 59 65 61 86 62 53 63 37 64 38 65 46 66
REMARK SMILES IDX 39 67 40 68 44 69 47 70 41 71 42 72 45 73 43 74 69 75 70 76
REMARK SMILES IDX 78 77 71 78 72 79 76 80 79 81 73 82 74 83 77 84 75 85 54 86
REMARK SMILES IDX 55 87 63 88 56 89 57 90 61 91 64 92 58 93 59 94 62 95 60 96
REMARK H PARENT 18 6 25 30 84 49 52 60
REMARK Flexibility Score: inf
ROOT
ATOM      1  C   UNL A   1      32.209  28.808  27.301  1.00  0.00     0.021 C 
ENDROOT
BRANCH   1   2
ATOM      2  C   UNL A   1      32.935  27.734  26.498  1.00  0.00     0.116 C 
BRANCH   2   3
ATOM      3  N   UNL A   1      33.501  28.242  25.270  1.00  0.00    -0.354 N 
ATOM      4  C   UNL A   1      33.437  27.798  23.986  1.00  0.00     0.242 C 
ATOM      5  O   UNL A   1      33.831  28.586  23.117  1.00  0.00    -0.273 OA
ATOM      6  H   UNL A   1      34.031  29.063  25.383  1.00  0.00     0.163 HD
BRANCH   4   7
ATOM      7  C   UNL A   1      32.802  26.451  23.582  1.00  0.00     0.174 C 
ATOM      8  N   UNL A   1      31.566  26.497  22.801  1.00  0.00    -0.327 N 
ATOM      9  C   UNL A   1      31.760  25.971  21.465  1.00  0.00     0.121 C 
ATOM     10  C   UNL A   1      32.911  24.991  21.624  1.00  0.00     0.024 C 
ATOM     11  C   UNL A   1      33.741  25.528  22.794  1.00  0.00     0.037 C 
BRANCH   8  12
ATOM     12  C   UNL A   1      30.381  26.706  23.495  1.00  0.00     0.254 C 
ATOM     13  O   UNL A   1      29.880  25.820  24.184  1.00  0.00    -0.269 OA
BRANCH  12  14
ATOM     14  C   UNL A   1      29.593  27.959  23.278  1.00  0.00     0.040 A 
ATOM     15  C   UNL A   1      28.115  30.351  23.172  1.00  0.00     0.119 A 
ATOM     16  C   UNL A   1      29.505  30.395  23.271  1.00  0.00     0.047 A 
ATOM     17  C   UNL A   1      27.472  29.122  23.090  1.00  0.00     0.047 A 
ATOM     18  C   UNL A   1      30.243  29.202  23.325  1.00  0.00     0.017 A 
ATOM     19  C   UNL A   1      28.199  27.941  23.200  1.00  0.00     0.017 A 
BRANCH  15  20
ATOM     20  O   UNL A   1      27.419  31.527  23.105  1.00  0.00    -0.490 OA
BRANCH  20  21
ATOM     21  C   UNL A   1      28.158  32.589  22.475  1.00  0.00     0.257 C 
BRANCH  21  22
ATOM     22  C   UNL A   1      27.733  32.783  21.044  1.00  0.00     0.006 C 
ATOM     23  C   UNL A   1      28.048  31.949  20.042  1.00  0.00     0.007 C 
ENDBRANCH  21  22
ENDBRANCH  20  21
ENDBRANCH  15  20
ENDBRANCH  12  14
ENDBRANCH   8  12
ENDBRANCH   4   7
ENDBRANCH   2   3
ENDBRANCH   1   2
BRANCH   1  24
ATOM     24  C   UNL A   1      32.534  30.245  26.882  1.00  0.00     0.002 C 
BRANCH  24  25
ATOM     25  C   UNL A   1      31.381  31.030  26.248  1.00  0.00     0.002 C 
BRANCH  25  26
ATOM     26  C   UNL A   1      31.354  32.530  26.549  1.00  0.00     0.021 C 
BRANCH  26  27
ATOM     27  C   UNL A   1      32.593  33.074  27.249  1.00  0.00     0.116 C 
BRANCH  27  28
ATOM     28  N   UNL A   1      32.406  34.424  27.752  1.00  0.00    -0.352 N 
ATOM     29  C   UNL A   1      33.043  35.068  28.780  1.00  0.00     0.251 C 
ATOM     30  H   UNL A   1      31.721  34.953  27.286  1.00  0.00     0.163 HD
ATOM     31  O   UNL A   1      32.639  36.172  29.156  1.00  0.00    -0.269 OA
BRANCH  29  32
ATOM     32  C   UNL A   1      34.199  34.447  29.460  1.00  0.00     0.039 A 
ATOM     33  C   UNL A   1      33.985  33.769  30.665  1.00  0.00     0.014 A 
ATOM     34  C   UNL A   1      35.494  34.560  28.946  1.00  0.00     0.014 A 
ATOM     35  C   UNL A   1      35.058  33.170  31.329  1.00  0.00     0.010 A 
ATOM     36  C   UNL A   1      36.552  33.902  29.571  1.00  0.00     0.010 A 
ATOM     37  C   UNL A   1      36.348  33.214  30.776  1.00  0.00    -0.014 A 
BRANCH  37  38
ATOM     38  C   UNL A   1      37.500  32.579  31.466  1.00  0.00     0.031 A 
ATOM     39  C   UNL A   1      38.236  31.443  30.807  1.00  0.00     0.074 A 
ATOM     40  C   UNL A   1      37.855  32.986  32.699  1.00  0.00     0.049 A 
ATOM     41  N   UNL A   1      39.222  30.714  31.269  1.00  0.00    -0.248 NA
ATOM     42  C   UNL A   1      37.786  31.057  29.461  1.00  0.00     0.031 C 
ATOM     43  C   UNL A   1      37.197  34.047  33.461  1.00  0.00     0.029 A 
ATOM     44  N   UNL A   1      38.853  32.547  33.535  1.00  0.00    -0.354 N 
ATOM     45  C   UNL A   1      39.495  29.777  30.280  1.00  0.00     0.074 A 
ATOM     46  C   UNL A   1      38.538  29.994  29.217  1.00  0.00     0.031 C 
ATOM     47  C   UNL A   1      37.821  34.192  34.642  1.00  0.00     0.029 A 
ATOM     48  C   UNL A   1      38.900  33.213  34.734  1.00  0.00     0.049 A 
ATOM     49  H   UNL A   1      39.475  31.822  33.296  1.00  0.00     0.167 HD
ATOM     50  C   UNL A   1      40.470  28.838  30.249  1.00  0.00     0.037 A 
ATOM     51  C   UNL A   1      39.720  33.050  35.790  1.00  0.00     0.037 A 
ATOM     52  C   UNL A   1      41.442  28.645  31.293  1.00  0.00     0.049 A 
ATOM     53  C   UNL A   1      40.802  32.006  35.725  1.00  0.00     0.074 A 
ATOM     54  C   UNL A   1      42.499  27.752  31.336  1.00  0.00     0.029 A 
ATOM     55  N   UNL A   1      41.478  29.364  32.479  1.00  0.00    -0.354 N 
ATOM     56  N   UNL A   1      41.086  31.164  34.762  1.00  0.00    -0.248 NA
ATOM     57  C   UNL A   1      41.687  31.898  36.894  1.00  0.00     0.031 C 
ATOM     58  C   UNL A   1      43.151  27.904  32.564  1.00  0.00     0.029 A 
ATOM     59  C   UNL A   1      42.532  28.926  33.265  1.00  0.00     0.049 A 
ATOM     60  H   UNL A   1      40.848  30.079  32.726  1.00  0.00     0.167 HD
ATOM     61  C   UNL A   1      42.201  30.455  35.189  1.00  0.00     0.074 A 
ATOM     62  C   UNL A   1      42.548  30.972  36.496  1.00  0.00     0.031 C 
ATOM     63  C   UNL A   1      42.877  29.467  34.555  1.00  0.00     0.037 A 
BRANCH  50  64
ATOM     64  C   UNL A   1      40.540  27.948  29.042  1.00  0.00     0.064 A 
ATOM     65  C   UNL A   1      39.783  26.770  28.952  1.00  0.00     0.173 A 
ATOM     66  C   UNL A   1      41.346  28.294  27.947  1.00  0.00     0.173 A 
ATOM     67  F   UNL A   1      39.004  26.388  29.976  1.00  0.00    -0.203 F 
ATOM     68  C   UNL A   1      39.852  25.957  27.824  1.00  0.00     0.198 A 
ATOM     69  C   UNL A   1      41.389  27.494  26.808  1.00  0.00     0.198 A 
ATOM     70  F   UNL A   1      42.087  29.412  27.977  1.00  0.00    -0.203 F 
ATOM     71  F   UNL A   1      39.158  24.811  27.782  1.00  0.00    -0.200 F 
ATOM     72  C   UNL A   1      40.650  26.323  26.751  1.00  0.00     0.200 A 
ATOM     73  F   UNL A   1      42.151  27.856  25.765  1.00  0.00    -0.200 F 
ATOM     74  F   UNL A   1      40.710  25.543  25.663  1.00  0.00    -0.200 F 
ENDBRANCH  50  64
BRANCH  51  75
ATOM     75  C   UNL A   1      39.575  33.918  36.987  1.00  0.00     0.064 A 
ATOM     76  C   UNL A   1      38.831  33.494  38.096  1.00  0.00     0.173 A 
ATOM     77  C   UNL A   1      40.163  35.190  37.043  1.00  0.00     0.173 A 
ATOM     78  F   UNL A   1      38.232  32.294  38.081  1.00  0.00    -0.203 F 
ATOM     79  C   UNL A   1      38.658  34.318  39.206  1.00  0.00     0.198 A 
ATOM     80  C   UNL A   1      40.013  36.003  38.165  1.00  0.00     0.198 A 
ATOM     81  F   UNL A   1      40.889  35.641  36.010  1.00  0.00    -0.203 F 
ATOM     82  F   UNL A   1      37.898  33.908  40.231  1.00  0.00    -0.200 F 
ATOM     83  C   UNL A   1      39.253  35.571  39.242  1.00  0.00     0.200 A 
ATOM     84  F   UNL A   1      40.600  37.207  38.202  1.00  0.00    -0.200 F 
ATOM     85  F   UNL A   1      39.086  36.364  40.309  1.00  0.00    -0.200 F 
ENDBRANCH  51  75
BRANCH  63  86
ATOM     86  C   UNL A   1      44.095  28.916  35.239  1.00  0.00     0.064 A 
ATOM     87  C   UNL A   1      45.371  29.455  35.025  1.00  0.00     0.173 A 
ATOM     88  C   UNL A   1      43.973  27.856  36.151  1.00  0.00     0.173 A 
ATOM     89  F   UNL A   1      45.542  30.460  34.153  1.00  0.00    -0.203 F 
ATOM     90  C   UNL A   1      46.485  28.935  35.678  1.00  0.00     0.198 A 
ATOM     91  C   UNL A   1      45.084  27.358  36.824  1.00  0.00     0.198 A 
ATOM     92  F   UNL A   1      42.772  27.310  36.396  1.00  0.00    -0.203 F 
ATOM     93  F   UNL A   1      47.703  29.432  35.421  1.00  0.00    -0.200 F 
ATOM     94  C   UNL A   1      46.340  27.892  36.581  1.00  0.00     0.200 A 
ATOM     95  F   UNL A   1      44.940  26.360  37.707  1.00  0.00    -0.200 F 
ATOM     96  F   UNL A   1      47.414  27.396  37.212  1.00  0.00    -0.200 F 
ENDBRANCH  63  86
ENDBRANCH  37  38
ENDBRANCH  29  32
ENDBRANCH  27  28
ENDBRANCH  26  27
ENDBRANCH  25  26
ENDBRANCH  24  25
ENDBRANCH   1  24
TORSDOF 18
ENDMDL
MODEL 2
REMARK VINA RESULT:     -11.6      5.970     11.460
REMARK SMILES C=CCOc1ccc(C(=O)N2CCC[C@H]2C(=O)NCCCCCCNC(=O)c2ccc(-c3c4nc(c(-c5c(F)c(F)c(F)c(F)c5F)c5ccc([nH]5)c(-c5c(F)c(F)c(F)c(F)c5F)c5nc(c(-c6c(F)c(F)c(F)c(F)c6F)c6ccc3[nH]6)C=C5)C=C4)cc2)cc1
REMARK SMILES IDX 20 1 19 2 18 3 16 4 17 5 15 7 11 8 12 9 13 10 14 11 9 12
REMARK SMILES IDX 10 13 8 14 5 15 6 16 92 17 7 18 91 19 4 20 3 21 2 22 1 23
REMARK SMILES IDX 21 24 22 25 23 26 24 27 25 28 26 29 27 31 28 32 29 33 90 34
REMARK SMILES IDX 30 35 89 36 31 37 32 38 33 39 83 40 34 41 88 42 82 43 84 44
REMARK SMILES IDX 35 45 87 46 81 47 80 48 36 50 68 51 48 52 67 53 49 54 52 55
REMARK SMILES IDX 66 56 85 57 50 58 51 59 65 61 86 62 53 63 37 64 38 65 46 66
REMARK SMILES IDX 39 67 40 68 44 69 47 70 41 71 42 72 45 73 43 74 69 75 70 76
REMARK SMILES IDX 78 77 71 78 72 79 76 80 79 81 73 82 74 83 77 84 75 85 54 86
REMARK SMILES IDX 55 87 63 88 56 89 57 90 61 91 64 92 58 93 59 94 62 95 60 96
REMARK H PARENT 18 6 25 30 84 49 52 60
REMARK Flexibility Score: inf
ROOT
ATOM      1  C   UNL A   1      36.440  22.732  25.588  1.00  0.00     0.021 C 
ENDROOT
BRANCH   1   2
ATOM      2  C   UNL A   1      35.784  23.963  24.973  1.00  0.00     0.116 C 
BRANCH   2   3
ATOM      3  N   UNL A   1      34.716  24.494  25.788  1.00  0.00    -0.354 N 
ATOM      4  C   UNL A   1      33.493  24.998  25.472  1.00  0.00     0.242 C 
ATOM      5  O   UNL A   1      32.708  25.152  26.416  1.00  0.00    -0.273 OA
ATOM      6  H   UNL A   1      34.909  24.488  26.753  1.00  0.00     0.163 HD
BRANCH   4   7
ATOM      7  C   UNL A   1      33.028  25.257  24.024  1.00  0.00     0.174 C 
ATOM      8  N   UNL A   1      32.236  24.213  23.375  1.00  0.00    -0.327 N 
ATOM      9  C   UNL A   1      30.882  24.657  23.112  1.00  0.00     0.121 C 
ATOM     10  C   UNL A   1      31.014  26.165  22.977  1.00  0.00     0.024 C 
ATOM     11  C   UNL A   1      32.214  26.546  23.850  1.00  0.00     0.037 C 
BRANCH   8  12
ATOM     12  C   UNL A   1      32.924  23.136  22.830  1.00  0.00     0.254 C 
ATOM     13  O   UNL A   1      33.614  23.265  21.821  1.00  0.00    -0.269 OA
BRANCH  12  14
ATOM     14  C   UNL A   1      32.699  21.755  23.357  1.00  0.00     0.040 A 
ATOM     15  C   UNL A   1      32.572  19.105  24.294  1.00  0.00     0.119 A 
ATOM     16  C   UNL A   1      33.024  20.120  25.136  1.00  0.00     0.047 A 
ATOM     17  C   UNL A   1      32.153  19.416  23.007  1.00  0.00     0.047 A 
ATOM     18  C   UNL A   1      33.089  21.442  24.668  1.00  0.00     0.017 A 
ATOM     19  C   UNL A   1      32.270  20.717  22.527  1.00  0.00     0.017 A 
BRANCH  15  20
ATOM     20  O   UNL A   1      32.503  17.826  24.777  1.00  0.00    -0.490 OA
BRANCH  20  21
ATOM     21  C   UNL A   1      32.961  16.839  23.836  1.00  0.00     0.257 C 
BRANCH  21  22
ATOM     22  C   UNL A   1      34.429  16.554  24.006  1.00  0.00     0.006 C 
ATOM     23  C   UNL A   1      35.004  16.220  25.171  1.00  0.00     0.007 C 
ENDBRANCH  21  22
ENDBRANCH  20  21
ENDBRANCH  15  20
ENDBRANCH  12  14
ENDBRANCH   8  12
ENDBRANCH   4   7
ENDBRANCH   2   3
ENDBRANCH   1   2
BRANCH   1  24
ATOM     24  C   UNL A   1      36.994  21.729  24.571  1.00  0.00     0.002 C 
BRANCH  24  25
ATOM     25  C   UNL A   1      36.732  20.252  24.884  1.00  0.00     0.002 C 
BRANCH  25  26
ATOM     26  C   UNL A   1      37.972  19.358  24.953  1.00  0.00     0.021 C 
BRANCH  26  27
ATOM     27  C   UNL A   1      39.126  19.913  25.779  1.00  0.00     0.116 C 
BRANCH  27  28
ATOM     28  N   UNL A   1      40.241  18.986  25.880  1.00  0.00    -0.352 N 
ATOM     29  C   UNL A   1      41.573  19.240  26.072  1.00  0.00     0.251 C 
ATOM     30  H   UNL A   1      40.003  18.035  25.797  1.00  0.00     0.163 HD
ATOM     31  O   UNL A   1      42.392  18.323  25.980  1.00  0.00    -0.269 OA
BRANCH  29  32
ATOM     32  C   UNL A   1      42.046  20.609  26.369  1.00  0.00     0.039 A 
ATOM     33  C   UNL A   1      42.216  20.985  27.706  1.00  0.00     0.014 A 
ATOM     34  C   UNL A   1      42.286  21.535  25.350  1.00  0.00     0.014 A 
ATOM     35  C   UNL A   1      42.665  22.271  28.017  1.00  0.00     0.010 A 
ATOM     36  C   UNL A   1      42.802  22.792  25.658  1.00  0.00     0.010 A 
ATOM     37  C   UNL A   1      42.982  23.179  26.994  1.00  0.00    -0.014 A 
BRANCH  37  38
ATOM     38  C   UNL A   1      43.465  24.548  27.307  1.00  0.00     0.031 A 
ATOM     39  C   UNL A   1      42.515  25.571  27.868  1.00  0.00     0.074 A 
ATOM     40  C   UNL A   1      44.741  24.889  27.042  1.00  0.00     0.049 A 
ATOM     41  N   UNL A   1      42.723  26.834  28.146  1.00  0.00    -0.248 NA
ATOM     42  C   UNL A   1      41.138  25.121  28.127  1.00  0.00     0.031 C 
ATOM     43  C   UNL A   1      45.749  24.002  26.461  1.00  0.00     0.029 A 
ATOM     44  N   UNL A   1      45.406  26.077  27.218  1.00  0.00    -0.354 N 
ATOM     45  C   UNL A   1      41.505  27.329  28.593  1.00  0.00     0.074 A 
ATOM     46  C   UNL A   1      40.549  26.247  28.499  1.00  0.00     0.031 C 
ATOM     47  C   UNL A   1      46.909  24.670  26.348  1.00  0.00     0.029 A 
ATOM     48  C   UNL A   1      46.719  26.039  26.818  1.00  0.00     0.049 A 
ATOM     49  H   UNL A   1      44.981  26.880  27.597  1.00  0.00     0.167 HD
ATOM     50  C   UNL A   1      41.214  28.566  29.062  1.00  0.00     0.037 A 
ATOM     51  C   UNL A   1      47.661  27.001  26.826  1.00  0.00     0.037 A 
ATOM     52  C   UNL A   1      42.174  29.632  29.185  1.00  0.00     0.049 A 
ATOM     53  C   UNL A   1      47.314  28.364  27.363  1.00  0.00     0.074 A 
ATOM     54  C   UNL A   1      41.989  30.907  29.692  1.00  0.00     0.029 A 
ATOM     55  N   UNL A   1      43.503  29.544  28.799  1.00  0.00    -0.354 N 
ATOM     56  N   UNL A   1      46.173  28.804  27.835  1.00  0.00    -0.248 NA
ATOM     57  C   UNL A   1      48.392  29.363  27.378  1.00  0.00     0.031 C 
ATOM     58  C   UNL A   1      43.198  31.602  29.578  1.00  0.00     0.029 A 
ATOM     59  C   UNL A   1      44.148  30.745  29.047  1.00  0.00     0.049 A 
ATOM     60  H   UNL A   1      43.927  28.746  28.407  1.00  0.00     0.167 HD
ATOM     61  C   UNL A   1      46.405  30.112  28.237  1.00  0.00     0.074 A 
ATOM     62  C   UNL A   1      47.798  30.393  27.963  1.00  0.00     0.031 C 
ATOM     63  C   UNL A   1      45.541  31.001  28.788  1.00  0.00     0.037 A 
BRANCH  50  64
ATOM     64  C   UNL A   1      39.798  28.833  29.485  1.00  0.00     0.064 A 
ATOM     65  C   UNL A   1      38.847  29.344  28.589  1.00  0.00     0.173 A 
ATOM     66  C   UNL A   1      39.379  28.544  30.792  1.00  0.00     0.173 A 
ATOM     67  F   UNL A   1      39.200  29.647  27.331  1.00  0.00    -0.203 F 
ATOM     68  C   UNL A   1      37.536  29.582  28.994  1.00  0.00     0.198 A 
ATOM     69  C   UNL A   1      38.059  28.754  31.184  1.00  0.00     0.198 A 
ATOM     70  F   UNL A   1      40.246  28.050  31.689  1.00  0.00    -0.203 F 
ATOM     71  F   UNL A   1      36.658  30.116  28.134  1.00  0.00    -0.200 F 
ATOM     72  C   UNL A   1      37.142  29.280  30.288  1.00  0.00     0.200 A 
ATOM     73  F   UNL A   1      37.676  28.451  32.433  1.00  0.00    -0.200 F 
ATOM     74  F   UNL A   1      35.878  29.503  30.674  1.00  0.00    -0.200 F 
ENDBRANCH  50  64
BRANCH  51  75
ATOM     75  C   UNL A   1      49.034  26.704  26.343  1.00  0.00     0.064 A 
ATOM     76  C   UNL A   1      50.002  26.176  27.207  1.00  0.00     0.173 A 
ATOM     77  C   UNL A   1      49.410  26.953  25.015  1.00  0.00     0.173 A 
ATOM     78  F   UNL A   1      49.695  25.940  28.491  1.00  0.00    -0.203 F 
ATOM     79  C   UNL A   1      51.302  25.931  26.770  1.00  0.00     0.198 A 
ATOM     80  C   UNL A   1      50.703  26.682  24.571  1.00  0.00     0.198 A 
ATOM     81  F   UNL A   1      48.520  27.453  24.146  1.00  0.00    -0.203 F 
ATOM     82  F   UNL A   1      52.221  25.475  27.631  1.00  0.00    -0.200 F 
ATOM     83  C   UNL A   1      51.651  26.180  25.451  1.00  0.00     0.200 A 
ATOM     84  F   UNL A   1      51.033  26.911  23.293  1.00  0.00    -0.200 F 
ATOM     85  F   UNL A   1      52.902  25.945  25.031  1.00  0.00    -0.200 F 
ENDBRANCH  51  75
BRANCH  63  86
ATOM     86  C   UNL A   1      46.090  32.342  29.181  1.00  0.00     0.064 A 
ATOM     87  C   UNL A   1      46.071  33.435  28.303  1.00  0.00     0.173 A 
ATOM     88  C   UNL A   1      46.607  32.542  30.469  1.00  0.00     0.173 A 
ATOM     89  F   UNL A   1      45.598  33.291  27.056  1.00  0.00    -0.203 F 
ATOM     90  C   UNL A   1      46.576  34.673  28.692  1.00  0.00     0.198 A 
ATOM     91  C   UNL A   1      47.084  33.788  30.865  1.00  0.00     0.198 A 
ATOM     92  F   UNL A   1      46.641  31.530  31.350  1.00  0.00    -0.203 F 
ATOM     93  F   UNL A   1      46.594  35.691  27.821  1.00  0.00    -0.200 F 
ATOM     94  C   UNL A   1      47.076  34.850  29.974  1.00  0.00     0.200 A 
ATOM     95  F   UNL A   1      47.554  33.961  32.108  1.00  0.00    -0.200 F 
ATOM     96  F   UNL A   1      47.557  36.044  30.348  1.00  0.00    -0.200 F 
ENDBRANCH  63  86
ENDBRANCH  37  38
ENDBRANCH  29  32
ENDBRANCH  27  28
ENDBRANCH  26  27
ENDBRANCH  25  26
ENDBRANCH  24  25
ENDBRANCH   1  24
TORSDOF 18
ENDMDL
MODEL 3
REMARK VINA RESULT:     -11.6      1.136      7.443
REMARK SMILES C=CCOc1ccc(C(=O)N2CCC[C@H]2C(=O)NCCCCCCNC(=O)c2ccc(-c3c4nc(c(-c5c(F)c(F)c(F)c(F)c5F)c5ccc([nH]5)c(-c5c(F)c(F)c(F)c(F)c5F)c5nc(c(-c6c(F)c(F)c(F)c(F)c6F)c6ccc3[nH]6)C=C5)C=C4)cc2)cc1
REMARK SMILES IDX 20 1 19 2 18 3 16 4 17 5 15 7 11 8 12 9 13 10 14 11 9 12
REMARK SMILES IDX 10 13 8 14 5 15 6 16 92 17 7 18 91 19 4 20 3 21 2 22 1 23
REMARK SMILES IDX 21 24 22 25 23 26 24 27 25 28 26 29 27 31 28 32 29 33 90 34
REMARK SMILES IDX 30 35 89 36 31 37 32 38 33 39 83 40 34 41 88 42 82 43 84 44
REMARK SMILES IDX 35 45 87 46 81 47 80 48 36 50 68 51 48 52 67 53 49 54 52 55
REMARK SMILES IDX 66 56 85 57 50 58 51 59 65 61 86 62 53 63 37 64 38 65 46 66
REMARK SMILES IDX 39 67 40 68 44 69 47 70 41 71 42 72 45 73 43 74 69 75 70 76
REMARK SMILES IDX 78 77 71 78 72 79 76 80 79 81 73 82 74 83 77 84 75 85 54 86
REMARK SMILES IDX 55 87 63 88 56 89 57 90 61 91 64 92 58 93 59 94 62 95 60 96
REMARK H PARENT 18 6 25 30 84 49 52 60
REMARK Flexibility Score: inf
ROOT
ATOM      1  C   UNL A   1      32.773  28.809  26.199  1.00  0.00     0.021 C 
ENDROOT
BRANCH   1   2
ATOM      2  C   UNL A   1      32.804  27.483  26.952  1.00  0.00     0.116 C 
BRANCH   2   3
ATOM      3  N   UNL A   1      31.535  26.794  26.921  1.00  0.00    -0.354 N 
ATOM      4  C   UNL A   1      31.121  25.676  26.265  1.00  0.00     0.242 C 
ATOM      5  O   UNL A   1      30.040  25.200  26.631  1.00  0.00    -0.273 OA
ATOM      6  H   UNL A   1      30.840  27.209  27.481  1.00  0.00     0.163 HD
BRANCH   4   7
ATOM      7  C   UNL A   1      31.976  24.943  25.211  1.00  0.00     0.174 C 
ATOM      8  N   UNL A   1      32.463  25.726  24.076  1.00  0.00    -0.327 N 
ATOM      9  C   UNL A   1      33.907  25.849  24.094  1.00  0.00     0.121 C 
ATOM     10  C   UNL A   1      34.368  24.605  24.836  1.00  0.00     0.024 C 
ATOM     11  C   UNL A   1      33.219  24.251  25.785  1.00  0.00     0.037 C 
BRANCH   8  12
ATOM     12  C   UNL A   1      31.580  25.945  23.026  1.00  0.00     0.254 C 
ATOM     13  O   UNL A   1      31.613  25.254  22.010  1.00  0.00    -0.269 OA
BRANCH  12  14
ATOM     14  C   UNL A   1      30.685  27.143  23.034  1.00  0.00     0.040 A 
ATOM     15  C   UNL A   1      28.880  29.288  22.790  1.00  0.00     0.119 A 
ATOM     16  C   UNL A   1      28.457  28.083  23.350  1.00  0.00     0.047 A 
ATOM     17  C   UNL A   1      30.202  29.432  22.388  1.00  0.00     0.047 A 
ATOM     18  C   UNL A   1      29.357  27.012  23.471  1.00  0.00     0.017 A 
ATOM     19  C   UNL A   1      31.077  28.353  22.457  1.00  0.00     0.017 A 
BRANCH  15  20
ATOM     20  O   UNL A   1      27.989  30.323  22.697  1.00  0.00    -0.490 OA
BRANCH  20  21
ATOM     21  C   UNL A   1      28.135  31.089  21.488  1.00  0.00     0.257 C 
BRANCH  21  22
ATOM     22  C   UNL A   1      28.363  32.548  21.784  1.00  0.00     0.006 C 
ATOM     23  C   UNL A   1      28.842  33.017  22.946  1.00  0.00     0.007 C 
ENDBRANCH  21  22
ENDBRANCH  20  21
ENDBRANCH  15  20
ENDBRANCH  12  14
ENDBRANCH   8  12
ENDBRANCH   4   7
ENDBRANCH   2   3
ENDBRANCH   1   2
BRANCH   1  24
ATOM     24  C   UNL A   1      31.937  29.903  26.869  1.00  0.00     0.002 C 
BRANCH  24  25
ATOM     25  C   UNL A   1      31.262  30.898  25.919  1.00  0.00     0.002 C 
BRANCH  25  26
ATOM     26  C   UNL A   1      31.214  32.350  26.403  1.00  0.00     0.021 C 
BRANCH  26  27
ATOM     27  C   UNL A   1      32.530  32.897  26.943  1.00  0.00     0.116 C 
BRANCH  27  28
ATOM     28  N   UNL A   1      32.382  34.204  27.560  1.00  0.00    -0.352 N 
ATOM     29  C   UNL A   1      33.048  34.745  28.628  1.00  0.00     0.251 C 
ATOM     30  H   UNL A   1      31.703  34.787  27.150  1.00  0.00     0.163 HD
ATOM     31  O   UNL A   1      32.677  35.822  29.100  1.00  0.00    -0.269 OA
BRANCH  29  32
ATOM     32  C   UNL A   1      34.198  34.043  29.236  1.00  0.00     0.039 A 
ATOM     33  C   UNL A   1      35.491  34.435  28.874  1.00  0.00     0.014 A 
ATOM     34  C   UNL A   1      34.017  32.981  30.126  1.00  0.00     0.014 A 
ATOM     35  C   UNL A   1      36.598  33.793  29.435  1.00  0.00     0.010 A 
ATOM     36  C   UNL A   1      35.119  32.389  30.739  1.00  0.00     0.010 A 
ATOM     37  C   UNL A   1      36.421  32.777  30.389  1.00  0.00    -0.014 A 
BRANCH  37  38
ATOM     38  C   UNL A   1      37.585  32.086  30.999  1.00  0.00     0.031 A 
ATOM     39  C   UNL A   1      38.048  32.472  32.378  1.00  0.00     0.074 A 
ATOM     40  C   UNL A   1      38.256  31.151  30.301  1.00  0.00     0.049 A 
ATOM     41  N   UNL A   1      39.080  32.037  33.059  1.00  0.00    -0.248 NA
ATOM     42  C   UNL A   1      37.264  33.503  33.074  1.00  0.00     0.031 C 
ATOM     43  C   UNL A   1      37.932  30.717  28.941  1.00  0.00     0.029 A 
ATOM     44  N   UNL A   1      39.357  30.402  30.635  1.00  0.00    -0.354 N 
ATOM     45  C   UNL A   1      39.076  32.752  34.250  1.00  0.00     0.074 A 
ATOM     46  C   UNL A   1      37.973  33.687  34.178  1.00  0.00     0.031 C 
ATOM     47  C   UNL A   1      38.801  29.765  28.565  1.00  0.00     0.029 A 
ATOM     48  C   UNL A   1      39.762  29.544  29.642  1.00  0.00     0.049 A 
ATOM     49  H   UNL A   1      39.813  30.474  31.504  1.00  0.00     0.167 HD
ATOM     50  C   UNL A   1      39.900  32.626  35.317  1.00  0.00     0.037 A 
ATOM     51  C   UNL A   1      40.793  28.678  29.605  1.00  0.00     0.037 A 
ATOM     52  C   UNL A   1      40.977  31.674  35.401  1.00  0.00     0.049 A 
ATOM     53  C   UNL A   1      41.688  28.550  30.809  1.00  0.00     0.074 A 
ATOM     54  C   UNL A   1      41.839  31.435  36.456  1.00  0.00     0.029 A 
ATOM     55  N   UNL A   1      41.334  30.798  34.386  1.00  0.00    -0.354 N 
ATOM     56  N   UNL A   1      41.640  29.192  31.950  1.00  0.00    -0.248 NA
ATOM     57  C   UNL A   1      42.776  27.565  30.721  1.00  0.00     0.031 C 
ATOM     58  C   UNL A   1      42.743  30.440  36.067  1.00  0.00     0.029 A 
ATOM     59  C   UNL A   1      42.411  30.024  34.788  1.00  0.00     0.049 A 
ATOM     60  H   UNL A   1      40.888  30.734  33.510  1.00  0.00     0.167 HD
ATOM     61  C   UNL A   1      42.661  28.665  32.729  1.00  0.00     0.074 A 
ATOM     62  C   UNL A   1      43.308  27.643  31.933  1.00  0.00     0.031 C 
ATOM     63  C   UNL A   1      43.029  28.996  33.991  1.00  0.00     0.037 A 
BRANCH  50  64
ATOM     64  C   UNL A   1      39.666  33.537  36.487  1.00  0.00     0.064 A 
ATOM     65  C   UNL A   1      38.827  33.168  37.550  1.00  0.00     0.173 A 
ATOM     66  C   UNL A   1      40.313  34.779  36.564  1.00  0.00     0.173 A 
ATOM     67  F   UNL A   1      38.176  31.995  37.520  1.00  0.00    -0.203 F 
ATOM     68  C   UNL A   1      38.623  34.020  38.632  1.00  0.00     0.198 A 
ATOM     69  C   UNL A   1      40.131  35.615  37.663  1.00  0.00     0.198 A 
ATOM     70  F   UNL A   1      41.130  35.180  35.578  1.00  0.00    -0.203 F 
ATOM     71  F   UNL A   1      37.780  33.666  39.611  1.00  0.00    -0.200 F 
ATOM     72  C   UNL A   1      39.281  35.239  38.691  1.00  0.00     0.200 A 
ATOM     73  F   UNL A   1      40.777  36.788  37.725  1.00  0.00    -0.200 F 
ATOM     74  F   UNL A   1      39.088  36.055  39.737  1.00  0.00    -0.200 F 
ENDBRANCH  50  64
BRANCH  51  75
ATOM     75  C   UNL A   1      41.018  27.839  28.400  1.00  0.00     0.064 A 
ATOM     76  C   UNL A   1      41.861  28.273  27.369  1.00  0.00     0.173 A 
ATOM     77  C   UNL A   1      40.388  26.595  28.248  1.00  0.00     0.173 A 
ATOM     78  F   UNL A   1      42.470  29.465  27.459  1.00  0.00    -0.203 F 
ATOM     79  C   UNL A   1      42.046  27.509  26.219  1.00  0.00     0.198 A 
ATOM     80  C   UNL A   1      40.596  25.818  27.110  1.00  0.00     0.198 A 
ATOM     81  F   UNL A   1      39.576  26.131  29.209  1.00  0.00    -0.203 F 
ATOM     82  F   UNL A   1      42.816  27.972  25.225  1.00  0.00    -0.200 F 
ATOM     83  C   UNL A   1      41.416  26.279  26.092  1.00  0.00     0.200 A 
ATOM     84  F   UNL A   1      39.996  24.625  26.997  1.00  0.00    -0.200 F 
ATOM     85  F   UNL A   1      41.594  25.544  24.986  1.00  0.00    -0.200 F 
ENDBRANCH  51  75
BRANCH  63  86
ATOM     86  C   UNL A   1      44.147  28.209  34.611  1.00  0.00     0.064 A 
ATOM     87  C   UNL A   1      43.913  27.017  35.311  1.00  0.00     0.173 A 
ATOM     88  C   UNL A   1      45.475  28.638  34.469  1.00  0.00     0.173 A 
ATOM     89  F   UNL A   1      42.660  26.572  35.486  1.00  0.00    -0.203 F 
ATOM     90  C   UNL A   1      44.966  26.298  35.871  1.00  0.00     0.198 A 
ATOM     91  C   UNL A   1      46.528  27.902  35.004  1.00  0.00     0.198 A 
ATOM     92  F   UNL A   1      45.753  29.769  33.802  1.00  0.00    -0.203 F 
ATOM     93  F   UNL A   1      44.716  25.188  36.579  1.00  0.00    -0.200 F 
ATOM     94  C   UNL A   1      46.272  26.737  35.711  1.00  0.00     0.200 A 
ATOM     95  F   UNL A   1      47.790  28.321  34.837  1.00  0.00    -0.200 F 
ATOM     96  F   UNL A   1      47.285  26.041  36.246  1.00  0.00    -0.200 F 
ENDBRANCH  63  86
ENDBRANCH  37  38
ENDBRANCH  29  32
ENDBRANCH  27  28
ENDBRANCH  26  27
ENDBRANCH  25  26
ENDBRANCH  24  25
ENDBRANCH   1  24
TORSDOF 18
ENDMDL
