MODEL 1
REMARK VINA RESULT:     -12.4      0.000      0.000
REMARK SMILES Cc1nc(CN(CC(=O)NCCCCCCNC(=O)c2ccc(-c3c4nc(c(-c5c(F)c(F)c(F)c(F)c5F)c5ccc([nH]5)c(-c5c(F)c(F)c(F)c(F)c5F)c5nc(c(-c6c(F)c(F)c(F)c(F)c6F)c6ccc3[nH]6)C=C5)C=C4)cc2)c2cccc(Cl)c2)sc1C
REMARK SMILES IDX 13 1 12 2 11 3 10 4 8 5 9 6 7 8 6 9 5 10 4 11 1 12 2 13 3 14
REMARK SMILES IDX 91 15 90 16 92 17 83 18 84 19 89 20 85 21 87 22 86 23 88 24
REMARK SMILES IDX 14 25 15 26 16 27 17 28 18 29 19 31 20 32 21 33 82 34 22 35
REMARK SMILES IDX 81 36 23 37 24 38 25 39 75 40 26 41 80 42 74 43 76 44 27 45
REMARK SMILES IDX 79 46 73 47 72 48 28 50 60 51 40 52 59 53 41 54 44 55 58 56
REMARK SMILES IDX 77 57 42 58 43 59 57 61 78 62 45 63 29 64 30 65 38 66 31 67
REMARK SMILES IDX 32 68 36 69 39 70 33 71 34 72 37 73 35 74 61 75 62 76 70 77
REMARK SMILES IDX 63 78 64 79 68 80 71 81 65 82 66 83 69 84 67 85 46 86 47 87
REMARK SMILES IDX 55 88 48 89 49 90 53 91 56 92 50 93 51 94 54 95 52 96
REMARK H PARENT 10 7 17 30 76 49 44 60
REMARK Flexibility Score: inf
ROOT
ATOM      1  C   UNL A   1      31.864  29.613  27.250  1.00  0.00     0.002 C 
ENDROOT
BRANCH   1   2
ATOM      2  C   UNL A   1      32.577  28.324  26.824  1.00  0.00     0.021 C 
BRANCH   2   3
ATOM      3  C   UNL A   1      34.064  28.506  26.522  1.00  0.00     0.116 C 
BRANCH   3   4
ATOM      4  N   UNL A   1      34.306  28.780  25.125  1.00  0.00    -0.355 N 
ATOM      5  C   UNL A   1      33.832  28.129  24.022  1.00  0.00     0.239 C 
ATOM      6  O   UNL A   1      34.173  28.568  22.918  1.00  0.00    -0.273 OA
ATOM      7  H   UNL A   1      34.895  29.547  24.942  1.00  0.00     0.163 HD
BRANCH   5   8
ATOM      8  C   UNL A   1      32.874  26.932  24.145  1.00  0.00     0.217 C 
BRANCH   8   9
ATOM      9  N   UNL A   1      31.962  26.726  22.995  1.00  0.00    -0.355 N 
BRANCH   9  10
ATOM     10  C   UNL A   1      32.306  25.632  22.052  1.00  0.00     0.184 C 
BRANCH  10  11
ATOM     11  C   UNL A   1      33.071  24.427  22.533  1.00  0.00     0.112 A 
ATOM     12  C   UNL A   1      36.214  22.895  23.356  1.00  0.00     0.068 C 
ATOM     13  C   UNL A   1      34.759  23.159  23.208  1.00  0.00     0.051 A 
ATOM     14  N   UNL A   1      34.378  24.274  22.475  1.00  0.00    -0.244 NA
ATOM     15  C   UNL A   1      33.711  22.447  23.769  1.00  0.00     0.025 A 
ATOM     16  S   UNL A   1      32.219  23.132  23.286  1.00  0.00    -0.122 S 
ATOM     17  C   UNL A   1      33.742  21.273  24.681  1.00  0.00     0.058 C 
ENDBRANCH  10  11
ENDBRANCH   9  10
BRANCH   9  18
ATOM     18  C   UNL A   1      30.706  27.328  23.016  1.00  0.00     0.039 A 
ATOM     19  C   UNL A   1      29.609  26.716  23.646  1.00  0.00     0.026 A 
ATOM     20  C   UNL A   1      30.443  28.561  22.402  1.00  0.00     0.046 A 
ATOM     21  C   UNL A   1      28.332  27.300  23.669  1.00  0.00     0.004 A 
ATOM     22  C   UNL A   1      29.176  29.155  22.427  1.00  0.00     0.043 A 
ATOM     23  C   UNL A   1      28.116  28.528  23.060  1.00  0.00     0.020 A 
ATOM     24  Cl  UNL A   1      28.935  30.674  21.650  1.00  0.00    -0.084 Cl
ENDBRANCH   9  18
ENDBRANCH   8   9
ENDBRANCH   5   8
ENDBRANCH   3   4
ENDBRANCH   2   3
ENDBRANCH   1   2
BRANCH   1  25
ATOM     25  C   UNL A   1      31.723  30.672  26.151  1.00  0.00     0.002 C 
BRANCH  25  26
ATOM     26  C   UNL A   1      31.445  32.090  26.653  1.00  0.00     0.021 C 
BRANCH  26  27
ATOM     27  C   UNL A   1      32.623  32.746  27.362  1.00  0.00     0.116 C 
BRANCH  27  28
ATOM     28  N   UNL A   1      32.378  34.154  27.637  1.00  0.00    -0.352 N 
ATOM     29  C   UNL A   1      32.953  34.964  28.583  1.00  0.00     0.251 C 
ATOM     30  H   UNL A   1      31.707  34.587  27.062  1.00  0.00     0.163 HD
ATOM     31  O   UNL A   1      32.489  36.076  28.819  1.00  0.00    -0.269 OA
BRANCH  29  32
ATOM     32  C   UNL A   1      34.127  34.481  29.339  1.00  0.00     0.039 A 
ATOM     33  C   UNL A   1      33.935  33.886  30.587  1.00  0.00     0.014 A 
ATOM     34  C   UNL A   1      35.412  34.603  28.804  1.00  0.00     0.014 A 
ATOM     35  C   UNL A   1      35.028  33.352  31.271  1.00  0.00     0.010 A 
ATOM     36  C   UNL A   1      36.486  33.998  29.446  1.00  0.00     0.010 A 
ATOM     37  C   UNL A   1      36.306  33.369  30.688  1.00  0.00    -0.014 A 
BRANCH  37  38
ATOM     38  C   UNL A   1      37.467  32.726  31.353  1.00  0.00     0.031 A 
ATOM     39  C   UNL A   1      38.155  31.555  30.711  1.00  0.00     0.074 A 
ATOM     40  C   UNL A   1      37.845  33.140  32.577  1.00  0.00     0.049 A 
ATOM     41  N   UNL A   1      39.124  30.806  31.173  1.00  0.00    -0.248 NA
ATOM     42  C   UNL A   1      37.661  31.147  29.387  1.00  0.00     0.031 C 
ATOM     43  C   UNL A   1      37.216  34.225  33.332  1.00  0.00     0.029 A 
ATOM     44  N   UNL A   1      38.834  32.683  33.412  1.00  0.00    -0.354 N 
ATOM     45  C   UNL A   1      39.339  29.830  30.210  1.00  0.00     0.074 A 
ATOM     46  C   UNL A   1      38.361  30.047  29.165  1.00  0.00     0.031 C 
ATOM     47  C   UNL A   1      37.840  34.358  34.513  1.00  0.00     0.029 A 
ATOM     48  C   UNL A   1      38.884  33.342  34.616  1.00  0.00     0.049 A 
ATOM     49  H   UNL A   1      39.448  31.952  33.172  1.00  0.00     0.167 HD
ATOM     50  C   UNL A   1      40.278  28.854  30.190  1.00  0.00     0.037 A 
ATOM     51  C   UNL A   1      39.671  33.141  35.691  1.00  0.00     0.037 A 
ATOM     52  C   UNL A   1      41.260  28.659  31.225  1.00  0.00     0.049 A 
ATOM     53  C   UNL A   1      40.715  32.059  35.645  1.00  0.00     0.074 A 
ATOM     54  C   UNL A   1      42.308  27.757  31.261  1.00  0.00     0.029 A 
ATOM     55  N   UNL A   1      41.304  29.369  32.417  1.00  0.00    -0.354 N 
ATOM     56  N   UNL A   1      40.971  31.198  34.690  1.00  0.00    -0.248 NA
ATOM     57  C   UNL A   1      41.586  31.929  36.820  1.00  0.00     0.031 C 
ATOM     58  C   UNL A   1      42.944  27.874  32.502  1.00  0.00     0.029 A 
ATOM     59  C   UNL A   1      42.337  28.899  33.212  1.00  0.00     0.049 A 
ATOM     60  H   UNL A   1      40.691  30.100  32.662  1.00  0.00     0.167 HD
ATOM     61  C   UNL A   1      42.044  30.440  35.136  1.00  0.00     0.074 A 
ATOM     62  C   UNL A   1      42.401  30.952  36.443  1.00  0.00     0.031 C 
ATOM     63  C   UNL A   1      42.678  29.414  34.516  1.00  0.00     0.037 A 
BRANCH  50  64
ATOM     64  C   UNL A   1      40.272  27.911  29.019  1.00  0.00     0.064 A 
ATOM     65  C   UNL A   1      40.999  28.172  27.847  1.00  0.00     0.173 A 
ATOM     66  C   UNL A   1      39.528  26.721  29.072  1.00  0.00     0.173 A 
ATOM     67  F   UNL A   1      41.722  29.299  27.738  1.00  0.00    -0.203 F 
ATOM     68  C   UNL A   1      40.943  27.308  26.758  1.00  0.00     0.198 A 
ATOM     69  C   UNL A   1      39.506  25.839  27.994  1.00  0.00     0.198 A 
ATOM     70  F   UNL A   1      38.820  26.414  30.169  1.00  0.00    -0.203 F 
ATOM     71  F   UNL A   1      41.589  27.617  25.624  1.00  0.00    -0.200 F 
ATOM     72  C   UNL A   1      40.202  26.139  26.834  1.00  0.00     0.200 A 
ATOM     73  F   UNL A   1      38.801  24.702  28.077  1.00  0.00    -0.200 F 
ATOM     74  F   UNL A   1      40.147  25.307  25.784  1.00  0.00    -0.200 F 
ENDBRANCH  50  64
BRANCH  51  75
ATOM     75  C   UNL A   1      39.500  34.000  36.891  1.00  0.00     0.064 A 
ATOM     76  C   UNL A   1      38.739  33.572  37.986  1.00  0.00     0.173 A 
ATOM     77  C   UNL A   1      40.127  35.253  36.981  1.00  0.00     0.173 A 
ATOM     78  F   UNL A   1      38.107  32.391  37.942  1.00  0.00    -0.203 F 
ATOM     79  C   UNL A   1      38.604  34.366  39.124  1.00  0.00     0.198 A 
ATOM     80  C   UNL A   1      40.016  36.033  38.129  1.00  0.00     0.198 A 
ATOM     81  F   UNL A   1      40.874  35.704  35.962  1.00  0.00    -0.203 F 
ATOM     82  F   UNL A   1      37.844  33.948  40.144  1.00  0.00    -0.200 F 
ATOM     83  C   UNL A   1      39.250  35.592  39.197  1.00  0.00     0.200 A 
ATOM     84  F   UNL A   1      40.658  37.206  38.203  1.00  0.00    -0.200 F 
ATOM     85  F   UNL A   1      39.135  36.348  40.298  1.00  0.00    -0.200 F 
ENDBRANCH  51  75
BRANCH  63  86
ATOM     86  C   UNL A   1      43.845  28.790  35.229  1.00  0.00     0.064 A 
ATOM     87  C   UNL A   1      45.158  29.247  35.041  1.00  0.00     0.173 A 
ATOM     88  C   UNL A   1      43.640  27.749  36.148  1.00  0.00     0.173 A 
ATOM     89  F   UNL A   1      45.412  30.229  34.163  1.00  0.00    -0.203 F 
ATOM     90  C   UNL A   1      46.224  28.668  35.727  1.00  0.00     0.198 A 
ATOM     91  C   UNL A   1      44.702  27.196  36.859  1.00  0.00     0.198 A 
ATOM     92  F   UNL A   1      42.403  27.278  36.372  1.00  0.00    -0.203 F 
ATOM     93  F   UNL A   1      47.475  29.087  35.494  1.00  0.00    -0.200 F 
ATOM     94  C   UNL A   1      45.993  27.651  36.642  1.00  0.00     0.200 A 
ATOM     95  F   UNL A   1      44.475  26.226  37.754  1.00  0.00    -0.200 F 
ATOM     96  F   UNL A   1      47.019  27.103  37.309  1.00  0.00    -0.200 F 
ENDBRANCH  63  86
ENDBRANCH  37  38
ENDBRANCH  29  32
ENDBRANCH  27  28
ENDBRANCH  26  27
ENDBRANCH  25  26
ENDBRANCH   1  25
TORSDOF 17
ENDMDL
MODEL 2
REMARK VINA RESULT:     -12.3      1.500      2.935
REMARK SMILES Cc1nc(CN(CC(=O)NCCCCCCNC(=O)c2ccc(-c3c4nc(c(-c5c(F)c(F)c(F)c(F)c5F)c5ccc([nH]5)c(-c5c(F)c(F)c(F)c(F)c5F)c5nc(c(-c6c(F)c(F)c(F)c(F)c6F)c6ccc3[nH]6)C=C5)C=C4)cc2)c2cccc(Cl)c2)sc1C
REMARK SMILES IDX 13 1 12 2 11 3 10 4 8 5 9 6 7 8 6 9 5 10 4 11 1 12 2 13 3 14
REMARK SMILES IDX 91 15 90 16 92 17 83 18 84 19 89 20 85 21 87 22 86 23 88 24
REMARK SMILES IDX 14 25 15 26 16 27 17 28 18 29 19 31 20 32 21 33 82 34 22 35
REMARK SMILES IDX 81 36 23 37 24 38 25 39 75 40 26 41 80 42 74 43 76 44 27 45
REMARK SMILES IDX 79 46 73 47 72 48 28 50 60 51 40 52 59 53 41 54 44 55 58 56
REMARK SMILES IDX 77 57 42 58 43 59 57 61 78 62 45 63 29 64 30 65 38 66 31 67
REMARK SMILES IDX 32 68 36 69 39 70 33 71 34 72 37 73 35 74 61 75 62 76 70 77
REMARK SMILES IDX 63 78 64 79 68 80 71 81 65 82 66 83 69 84 67 85 46 86 47 87
REMARK SMILES IDX 55 88 48 89 49 90 53 91 56 92 50 93 51 94 54 95 52 96
REMARK H PARENT 10 7 17 30 76 49 44 60
REMARK Flexibility Score: inf
ROOT
ATOM      1  C   UNL A   1      30.055  30.608  24.304  1.00  0.00     0.002 C 
ENDROOT
BRANCH   1   2
ATOM      2  C   UNL A   1      29.910  29.207  23.696  1.00  0.00     0.021 C 
BRANCH   2   3
ATOM      3  C   UNL A   1      30.473  29.083  22.281  1.00  0.00     0.116 C 
BRANCH   3   4
ATOM      4  N   UNL A   1      31.908  29.237  22.250  1.00  0.00    -0.355 N 
ATOM      5  C   UNL A   1      32.883  28.308  22.480  1.00  0.00     0.239 C 
ATOM      6  O   UNL A   1      34.055  28.685  22.378  1.00  0.00    -0.273 OA
ATOM      7  H   UNL A   1      32.230  30.141  22.031  1.00  0.00     0.163 HD
BRANCH   5   8
ATOM      8  C   UNL A   1      32.538  26.844  22.801  1.00  0.00     0.217 C 
BRANCH   8   9
ATOM      9  N   UNL A   1      33.109  26.318  24.063  1.00  0.00    -0.355 N 
BRANCH   9  10
ATOM     10  C   UNL A   1      34.172  25.288  23.942  1.00  0.00     0.184 C 
BRANCH  10  11
ATOM     11  C   UNL A   1      33.964  23.911  24.516  1.00  0.00     0.112 A 
ATOM     12  C   UNL A   1      34.037  21.707  27.351  1.00  0.00     0.068 C 
ATOM     13  C   UNL A   1      33.802  22.269  25.996  1.00  0.00     0.051 A 
ATOM     14  N   UNL A   1      34.355  23.509  25.708  1.00  0.00    -0.244 NA
ATOM     15  C   UNL A   1      33.037  21.723  24.977  1.00  0.00     0.025 A 
ATOM     16  S   UNL A   1      33.094  22.738  23.601  1.00  0.00    -0.122 S 
ATOM     17  C   UNL A   1      32.227  20.476  24.963  1.00  0.00     0.058 C 
ENDBRANCH  10  11
ENDBRANCH   9  10
BRANCH   9  18
ATOM     18  C   UNL A   1      32.867  27.005  25.250  1.00  0.00     0.039 A 
ATOM     19  C   UNL A   1      31.649  26.875  25.939  1.00  0.00     0.026 A 
ATOM     20  C   UNL A   1      33.798  27.879  25.827  1.00  0.00     0.046 A 
ATOM     21  C   UNL A   1      31.380  27.565  27.131  1.00  0.00     0.004 A 
ATOM     22  C   UNL A   1      33.543  28.567  27.019  1.00  0.00     0.043 A 
ATOM     23  C   UNL A   1      32.334  28.413  27.676  1.00  0.00     0.020 A 
ATOM     24  Cl  UNL A   1      34.742  29.623  27.664  1.00  0.00    -0.084 Cl
ENDBRANCH   9  18
ENDBRANCH   8   9
ENDBRANCH   5   8
ENDBRANCH   3   4
ENDBRANCH   2   3
ENDBRANCH   1   2
BRANCH   1  25
ATOM     25  C   UNL A   1      31.160  30.749  25.357  1.00  0.00     0.002 C 
BRANCH  25  26
ATOM     26  C   UNL A   1      31.044  31.984  26.252  1.00  0.00     0.021 C 
BRANCH  26  27
ATOM     27  C   UNL A   1      32.362  32.438  26.866  1.00  0.00     0.116 C 
BRANCH  27  28
ATOM     28  N   UNL A   1      32.292  33.806  27.356  1.00  0.00    -0.352 N 
ATOM     29  C   UNL A   1      33.048  34.420  28.323  1.00  0.00     0.251 C 
ATOM     30  H   UNL A   1      31.606  34.372  26.935  1.00  0.00     0.163 HD
ATOM     31  O   UNL A   1      32.726  35.520  28.764  1.00  0.00    -0.269 OA
BRANCH  29  32
ATOM     32  C   UNL A   1      34.246  33.736  28.852  1.00  0.00     0.039 A 
ATOM     33  C   UNL A   1      35.511  34.227  28.522  1.00  0.00     0.014 A 
ATOM     34  C   UNL A   1      34.115  32.624  29.686  1.00  0.00     0.014 A 
ATOM     35  C   UNL A   1      36.646  33.640  29.083  1.00  0.00     0.010 A 
ATOM     36  C   UNL A   1      35.239  32.093  30.309  1.00  0.00     0.010 A 
ATOM     37  C   UNL A   1      36.516  32.593  30.012  1.00  0.00    -0.014 A 
BRANCH  37  38
ATOM     38  C   UNL A   1      37.701  32.014  30.693  1.00  0.00     0.031 A 
ATOM     39  C   UNL A   1      38.516  30.948  30.018  1.00  0.00     0.074 A 
ATOM     40  C   UNL A   1      37.989  32.384  31.956  1.00  0.00     0.049 A 
ATOM     41  N   UNL A   1      39.528  30.259  30.482  1.00  0.00    -0.248 NA
ATOM     42  C   UNL A   1      38.115  30.580  28.652  1.00  0.00     0.031 C 
ATOM     43  C   UNL A   1      37.236  33.363  32.741  1.00  0.00     0.029 A 
ATOM     44  N   UNL A   1      38.980  31.964  32.808  1.00  0.00    -0.354 N 
ATOM     45  C   UNL A   1      39.868  29.366  29.475  1.00  0.00     0.074 A 
ATOM     46  C   UNL A   1      38.919  29.560  28.400  1.00  0.00     0.031 C 
ATOM     47  C   UNL A   1      37.797  33.477  33.955  1.00  0.00     0.029 A 
ATOM     48  C   UNL A   1      38.922  32.551  34.048  1.00  0.00     0.049 A 
ATOM     49  H   UNL A   1      39.666  31.305  32.556  1.00  0.00     0.167 HD
ATOM     50  C   UNL A   1      40.891  28.477  29.444  1.00  0.00     0.037 A 
ATOM     51  C   UNL A   1      39.678  32.353  35.145  1.00  0.00     0.037 A 
ATOM     52  C   UNL A   1      41.843  28.306  30.511  1.00  0.00     0.049 A 
ATOM     53  C   UNL A   1      40.815  31.371  35.087  1.00  0.00     0.074 A 
ATOM     54  C   UNL A   1      42.965  27.497  30.544  1.00  0.00     0.029 A 
ATOM     55  N   UNL A   1      41.774  28.943  31.742  1.00  0.00    -0.354 N 
ATOM     56  N   UNL A   1      41.186  30.595  34.097  1.00  0.00    -0.248 NA
ATOM     57  C   UNL A   1      41.645  31.246  36.291  1.00  0.00     0.031 C 
ATOM     58  C   UNL A   1      43.536  27.593  31.817  1.00  0.00     0.029 A 
ATOM     59  C   UNL A   1      42.812  28.517  32.556  1.00  0.00     0.049 A 
ATOM     60  H   UNL A   1      41.089  29.602  32.000  1.00  0.00     0.167 HD
ATOM     61  C   UNL A   1      42.304  29.907  34.549  1.00  0.00     0.074 A 
ATOM     62  C   UNL A   1      42.559  30.368  35.898  1.00  0.00     0.031 C 
ATOM     63  C   UNL A   1      43.051  28.979  33.902  1.00  0.00     0.037 A 
BRANCH  50  64
ATOM     64  C   UNL A   1      41.017  27.610  28.222  1.00  0.00     0.064 A 
ATOM     65  C   UNL A   1      40.362  26.372  28.116  1.00  0.00     0.173 A 
ATOM     66  C   UNL A   1      41.802  28.026  27.136  1.00  0.00     0.173 A 
ATOM     67  F   UNL A   1      39.605  25.920  29.128  1.00  0.00    -0.203 F 
ATOM     68  C   UNL A   1      40.529  25.565  26.995  1.00  0.00     0.198 A 
ATOM     69  C   UNL A   1      41.934  27.233  25.998  1.00  0.00     0.198 A 
ATOM     70  F   UNL A   1      42.444  29.204  27.177  1.00  0.00    -0.203 F 
ATOM     71  F   UNL A   1      39.952  24.355  26.949  1.00  0.00    -0.200 F 
ATOM     72  C   UNL A   1      41.310  25.998  25.934  1.00  0.00     0.200 A 
ATOM     73  F   UNL A   1      42.677  27.662  24.968  1.00  0.00    -0.200 F 
ATOM     74  F   UNL A   1      41.471  25.219  24.855  1.00  0.00    -0.200 F 
ENDBRANCH  50  64
BRANCH  51  75
ATOM     75  C   UNL A   1      39.382  33.121  36.383  1.00  0.00     0.064 A 
ATOM     76  C   UNL A   1      39.918  34.398  36.590  1.00  0.00     0.173 A 
ATOM     77  C   UNL A   1      38.524  32.606  37.368  1.00  0.00     0.173 A 
ATOM     78  F   UNL A   1      40.756  34.926  35.686  1.00  0.00    -0.203 F 
ATOM     79  C   UNL A   1      39.616  35.130  37.737  1.00  0.00     0.198 A 
ATOM     80  C   UNL A   1      38.200  33.349  38.500  1.00  0.00     0.198 A 
ATOM     81  F   UNL A   1      37.978  31.391  37.213  1.00  0.00    -0.203 F 
ATOM     82  F   UNL A   1      40.168  36.335  37.925  1.00  0.00    -0.200 F 
ATOM     83  C   UNL A   1      38.750  34.608  38.686  1.00  0.00     0.200 A 
ATOM     84  F   UNL A   1      37.347  32.849  39.404  1.00  0.00    -0.200 F 
ATOM     85  F   UNL A   1      38.445  35.318  39.781  1.00  0.00    -0.200 F 
ENDBRANCH  51  75
BRANCH  63  86
ATOM     86  C   UNL A   1      44.239  28.416  34.631  1.00  0.00     0.064 A 
ATOM     87  C   UNL A   1      44.154  27.236  35.385  1.00  0.00     0.173 A 
ATOM     88  C   UNL A   1      45.491  29.044  34.537  1.00  0.00     0.173 A 
ATOM     89  F   UNL A   1      42.978  26.605  35.521  1.00  0.00    -0.203 F 
ATOM     90  C   UNL A   1      45.272  26.721  36.037  1.00  0.00     0.198 A 
ATOM     91  C   UNL A   1      46.614  28.506  35.160  1.00  0.00     0.198 A 
ATOM     92  F   UNL A   1      45.631  30.171  33.823  1.00  0.00    -0.203 F 
ATOM     93  F   UNL A   1      45.156  25.620  36.793  1.00  0.00    -0.200 F 
ATOM     94  C   UNL A   1      46.502  27.350  35.916  1.00  0.00     0.200 A 
ATOM     95  F   UNL A   1      47.804  29.107  35.028  1.00  0.00    -0.200 F 
ATOM     96  F   UNL A   1      47.578  26.846  36.536  1.00  0.00    -0.200 F 
ENDBRANCH  63  86
ENDBRANCH  37  38
ENDBRANCH  29  32
ENDBRANCH  27  28
ENDBRANCH  26  27
ENDBRANCH  25  26
ENDBRANCH   1  25
TORSDOF 17
ENDMDL
MODEL 3
REMARK VINA RESULT:     -12.2      1.111      2.367
REMARK SMILES Cc1nc(CN(CC(=O)NCCCCCCNC(=O)c2ccc(-c3c4nc(c(-c5c(F)c(F)c(F)c(F)c5F)c5ccc([nH]5)c(-c5c(F)c(F)c(F)c(F)c5F)c5nc(c(-c6c(F)c(F)c(F)c(F)c6F)c6ccc3[nH]6)C=C5)C=C4)cc2)c2cccc(Cl)c2)sc1C
REMARK SMILES IDX 13 1 12 2 11 3 10 4 8 5 9 6 7 8 6 9 5 10 4 11 1 12 2 13 3 14
REMARK SMILES IDX 91 15 90 16 92 17 83 18 84 19 89 20 85 21 87 22 86 23 88 24
REMARK SMILES IDX 14 25 15 26 16 27 17 28 18 29 19 31 20 32 21 33 82 34 22 35
REMARK SMILES IDX 81 36 23 37 24 38 25 39 75 40 26 41 80 42 74 43 76 44 27 45
REMARK SMILES IDX 79 46 73 47 72 48 28 50 60 51 40 52 59 53 41 54 44 55 58 56
REMARK SMILES IDX 77 57 42 58 43 59 57 61 78 62 45 63 29 64 30 65 38 66 31 67
REMARK SMILES IDX 32 68 36 69 39 70 33 71 34 72 37 73 35 74 61 75 62 76 70 77
REMARK SMILES IDX 63 78 64 79 68 80 71 81 65 82 66 83 69 84 67 85 46 86 47 87
REMARK SMILES IDX 55 88 48 89 49 90 53 91 56 92 50 93 51 94 54 95 52 96
REMARK H PARENT 10 7 17 30 76 49 44 60
REMARK Flexibility Score: inf
ROOT
ATOM      1  C   UNL A   1      31.841  29.385  27.083  1.00  0.00     0.002 C 
ENDROOT
BRANCH   1   2
ATOM      2  C   UNL A   1      33.107  28.521  27.016  1.00  0.00     0.021 C 
BRANCH   2   3
ATOM      3  C   UNL A   1      33.027  27.378  26.005  1.00  0.00     0.116 C 
BRANCH   3   4
ATOM      4  N   UNL A   1      32.645  26.131  26.623  1.00  0.00    -0.355 N 
ATOM      5  C   UNL A   1      31.467  25.446  26.532  1.00  0.00     0.239 C 
ATOM      6  O   UNL A   1      31.387  24.378  27.149  1.00  0.00    -0.273 OA
ATOM      7  H   UNL A   1      33.333  25.713  27.190  1.00  0.00     0.163 HD
BRANCH   5   8
ATOM      8  C   UNL A   1      30.308  25.953  25.658  1.00  0.00     0.217 C 
BRANCH   8   9
ATOM      9  N   UNL A   1      30.598  26.045  24.208  1.00  0.00    -0.355 N 
BRANCH   9  10
ATOM     10  C   UNL A   1      30.806  24.768  23.480  1.00  0.00     0.184 C 
BRANCH  10  11
ATOM     11  C   UNL A   1      32.067  23.971  23.690  1.00  0.00     0.112 A 
ATOM     12  C   UNL A   1      33.651  20.805  24.296  1.00  0.00     0.068 C 
ATOM     13  C   UNL A   1      33.417  22.237  23.974  1.00  0.00     0.051 A 
ATOM     14  N   UNL A   1      32.127  22.727  24.117  1.00  0.00    -0.244 NA
ATOM     15  C   UNL A   1      34.336  23.152  23.486  1.00  0.00     0.025 A 
ATOM     16  S   UNL A   1      33.588  24.680  23.296  1.00  0.00    -0.122 S 
ATOM     17  C   UNL A   1      35.764  22.961  23.119  1.00  0.00     0.058 C 
ENDBRANCH  10  11
ENDBRANCH   9  10
BRANCH   9  18
ATOM     18  C   UNL A   1      30.360  27.250  23.550  1.00  0.00     0.039 A 
ATOM     19  C   UNL A   1      31.395  27.958  22.916  1.00  0.00     0.026 A 
ATOM     20  C   UNL A   1      29.092  27.846  23.488  1.00  0.00     0.046 A 
ATOM     21  C   UNL A   1      31.179  29.178  22.256  1.00  0.00     0.004 A 
ATOM     22  C   UNL A   1      28.865  29.058  22.827  1.00  0.00     0.043 A 
ATOM     23  C   UNL A   1      29.907  29.729  22.207  1.00  0.00     0.020 A 
ATOM     24  Cl  UNL A   1      27.276  29.724  22.795  1.00  0.00    -0.084 Cl
ENDBRANCH   9  18
ENDBRANCH   8   9
ENDBRANCH   5   8
ENDBRANCH   3   4
ENDBRANCH   2   3
ENDBRANCH   1   2
BRANCH   1  25
ATOM     25  C   UNL A   1      31.770  30.516  26.050  1.00  0.00     0.002 C 
BRANCH  25  26
ATOM     26  C   UNL A   1      31.483  31.902  26.631  1.00  0.00     0.021 C 
BRANCH  26  27
ATOM     27  C   UNL A   1      32.695  32.584  27.252  1.00  0.00     0.116 C 
BRANCH  27  28
ATOM     28  N   UNL A   1      32.440  33.987  27.544  1.00  0.00    -0.352 N 
ATOM     29  C   UNL A   1      33.004  34.787  28.506  1.00  0.00     0.251 C 
ATOM     30  H   UNL A   1      31.771  34.423  26.971  1.00  0.00     0.163 HD
ATOM     31  O   UNL A   1      32.532  35.893  28.753  1.00  0.00    -0.269 OA
BRANCH  29  32
ATOM     32  C   UNL A   1      34.175  34.300  29.263  1.00  0.00     0.039 A 
ATOM     33  C   UNL A   1      33.971  33.583  30.444  1.00  0.00     0.014 A 
ATOM     34  C   UNL A   1      35.469  34.540  28.796  1.00  0.00     0.014 A 
ATOM     35  C   UNL A   1      35.067  33.048  31.122  1.00  0.00     0.010 A 
ATOM     36  C   UNL A   1      36.552  33.937  29.426  1.00  0.00     0.010 A 
ATOM     37  C   UNL A   1      36.363  33.187  30.597  1.00  0.00    -0.014 A 
BRANCH  37  38
ATOM     38  C   UNL A   1      37.534  32.549  31.250  1.00  0.00     0.031 A 
ATOM     39  C   UNL A   1      38.229  31.391  30.593  1.00  0.00     0.074 A 
ATOM     40  C   UNL A   1      37.914  32.955  32.476  1.00  0.00     0.049 A 
ATOM     41  N   UNL A   1      39.208  30.647  31.042  1.00  0.00    -0.248 NA
ATOM     42  C   UNL A   1      37.732  30.992  29.268  1.00  0.00     0.031 C 
ATOM     43  C   UNL A   1      37.279  34.027  33.245  1.00  0.00     0.029 A 
ATOM     44  N   UNL A   1      38.912  32.499  33.301  1.00  0.00    -0.354 N 
ATOM     45  C   UNL A   1      39.427  29.683  30.068  1.00  0.00     0.074 A 
ATOM     46  C   UNL A   1      38.441  29.900  29.031  1.00  0.00     0.031 C 
ATOM     47  C   UNL A   1      37.909  34.154  34.423  1.00  0.00     0.029 A 
ATOM     48  C   UNL A   1      38.963  33.147  34.511  1.00  0.00     0.049 A 
ATOM     49  H   UNL A   1      39.532  31.777  33.051  1.00  0.00     0.167 HD
ATOM     50  C   UNL A   1      40.375  28.716  30.034  1.00  0.00     0.037 A 
ATOM     51  C   UNL A   1      39.757  32.943  35.580  1.00  0.00     0.037 A 
ATOM     52  C   UNL A   1      41.364  28.521  31.062  1.00  0.00     0.049 A 
ATOM     53  C   UNL A   1      40.811  31.873  35.517  1.00  0.00     0.074 A 
ATOM     54  C   UNL A   1      42.422  27.629  31.084  1.00  0.00     0.029 A 
ATOM     55  N   UNL A   1      41.408  29.220  32.261  1.00  0.00    -0.354 N 
ATOM     56  N   UNL A   1      41.070  31.023  34.553  1.00  0.00    -0.248 NA
ATOM     57  C   UNL A   1      41.690  31.739  36.686  1.00  0.00     0.031 C 
ATOM     58  C   UNL A   1      43.063  27.740  32.322  1.00  0.00     0.029 A 
ATOM     59  C   UNL A   1      42.451  28.752  33.045  1.00  0.00     0.049 A 
ATOM     60  H   UNL A   1      40.789  29.942  32.516  1.00  0.00     0.167 HD
ATOM     61  C   UNL A   1      42.153  30.271  34.986  1.00  0.00     0.074 A 
ATOM     62  C   UNL A   1      42.512  30.774  36.296  1.00  0.00     0.031 C 
ATOM     63  C   UNL A   1      42.793  29.257  34.353  1.00  0.00     0.037 A 
BRANCH  50  64
ATOM     64  C   UNL A   1      40.372  27.784  28.854  1.00  0.00     0.064 A 
ATOM     65  C   UNL A   1      39.632  26.590  28.849  1.00  0.00     0.173 A 
ATOM     66  C   UNL A   1      41.118  28.092  27.706  1.00  0.00     0.173 A 
ATOM     67  F   UNL A   1      38.907  26.241  29.924  1.00  0.00    -0.203 F 
ATOM     68  C   UNL A   1      39.678  25.721  27.764  1.00  0.00     0.198 A 
ATOM     69  C   UNL A   1      41.130  27.238  26.606  1.00  0.00     0.198 A 
ATOM     70  F   UNL A   1      41.837  29.224  27.650  1.00  0.00    -0.203 F 
ATOM     71  F   UNL A   1      39.020  24.553  27.813  1.00  0.00    -0.200 F 
ATOM     72  C   UNL A   1      40.423  26.048  26.641  1.00  0.00     0.200 A 
ATOM     73  F   UNL A   1      41.837  27.565  25.515  1.00  0.00    -0.200 F 
ATOM     74  F   UNL A   1      40.468  25.208  25.596  1.00  0.00    -0.200 F 
ENDBRANCH  50  64
BRANCH  51  75
ATOM     75  C   UNL A   1      39.584  33.790  36.789  1.00  0.00     0.064 A 
ATOM     76  C   UNL A   1      40.191  35.048  36.885  1.00  0.00     0.173 A 
ATOM     77  C   UNL A   1      38.776  33.372  37.857  1.00  0.00     0.173 A 
ATOM     78  F   UNL A   1      40.986  35.485  35.897  1.00  0.00    -0.203 F 
ATOM     79  C   UNL A   1      40.005  35.855  38.006  1.00  0.00     0.198 A 
ATOM     80  C   UNL A   1      38.566  34.189  38.964  1.00  0.00     0.198 A 
ATOM     81  F   UNL A   1      38.165  32.179  37.810  1.00  0.00    -0.203 F 
ATOM     82  F   UNL A   1      40.623  37.040  38.087  1.00  0.00    -0.200 F 
ATOM     83  C   UNL A   1      39.185  35.428  39.041  1.00  0.00     0.200 A 
ATOM     84  F   UNL A   1      37.758  33.782  39.952  1.00  0.00    -0.200 F 
ATOM     85  F   UNL A   1      38.991  36.210  40.112  1.00  0.00    -0.200 F 
ENDBRANCH  51  75
BRANCH  63  86
ATOM     86  C   UNL A   1      43.970  28.638  35.053  1.00  0.00     0.064 A 
ATOM     87  C   UNL A   1      43.831  27.518  35.886  1.00  0.00     0.173 A 
ATOM     88  C   UNL A   1      45.263  29.146  34.851  1.00  0.00     0.173 A 
ATOM     89  F   UNL A   1      42.615  27.001  36.126  1.00  0.00    -0.203 F 
ATOM     90  C   UNL A   1      44.938  26.946  36.510  1.00  0.00     0.198 A 
ATOM     91  C   UNL A   1      46.372  28.551  35.448  1.00  0.00     0.198 A 
ATOM     92  F   UNL A   1      45.455  30.211  34.058  1.00  0.00    -0.203 F 
ATOM     93  F   UNL A   1      44.774  25.908  37.341  1.00  0.00    -0.200 F 
ATOM     94  C   UNL A   1      46.207  27.457  36.283  1.00  0.00     0.200 A 
ATOM     95  F   UNL A   1      47.598  29.036  35.213  1.00  0.00    -0.200 F 
ATOM     96  F   UNL A   1      47.271  26.899  36.876  1.00  0.00    -0.200 F 
ENDBRANCH  63  86
ENDBRANCH  37  38
ENDBRANCH  29  32
ENDBRANCH  27  28
ENDBRANCH  26  27
ENDBRANCH  25  26
ENDBRANCH   1  25
TORSDOF 17
ENDMDL
