MODEL 1
REMARK VINA RESULT:     -11.5      0.000      0.000
REMARK SMILES O=C(CSCc1ccc(Cl)s1)Nc1ccsc1C(=O)NCCCCCCNC(=O)c1ccc(-c2c3nc(c(-c4c(F)c(F)c(F)c(F)c4F)c4ccc([nH]4)c(-c4c(F)c(F)c(F)c(F)c4F)c4nc(c(-c5c(F)c(F)c(F)c(F)c5F)c5ccc2[nH]5)C=C4)C=C3)cc1
REMARK SMILES IDX 22 1 21 2 20 3 18 4 19 5 17 7 13 8 14 9 15 10 16 11 12 12
REMARK SMILES IDX 1 13 2 14 3 16 4 17 5 18 6 19 7 20 11 21 8 22 9 23 10 24
REMARK SMILES IDX 23 25 24 26 25 27 26 28 27 29 28 30 29 32 30 33 31 34 92 35
REMARK SMILES IDX 32 36 91 37 33 38 34 39 35 40 85 41 36 42 90 43 84 44 86 45
REMARK SMILES IDX 37 46 89 47 83 48 82 49 38 51 70 52 50 53 69 54 51 55 54 56
REMARK SMILES IDX 68 57 87 58 52 59 53 60 67 62 88 63 55 64 39 65 40 66 48 67
REMARK SMILES IDX 41 68 42 69 46 70 49 71 43 72 44 73 47 74 45 75 71 76 72 77
REMARK SMILES IDX 80 78 73 79 74 80 78 81 81 82 75 83 76 84 79 85 77 86 56 87
REMARK SMILES IDX 57 88 65 89 58 90 59 91 63 92 66 93 60 94 61 95 64 96 62 97
REMARK H PARENT 20 6 12 15 27 31 86 50 54 61
REMARK Flexibility Score: inf
ROOT
ATOM      1  C   UNL A   1      31.417  28.016  26.832  1.00  0.00     0.021 C 
ENDROOT
BRANCH   1   2
ATOM      2  C   UNL A   1      32.139  26.728  26.440  1.00  0.00     0.116 C 
BRANCH   2   3
ATOM      3  N   UNL A   1      31.328  25.587  26.768  1.00  0.00    -0.351 N 
ATOM      4  C   UNL A   1      31.539  24.238  26.844  1.00  0.00     0.263 C 
ATOM      5  O   UNL A   1      30.530  23.640  27.245  1.00  0.00    -0.268 OA
ATOM      6  H   UNL A   1      30.402  25.836  26.992  1.00  0.00     0.163 HD
BRANCH   4   7
ATOM      7  C   UNL A   1      32.780  23.532  26.511  1.00  0.00     0.115 A 
ATOM      8  C   UNL A   1      33.642  23.410  25.419  1.00  0.00     0.065 A 
ATOM      9  C   UNL A   1      34.584  22.332  25.602  1.00  0.00     0.038 A 
ATOM     10  C   UNL A   1      34.470  21.698  26.810  1.00  0.00     0.068 A 
ATOM     11  S   UNL A   1      33.240  22.377  27.749  1.00  0.00    -0.137 S 
BRANCH   8  12
ATOM     12  N   UNL A   1      33.683  24.183  24.259  1.00  0.00    -0.324 N 
ATOM     13  O   UNL A   1      31.662  23.514  23.343  1.00  0.00    -0.274 OA
ATOM     14  C   UNL A   1      32.767  24.043  23.228  1.00  0.00     0.234 C 
ATOM     15  H   UNL A   1      34.393  24.859  24.168  1.00  0.00     0.170 HD
BRANCH  14  16
ATOM     16  C   UNL A   1      33.208  24.613  21.897  1.00  0.00     0.170 C 
BRANCH  16  17
ATOM     17  S   UNL A   1      32.180  25.937  21.216  1.00  0.00    -0.146 SA
BRANCH  17  18
ATOM     18  C   UNL A   1      32.200  27.231  22.512  1.00  0.00     0.116 C 
BRANCH  18  19
ATOM     19  C   UNL A   1      30.812  27.670  22.826  1.00  0.00     0.016 A 
ATOM     20  C   UNL A   1      29.807  26.960  23.457  1.00  0.00     0.018 A 
ATOM     21  S   UNL A   1      30.287  29.249  22.391  1.00  0.00    -0.128 S 
ATOM     22  C   UNL A   1      28.586  27.695  23.520  1.00  0.00     0.033 A 
ATOM     23  C   UNL A   1      28.727  28.940  22.965  1.00  0.00     0.093 A 
ATOM     24  Cl  UNL A   1      27.509  30.139  22.809  1.00  0.00    -0.072 Cl
ENDBRANCH  18  19
ENDBRANCH  17  18
ENDBRANCH  16  17
ENDBRANCH  14  16
ENDBRANCH   8  12
ENDBRANCH   4   7
ENDBRANCH   2   3
ENDBRANCH   1   2
BRANCH   1  25
ATOM     25  C   UNL A   1      32.260  29.289  26.728  1.00  0.00     0.002 C 
BRANCH  25  26
ATOM     26  C   UNL A   1      31.640  30.392  25.860  1.00  0.00     0.002 C 
BRANCH  26  27
ATOM     27  C   UNL A   1      31.393  31.734  26.560  1.00  0.00     0.021 C 
BRANCH  27  28
ATOM     28  C   UNL A   1      32.649  32.460  27.037  1.00  0.00     0.116 C 
BRANCH  28  29
ATOM     29  N   UNL A   1      32.383  33.823  27.460  1.00  0.00    -0.352 N 
ATOM     30  C   UNL A   1      32.991  34.584  28.426  1.00  0.00     0.251 C 
ATOM     31  H   UNL A   1      31.651  34.272  26.978  1.00  0.00     0.163 HD
ATOM     32  O   UNL A   1      32.520  35.680  28.723  1.00  0.00    -0.269 OA
BRANCH  30  33
ATOM     33  C   UNL A   1      34.184  34.086  29.147  1.00  0.00     0.039 A 
ATOM     34  C   UNL A   1      33.988  33.258  30.256  1.00  0.00     0.014 A 
ATOM     35  C   UNL A   1      35.481  34.441  28.764  1.00  0.00     0.014 A 
ATOM     36  C   UNL A   1      35.087  32.734  30.940  1.00  0.00     0.010 A 
ATOM     37  C   UNL A   1      36.579  33.865  29.406  1.00  0.00     0.010 A 
ATOM     38  C   UNL A   1      36.393  33.001  30.497  1.00  0.00    -0.014 A 
BRANCH  38  39
ATOM     39  C   UNL A   1      37.563  32.367  31.160  1.00  0.00     0.031 A 
ATOM     40  C   UNL A   1      38.311  31.251  30.487  1.00  0.00     0.074 A 
ATOM     41  C   UNL A   1      37.930  32.775  32.390  1.00  0.00     0.049 A 
ATOM     42  N   UNL A   1      39.335  30.559  30.924  1.00  0.00    -0.248 NA
ATOM     43  C   UNL A   1      37.839  30.849  29.155  1.00  0.00     0.031 C 
ATOM     44  C   UNL A   1      37.271  33.830  33.161  1.00  0.00     0.029 A 
ATOM     45  N   UNL A   1      38.945  32.349  33.212  1.00  0.00    -0.354 N 
ATOM     46  C   UNL A   1      39.625  29.641  29.924  1.00  0.00     0.074 A 
ATOM     47  C   UNL A   1      38.636  29.826  28.882  1.00  0.00     0.031 C 
ATOM     48  C   UNL A   1      37.915  33.988  34.329  1.00  0.00     0.029 A 
ATOM     49  C   UNL A   1      39.003  33.019  34.409  1.00  0.00     0.049 A 
ATOM     50  H   UNL A   1      39.573  31.631  32.965  1.00  0.00     0.167 HD
ATOM     51  C   UNL A   1      40.636  28.739  29.868  1.00  0.00     0.037 A 
ATOM     52  C   UNL A   1      39.835  32.865  35.458  1.00  0.00     0.037 A 
ATOM     53  C   UNL A   1      41.621  28.559  30.903  1.00  0.00     0.049 A 
ATOM     54  C   UNL A   1      40.916  31.820  35.393  1.00  0.00     0.074 A 
ATOM     55  C   UNL A   1      42.707  27.701  30.922  1.00  0.00     0.029 A 
ATOM     56  N   UNL A   1      41.633  29.241  32.111  1.00  0.00    -0.354 N 
ATOM     57  N   UNL A   1      41.219  31.002  34.416  1.00  0.00    -0.248 NA
ATOM     58  C   UNL A   1      41.773  31.681  36.579  1.00  0.00     0.031 C 
ATOM     59  C   UNL A   1      43.344  27.825  32.161  1.00  0.00     0.029 A 
ATOM     60  C   UNL A   1      42.690  28.801  32.894  1.00  0.00     0.049 A 
ATOM     61  H   UNL A   1      40.986  29.936  32.374  1.00  0.00     0.167 HD
ATOM     62  C   UNL A   1      42.318  30.274  34.853  1.00  0.00     0.074 A 
ATOM     63  C   UNL A   1      42.636  30.757  36.181  1.00  0.00     0.031 C 
ATOM     64  C   UNL A   1      43.001  29.295  34.212  1.00  0.00     0.037 A 
BRANCH  51  65
ATOM     65  C   UNL A   1      40.723  27.873  28.643  1.00  0.00     0.064 A 
ATOM     66  C   UNL A   1      40.029  26.657  28.551  1.00  0.00     0.173 A 
ATOM     67  C   UNL A   1      41.485  28.277  27.537  1.00  0.00     0.173 A 
ATOM     68  F   UNL A   1      39.291  26.222  29.584  1.00  0.00    -0.203 F 
ATOM     69  C   UNL A   1      40.125  25.861  27.414  1.00  0.00     0.198 A 
ATOM     70  C   UNL A   1      41.552  27.494  26.388  1.00  0.00     0.198 A 
ATOM     71  F   UNL A   1      42.160  29.436  27.565  1.00  0.00    -0.203 F 
ATOM     72  F   UNL A   1      39.496  24.678  27.372  1.00  0.00    -0.200 F 
ATOM     73  C   UNL A   1      40.880  26.282  26.330  1.00  0.00     0.200 A 
ATOM     74  F   UNL A   1      42.270  27.911  25.335  1.00  0.00    -0.200 F 
ATOM     75  F   UNL A   1      40.967  25.517  25.233  1.00  0.00    -0.200 F 
ENDBRANCH  51  65
BRANCH  52  76
ATOM     76  C   UNL A   1      39.691  33.735  36.654  1.00  0.00     0.064 A 
ATOM     77  C   UNL A   1      38.911  33.331  37.747  1.00  0.00     0.173 A 
ATOM     78  C   UNL A   1      40.317  34.988  36.728  1.00  0.00     0.173 A 
ATOM     79  F   UNL A   1      38.273  32.152  37.714  1.00  0.00    -0.203 F 
ATOM     80  C   UNL A   1      38.748  34.154  38.860  1.00  0.00     0.198 A 
ATOM     81  C   UNL A   1      40.178  35.797  37.854  1.00  0.00     0.198 A 
ATOM     82  F   UNL A   1      41.078  35.422  35.712  1.00  0.00    -0.203 F 
ATOM     83  F   UNL A   1      37.959  33.763  39.870  1.00  0.00    -0.200 F 
ATOM     84  C   UNL A   1      39.386  35.384  38.915  1.00  0.00     0.200 A 
ATOM     85  F   UNL A   1      40.809  36.978  37.910  1.00  0.00    -0.200 F 
ATOM     86  F   UNL A   1      39.233  36.173  39.987  1.00  0.00    -0.200 F 
ENDBRANCH  52  76
BRANCH  64  87
ATOM     87  C   UNL A   1      44.186  28.703  34.920  1.00  0.00     0.064 A 
ATOM     88  C   UNL A   1      45.478  29.226  34.763  1.00  0.00     0.173 A 
ATOM     89  C   UNL A   1      44.019  27.623  35.801  1.00  0.00     0.173 A 
ATOM     90  F   UNL A   1      45.695  30.247  33.921  1.00  0.00    -0.203 F 
ATOM     91  C   UNL A   1      46.561  28.676  35.442  1.00  0.00     0.198 A 
ATOM     92  C   UNL A   1      45.099  27.094  36.502  1.00  0.00     0.198 A 
ATOM     93  F   UNL A   1      42.804  27.086  35.991  1.00  0.00    -0.203 F 
ATOM     94  F   UNL A   1      47.794  29.160  35.240  1.00  0.00    -0.200 F 
ATOM     95  C   UNL A   1      46.370  27.617  36.318  1.00  0.00     0.200 A 
ATOM     96  F   UNL A   1      44.909  26.081  37.358  1.00  0.00    -0.200 F 
ATOM     97  F   UNL A   1      47.413  27.094  36.978  1.00  0.00    -0.200 F 
ENDBRANCH  64  87
ENDBRANCH  38  39
ENDBRANCH  30  33
ENDBRANCH  28  29
ENDBRANCH  27  28
ENDBRANCH  26  27
ENDBRANCH  25  26
ENDBRANCH   1  25
TORSDOF 18
ENDMDL
MODEL 2
REMARK VINA RESULT:     -11.3      1.072      7.310
REMARK SMILES O=C(CSCc1ccc(Cl)s1)Nc1ccsc1C(=O)NCCCCCCNC(=O)c1ccc(-c2c3nc(c(-c4c(F)c(F)c(F)c(F)c4F)c4ccc([nH]4)c(-c4c(F)c(F)c(F)c(F)c4F)c4nc(c(-c5c(F)c(F)c(F)c(F)c5F)c5ccc2[nH]5)C=C4)C=C3)cc1
REMARK SMILES IDX 22 1 21 2 20 3 18 4 19 5 17 7 13 8 14 9 15 10 16 11 12 12
REMARK SMILES IDX 1 13 2 14 3 16 4 17 5 18 6 19 7 20 11 21 8 22 9 23 10 24
REMARK SMILES IDX 23 25 24 26 25 27 26 28 27 29 28 30 29 32 30 33 31 34 92 35
REMARK SMILES IDX 32 36 91 37 33 38 34 39 35 40 85 41 36 42 90 43 84 44 86 45
REMARK SMILES IDX 37 46 89 47 83 48 82 49 38 51 70 52 50 53 69 54 51 55 54 56
REMARK SMILES IDX 68 57 87 58 52 59 53 60 67 62 88 63 55 64 39 65 40 66 48 67
REMARK SMILES IDX 41 68 42 69 46 70 49 71 43 72 44 73 47 74 45 75 71 76 72 77
REMARK SMILES IDX 80 78 73 79 74 80 78 81 81 82 75 83 76 84 79 85 77 86 56 87
REMARK SMILES IDX 57 88 65 89 58 90 59 91 63 92 66 93 60 94 61 95 64 96 62 97
REMARK H PARENT 20 6 12 15 27 31 86 50 54 61
REMARK Flexibility Score: inf
ROOT
ATOM      1  C   UNL A   1      31.173  27.843  26.696  1.00  0.00     0.021 C 
ENDROOT
BRANCH   1   2
ATOM      2  C   UNL A   1      32.182  26.743  26.365  1.00  0.00     0.116 C 
BRANCH   2   3
ATOM      3  N   UNL A   1      31.726  25.482  26.881  1.00  0.00    -0.351 N 
ATOM      4  C   UNL A   1      31.958  24.169  26.576  1.00  0.00     0.263 C 
ATOM      5  O   UNL A   1      31.378  23.407  27.362  1.00  0.00    -0.268 OA
ATOM      6  H   UNL A   1      31.099  25.588  27.632  1.00  0.00     0.163 HD
BRANCH   4   7
ATOM      7  C   UNL A   1      32.785  23.666  25.473  1.00  0.00     0.115 A 
ATOM      8  C   UNL A   1      32.784  23.704  24.077  1.00  0.00     0.065 A 
ATOM      9  C   UNL A   1      33.738  22.775  23.520  1.00  0.00     0.038 A 
ATOM     10  C   UNL A   1      34.466  22.099  24.462  1.00  0.00     0.068 A 
ATOM     11  S   UNL A   1      34.029  22.560  26.027  1.00  0.00    -0.137 S 
BRANCH   8  12
ATOM     12  N   UNL A   1      32.015  24.505  23.234  1.00  0.00    -0.324 N 
ATOM     13  O   UNL A   1      33.542  26.221  22.925  1.00  0.00    -0.274 OA
ATOM     14  C   UNL A   1      32.392  25.787  22.863  1.00  0.00     0.234 C 
ATOM     15  H   UNL A   1      31.168  24.145  22.886  1.00  0.00     0.170 HD
BRANCH  14  16
ATOM     16  C   UNL A   1      31.271  26.658  22.340  1.00  0.00     0.170 C 
BRANCH  16  17
ATOM     17  S   UNL A   1      31.299  28.392  22.857  1.00  0.00    -0.146 SA
BRANCH  17  18
ATOM     18  C   UNL A   1      29.583  28.724  23.403  1.00  0.00     0.116 C 
BRANCH  18  19
ATOM     19  C   UNL A   1      29.173  30.102  23.014  1.00  0.00     0.016 A 
ATOM     20  C   UNL A   1      29.144  31.243  23.795  1.00  0.00     0.018 A 
ATOM     21  S   UNL A   1      28.653  30.427  21.407  1.00  0.00    -0.128 S 
ATOM     22  C   UNL A   1      28.628  32.368  23.085  1.00  0.00     0.033 A 
ATOM     23  C   UNL A   1      28.320  32.040  21.790  1.00  0.00     0.093 A 
ATOM     24  Cl  UNL A   1      27.654  33.078  20.597  1.00  0.00    -0.072 Cl
ENDBRANCH  18  19
ENDBRANCH  17  18
ENDBRANCH  16  17
ENDBRANCH  14  16
ENDBRANCH   8  12
ENDBRANCH   4   7
ENDBRANCH   2   3
ENDBRANCH   1   2
BRANCH   1  25
ATOM     25  C   UNL A   1      31.784  29.160  27.179  1.00  0.00     0.002 C 
BRANCH  25  26
ATOM     26  C   UNL A   1      31.761  30.289  26.139  1.00  0.00     0.002 C 
BRANCH  26  27
ATOM     27  C   UNL A   1      31.516  31.699  26.689  1.00  0.00     0.021 C 
BRANCH  27  28
ATOM     28  C   UNL A   1      32.771  32.545  26.896  1.00  0.00     0.116 C 
BRANCH  28  29
ATOM     29  N   UNL A   1      32.484  33.842  27.481  1.00  0.00    -0.352 N 
ATOM     30  C   UNL A   1      33.071  34.482  28.543  1.00  0.00     0.251 C 
ATOM     31  H   UNL A   1      31.754  34.340  27.048  1.00  0.00     0.163 HD
ATOM     32  O   UNL A   1      32.584  35.528  28.967  1.00  0.00    -0.269 OA
BRANCH  30  33
ATOM     33  C   UNL A   1      34.260  33.910  29.214  1.00  0.00     0.039 A 
ATOM     34  C   UNL A   1      34.056  33.007  30.261  1.00  0.00     0.014 A 
ATOM     35  C   UNL A   1      35.560  34.267  28.845  1.00  0.00     0.014 A 
ATOM     36  C   UNL A   1      35.151  32.412  30.893  1.00  0.00     0.010 A 
ATOM     37  C   UNL A   1      36.652  33.624  29.432  1.00  0.00     0.010 A 
ATOM     38  C   UNL A   1      36.458  32.687  30.459  1.00  0.00    -0.014 A 
BRANCH  38  39
ATOM     39  C   UNL A   1      37.621  31.984  31.062  1.00  0.00     0.031 A 
ATOM     40  C   UNL A   1      38.096  32.338  32.443  1.00  0.00     0.074 A 
ATOM     41  C   UNL A   1      38.275  31.048  30.347  1.00  0.00     0.049 A 
ATOM     42  N   UNL A   1      39.110  31.855  33.119  1.00  0.00    -0.248 NA
ATOM     43  C   UNL A   1      37.345  33.383  33.152  1.00  0.00     0.031 C 
ATOM     44  C   UNL A   1      37.929  30.632  28.987  1.00  0.00     0.029 A 
ATOM     45  N   UNL A   1      39.369  30.280  30.661  1.00  0.00    -0.354 N 
ATOM     46  C   UNL A   1      39.118  32.537  34.328  1.00  0.00     0.074 A 
ATOM     47  C   UNL A   1      38.043  33.507  34.272  1.00  0.00     0.031 C 
ATOM     48  C   UNL A   1      38.775  29.665  28.595  1.00  0.00     0.029 A 
ATOM     49  C   UNL A   1      39.748  29.424  29.656  1.00  0.00     0.049 A 
ATOM     50  H   UNL A   1      39.836  30.336  31.526  1.00  0.00     0.167 HD
ATOM     51  C   UNL A   1      39.932  32.359  35.397  1.00  0.00     0.037 A 
ATOM     52  C   UNL A   1      40.770  28.548  29.593  1.00  0.00     0.037 A 
ATOM     53  C   UNL A   1      40.999  31.392  35.453  1.00  0.00     0.049 A 
ATOM     54  C   UNL A   1      41.693  28.406  30.774  1.00  0.00     0.074 A 
ATOM     55  C   UNL A   1      41.852  31.107  36.505  1.00  0.00     0.029 A 
ATOM     56  N   UNL A   1      41.366  30.558  34.406  1.00  0.00    -0.354 N 
ATOM     57  N   UNL A   1      41.651  29.012  31.934  1.00  0.00    -0.248 NA
ATOM     58  C   UNL A   1      42.805  27.456  30.634  1.00  0.00     0.031 C 
ATOM     59  C   UNL A   1      42.769  30.141  36.078  1.00  0.00     0.029 A 
ATOM     60  C   UNL A   1      42.452  29.781  34.778  1.00  0.00     0.049 A 
ATOM     61  H   UNL A   1      40.921  30.524  33.528  1.00  0.00     0.167 HD
ATOM     62  C   UNL A   1      42.706  28.496  32.674  1.00  0.00     0.074 A 
ATOM     63  C   UNL A   1      43.365  27.517  31.833  1.00  0.00     0.031 C 
ATOM     64  C   UNL A   1      43.095  28.804  33.935  1.00  0.00     0.037 A 
BRANCH  51  65
ATOM     65  C   UNL A   1      39.702  33.235  36.596  1.00  0.00     0.064 A 
ATOM     66  C   UNL A   1      40.378  34.455  36.755  1.00  0.00     0.173 A 
ATOM     67  C   UNL A   1      38.774  32.867  37.581  1.00  0.00     0.173 A 
ATOM     68  F   UNL A   1      41.280  34.851  35.845  1.00  0.00    -0.203 F 
ATOM     69  C   UNL A   1      40.161  35.254  37.874  1.00  0.00     0.198 A 
ATOM     70  C   UNL A   1      38.536  33.685  38.683  1.00  0.00     0.198 A 
ATOM     71  F   UNL A   1      38.092  31.717  37.474  1.00  0.00    -0.203 F 
ATOM     72  F   UNL A   1      40.859  36.388  38.031  1.00  0.00    -0.200 F 
ATOM     73  C   UNL A   1      39.236  34.873  38.834  1.00  0.00     0.200 A 
ATOM     74  F   UNL A   1      37.629  33.322  39.601  1.00  0.00    -0.200 F 
ATOM     75  F   UNL A   1      39.023  35.646  39.908  1.00  0.00    -0.200 F 
ENDBRANCH  51  65
BRANCH  52  76
ATOM     76  C   UNL A   1      40.964  27.719  28.374  1.00  0.00     0.064 A 
ATOM     77  C   UNL A   1      40.274  26.510  28.211  1.00  0.00     0.173 A 
ATOM     78  C   UNL A   1      41.846  28.110  27.356  1.00  0.00     0.173 A 
ATOM     79  F   UNL A   1      39.437  26.082  29.167  1.00  0.00    -0.203 F 
ATOM     80  C   UNL A   1      40.472  25.713  27.085  1.00  0.00     0.198 A 
ATOM     81  C   UNL A   1      42.021  27.328  26.216  1.00  0.00     0.198 A 
ATOM     82  F   UNL A   1      42.529  29.260  27.460  1.00  0.00    -0.203 F 
ATOM     83  F   UNL A   1      39.835  24.540  26.976  1.00  0.00    -0.200 F 
ATOM     84  C   UNL A   1      41.341  26.126  26.086  1.00  0.00     0.200 A 
ATOM     85  F   UNL A   1      42.849  27.737  25.246  1.00  0.00    -0.200 F 
ATOM     86  F   UNL A   1      41.528  25.362  25.001  1.00  0.00    -0.200 F 
ENDBRANCH  52  76
BRANCH  64  87
ATOM     87  C   UNL A   1      44.264  28.050  34.501  1.00  0.00     0.064 A 
ATOM     88  C   UNL A   1      45.571  28.555  34.433  1.00  0.00     0.173 A 
ATOM     89  C   UNL A   1      44.067  26.825  35.158  1.00  0.00     0.173 A 
ATOM     90  F   UNL A   1      45.815  29.713  33.802  1.00  0.00    -0.203 F 
ATOM     91  C   UNL A   1      46.640  27.851  34.980  1.00  0.00     0.198 A 
ATOM     92  C   UNL A   1      45.135  26.138  35.730  1.00  0.00     0.198 A 
ATOM     93  F   UNL A   1      42.837  26.299  35.255  1.00  0.00    -0.203 F 
ATOM     94  F   UNL A   1      47.886  28.328  34.861  1.00  0.00    -0.200 F 
ATOM     95  C   UNL A   1      46.421  26.648  35.636  1.00  0.00     0.200 A 
ATOM     96  F   UNL A   1      44.917  24.984  36.375  1.00  0.00    -0.200 F 
ATOM     97  F   UNL A   1      47.450  25.976  36.170  1.00  0.00    -0.200 F 
ENDBRANCH  64  87
ENDBRANCH  38  39
ENDBRANCH  30  33
ENDBRANCH  28  29
ENDBRANCH  27  28
ENDBRANCH  26  27
ENDBRANCH  25  26
ENDBRANCH   1  25
TORSDOF 18
ENDMDL
MODEL 3
REMARK VINA RESULT:     -11.3      2.201      3.732
REMARK SMILES O=C(CSCc1ccc(Cl)s1)Nc1ccsc1C(=O)NCCCCCCNC(=O)c1ccc(-c2c3nc(c(-c4c(F)c(F)c(F)c(F)c4F)c4ccc([nH]4)c(-c4c(F)c(F)c(F)c(F)c4F)c4nc(c(-c5c(F)c(F)c(F)c(F)c5F)c5ccc2[nH]5)C=C4)C=C3)cc1
REMARK SMILES IDX 22 1 21 2 20 3 18 4 19 5 17 7 13 8 14 9 15 10 16 11 12 12
REMARK SMILES IDX 1 13 2 14 3 16 4 17 5 18 6 19 7 20 11 21 8 22 9 23 10 24
REMARK SMILES IDX 23 25 24 26 25 27 26 28 27 29 28 30 29 32 30 33 31 34 92 35
REMARK SMILES IDX 32 36 91 37 33 38 34 39 35 40 85 41 36 42 90 43 84 44 86 45
REMARK SMILES IDX 37 46 89 47 83 48 82 49 38 51 70 52 50 53 69 54 51 55 54 56
REMARK SMILES IDX 68 57 87 58 52 59 53 60 67 62 88 63 55 64 39 65 40 66 48 67
REMARK SMILES IDX 41 68 42 69 46 70 49 71 43 72 44 73 47 74 45 75 71 76 72 77
REMARK SMILES IDX 80 78 73 79 74 80 78 81 81 82 75 83 76 84 79 85 77 86 56 87
REMARK SMILES IDX 57 88 65 89 58 90 59 91 63 92 66 93 60 94 61 95 64 96 62 97
REMARK H PARENT 20 6 12 15 27 31 86 50 54 61
REMARK Flexibility Score: inf
ROOT
ATOM      1  C   UNL A   1      32.857  28.676  27.250  1.00  0.00     0.021 C 
ENDROOT
BRANCH   1   2
ATOM      2  C   UNL A   1      33.914  27.922  26.444  1.00  0.00     0.116 C 
BRANCH   2   3
ATOM      3  N   UNL A   1      33.899  28.361  25.076  1.00  0.00    -0.351 N 
ATOM      4  C   UNL A   1      33.014  28.266  24.037  1.00  0.00     0.263 C 
ATOM      5  O   UNL A   1      33.418  28.873  23.035  1.00  0.00    -0.268 OA
ATOM      6  H   UNL A   1      34.719  28.845  24.827  1.00  0.00     0.163 HD
BRANCH   4   7
ATOM      7  C   UNL A   1      31.731  27.555  24.050  1.00  0.00     0.115 A 
ATOM      8  C   UNL A   1      31.277  26.241  24.183  1.00  0.00     0.065 A 
ATOM      9  C   UNL A   1      29.880  26.124  23.838  1.00  0.00     0.038 A 
ATOM     10  C   UNL A   1      29.291  27.315  23.506  1.00  0.00     0.068 A 
ATOM     11  S   UNL A   1      30.391  28.594  23.602  1.00  0.00    -0.137 S 
BRANCH   8  12
ATOM     12  N   UNL A   1      31.989  25.117  24.599  1.00  0.00    -0.324 N 
ATOM     13  O   UNL A   1      31.404  25.166  26.841  1.00  0.00    -0.274 OA
ATOM     14  C   UNL A   1      32.135  24.769  25.934  1.00  0.00     0.234 C 
ATOM     15  H   UNL A   1      32.408  24.545  23.917  1.00  0.00     0.170 HD
BRANCH  14  16
ATOM     16  C   UNL A   1      33.277  23.822  26.228  1.00  0.00     0.170 C 
BRANCH  16  17
ATOM     17  S   UNL A   1      33.616  22.565  24.971  1.00  0.00    -0.146 SA
BRANCH  17  18
ATOM     18  C   UNL A   1      32.158  21.459  25.042  1.00  0.00     0.116 C 
BRANCH  18  19
ATOM     19  C   UNL A   1      32.445  20.179  24.336  1.00  0.00     0.016 A 
ATOM     20  C   UNL A   1      32.154  19.834  23.029  1.00  0.00     0.018 A 
ATOM     21  S   UNL A   1      33.238  18.896  25.163  1.00  0.00    -0.128 S 
ATOM     22  C   UNL A   1      32.526  18.488  22.732  1.00  0.00     0.033 A 
ATOM     23  C   UNL A   1      33.110  17.884  23.814  1.00  0.00     0.093 A 
ATOM     24  Cl  UNL A   1      33.684  16.269  23.905  1.00  0.00    -0.072 Cl
ENDBRANCH  18  19
ENDBRANCH  17  18
ENDBRANCH  16  17
ENDBRANCH  14  16
ENDBRANCH   8  12
ENDBRANCH   4   7
ENDBRANCH   2   3
ENDBRANCH   1   2
BRANCH   1  25
ATOM     25  C   UNL A   1      32.892  30.199  27.101  1.00  0.00     0.002 C 
BRANCH  25  26
ATOM     26  C   UNL A   1      31.601  30.813  26.545  1.00  0.00     0.002 C 
BRANCH  26  27
ATOM     27  C   UNL A   1      31.449  32.328  26.725  1.00  0.00     0.021 C 
BRANCH  27  28
ATOM     28  C   UNL A   1      32.709  33.058  27.187  1.00  0.00     0.116 C 
BRANCH  28  29
ATOM     29  N   UNL A   1      32.428  34.382  27.714  1.00  0.00    -0.352 N 
ATOM     30  C   UNL A   1      33.008  35.059  28.757  1.00  0.00     0.251 C 
ATOM     31  H   UNL A   1      31.710  34.869  27.250  1.00  0.00     0.163 HD
ATOM     32  O   UNL A   1      32.528  36.127  29.129  1.00  0.00    -0.269 OA
BRANCH  30  33
ATOM     33  C   UNL A   1      34.181  34.503  29.467  1.00  0.00     0.039 A 
ATOM     34  C   UNL A   1      33.986  33.956  30.738  1.00  0.00     0.014 A 
ATOM     35  C   UNL A   1      35.465  34.536  28.913  1.00  0.00     0.014 A 
ATOM     36  C   UNL A   1      35.058  33.384  31.425  1.00  0.00     0.010 A 
ATOM     37  C   UNL A   1      36.523  33.905  29.571  1.00  0.00     0.010 A 
ATOM     38  C   UNL A   1      36.329  33.319  30.831  1.00  0.00    -0.014 A 
BRANCH  38  39
ATOM     39  C   UNL A   1      37.452  32.624  31.516  1.00  0.00     0.031 A 
ATOM     40  C   UNL A   1      38.139  31.457  30.865  1.00  0.00     0.074 A 
ATOM     41  C   UNL A   1      37.829  33.024  32.745  1.00  0.00     0.049 A 
ATOM     42  N   UNL A   1      39.115  30.710  31.322  1.00  0.00    -0.248 NA
ATOM     43  C   UNL A   1      37.659  31.067  29.532  1.00  0.00     0.031 C 
ATOM     44  C   UNL A   1      37.225  34.126  33.496  1.00  0.00     0.029 A 
ATOM     45  N   UNL A   1      38.807  32.548  33.584  1.00  0.00    -0.354 N 
ATOM     46  C   UNL A   1      39.360  29.764  30.336  1.00  0.00     0.074 A 
ATOM     47  C   UNL A   1      38.396  29.996  29.280  1.00  0.00     0.031 C 
ATOM     48  C   UNL A   1      37.863  34.259  34.670  1.00  0.00     0.029 A 
ATOM     49  C   UNL A   1      38.891  33.227  34.775  1.00  0.00     0.049 A 
ATOM     50  H   UNL A   1      39.393  31.791  33.353  1.00  0.00     0.167 HD
ATOM     51  C   UNL A   1      40.316  28.803  30.303  1.00  0.00     0.037 A 
ATOM     52  C   UNL A   1      39.699  33.037  35.835  1.00  0.00     0.037 A 
ATOM     53  C   UNL A   1      41.276  28.576  31.352  1.00  0.00     0.049 A 
ATOM     54  C   UNL A   1      40.717  31.928  35.795  1.00  0.00     0.074 A 
ATOM     55  C   UNL A   1      42.309  27.655  31.394  1.00  0.00     0.029 A 
ATOM     56  N   UNL A   1      41.315  29.271  32.552  1.00  0.00    -0.354 N 
ATOM     57  N   UNL A   1      40.981  31.081  34.831  1.00  0.00    -0.248 NA
ATOM     58  C   UNL A   1      41.550  31.752  36.993  1.00  0.00     0.031 C 
ATOM     59  C   UNL A   1      42.937  27.756  32.639  1.00  0.00     0.029 A 
ATOM     60  C   UNL A   1      42.334  28.778  33.353  1.00  0.00     0.049 A 
ATOM     61  H   UNL A   1      40.708  30.006  32.799  1.00  0.00     0.167 HD
ATOM     62  C   UNL A   1      42.029  30.295  35.290  1.00  0.00     0.074 A 
ATOM     63  C   UNL A   1      42.361  30.773  36.617  1.00  0.00     0.031 C 
ATOM     64  C   UNL A   1      42.660  29.268  34.669  1.00  0.00     0.037 A 
BRANCH  51  65
ATOM     65  C   UNL A   1      40.365  27.918  29.089  1.00  0.00     0.064 A 
ATOM     66  C   UNL A   1      41.140  28.252  27.967  1.00  0.00     0.173 A 
ATOM     67  C   UNL A   1      39.654  26.710  29.058  1.00  0.00     0.173 A 
ATOM     68  F   UNL A   1      41.835  29.399  27.944  1.00  0.00    -0.203 F 
ATOM     69  C   UNL A   1      41.171  27.427  26.846  1.00  0.00     0.198 A 
ATOM     70  C   UNL A   1      39.713  25.872  27.947  1.00  0.00     0.198 A 
ATOM     71  F   UNL A   1      38.905  26.337  30.106  1.00  0.00    -0.203 F 
ATOM     72  F   UNL A   1      41.876  27.793  25.766  1.00  0.00    -0.200 F 
ATOM     73  C   UNL A   1      40.464  26.235  26.839  1.00  0.00     0.200 A 
ATOM     74  F   UNL A   1      39.041  24.711  27.949  1.00  0.00    -0.200 F 
ATOM     75  F   UNL A   1      40.499  25.438  25.761  1.00  0.00    -0.200 F 
ENDBRANCH  51  65
BRANCH  52  76
ATOM     76  C   UNL A   1      39.594  33.929  37.019  1.00  0.00     0.064 A 
ATOM     77  C   UNL A   1      38.805  33.570  38.121  1.00  0.00     0.173 A 
ATOM     78  C   UNL A   1      40.268  35.157  37.073  1.00  0.00     0.173 A 
ATOM     79  F   UNL A   1      38.122  32.416  38.107  1.00  0.00    -0.203 F 
ATOM     80  C   UNL A   1      38.678  34.414  39.222  1.00  0.00     0.198 A 
ATOM     81  C   UNL A   1      40.165  35.987  38.188  1.00  0.00     0.198 A 
ATOM     82  F   UNL A   1      41.040  35.547  36.047  1.00  0.00    -0.203 F 
ATOM     83  F   UNL A   1      37.879  34.068  40.241  1.00  0.00    -0.200 F 
ATOM     84  C   UNL A   1      39.363  35.619  39.257  1.00  0.00     0.200 A 
ATOM     85  F   UNL A   1      40.842  37.143  38.224  1.00  0.00    -0.200 F 
ATOM     86  F   UNL A   1      39.245  36.429  40.319  1.00  0.00    -0.200 F 
ENDBRANCH  52  76
BRANCH  64  87
ATOM     87  C   UNL A   1      43.799  28.615  35.398  1.00  0.00     0.064 A 
ATOM     88  C   UNL A   1      45.121  29.062  35.256  1.00  0.00     0.173 A 
ATOM     89  C   UNL A   1      43.557  27.554  36.285  1.00  0.00     0.173 A 
ATOM     90  F   UNL A   1      45.408  30.062  34.409  1.00  0.00    -0.203 F 
ATOM     91  C   UNL A   1      46.161  28.456  35.954  1.00  0.00     0.198 A 
ATOM     92  C   UNL A   1      44.596  26.970  37.005  1.00  0.00     0.198 A 
ATOM     93  F   UNL A   1      42.311  27.090  36.461  1.00  0.00    -0.203 F 
ATOM     94  F   UNL A   1      47.422  28.867  35.766  1.00  0.00    -0.200 F 
ATOM     95  C   UNL A   1      45.897  27.417  36.835  1.00  0.00     0.200 A 
ATOM     96  F   UNL A   1      44.336  25.976  37.866  1.00  0.00    -0.200 F 
ATOM     97  F   UNL A   1      46.899  26.840  37.514  1.00  0.00    -0.200 F 
ENDBRANCH  64  87
ENDBRANCH  38  39
ENDBRANCH  30  33
ENDBRANCH  28  29
ENDBRANCH  27  28
ENDBRANCH  26  27
ENDBRANCH  25  26
ENDBRANCH   1  25
TORSDOF 18
ENDMDL
