MODEL 1
REMARK VINA RESULT:     -11.9      0.000      0.000
REMARK SMILES CC(=O)c1cn(CC(=O)NCC(=O)NCC(=O)NCCCCCCNC(=O)c2ccc(-c3c4nc(c(-c5c(F)c(F)c(F)c(F)c5F)c5ccc([nH]5)c(-c5c(F)c(F)c(F)c(F)c5F)c5nc(c(-c6c(F)c(F)c(F)c(F)c6F)c6ccc3[nH]6)C=C5)C=C4)cc2)c2ccccc12
REMARK SMILES IDX 19 1 18 2 16 3 17 4 15 6 14 7 12 8 13 9 11 11 10 12 8 13
REMARK SMILES IDX 9 14 7 16 6 17 4 18 5 19 96 20 91 21 95 22 92 23 94 24 93 25
REMARK SMILES IDX 2 26 1 27 3 28 20 29 21 30 22 31 23 32 24 33 25 34 26 35
REMARK SMILES IDX 27 37 28 38 29 39 90 40 30 41 89 42 31 43 32 44 33 45 83 46
REMARK SMILES IDX 34 47 88 48 82 49 84 50 35 51 87 52 81 53 80 54 36 56 68 57
REMARK SMILES IDX 48 58 67 59 49 60 52 61 66 62 85 63 50 64 51 65 65 67 86 68
REMARK SMILES IDX 53 69 37 70 38 71 46 72 39 73 40 74 44 75 47 76 41 77 42 78
REMARK SMILES IDX 45 79 43 80 69 81 70 82 78 83 71 84 72 85 76 86 79 87 73 88
REMARK SMILES IDX 74 89 77 90 75 91 54 92 55 93 63 94 56 95 57 96 61 97 64 98
REMARK SMILES IDX 58 99 59 100 62 101 60 102
REMARK H PARENT 18 5 14 10 10 15 25 36 84 55 52 66
REMARK Flexibility Score: inf
ROOT
ATOM      1  C   UNL A   1      39.591  21.310  26.107  1.00  0.00     0.116 C 
ENDROOT
BRANCH   1   2
ATOM      2  N   UNL A   1      38.863  22.521  25.823  1.00  0.00    -0.355 N 
ATOM      3  C   UNL A   1      37.570  22.630  25.400  1.00  0.00     0.239 C 
ATOM      4  O   UNL A   1      37.181  23.718  24.972  1.00  0.00    -0.273 OA
ATOM      5  H   UNL A   1      39.354  23.365  25.950  1.00  0.00     0.163 HD
BRANCH   3   6
ATOM      6  C   UNL A   1      36.610  21.448  25.595  1.00  0.00     0.216 C 
BRANCH   6   7
ATOM      7  N   UNL A   1      35.583  21.566  26.614  1.00  0.00    -0.346 N 
ATOM      8  C   UNL A   1      34.270  21.920  26.472  1.00  0.00     0.239 C 
ATOM      9  O   UNL A   1      33.541  21.807  27.461  1.00  0.00    -0.273 OA
ATOM     10  H   UNL A   1      35.870  21.363  27.533  1.00  0.00     0.164 HD
BRANCH   8  11
ATOM     11  C   UNL A   1      33.682  22.378  25.114  1.00  0.00     0.216 C 
BRANCH  11  12
ATOM     12  N   UNL A   1      34.136  23.692  24.670  1.00  0.00    -0.345 N 
ATOM     13  C   UNL A   1      33.512  24.902  24.602  1.00  0.00     0.240 C 
ATOM     14  O   UNL A   1      34.112  25.799  23.998  1.00  0.00    -0.273 OA
ATOM     15  H   UNL A   1      35.071  23.707  24.362  1.00  0.00     0.164 HD
BRANCH  13  16
ATOM     16  C   UNL A   1      32.205  25.189  25.316  1.00  0.00     0.222 C 
BRANCH  16  17
ATOM     17  N   UNL A   1      31.666  26.525  25.109  1.00  0.00    -0.337 N 
ATOM     18  C   UNL A   1      30.626  28.186  24.037  1.00  0.00     0.043 A 
ATOM     19  C   UNL A   1      30.702  26.813  24.183  1.00  0.00     0.099 A 
ATOM     20  C   UNL A   1      31.431  28.748  25.084  1.00  0.00     0.010 A 
ATOM     21  C   UNL A   1      32.049  27.680  25.758  1.00  0.00     0.049 A 
ATOM     22  C   UNL A   1      31.729  30.061  25.512  1.00  0.00     0.011 A 
ATOM     23  C   UNL A   1      32.946  27.882  26.821  1.00  0.00     0.027 A 
ATOM     24  C   UNL A   1      32.630  30.270  26.562  1.00  0.00     0.001 A 
ATOM     25  C   UNL A   1      33.230  29.194  27.205  1.00  0.00     0.002 A 
BRANCH  18  26
ATOM     26  C   UNL A   1      29.864  28.811  22.957  1.00  0.00     0.161 C 
ATOM     27  C   UNL A   1      28.846  29.868  23.296  1.00  0.00     0.093 C 
ATOM     28  O   UNL A   1      30.139  28.580  21.776  1.00  0.00    -0.294 OA
ENDBRANCH  18  26
ENDBRANCH  16  17
ENDBRANCH  13  16
ENDBRANCH  11  12
ENDBRANCH   8  11
ENDBRANCH   6   7
ENDBRANCH   3   6
ENDBRANCH   1   2
BRANCH   1  29
ATOM     29  C   UNL A   1      40.570  21.537  27.250  1.00  0.00     0.021 C 
BRANCH  29  30
ATOM     30  C   UNL A   1      41.613  20.424  27.350  1.00  0.00     0.002 C 
BRANCH  30  31
ATOM     31  C   UNL A   1      41.627  19.466  26.153  1.00  0.00     0.002 C 
BRANCH  31  32
ATOM     32  C   UNL A   1      42.570  18.261  26.289  1.00  0.00     0.021 C 
BRANCH  32  33
ATOM     33  C   UNL A   1      44.056  18.623  26.256  1.00  0.00     0.116 C 
BRANCH  33  34
ATOM     34  N   UNL A   1      44.479  19.124  24.966  1.00  0.00    -0.352 N 
ATOM     35  C   UNL A   1      44.588  20.354  24.386  1.00  0.00     0.251 C 
ATOM     36  H   UNL A   1      44.755  18.401  24.357  1.00  0.00     0.163 HD
ATOM     37  O   UNL A   1      44.990  20.364  23.220  1.00  0.00    -0.269 OA
BRANCH  35  38
ATOM     38  C   UNL A   1      44.252  21.653  25.033  1.00  0.00     0.039 A 
ATOM     39  C   UNL A   1      43.198  22.496  24.686  1.00  0.00     0.014 A 
ATOM     40  C   UNL A   1      45.103  22.050  26.085  1.00  0.00     0.014 A 
ATOM     41  C   UNL A   1      43.022  23.714  25.342  1.00  0.00     0.010 A 
ATOM     42  C   UNL A   1      44.923  23.260  26.752  1.00  0.00     0.010 A 
ATOM     43  C   UNL A   1      43.894  24.110  26.362  1.00  0.00    -0.014 A 
BRANCH  43  44
ATOM     44  C   UNL A   1      43.628  25.382  27.031  1.00  0.00     0.031 A 
ATOM     45  C   UNL A   1      44.578  26.494  26.731  1.00  0.00     0.074 A 
ATOM     46  C   UNL A   1      42.562  25.634  27.817  1.00  0.00     0.049 A 
ATOM     47  N   UNL A   1      45.358  27.112  27.558  1.00  0.00    -0.248 NA
ATOM     48  C   UNL A   1      44.717  26.932  25.336  1.00  0.00     0.031 C 
ATOM     49  C   UNL A   1      41.373  24.815  28.039  1.00  0.00     0.029 A 
ATOM     50  N   UNL A   1      42.299  26.766  28.536  1.00  0.00    -0.354 N 
ATOM     51  C   UNL A   1      45.995  28.114  26.827  1.00  0.00     0.074 A 
ATOM     52  C   UNL A   1      45.630  27.901  25.450  1.00  0.00     0.031 C 
ATOM     53  C   UNL A   1      40.429  25.560  28.657  1.00  0.00     0.029 A 
ATOM     54  C   UNL A   1      40.995  26.856  28.995  1.00  0.00     0.049 A 
ATOM     55  H   UNL A   1      42.976  27.457  28.713  1.00  0.00     0.167 HD
ATOM     56  C   UNL A   1      46.652  29.140  27.438  1.00  0.00     0.037 A 
ATOM     57  C   UNL A   1      40.409  27.943  29.555  1.00  0.00     0.037 A 
ATOM     58  C   UNL A   1      46.964  28.830  28.808  1.00  0.00     0.049 A 
ATOM     59  C   UNL A   1      41.489  28.802  30.104  1.00  0.00     0.074 A 
ATOM     60  C   UNL A   1      47.684  27.830  29.435  1.00  0.00     0.029 A 
ATOM     61  N   UNL A   1      46.248  29.439  29.808  1.00  0.00    -0.354 N 
ATOM     62  N   UNL A   1      42.218  28.492  31.140  1.00  0.00    -0.248 NA
ATOM     63  C   UNL A   1      42.032  29.846  29.247  1.00  0.00     0.031 C 
ATOM     64  C   UNL A   1      46.966  27.560  30.637  1.00  0.00     0.029 A 
ATOM     65  C   UNL A   1      45.889  28.444  30.678  1.00  0.00     0.049 A 
ATOM     66  H   UNL A   1      46.036  30.397  29.886  1.00  0.00     0.167 HD
ATOM     67  C   UNL A   1      43.480  28.973  30.835  1.00  0.00     0.074 A 
ATOM     68  C   UNL A   1      43.283  29.883  29.710  1.00  0.00     0.031 C 
ATOM     69  C   UNL A   1      44.605  28.383  31.332  1.00  0.00     0.037 A 
BRANCH  56  70
ATOM     70  C   UNL A   1      46.741  30.552  26.910  1.00  0.00     0.064 A 
ATOM     71  C   UNL A   1      47.988  31.213  26.915  1.00  0.00     0.173 A 
ATOM     72  C   UNL A   1      45.616  31.379  26.713  1.00  0.00     0.173 A 
ATOM     73  F   UNL A   1      49.126  30.526  27.099  1.00  0.00    -0.203 F 
ATOM     74  C   UNL A   1      48.089  32.603  26.840  1.00  0.00     0.198 A 
ATOM     75  C   UNL A   1      45.725  32.763  26.584  1.00  0.00     0.198 A 
ATOM     76  F   UNL A   1      44.367  30.899  26.753  1.00  0.00    -0.203 F 
ATOM     77  F   UNL A   1      49.282  33.194  26.995  1.00  0.00    -0.200 F 
ATOM     78  C   UNL A   1      46.956  33.379  26.687  1.00  0.00     0.200 A 
ATOM     79  F   UNL A   1      44.614  33.501  26.448  1.00  0.00    -0.200 F 
ATOM     80  F   UNL A   1      47.040  34.715  26.687  1.00  0.00    -0.200 F 
ENDBRANCH  56  70
BRANCH  57  81
ATOM     81  C   UNL A   1      39.011  28.414  29.405  1.00  0.00     0.064 A 
ATOM     82  C   UNL A   1      38.194  28.628  30.529  1.00  0.00     0.173 A 
ATOM     83  C   UNL A   1      38.533  28.926  28.183  1.00  0.00     0.173 A 
ATOM     84  F   UNL A   1      38.591  28.217  31.742  1.00  0.00    -0.203 F 
ATOM     85  C   UNL A   1      36.990  29.337  30.438  1.00  0.00     0.198 A 
ATOM     86  C   UNL A   1      37.326  29.621  28.091  1.00  0.00     0.198 A 
ATOM     87  F   UNL A   1      39.270  28.851  27.065  1.00  0.00    -0.203 F 
ATOM     88  F   UNL A   1      36.274  29.580  31.545  1.00  0.00    -0.200 F 
ATOM     89  C   UNL A   1      36.562  29.840  29.222  1.00  0.00     0.200 A 
ATOM     90  F   UNL A   1      36.942  30.131  26.912  1.00  0.00    -0.200 F 
ATOM     91  F   UNL A   1      35.441  30.570  29.144  1.00  0.00    -0.200 F 
ENDBRANCH  57  81
BRANCH  69  92
ATOM     92  C   UNL A   1      44.471  27.376  32.436  1.00  0.00     0.064 A 
ATOM     93  C   UNL A   1      44.221  26.011  32.219  1.00  0.00     0.173 A 
ATOM     94  C   UNL A   1      44.808  27.775  33.737  1.00  0.00     0.173 A 
ATOM     95  F   UNL A   1      43.994  25.536  30.988  1.00  0.00    -0.203 F 
ATOM     96  C   UNL A   1      44.281  25.094  33.268  1.00  0.00     0.198 A 
ATOM     97  C   UNL A   1      44.903  26.852  34.774  1.00  0.00     0.198 A 
ATOM     98  F   UNL A   1      45.111  29.059  33.991  1.00  0.00    -0.203 F 
ATOM     99  F   UNL A   1      44.045  23.795  33.036  1.00  0.00    -0.200 F 
ATOM    100  C   UNL A   1      44.634  25.514  34.539  1.00  0.00     0.200 A 
ATOM    101  F   UNL A   1      45.297  27.254  35.990  1.00  0.00    -0.200 F 
ATOM    102  F   UNL A   1      44.751  24.621  35.533  1.00  0.00    -0.200 F 
ENDBRANCH  69  92
ENDBRANCH  43  44
ENDBRANCH  35  38
ENDBRANCH  33  34
ENDBRANCH  32  33
ENDBRANCH  31  32
ENDBRANCH  30  31
ENDBRANCH  29  30
ENDBRANCH   1  29
TORSDOF 19
ENDMDL
MODEL 2
REMARK VINA RESULT:     -11.6      2.688      3.634
REMARK SMILES CC(=O)c1cn(CC(=O)NCC(=O)NCC(=O)NCCCCCCNC(=O)c2ccc(-c3c4nc(c(-c5c(F)c(F)c(F)c(F)c5F)c5ccc([nH]5)c(-c5c(F)c(F)c(F)c(F)c5F)c5nc(c(-c6c(F)c(F)c(F)c(F)c6F)c6ccc3[nH]6)C=C5)C=C4)cc2)c2ccccc12
REMARK SMILES IDX 19 1 18 2 16 3 17 4 15 6 14 7 12 8 13 9 11 11 10 12 8 13
REMARK SMILES IDX 9 14 7 16 6 17 4 18 5 19 96 20 91 21 95 22 92 23 94 24 93 25
REMARK SMILES IDX 2 26 1 27 3 28 20 29 21 30 22 31 23 32 24 33 25 34 26 35
REMARK SMILES IDX 27 37 28 38 29 39 90 40 30 41 89 42 31 43 32 44 33 45 83 46
REMARK SMILES IDX 34 47 88 48 82 49 84 50 35 51 87 52 81 53 80 54 36 56 68 57
REMARK SMILES IDX 48 58 67 59 49 60 52 61 66 62 85 63 50 64 51 65 65 67 86 68
REMARK SMILES IDX 53 69 37 70 38 71 46 72 39 73 40 74 44 75 47 76 41 77 42 78
REMARK SMILES IDX 45 79 43 80 69 81 70 82 78 83 71 84 72 85 76 86 79 87 73 88
REMARK SMILES IDX 74 89 77 90 75 91 54 92 55 93 63 94 56 95 57 96 61 97 64 98
REMARK SMILES IDX 58 99 59 100 62 101 60 102
REMARK H PARENT 18 5 14 10 10 15 25 36 84 55 52 66
REMARK Flexibility Score: inf
ROOT
ATOM      1  C   UNL A   1      37.509  23.739  25.984  1.00  0.00     0.116 C 
ENDROOT
BRANCH   1   2
ATOM      2  N   UNL A   1      37.407  23.653  24.549  1.00  0.00    -0.355 N 
ATOM      3  C   UNL A   1      36.378  23.129  23.821  1.00  0.00     0.239 C 
ATOM      4  O   UNL A   1      36.556  22.912  22.621  1.00  0.00    -0.273 OA
ATOM      5  H   UNL A   1      38.167  24.012  24.035  1.00  0.00     0.163 HD
BRANCH   3   6
ATOM      6  C   UNL A   1      35.000  22.958  24.478  1.00  0.00     0.216 C 
BRANCH   6   7
ATOM      7  N   UNL A   1      33.869  22.657  23.620  1.00  0.00    -0.346 N 
ATOM      8  C   UNL A   1      32.661  22.111  23.952  1.00  0.00     0.239 C 
ATOM      9  O   UNL A   1      31.790  22.084  23.079  1.00  0.00    -0.273 OA
ATOM     10  H   UNL A   1      33.988  22.875  22.668  1.00  0.00     0.164 HD
BRANCH   8  11
ATOM     11  C   UNL A   1      32.351  21.607  25.384  1.00  0.00     0.216 C 
BRANCH  11  12
ATOM     12  N   UNL A   1      31.202  22.247  26.015  1.00  0.00    -0.345 N 
ATOM     13  C   UNL A   1      31.054  23.447  26.646  1.00  0.00     0.240 C 
ATOM     14  O   UNL A   1      29.989  23.627  27.248  1.00  0.00    -0.273 OA
ATOM     15  H   UNL A   1      30.377  21.712  25.979  1.00  0.00     0.164 HD
BRANCH  13  16
ATOM     16  C   UNL A   1      32.079  24.561  26.536  1.00  0.00     0.222 C 
BRANCH  16  17
ATOM     17  N   UNL A   1      31.686  25.682  25.695  1.00  0.00    -0.337 N 
ATOM     18  C   UNL A   1      31.284  26.800  23.803  1.00  0.00     0.043 A 
ATOM     19  C   UNL A   1      31.309  25.547  24.387  1.00  0.00     0.099 A 
ATOM     20  C   UNL A   1      31.444  27.745  24.871  1.00  0.00     0.010 A 
ATOM     21  C   UNL A   1      31.665  27.014  26.051  1.00  0.00     0.049 A 
ATOM     22  C   UNL A   1      31.457  29.156  24.955  1.00  0.00     0.011 A 
ATOM     23  C   UNL A   1      31.905  27.638  27.287  1.00  0.00     0.027 A 
ATOM     24  C   UNL A   1      31.706  29.784  26.180  1.00  0.00     0.001 A 
ATOM     25  C   UNL A   1      31.928  29.034  27.328  1.00  0.00     0.002 A 
BRANCH  18  26
ATOM     26  C   UNL A   1      31.152  26.981  22.358  1.00  0.00     0.161 C 
ATOM     27  C   UNL A   1      31.865  26.029  21.434  1.00  0.00     0.093 C 
ATOM     28  O   UNL A   1      30.366  27.813  21.896  1.00  0.00    -0.294 OA
ENDBRANCH  18  26
ENDBRANCH  16  17
ENDBRANCH  13  16
ENDBRANCH  11  12
ENDBRANCH   8  11
ENDBRANCH   6   7
ENDBRANCH   3   6
ENDBRANCH   1   2
BRANCH   1  29
ATOM     29  C   UNL A   1      38.776  23.049  26.466  1.00  0.00     0.021 C 
BRANCH  29  30
ATOM     30  C   UNL A   1      38.884  21.612  25.958  1.00  0.00     0.002 C 
BRANCH  30  31
ATOM     31  C   UNL A   1      40.228  20.938  26.256  1.00  0.00     0.002 C 
BRANCH  31  32
ATOM     32  C   UNL A   1      40.806  21.218  27.652  1.00  0.00     0.021 C 
BRANCH  32  33
ATOM     33  C   UNL A   1      42.269  21.667  27.643  1.00  0.00     0.116 C 
BRANCH  33  34
ATOM     34  N   UNL A   1      42.685  22.184  26.357  1.00  0.00    -0.352 N 
ATOM     35  C   UNL A   1      42.865  23.424  25.817  1.00  0.00     0.251 C 
ATOM     36  H   UNL A   1      42.889  21.466  25.716  1.00  0.00     0.163 HD
ATOM     37  O   UNL A   1      43.229  23.447  24.638  1.00  0.00    -0.269 OA
BRANCH  35  38
ATOM     38  C   UNL A   1      42.644  24.718  26.519  1.00  0.00     0.039 A 
ATOM     39  C   UNL A   1      43.333  25.173  27.642  1.00  0.00     0.014 A 
ATOM     40  C   UNL A   1      41.629  25.538  25.985  1.00  0.00     0.014 A 
ATOM     41  C   UNL A   1      42.994  26.387  28.236  1.00  0.00     0.010 A 
ATOM     42  C   UNL A   1      41.295  26.759  26.567  1.00  0.00     0.010 A 
ATOM     43  C   UNL A   1      41.961  27.175  27.714  1.00  0.00    -0.014 A 
BRANCH  43  44
ATOM     44  C   UNL A   1      41.683  28.454  28.366  1.00  0.00     0.031 A 
ATOM     45  C   UNL A   1      42.696  29.530  28.159  1.00  0.00     0.074 A 
ATOM     46  C   UNL A   1      40.563  28.741  29.057  1.00  0.00     0.049 A 
ATOM     47  N   UNL A   1      43.422  30.116  29.056  1.00  0.00    -0.248 NA
ATOM     48  C   UNL A   1      42.974  29.969  26.785  1.00  0.00     0.031 C 
ATOM     49  C   UNL A   1      39.329  27.966  29.168  1.00  0.00     0.029 A 
ATOM     50  N   UNL A   1      40.279  29.879  29.759  1.00  0.00    -0.354 N 
ATOM     51  C   UNL A   1      44.157  31.096  28.390  1.00  0.00     0.074 A 
ATOM     52  C   UNL A   1      43.907  30.903  26.985  1.00  0.00     0.031 C 
ATOM     53  C   UNL A   1      38.363  28.743  29.707  1.00  0.00     0.029 A 
ATOM     54  C   UNL A   1      38.943  30.016  30.102  1.00  0.00     0.049 A 
ATOM     55  H   UNL A   1      40.963  30.544  30.000  1.00  0.00     0.167 HD
ATOM     56  C   UNL A   1      44.795  32.095  29.065  1.00  0.00     0.037 A 
ATOM     57  C   UNL A   1      38.351  31.122  30.617  1.00  0.00     0.037 A 
ATOM     58  C   UNL A   1      44.974  31.768  30.455  1.00  0.00     0.049 A 
ATOM     59  C   UNL A   1      39.409  31.938  31.265  1.00  0.00     0.074 A 
ATOM     60  C   UNL A   1      45.600  30.739  31.134  1.00  0.00     0.029 A 
ATOM     61  N   UNL A   1      44.196  32.399  31.393  1.00  0.00    -0.354 N 
ATOM     62  N   UNL A   1      40.032  31.597  32.359  1.00  0.00    -0.248 NA
ATOM     63  C   UNL A   1      40.063  32.964  30.467  1.00  0.00     0.031 C 
ATOM     64  C   UNL A   1      44.769  30.491  32.267  1.00  0.00     0.029 A 
ATOM     65  C   UNL A   1      43.726  31.414  32.220  1.00  0.00     0.049 A 
ATOM     66  H   UNL A   1      44.013  33.364  31.458  1.00  0.00     0.167 HD
ATOM     67  C   UNL A   1      41.333  32.032  32.169  1.00  0.00     0.074 A 
ATOM     68  C   UNL A   1      41.269  32.953  31.038  1.00  0.00     0.031 C 
ATOM     69  C   UNL A   1      42.388  31.398  32.758  1.00  0.00     0.037 A 
BRANCH  56  70
ATOM     70  C   UNL A   1      44.981  33.505  28.557  1.00  0.00     0.064 A 
ATOM     71  C   UNL A   1      46.279  34.059  28.522  1.00  0.00     0.173 A 
ATOM     72  C   UNL A   1      43.923  34.426  28.420  1.00  0.00     0.173 A 
ATOM     73  F   UNL A   1      47.362  33.276  28.648  1.00  0.00    -0.203 F 
ATOM     74  C   UNL A   1      46.494  35.438  28.466  1.00  0.00     0.198 A 
ATOM     75  C   UNL A   1      44.143  35.799  28.310  1.00  0.00     0.198 A 
ATOM     76  F   UNL A   1      42.641  34.052  28.502  1.00  0.00    -0.203 F 
ATOM     77  F   UNL A   1      47.737  35.924  28.582  1.00  0.00    -0.200 F 
ATOM     78  C   UNL A   1      45.425  36.308  28.372  1.00  0.00     0.200 A 
ATOM     79  F   UNL A   1      43.094  36.629  28.231  1.00  0.00    -0.200 F 
ATOM     80  F   UNL A   1      45.621  37.633  28.391  1.00  0.00    -0.200 F 
ENDBRANCH  56  70
BRANCH  57  81
ATOM     81  C   UNL A   1      36.990  31.644  30.348  1.00  0.00     0.064 A 
ATOM     82  C   UNL A   1      36.066  31.831  31.392  1.00  0.00     0.173 A 
ATOM     83  C   UNL A   1      36.655  32.230  29.111  1.00  0.00     0.173 A 
ATOM     84  F   UNL A   1      36.323  31.351  32.617  1.00  0.00    -0.203 F 
ATOM     85  C   UNL A   1      34.899  32.583  31.214  1.00  0.00     0.198 A 
ATOM     86  C   UNL A   1      35.484  32.967  28.931  1.00  0.00     0.198 A 
ATOM     87  F   UNL A   1      37.502  32.183  28.073  1.00  0.00    -0.203 F 
ATOM     88  F   UNL A   1      34.078  32.797  32.253  1.00  0.00    -0.200 F 
ATOM     89  C   UNL A   1      34.613  33.156  29.987  1.00  0.00     0.200 A 
ATOM     90  F   UNL A   1      35.239  33.545  27.747  1.00  0.00    -0.200 F 
ATOM     91  F   UNL A   1      33.527  33.926  29.832  1.00  0.00    -0.200 F 
ENDBRANCH  57  81
BRANCH  69  92
ATOM     92  C   UNL A   1      42.121  30.392  33.838  1.00  0.00     0.064 A 
ATOM     93  C   UNL A   1      41.757  29.058  33.589  1.00  0.00     0.173 A 
ATOM     94  C   UNL A   1      42.441  30.741  35.159  1.00  0.00     0.173 A 
ATOM     95  F   UNL A   1      41.536  28.623  32.342  1.00  0.00    -0.203 F 
ATOM     96  C   UNL A   1      41.693  28.125  34.623  1.00  0.00     0.198 A 
ATOM     97  C   UNL A   1      42.412  29.798  36.182  1.00  0.00     0.198 A 
ATOM     98  F   UNL A   1      42.848  31.988  35.446  1.00  0.00    -0.203 F 
ATOM     99  F   UNL A   1      41.350  26.856  34.360  1.00  0.00    -0.200 F 
ATOM    100  C   UNL A   1      42.033  28.494  35.914  1.00  0.00     0.200 A 
ATOM    101  F   UNL A   1      42.792  30.146  37.419  1.00  0.00    -0.200 F 
ATOM    102  F   UNL A   1      42.029  27.581  36.896  1.00  0.00    -0.200 F 
ENDBRANCH  69  92
ENDBRANCH  43  44
ENDBRANCH  35  38
ENDBRANCH  33  34
ENDBRANCH  32  33
ENDBRANCH  31  32
ENDBRANCH  30  31
ENDBRANCH  29  30
ENDBRANCH   1  29
TORSDOF 19
ENDMDL
MODEL 3
REMARK VINA RESULT:     -11.3      3.906     10.064
REMARK SMILES CC(=O)c1cn(CC(=O)NCC(=O)NCC(=O)NCCCCCCNC(=O)c2ccc(-c3c4nc(c(-c5c(F)c(F)c(F)c(F)c5F)c5ccc([nH]5)c(-c5c(F)c(F)c(F)c(F)c5F)c5nc(c(-c6c(F)c(F)c(F)c(F)c6F)c6ccc3[nH]6)C=C5)C=C4)cc2)c2ccccc12
REMARK SMILES IDX 19 1 18 2 16 3 17 4 15 6 14 7 12 8 13 9 11 11 10 12 8 13
REMARK SMILES IDX 9 14 7 16 6 17 4 18 5 19 96 20 91 21 95 22 92 23 94 24 93 25
REMARK SMILES IDX 2 26 1 27 3 28 20 29 21 30 22 31 23 32 24 33 25 34 26 35
REMARK SMILES IDX 27 37 28 38 29 39 90 40 30 41 89 42 31 43 32 44 33 45 83 46
REMARK SMILES IDX 34 47 88 48 82 49 84 50 35 51 87 52 81 53 80 54 36 56 68 57
REMARK SMILES IDX 48 58 67 59 49 60 52 61 66 62 85 63 50 64 51 65 65 67 86 68
REMARK SMILES IDX 53 69 37 70 38 71 46 72 39 73 40 74 44 75 47 76 41 77 42 78
REMARK SMILES IDX 45 79 43 80 69 81 70 82 78 83 71 84 72 85 76 86 79 87 73 88
REMARK SMILES IDX 74 89 77 90 75 91 54 92 55 93 63 94 56 95 57 96 61 97 64 98
REMARK SMILES IDX 58 99 59 100 62 101 60 102
REMARK H PARENT 18 5 14 10 10 15 25 36 84 55 52 66
REMARK Flexibility Score: inf
ROOT
ATOM      1  C   UNL A   1      34.584  30.969  27.704  1.00  0.00     0.116 C 
ENDROOT
BRANCH   1   2
ATOM      2  N   UNL A   1      33.553  29.985  27.924  1.00  0.00    -0.355 N 
ATOM      3  C   UNL A   1      32.580  29.595  27.050  1.00  0.00     0.239 C 
ATOM      4  O   UNL A   1      31.637  28.927  27.479  1.00  0.00    -0.273 OA
ATOM      5  H   UNL A   1      33.551  29.545  28.805  1.00  0.00     0.163 HD
BRANCH   3   6
ATOM      6  C   UNL A   1      32.756  29.875  25.550  1.00  0.00     0.216 C 
BRANCH   6   7
ATOM      7  N   UNL A   1      31.585  29.786  24.699  1.00  0.00    -0.346 N 
ATOM      8  C   UNL A   1      31.168  28.744  23.919  1.00  0.00     0.239 C 
ATOM      9  O   UNL A   1      30.056  28.837  23.392  1.00  0.00    -0.273 OA
ATOM     10  H   UNL A   1      31.012  30.585  24.679  1.00  0.00     0.164 HD
BRANCH   8  11
ATOM     11  C   UNL A   1      32.010  27.455  23.747  1.00  0.00     0.216 C 
BRANCH  11  12
ATOM     12  N   UNL A   1      31.710  26.403  24.711  1.00  0.00    -0.345 N 
ATOM     13  C   UNL A   1      31.526  25.058  24.574  1.00  0.00     0.240 C 
ATOM     14  O   UNL A   1      31.095  24.456  25.563  1.00  0.00    -0.273 OA
ATOM     15  H   UNL A   1      31.624  26.723  25.638  1.00  0.00     0.164 HD
BRANCH  13  16
ATOM     16  C   UNL A   1      31.928  24.303  23.321  1.00  0.00     0.222 C 
BRANCH  16  17
ATOM     17  N   UNL A   1      32.637  23.053  23.553  1.00  0.00    -0.337 N 
ATOM     18  C   UNL A   1      32.892  20.870  23.951  1.00  0.00     0.043 A 
ATOM     19  C   UNL A   1      32.068  21.821  23.379  1.00  0.00     0.099 A 
ATOM     20  C   UNL A   1      34.112  21.545  24.291  1.00  0.00     0.010 A 
ATOM     21  C   UNL A   1      33.932  22.909  24.003  1.00  0.00     0.049 A 
ATOM     22  C   UNL A   1      35.347  21.144  24.848  1.00  0.00     0.011 A 
ATOM     23  C   UNL A   1      34.927  23.867  24.259  1.00  0.00     0.027 A 
ATOM     24  C   UNL A   1      36.338  22.095  25.117  1.00  0.00     0.001 A 
ATOM     25  C   UNL A   1      36.128  23.437  24.826  1.00  0.00     0.002 A 
BRANCH  18  26
ATOM     26  C   UNL A   1      32.462  19.486  24.146  1.00  0.00     0.161 C 
ATOM     27  C   UNL A   1      32.646  18.497  23.026  1.00  0.00     0.093 C 
ATOM     28  O   UNL A   1      32.076  19.096  25.253  1.00  0.00    -0.294 OA
ENDBRANCH  18  26
ENDBRANCH  16  17
ENDBRANCH  13  16
ENDBRANCH  11  12
ENDBRANCH   8  11
ENDBRANCH   6   7
ENDBRANCH   3   6
ENDBRANCH   1   2
BRANCH   1  29
ATOM     29  C   UNL A   1      34.093  32.349  28.113  1.00  0.00     0.021 C 
BRANCH  29  30
ATOM     30  C   UNL A   1      35.151  33.429  27.897  1.00  0.00     0.002 C 
BRANCH  30  31
ATOM     31  C   UNL A   1      34.874  34.740  28.643  1.00  0.00     0.002 C 
BRANCH  31  32
ATOM     32  C   UNL A   1      33.401  34.995  28.997  1.00  0.00     0.021 C 
BRANCH  32  33
ATOM     33  C   UNL A   1      33.173  36.236  29.861  1.00  0.00     0.116 C 
BRANCH  33  34
ATOM     34  N   UNL A   1      32.853  35.908  31.234  1.00  0.00    -0.352 N 
ATOM     35  C   UNL A   1      33.420  35.142  32.210  1.00  0.00     0.251 C 
ATOM     36  H   UNL A   1      32.025  36.345  31.538  1.00  0.00     0.163 HD
ATOM     37  O   UNL A   1      32.813  35.106  33.284  1.00  0.00    -0.269 OA
BRANCH  35  38
ATOM     38  C   UNL A   1      34.675  34.352  32.076  1.00  0.00     0.039 A 
ATOM     39  C   UNL A   1      35.974  34.851  32.154  1.00  0.00     0.014 A 
ATOM     40  C   UNL A   1      34.507  32.973  31.835  1.00  0.00     0.014 A 
ATOM     41  C   UNL A   1      37.068  34.010  31.960  1.00  0.00     0.010 A 
ATOM     42  C   UNL A   1      35.597  32.125  31.653  1.00  0.00     0.010 A 
ATOM     43  C   UNL A   1      36.884  32.649  31.689  1.00  0.00    -0.014 A 
BRANCH  43  44
ATOM     44  C   UNL A   1      38.077  31.818  31.532  1.00  0.00     0.031 A 
ATOM     45  C   UNL A   1      38.831  31.508  32.783  1.00  0.00     0.074 A 
ATOM     46  C   UNL A   1      38.485  31.262  30.374  1.00  0.00     0.049 A 
ATOM     47  N   UNL A   1      40.048  31.838  33.075  1.00  0.00    -0.248 NA
ATOM     48  C   UNL A   1      38.130  30.794  33.858  1.00  0.00     0.031 C 
ATOM     49  C   UNL A   1      37.784  31.192  29.094  1.00  0.00     0.029 A 
ATOM     50  N   UNL A   1      39.629  30.551  30.142  1.00  0.00    -0.354 N 
ATOM     51  C   UNL A   1      40.326  31.263  34.314  1.00  0.00     0.074 A 
ATOM     52  C   UNL A   1      39.085  30.707  34.788  1.00  0.00     0.031 C 
ATOM     53  C   UNL A   1      38.412  30.302  28.292  1.00  0.00     0.029 A 
ATOM     54  C   UNL A   1      39.628  29.849  28.948  1.00  0.00     0.049 A 
ATOM     55  H   UNL A   1      40.388  30.539  30.768  1.00  0.00     0.167 HD
ATOM     56  C   UNL A   1      41.602  31.152  34.782  1.00  0.00     0.037 A 
ATOM     57  C   UNL A   1      40.532  28.916  28.558  1.00  0.00     0.037 A 
ATOM     58  C   UNL A   1      42.499  32.044  34.096  1.00  0.00     0.049 A 
ATOM     59  C   UNL A   1      41.785  29.162  29.316  1.00  0.00     0.074 A 
ATOM     60  C   UNL A   1      42.552  33.413  33.912  1.00  0.00     0.029 A 
ATOM     61  N   UNL A   1      43.388  31.524  33.189  1.00  0.00    -0.354 N 
ATOM     62  N   UNL A   1      42.565  30.191  29.131  1.00  0.00    -0.248 NA
ATOM     63  C   UNL A   1      41.971  28.455  30.576  1.00  0.00     0.031 C 
ATOM     64  C   UNL A   1      43.043  33.585  32.585  1.00  0.00     0.029 A 
ATOM     65  C   UNL A   1      43.297  32.314  32.073  1.00  0.00     0.049 A 
ATOM     66  H   UNL A   1      43.974  30.742  33.314  1.00  0.00     0.167 HD
ATOM     67  C   UNL A   1      43.018  30.517  30.399  1.00  0.00     0.074 A 
ATOM     68  C   UNL A   1      42.704  29.358  31.230  1.00  0.00     0.031 C 
ATOM     69  C   UNL A   1      43.351  31.799  30.727  1.00  0.00     0.037 A 
BRANCH  56  70
ATOM     70  C   UNL A   1      42.118  30.021  35.640  1.00  0.00     0.064 A 
ATOM     71  C   UNL A   1      43.055  30.301  36.659  1.00  0.00     0.173 A 
ATOM     72  C   UNL A   1      41.985  28.662  35.294  1.00  0.00     0.173 A 
ATOM     73  F   UNL A   1      43.268  31.562  37.066  1.00  0.00    -0.203 F 
ATOM     74  C   UNL A   1      43.870  29.309  37.206  1.00  0.00     0.198 A 
ATOM     75  C   UNL A   1      42.764  27.665  35.881  1.00  0.00     0.198 A 
ATOM     76  F   UNL A   1      41.185  28.259  34.300  1.00  0.00    -0.203 F 
ATOM     77  F   UNL A   1      44.844  29.645  38.063  1.00  0.00    -0.200 F 
ATOM     78  C   UNL A   1      43.733  27.993  36.808  1.00  0.00     0.200 A 
ATOM     79  F   UNL A   1      42.626  26.396  35.474  1.00  0.00    -0.200 F 
ATOM     80  F   UNL A   1      44.561  27.050  37.275  1.00  0.00    -0.200 F 
ENDBRANCH  56  70
BRANCH  57  81
ATOM     81  C   UNL A   1      40.296  27.674  27.785  1.00  0.00     0.064 A 
ATOM     82  C   UNL A   1      41.031  27.395  26.619  1.00  0.00     0.173 A 
ATOM     83  C   UNL A   1      39.545  26.606  28.316  1.00  0.00     0.173 A 
ATOM     84  F   UNL A   1      41.812  28.336  26.071  1.00  0.00    -0.203 F 
ATOM     85  C   UNL A   1      41.037  26.120  26.042  1.00  0.00     0.198 A 
ATOM     86  C   UNL A   1      39.540  25.339  27.731  1.00  0.00     0.198 A 
ATOM     87  F   UNL A   1      38.874  26.739  29.469  1.00  0.00    -0.203 F 
ATOM     88  F   UNL A   1      41.806  25.876  24.971  1.00  0.00    -0.200 F 
ATOM     89  C   UNL A   1      40.299  25.092  26.603  1.00  0.00     0.200 A 
ATOM     90  F   UNL A   1      38.848  24.345  28.306  1.00  0.00    -0.200 F 
ATOM     91  F   UNL A   1      40.351  23.857  26.086  1.00  0.00    -0.200 F 
ENDBRANCH  57  81
BRANCH  69  92
ATOM     92  C   UNL A   1      43.490  32.817  29.634  1.00  0.00     0.064 A 
ATOM     93  C   UNL A   1      42.471  33.712  29.269  1.00  0.00     0.173 A 
ATOM     94  C   UNL A   1      44.763  33.021  29.082  1.00  0.00     0.173 A 
ATOM     95  F   UNL A   1      41.258  33.647  29.831  1.00  0.00    -0.203 F 
ATOM     96  C   UNL A   1      42.715  34.750  28.370  1.00  0.00     0.198 A 
ATOM     97  C   UNL A   1      45.011  34.080  28.213  1.00  0.00     0.198 A 
ATOM     98  F   UNL A   1      45.787  32.228  29.437  1.00  0.00    -0.203 F 
ATOM     99  F   UNL A   1      41.730  35.597  28.041  1.00  0.00    -0.200 F 
ATOM    100  C   UNL A   1      43.986  34.939  27.854  1.00  0.00     0.200 A 
ATOM    101  F   UNL A   1      46.254  34.291  27.758  1.00  0.00    -0.200 F 
ATOM    102  F   UNL A   1      44.233  35.973  27.037  1.00  0.00    -0.200 F 
ENDBRANCH  69  92
ENDBRANCH  43  44
ENDBRANCH  35  38
ENDBRANCH  33  34
ENDBRANCH  32  33
ENDBRANCH  31  32
ENDBRANCH  30  31
ENDBRANCH  29  30
ENDBRANCH   1  29
TORSDOF 19
ENDMDL
