MODEL 1
REMARK VINA RESULT:     -12.5      0.000      0.000
REMARK SMILES CCN(CC)c1ncc(NC(=O)c2ccc(C)cc2)cc1C(=O)NCCCCCCNC(=O)c1ccc(-c2c3nc(c(-c4c(F)c(F)c(F)c(F)c4F)c4ccc([nH]4)c(-c4c(F)c(F)c(F)c(F)c4F)c4nc(c(-c5c(F)c(F)c(F)c(F)c5F)c5ccc2[nH]5)C=C4)C=C3)cc1
REMARK SMILES IDX 27 1 26 2 25 3 24 4 22 5 23 6 21 8 6 9 7 10 8 11 20 12 9 13
REMARK SMILES IDX 3 14 2 15 1 16 4 17 5 18 10 19 11 20 12 22 13 23 14 24 19 25
REMARK SMILES IDX 15 26 18 27 16 28 17 29 28 30 29 31 30 32 31 33 32 34 33 36
REMARK SMILES IDX 34 37 35 38 96 39 36 40 95 41 37 42 38 43 39 44 89 45 40 46
REMARK SMILES IDX 94 47 88 48 90 49 41 50 93 51 87 52 86 53 42 55 74 56 54 57
REMARK SMILES IDX 73 58 55 59 58 60 72 61 91 62 56 63 57 64 71 66 92 67 59 68
REMARK SMILES IDX 43 69 44 70 52 71 45 72 46 73 50 74 53 75 47 76 48 77 51 78
REMARK SMILES IDX 49 79 75 80 76 81 84 82 77 83 78 84 82 85 85 86 79 87 80 88
REMARK SMILES IDX 83 89 81 90 60 91 61 92 69 93 62 94 63 95 67 96 70 97 64 98
REMARK SMILES IDX 65 99 68 100 66 101
REMARK H PARENT 24 7 10 21 31 35 90 54 58 65
REMARK Flexibility Score: inf
ROOT
ATOM      1  C   UNL A   1      35.505  23.897  26.216  1.00  0.00     0.002 C 
ENDROOT
BRANCH   1   2
ATOM      2  C   UNL A   1      33.997  23.973  26.469  1.00  0.00     0.021 C 
BRANCH   2   3
ATOM      3  C   UNL A   1      33.319  22.958  27.387  1.00  0.00     0.116 C 
BRANCH   3   4
ATOM      4  N   UNL A   1      31.902  22.741  27.185  1.00  0.00    -0.352 N 
ATOM      5  C   UNL A   1      31.192  22.402  26.044  1.00  0.00     0.255 C 
ATOM      6  O   UNL A   1      30.080  21.903  26.208  1.00  0.00    -0.269 OA
ATOM      7  H   UNL A   1      31.350  22.853  27.994  1.00  0.00     0.163 HD
BRANCH   5   8
ATOM      8  C   UNL A   1      31.718  22.635  24.667  1.00  0.00     0.084 A 
ATOM      9  C   UNL A   1      32.496  21.664  24.010  1.00  0.00     0.141 A 
ATOM     10  N   UNL A   1      33.009  21.909  22.778  1.00  0.00    -0.236 NA
ATOM     11  C   UNL A   1      32.741  23.080  22.164  1.00  0.00     0.139 A 
ATOM     12  C   UNL A   1      31.512  23.867  24.019  1.00  0.00     0.045 A 
ATOM     13  C   UNL A   1      31.943  24.067  22.705  1.00  0.00     0.060 A 
BRANCH   9  14
ATOM     14  N   UNL A   1      32.806  20.424  24.543  1.00  0.00    -0.357 N 
BRANCH  14  15
ATOM     15  C   UNL A   1      32.464  19.238  23.764  1.00  0.00     0.114 C 
ATOM     16  C   UNL A   1      32.441  17.988  24.626  1.00  0.00     0.027 C 
ENDBRANCH  14  15
BRANCH  14  17
ATOM     17  C   UNL A   1      33.978  20.362  25.421  1.00  0.00     0.114 C 
ATOM     18  C   UNL A   1      35.274  19.996  24.702  1.00  0.00     0.027 C 
ENDBRANCH  14  17
ENDBRANCH   9  14
BRANCH  13  19
ATOM     19  N   UNL A   1      31.542  25.244  22.049  1.00  0.00    -0.321 N 
ATOM     20  C   UNL A   1      31.423  26.553  22.464  1.00  0.00     0.255 C 
ATOM     21  H   UNL A   1      31.297  25.104  21.105  1.00  0.00     0.170 HD
ATOM     22  O   UNL A   1      30.860  27.355  21.717  1.00  0.00    -0.269 OA
BRANCH  20  23
ATOM     23  C   UNL A   1      31.989  27.059  23.737  1.00  0.00     0.040 A 
ATOM     24  C   UNL A   1      33.382  27.121  23.860  1.00  0.00     0.014 A 
ATOM     25  C   UNL A   1      31.185  27.412  24.826  1.00  0.00     0.014 A 
ATOM     26  C   UNL A   1      33.962  27.619  25.028  1.00  0.00     0.004 A 
ATOM     27  C   UNL A   1      31.769  27.935  25.985  1.00  0.00     0.004 A 
ATOM     28  C   UNL A   1      33.159  28.066  26.085  1.00  0.00    -0.051 A 
ATOM     29  C   UNL A   1      33.791  28.628  27.325  1.00  0.00     0.044 C 
ENDBRANCH  20  23
ENDBRANCH  13  19
ENDBRANCH   5   8
ENDBRANCH   3   4
ENDBRANCH   2   3
ENDBRANCH   1   2
BRANCH   1  30
ATOM     30  C   UNL A   1      36.024  23.596  24.805  1.00  0.00     0.002 C 
BRANCH  30  31
ATOM     31  C   UNL A   1      37.396  22.935  24.665  1.00  0.00     0.021 C 
BRANCH  31  32
ATOM     32  C   UNL A   1      37.994  22.378  25.950  1.00  0.00     0.116 C 
BRANCH  32  33
ATOM     33  N   UNL A   1      39.449  22.277  25.949  1.00  0.00    -0.352 N 
ATOM     34  C   UNL A   1      40.393  23.253  26.252  1.00  0.00     0.251 C 
ATOM     35  H   UNL A   1      39.814  21.397  25.699  1.00  0.00     0.163 HD
ATOM     36  O   UNL A   1      41.577  23.023  26.190  1.00  0.00    -0.269 OA
BRANCH  34  37
ATOM     37  C   UNL A   1      39.907  24.555  26.779  1.00  0.00     0.039 A 
ATOM     38  C   UNL A   1      40.410  25.724  26.198  1.00  0.00     0.014 A 
ATOM     39  C   UNL A   1      39.157  24.612  27.950  1.00  0.00     0.014 A 
ATOM     40  C   UNL A   1      40.374  26.911  26.927  1.00  0.00     0.010 A 
ATOM     41  C   UNL A   1      39.206  25.760  28.715  1.00  0.00     0.010 A 
ATOM     42  C   UNL A   1      39.874  26.888  28.230  1.00  0.00    -0.014 A 
BRANCH  42  43
ATOM     43  C   UNL A   1      40.111  27.962  29.185  1.00  0.00     0.031 A 
ATOM     44  C   UNL A   1      39.178  29.100  29.286  1.00  0.00     0.074 A 
ATOM     45  C   UNL A   1      41.182  27.904  30.010  1.00  0.00     0.049 A 
ATOM     46  N   UNL A   1      39.542  30.292  29.626  1.00  0.00    -0.248 NA
ATOM     47  C   UNL A   1      37.755  28.993  28.979  1.00  0.00     0.031 C 
ATOM     48  C   UNL A   1      41.457  28.768  31.155  1.00  0.00     0.029 A 
ATOM     49  N   UNL A   1      42.356  27.149  29.851  1.00  0.00    -0.354 N 
ATOM     50  C   UNL A   1      38.401  31.027  29.828  1.00  0.00     0.074 A 
ATOM     51  C   UNL A   1      37.315  30.200  29.350  1.00  0.00     0.031 C 
ATOM     52  C   UNL A   1      42.773  28.736  31.415  1.00  0.00     0.029 A 
ATOM     53  C   UNL A   1      43.401  27.949  30.368  1.00  0.00     0.049 A 
ATOM     54  H   UNL A   1      42.436  26.248  29.461  1.00  0.00     0.167 HD
ATOM     55  C   UNL A   1      38.458  32.206  30.505  1.00  0.00     0.037 A 
ATOM     56  C   UNL A   1      44.442  28.363  29.592  1.00  0.00     0.037 A 
ATOM     57  C   UNL A   1      39.808  32.523  30.942  1.00  0.00     0.049 A 
ATOM     58  C   UNL A   1      44.586  29.864  29.503  1.00  0.00     0.074 A 
ATOM     59  C   UNL A   1      40.472  32.302  32.137  1.00  0.00     0.029 A 
ATOM     60  N   UNL A   1      40.782  32.836  30.002  1.00  0.00    -0.354 N 
ATOM     61  N   UNL A   1      43.638  30.698  29.828  1.00  0.00    -0.248 NA
ATOM     62  C   UNL A   1      45.779  30.543  29.005  1.00  0.00     0.031 C 
ATOM     63  C   UNL A   1      41.860  32.433  31.902  1.00  0.00     0.029 A 
ATOM     64  C   UNL A   1      42.038  32.763  30.571  1.00  0.00     0.049 A 
ATOM     65  H   UNL A   1      40.602  33.078  29.064  1.00  0.00     0.167 HD
ATOM     66  C   UNL A   1      44.051  31.980  29.578  1.00  0.00     0.074 A 
ATOM     67  C   UNL A   1      45.406  31.834  29.078  1.00  0.00     0.031 C 
ATOM     68  C   UNL A   1      43.232  33.050  29.796  1.00  0.00     0.037 A 
BRANCH  55  69
ATOM     69  C   UNL A   1      37.213  32.879  31.004  1.00  0.00     0.064 A 
ATOM     70  C   UNL A   1      36.725  32.651  32.306  1.00  0.00     0.173 A 
ATOM     71  C   UNL A   1      36.429  33.721  30.197  1.00  0.00     0.173 A 
ATOM     72  F   UNL A   1      37.404  31.907  33.188  1.00  0.00    -0.203 F 
ATOM     73  C   UNL A   1      35.494  33.153  32.735  1.00  0.00     0.198 A 
ATOM     74  C   UNL A   1      35.177  34.185  30.611  1.00  0.00     0.198 A 
ATOM     75  F   UNL A   1      36.859  34.100  28.984  1.00  0.00    -0.203 F 
ATOM     76  F   UNL A   1      35.066  32.889  33.977  1.00  0.00    -0.200 F 
ATOM     77  C   UNL A   1      34.706  33.893  31.877  1.00  0.00     0.200 A 
ATOM     78  F   UNL A   1      34.419  34.899  29.766  1.00  0.00    -0.200 F 
ATOM     79  F   UNL A   1      33.499  34.324  32.269  1.00  0.00    -0.200 F 
ENDBRANCH  55  69
BRANCH  56  80
ATOM     80  C   UNL A   1      44.786  27.399  28.517  1.00  0.00     0.064 A 
ATOM     81  C   UNL A   1      45.436  26.205  28.886  1.00  0.00     0.173 A 
ATOM     82  C   UNL A   1      44.157  27.436  27.268  1.00  0.00     0.173 A 
ATOM     83  F   UNL A   1      46.052  26.119  30.076  1.00  0.00    -0.203 F 
ATOM     84  C   UNL A   1      45.351  25.061  28.097  1.00  0.00     0.198 A 
ATOM     85  C   UNL A   1      44.088  26.291  26.472  1.00  0.00     0.198 A 
ATOM     86  F   UNL A   1      43.509  28.539  26.869  1.00  0.00    -0.203 F 
ATOM     87  F   UNL A   1      45.879  23.908  28.534  1.00  0.00    -0.200 F 
ATOM     88  C   UNL A   1      44.651  25.097  26.904  1.00  0.00     0.200 A 
ATOM     89  F   UNL A   1      43.395  26.319  25.324  1.00  0.00    -0.200 F 
ATOM     90  F   UNL A   1      44.484  23.974  26.191  1.00  0.00    -0.200 F 
ENDBRANCH  56  80
BRANCH  68  91
ATOM     91  C   UNL A   1      43.495  34.477  29.391  1.00  0.00     0.064 A 
ATOM     92  C   UNL A   1      43.439  34.937  28.066  1.00  0.00     0.173 A 
ATOM     93  C   UNL A   1      43.654  35.476  30.383  1.00  0.00     0.173 A 
ATOM     94  F   UNL A   1      43.200  34.097  27.050  1.00  0.00    -0.203 F 
ATOM     95  C   UNL A   1      43.570  36.292  27.753  1.00  0.00     0.198 A 
ATOM     96  C   UNL A   1      43.728  36.832  30.070  1.00  0.00     0.198 A 
ATOM     97  F   UNL A   1      43.714  35.166  31.686  1.00  0.00    -0.203 F 
ATOM     98  F   UNL A   1      43.539  36.683  26.472  1.00  0.00    -0.200 F 
ATOM     99  C   UNL A   1      43.698  37.239  28.754  1.00  0.00     0.200 A 
ATOM    100  F   UNL A   1      43.808  37.738  31.055  1.00  0.00    -0.200 F 
ATOM    101  F   UNL A   1      43.771  38.542  28.450  1.00  0.00    -0.200 F 
ENDBRANCH  68  91
ENDBRANCH  42  43
ENDBRANCH  34  37
ENDBRANCH  32  33
ENDBRANCH  31  32
ENDBRANCH  30  31
ENDBRANCH   1  30
TORSDOF 18
ENDMDL
MODEL 2
REMARK VINA RESULT:     -12.4      2.977      8.711
REMARK SMILES CCN(CC)c1ncc(NC(=O)c2ccc(C)cc2)cc1C(=O)NCCCCCCNC(=O)c1ccc(-c2c3nc(c(-c4c(F)c(F)c(F)c(F)c4F)c4ccc([nH]4)c(-c4c(F)c(F)c(F)c(F)c4F)c4nc(c(-c5c(F)c(F)c(F)c(F)c5F)c5ccc2[nH]5)C=C4)C=C3)cc1
REMARK SMILES IDX 27 1 26 2 25 3 24 4 22 5 23 6 21 8 6 9 7 10 8 11 20 12 9 13
REMARK SMILES IDX 3 14 2 15 1 16 4 17 5 18 10 19 11 20 12 22 13 23 14 24 19 25
REMARK SMILES IDX 15 26 18 27 16 28 17 29 28 30 29 31 30 32 31 33 32 34 33 36
REMARK SMILES IDX 34 37 35 38 96 39 36 40 95 41 37 42 38 43 39 44 89 45 40 46
REMARK SMILES IDX 94 47 88 48 90 49 41 50 93 51 87 52 86 53 42 55 74 56 54 57
REMARK SMILES IDX 73 58 55 59 58 60 72 61 91 62 56 63 57 64 71 66 92 67 59 68
REMARK SMILES IDX 43 69 44 70 52 71 45 72 46 73 50 74 53 75 47 76 48 77 51 78
REMARK SMILES IDX 49 79 75 80 76 81 84 82 77 83 78 84 82 85 85 86 79 87 80 88
REMARK SMILES IDX 83 89 81 90 60 91 61 92 69 93 62 94 63 95 67 96 70 97 64 98
REMARK SMILES IDX 65 99 68 100 66 101
REMARK H PARENT 24 7 10 21 31 35 90 54 58 65
REMARK Flexibility Score: inf
ROOT
ATOM      1  C   UNL A   1      32.323  27.169  26.696  1.00  0.00     0.002 C 
ENDROOT
BRANCH   1   2
ATOM      2  C   UNL A   1      32.870  25.895  26.046  1.00  0.00     0.021 C 
BRANCH   2   3
ATOM      3  C   UNL A   1      34.354  25.784  25.702  1.00  0.00     0.116 C 
BRANCH   3   4
ATOM      4  N   UNL A   1      35.003  24.528  26.010  1.00  0.00    -0.352 N 
ATOM      5  C   UNL A   1      35.072  23.344  25.291  1.00  0.00     0.255 C 
ATOM      6  O   UNL A   1      35.986  22.573  25.576  1.00  0.00    -0.269 OA
ATOM      7  H   UNL A   1      35.474  24.510  26.875  1.00  0.00     0.163 HD
BRANCH   5   8
ATOM      8  C   UNL A   1      34.088  22.988  24.227  1.00  0.00     0.084 A 
ATOM      9  C   UNL A   1      33.088  22.024  24.453  1.00  0.00     0.141 A 
ATOM     10  N   UNL A   1      32.230  21.675  23.461  1.00  0.00    -0.236 NA
ATOM     11  C   UNL A   1      32.316  22.281  22.259  1.00  0.00     0.139 A 
ATOM     12  C   UNL A   1      34.183  23.553  22.942  1.00  0.00     0.045 A 
ATOM     13  C   UNL A   1      33.226  23.275  21.964  1.00  0.00     0.060 A 
BRANCH   9  14
ATOM     14  N   UNL A   1      32.900  21.364  25.655  1.00  0.00    -0.357 N 
BRANCH  14  15
ATOM     15  C   UNL A   1      32.106  22.027  26.685  1.00  0.00     0.114 C 
ATOM     16  C   UNL A   1      30.892  22.724  26.096  1.00  0.00     0.027 C 
ENDBRANCH  14  15
BRANCH  14  17
ATOM     17  C   UNL A   1      32.882  19.899  25.604  1.00  0.00     0.114 C 
ATOM     18  C   UNL A   1      34.078  19.289  24.877  1.00  0.00     0.027 C 
ENDBRANCH  14  17
ENDBRANCH   9  14
BRANCH  13  19
ATOM     19  N   UNL A   1      33.268  24.015  20.768  1.00  0.00    -0.321 N 
ATOM     20  C   UNL A   1      32.812  25.271  20.428  1.00  0.00     0.255 C 
ATOM     21  H   UNL A   1      33.708  23.540  20.027  1.00  0.00     0.170 HD
ATOM     22  O   UNL A   1      32.818  25.594  19.239  1.00  0.00    -0.269 OA
BRANCH  20  23
ATOM     23  C   UNL A   1      32.372  26.276  21.425  1.00  0.00     0.040 A 
ATOM     24  C   UNL A   1      33.343  27.113  21.988  1.00  0.00     0.014 A 
ATOM     25  C   UNL A   1      31.046  26.369  21.860  1.00  0.00     0.014 A 
ATOM     26  C   UNL A   1      32.973  28.096  22.909  1.00  0.00     0.004 A 
ATOM     27  C   UNL A   1      30.675  27.370  22.763  1.00  0.00     0.004 A 
ATOM     28  C   UNL A   1      31.631  28.258  23.274  1.00  0.00    -0.051 A 
ATOM     29  C   UNL A   1      31.238  29.336  24.241  1.00  0.00     0.044 C 
ENDBRANCH  20  23
ENDBRANCH  13  19
ENDBRANCH   5   8
ENDBRANCH   3   4
ENDBRANCH   2   3
ENDBRANCH   1   2
BRANCH   1  30
ATOM     30  C   UNL A   1      33.296  28.216  27.253  1.00  0.00     0.002 C 
BRANCH  30  31
ATOM     31  C   UNL A   1      32.798  29.652  27.415  1.00  0.00     0.021 C 
BRANCH  31  32
ATOM     32  C   UNL A   1      33.830  30.741  27.153  1.00  0.00     0.116 C 
BRANCH  32  33
ATOM     33  N   UNL A   1      34.209  31.515  28.330  1.00  0.00    -0.352 N 
ATOM     34  C   UNL A   1      35.260  31.300  29.217  1.00  0.00     0.251 C 
ATOM     35  H   UNL A   1      33.643  32.297  28.525  1.00  0.00     0.163 HD
ATOM     36  O   UNL A   1      35.439  32.025  30.167  1.00  0.00    -0.269 OA
BRANCH  34  37
ATOM     37  C   UNL A   1      36.236  30.227  28.896  1.00  0.00     0.039 A 
ATOM     38  C   UNL A   1      36.607  29.352  29.922  1.00  0.00     0.014 A 
ATOM     39  C   UNL A   1      36.923  30.231  27.686  1.00  0.00     0.014 A 
ATOM     40  C   UNL A   1      37.818  28.669  29.825  1.00  0.00     0.010 A 
ATOM     41  C   UNL A   1      38.167  29.635  27.626  1.00  0.00     0.010 A 
ATOM     42  C   UNL A   1      38.642  28.910  28.723  1.00  0.00    -0.014 A 
BRANCH  42  43
ATOM     43  C   UNL A   1      40.049  28.535  28.694  1.00  0.00     0.031 A 
ATOM     44  C   UNL A   1      40.460  27.187  28.257  1.00  0.00     0.074 A 
ATOM     45  C   UNL A   1      40.993  29.439  29.042  1.00  0.00     0.049 A 
ATOM     46  N   UNL A   1      41.511  26.583  28.706  1.00  0.00    -0.248 NA
ATOM     47  C   UNL A   1      39.698  26.393  27.298  1.00  0.00     0.031 C 
ATOM     48  C   UNL A   1      42.438  29.311  28.873  1.00  0.00     0.029 A 
ATOM     49  N   UNL A   1      40.833  30.604  29.811  1.00  0.00    -0.354 N 
ATOM     50  C   UNL A   1      41.703  25.466  27.931  1.00  0.00     0.074 A 
ATOM     51  C   UNL A   1      40.516  25.352  27.113  1.00  0.00     0.031 C 
ATOM     52  C   UNL A   1      43.050  30.138  29.734  1.00  0.00     0.029 A 
ATOM     53  C   UNL A   1      42.020  30.731  30.569  1.00  0.00     0.049 A 
ATOM     54  H   UNL A   1      40.055  31.208  29.821  1.00  0.00     0.167 HD
ATOM     55  C   UNL A   1      42.899  24.819  27.950  1.00  0.00     0.037 A 
ATOM     56  C   UNL A   1      42.009  30.715  31.932  1.00  0.00     0.037 A 
ATOM     57  C   UNL A   1      43.854  25.456  28.843  1.00  0.00     0.049 A 
ATOM     58  C   UNL A   1      42.837  29.610  32.543  1.00  0.00     0.074 A 
ATOM     59  C   UNL A   1      44.852  26.390  28.621  1.00  0.00     0.029 A 
ATOM     60  N   UNL A   1      43.640  25.427  30.216  1.00  0.00    -0.354 N 
ATOM     61  N   UNL A   1      43.241  28.563  31.878  1.00  0.00    -0.248 NA
ATOM     62  C   UNL A   1      43.236  29.567  33.947  1.00  0.00     0.031 C 
ATOM     63  C   UNL A   1      45.206  26.964  29.864  1.00  0.00     0.029 A 
ATOM     64  C   UNL A   1      44.443  26.357  30.846  1.00  0.00     0.049 A 
ATOM     65  H   UNL A   1      43.008  24.827  30.674  1.00  0.00     0.167 HD
ATOM     66  C   UNL A   1      43.912  27.718  32.722  1.00  0.00     0.074 A 
ATOM     67  C   UNL A   1      43.898  28.397  34.004  1.00  0.00     0.031 C 
ATOM     68  C   UNL A   1      44.412  26.523  32.288  1.00  0.00     0.037 A 
BRANCH  55  69
ATOM     69  C   UNL A   1      43.247  23.794  26.911  1.00  0.00     0.064 A 
ATOM     70  C   UNL A   1      42.904  22.437  27.070  1.00  0.00     0.173 A 
ATOM     71  C   UNL A   1      43.982  24.106  25.754  1.00  0.00     0.173 A 
ATOM     72  F   UNL A   1      42.163  22.020  28.104  1.00  0.00    -0.203 F 
ATOM     73  C   UNL A   1      43.346  21.452  26.185  1.00  0.00     0.198 A 
ATOM     74  C   UNL A   1      44.462  23.114  24.894  1.00  0.00     0.198 A 
ATOM     75  F   UNL A   1      44.260  25.381  25.443  1.00  0.00    -0.203 F 
ATOM     76  F   UNL A   1      43.007  20.172  26.395  1.00  0.00    -0.200 F 
ATOM     77  C   UNL A   1      44.152  21.786  25.116  1.00  0.00     0.200 A 
ATOM     78  F   UNL A   1      45.248  23.452  23.861  1.00  0.00    -0.200 F 
ATOM     79  F   UNL A   1      44.624  20.832  24.301  1.00  0.00    -0.200 F 
ENDBRANCH  55  69
BRANCH  56  80
ATOM     80  C   UNL A   1      40.765  31.281  32.510  1.00  0.00     0.064 A 
ATOM     81  C   UNL A   1      40.612  32.682  32.503  1.00  0.00     0.173 A 
ATOM     82  C   UNL A   1      39.614  30.504  32.680  1.00  0.00     0.173 A 
ATOM     83  F   UNL A   1      41.686  33.470  32.341  1.00  0.00    -0.203 F 
ATOM     84  C   UNL A   1      39.352  33.272  32.537  1.00  0.00     0.198 A 
ATOM     85  C   UNL A   1      38.353  31.101  32.729  1.00  0.00     0.198 A 
ATOM     86  F   UNL A   1      39.694  29.166  32.678  1.00  0.00    -0.203 F 
ATOM     87  F   UNL A   1      39.234  34.601  32.407  1.00  0.00    -0.200 F 
ATOM     88  C   UNL A   1      38.221  32.479  32.619  1.00  0.00     0.200 A 
ATOM     89  F   UNL A   1      37.255  30.333  32.791  1.00  0.00    -0.200 F 
ATOM     90  F   UNL A   1      37.004  33.038  32.553  1.00  0.00    -0.200 F 
ENDBRANCH  56  80
BRANCH  68  91
ATOM     91  C   UNL A   1      44.997  25.432  33.145  1.00  0.00     0.064 A 
ATOM     92  C   UNL A   1      46.367  25.130  33.199  1.00  0.00     0.173 A 
ATOM     93  C   UNL A   1      44.180  24.754  34.083  1.00  0.00     0.173 A 
ATOM     94  F   UNL A   1      47.250  25.775  32.425  1.00  0.00    -0.203 F 
ATOM     95  C   UNL A   1      46.877  24.192  34.100  1.00  0.00     0.198 A 
ATOM     96  C   UNL A   1      44.701  23.860  35.017  1.00  0.00     0.198 A 
ATOM     97  F   UNL A   1      42.856  24.960  34.138  1.00  0.00    -0.203 F 
ATOM     98  F   UNL A   1      48.188  23.915  34.098  1.00  0.00    -0.200 F 
ATOM     99  C   UNL A   1      46.049  23.570  35.018  1.00  0.00     0.200 A 
ATOM    100  F   UNL A   1      43.890  23.300  35.926  1.00  0.00    -0.200 F 
ATOM    101  F   UNL A   1      46.552  22.710  35.913  1.00  0.00    -0.200 F 
ENDBRANCH  68  91
ENDBRANCH  42  43
ENDBRANCH  34  37
ENDBRANCH  32  33
ENDBRANCH  31  32
ENDBRANCH  30  31
ENDBRANCH   1  30
TORSDOF 18
ENDMDL
MODEL 3
REMARK VINA RESULT:     -12.3      1.429      3.886
REMARK SMILES CCN(CC)c1ncc(NC(=O)c2ccc(C)cc2)cc1C(=O)NCCCCCCNC(=O)c1ccc(-c2c3nc(c(-c4c(F)c(F)c(F)c(F)c4F)c4ccc([nH]4)c(-c4c(F)c(F)c(F)c(F)c4F)c4nc(c(-c5c(F)c(F)c(F)c(F)c5F)c5ccc2[nH]5)C=C4)C=C3)cc1
REMARK SMILES IDX 27 1 26 2 25 3 24 4 22 5 23 6 21 8 6 9 7 10 8 11 20 12 9 13
REMARK SMILES IDX 3 14 2 15 1 16 4 17 5 18 10 19 11 20 12 22 13 23 14 24 19 25
REMARK SMILES IDX 15 26 18 27 16 28 17 29 28 30 29 31 30 32 31 33 32 34 33 36
REMARK SMILES IDX 34 37 35 38 96 39 36 40 95 41 37 42 38 43 39 44 89 45 40 46
REMARK SMILES IDX 94 47 88 48 90 49 41 50 93 51 87 52 86 53 42 55 74 56 54 57
REMARK SMILES IDX 73 58 55 59 58 60 72 61 91 62 56 63 57 64 71 66 92 67 59 68
REMARK SMILES IDX 43 69 44 70 52 71 45 72 46 73 50 74 53 75 47 76 48 77 51 78
REMARK SMILES IDX 49 79 75 80 76 81 84 82 77 83 78 84 82 85 85 86 79 87 80 88
REMARK SMILES IDX 83 89 81 90 60 91 61 92 69 93 62 94 63 95 67 96 70 97 64 98
REMARK SMILES IDX 65 99 68 100 66 101
REMARK H PARENT 24 7 10 21 31 35 90 54 58 65
REMARK Flexibility Score: inf
ROOT
ATOM      1  C   UNL A   1      35.576  23.963  24.585  1.00  0.00     0.002 C 
ENDROOT
BRANCH   1   2
ATOM      2  C   UNL A   1      34.488  24.564  23.691  1.00  0.00     0.021 C 
BRANCH   2   3
ATOM      3  C   UNL A   1      33.542  23.652  22.913  1.00  0.00     0.116 C 
BRANCH   3   4
ATOM      4  N   UNL A   1      32.588  24.297  22.037  1.00  0.00    -0.352 N 
ATOM      5  C   UNL A   1      31.770  25.398  22.242  1.00  0.00     0.255 C 
ATOM      6  O   UNL A   1      31.351  25.975  21.241  1.00  0.00    -0.269 OA
ATOM      7  H   UNL A   1      32.505  23.886  21.146  1.00  0.00     0.163 HD
BRANCH   5   8
ATOM      8  C   UNL A   1      31.387  25.875  23.604  1.00  0.00     0.084 A 
ATOM      9  C   UNL A   1      31.566  27.219  23.982  1.00  0.00     0.141 A 
ATOM     10  N   UNL A   1      31.258  27.628  25.239  1.00  0.00    -0.236 NA
ATOM     11  C   UNL A   1      30.744  26.746  26.121  1.00  0.00     0.139 A 
ATOM     12  C   UNL A   1      30.906  24.974  24.571  1.00  0.00     0.045 A 
ATOM     13  C   UNL A   1      30.482  25.425  25.823  1.00  0.00     0.060 A 
BRANCH   9  14
ATOM     14  N   UNL A   1      32.061  28.204  23.145  1.00  0.00    -0.357 N 
BRANCH  14  15
ATOM     15  C   UNL A   1      31.124  29.190  22.616  1.00  0.00     0.114 C 
ATOM     16  C   UNL A   1      29.691  28.688  22.672  1.00  0.00     0.027 C 
ENDBRANCH  14  15
BRANCH  14  17
ATOM     17  C   UNL A   1      33.449  28.619  23.370  1.00  0.00     0.114 C 
ATOM     18  C   UNL A   1      34.349  28.466  22.147  1.00  0.00     0.027 C 
ENDBRANCH  14  17
ENDBRANCH   9  14
BRANCH  13  19
ATOM     19  N   UNL A   1      29.836  24.510  26.673  1.00  0.00    -0.321 N 
ATOM     20  C   UNL A   1      30.042  23.172  26.939  1.00  0.00     0.255 C 
ATOM     21  H   UNL A   1      29.086  24.902  27.177  1.00  0.00     0.170 HD
ATOM     22  O   UNL A   1      29.194  22.568  27.596  1.00  0.00    -0.269 OA
BRANCH  20  23
ATOM     23  C   UNL A   1      31.262  22.438  26.524  1.00  0.00     0.040 A 
ATOM     24  C   UNL A   1      31.167  21.566  25.434  1.00  0.00     0.014 A 
ATOM     25  C   UNL A   1      32.471  22.543  27.220  1.00  0.00     0.014 A 
ATOM     26  C   UNL A   1      32.296  20.876  24.987  1.00  0.00     0.004 A 
ATOM     27  C   UNL A   1      33.606  21.870  26.754  1.00  0.00     0.004 A 
ATOM     28  C   UNL A   1      33.533  21.053  25.619  1.00  0.00    -0.051 A 
ATOM     29  C   UNL A   1      34.747  20.331  25.114  1.00  0.00     0.044 C 
ENDBRANCH  20  23
ENDBRANCH  13  19
ENDBRANCH   5   8
ENDBRANCH   3   4
ENDBRANCH   2   3
ENDBRANCH   1   2
BRANCH   1  30
ATOM     30  C   UNL A   1      36.684  23.105  23.961  1.00  0.00     0.002 C 
BRANCH  30  31
ATOM     31  C   UNL A   1      37.652  22.381  24.896  1.00  0.00     0.021 C 
BRANCH  31  32
ATOM     32  C   UNL A   1      38.242  23.226  26.018  1.00  0.00     0.116 C 
BRANCH  32  33
ATOM     33  N   UNL A   1      39.692  23.136  26.147  1.00  0.00    -0.352 N 
ATOM     34  C   UNL A   1      40.594  24.111  26.562  1.00  0.00     0.251 C 
ATOM     35  H   UNL A   1      40.087  22.267  25.908  1.00  0.00     0.163 HD
ATOM     36  O   UNL A   1      41.782  23.891  26.602  1.00  0.00    -0.269 OA
BRANCH  34  37
ATOM     37  C   UNL A   1      40.049  25.393  27.077  1.00  0.00     0.039 A 
ATOM     38  C   UNL A   1      40.489  26.578  26.478  1.00  0.00     0.014 A 
ATOM     39  C   UNL A   1      39.307  25.428  28.254  1.00  0.00     0.014 A 
ATOM     40  C   UNL A   1      40.401  27.771  27.192  1.00  0.00     0.010 A 
ATOM     41  C   UNL A   1      39.306  26.586  29.005  1.00  0.00     0.010 A 
ATOM     42  C   UNL A   1      39.913  27.740  28.500  1.00  0.00    -0.014 A 
BRANCH  42  43
ATOM     43  C   UNL A   1      40.105  28.836  29.440  1.00  0.00     0.031 A 
ATOM     44  C   UNL A   1      39.053  29.852  29.636  1.00  0.00     0.074 A 
ATOM     45  C   UNL A   1      41.245  28.910  30.163  1.00  0.00     0.049 A 
ATOM     46  N   UNL A   1      39.300  31.081  29.953  1.00  0.00    -0.248 NA
ATOM     47  C   UNL A   1      37.632  29.572  29.459  1.00  0.00     0.031 C 
ATOM     48  C   UNL A   1      41.518  29.803  31.287  1.00  0.00     0.029 A 
ATOM     49  N   UNL A   1      42.483  28.303  29.891  1.00  0.00    -0.354 N 
ATOM     50  C   UNL A   1      38.101  31.672  30.266  1.00  0.00     0.074 A 
ATOM     51  C   UNL A   1      37.085  30.718  29.880  1.00  0.00     0.031 C 
ATOM     52  C   UNL A   1      42.846  29.932  31.425  1.00  0.00     0.029 A 
ATOM     53  C   UNL A   1      43.466  29.225  30.318  1.00  0.00     0.049 A 
ATOM     54  H   UNL A   1      42.635  27.418  29.486  1.00  0.00     0.167 HD
ATOM     55  C   UNL A   1      38.077  32.850  30.945  1.00  0.00     0.037 A 
ATOM     56  C   UNL A   1      44.374  29.762  29.454  1.00  0.00     0.037 A 
ATOM     57  C   UNL A   1      39.413  33.329  31.261  1.00  0.00     0.049 A 
ATOM     58  C   UNL A   1      44.326  31.269  29.367  1.00  0.00     0.074 A 
ATOM     59  C   UNL A   1      40.205  33.192  32.388  1.00  0.00     0.029 A 
ATOM     60  N   UNL A   1      40.252  33.757  30.239  1.00  0.00    -0.354 N 
ATOM     61  N   UNL A   1      43.318  31.982  29.785  1.00  0.00    -0.248 NA
ATOM     62  C   UNL A   1      45.377  32.087  28.769  1.00  0.00     0.031 C 
ATOM     63  C   UNL A   1      41.540  33.491  32.029  1.00  0.00     0.029 A 
ATOM     64  C   UNL A   1      41.554  33.838  30.690  1.00  0.00     0.049 A 
ATOM     65  H   UNL A   1      39.959  33.973  29.324  1.00  0.00     0.167 HD
ATOM     66  C   UNL A   1      43.548  33.304  29.511  1.00  0.00     0.074 A 
ATOM     67  C   UNL A   1      44.859  33.323  28.889  1.00  0.00     0.031 C 
ATOM     68  C   UNL A   1      42.628  34.267  29.813  1.00  0.00     0.037 A 
BRANCH  55  69
ATOM     69  C   UNL A   1      36.810  33.367  31.563  1.00  0.00     0.064 A 
ATOM     70  C   UNL A   1      35.842  34.045  30.797  1.00  0.00     0.173 A 
ATOM     71  C   UNL A   1      36.540  33.264  32.938  1.00  0.00     0.173 A 
ATOM     72  F   UNL A   1      35.958  34.167  29.469  1.00  0.00    -0.203 F 
ATOM     73  C   UNL A   1      34.731  34.657  31.381  1.00  0.00     0.198 A 
ATOM     74  C   UNL A   1      35.453  33.916  33.528  1.00  0.00     0.198 A 
ATOM     75  F   UNL A   1      37.335  32.539  33.739  1.00  0.00    -0.203 F 
ATOM     76  F   UNL A   1      33.849  35.307  30.609  1.00  0.00    -0.200 F 
ATOM     77  C   UNL A   1      34.554  34.620  32.750  1.00  0.00     0.200 A 
ATOM     78  F   UNL A   1      35.295  33.876  34.859  1.00  0.00    -0.200 F 
ATOM     79  F   UNL A   1      33.519  35.259  33.315  1.00  0.00    -0.200 F 
ENDBRANCH  55  69
BRANCH  56  80
ATOM     80  C   UNL A   1      44.733  28.845  28.343  1.00  0.00     0.064 A 
ATOM     81  C   UNL A   1      45.499  27.704  28.651  1.00  0.00     0.173 A 
ATOM     82  C   UNL A   1      44.030  28.847  27.133  1.00  0.00     0.173 A 
ATOM     83  F   UNL A   1      46.189  27.653  29.802  1.00  0.00    -0.203 F 
ATOM     84  C   UNL A   1      45.462  26.569  27.847  1.00  0.00     0.198 A 
ATOM     85  C   UNL A   1      44.009  27.712  26.321  1.00  0.00     0.198 A 
ATOM     86  F   UNL A   1      43.271  29.897  26.793  1.00  0.00    -0.203 F 
ATOM     87  F   UNL A   1      46.108  25.457  28.230  1.00  0.00    -0.200 F 
ATOM     88  C   UNL A   1      44.692  26.563  26.697  1.00  0.00     0.200 A 
ATOM     89  F   UNL A   1      43.250  27.698  25.216  1.00  0.00    -0.200 F 
ATOM     90  F   UNL A   1      44.578  25.440  25.973  1.00  0.00    -0.200 F 
ENDBRANCH  56  80
BRANCH  68  91
ATOM     91  C   UNL A   1      42.678  35.715  29.399  1.00  0.00     0.064 A 
ATOM     92  C   UNL A   1      43.471  36.682  30.035  1.00  0.00     0.173 A 
ATOM     93  C   UNL A   1      42.028  36.134  28.213  1.00  0.00     0.173 A 
ATOM     94  F   UNL A   1      44.206  36.378  31.112  1.00  0.00    -0.203 F 
ATOM     95  C   UNL A   1      43.578  37.984  29.540  1.00  0.00     0.198 A 
ATOM     96  C   UNL A   1      42.180  37.418  27.692  1.00  0.00     0.198 A 
ATOM     97  F   UNL A   1      41.247  35.301  27.509  1.00  0.00    -0.203 F 
ATOM     98  F   UNL A   1      44.325  38.884  30.195  1.00  0.00    -0.200 F 
ATOM     99  C   UNL A   1      42.947  38.347  28.363  1.00  0.00     0.200 A 
ATOM    100  F   UNL A   1      41.598  37.738  26.529  1.00  0.00    -0.200 F 
ATOM    101  F   UNL A   1      43.095  39.583  27.866  1.00  0.00    -0.200 F 
ENDBRANCH  68  91
ENDBRANCH  42  43
ENDBRANCH  34  37
ENDBRANCH  32  33
ENDBRANCH  31  32
ENDBRANCH  30  31
ENDBRANCH   1  30
TORSDOF 18
ENDMDL
