MODEL 1
REMARK VINA RESULT:     -12.7      0.000      0.000
REMARK SMILES CCn1nc(-c2cccnc2)c2cc(C(=O)NCCCCCCNC(=O)c3ccc(-c4c5nc(c(-c6c(F)c(F)c(F)c(F)c6F)c6ccc([nH]6)c(-c6c(F)c(F)c(F)c(F)c6F)c6nc(c(-c7c(F)c(F)c(F)c(F)c7F)c7ccc4[nH]7)C=C6)C=C5)cc3)sc21
REMARK SMILES IDX 21 1 20 2 19 3 18 4 17 5 15 6 16 7 14 9 3 10 4 11 91 12 5 13
REMARK SMILES IDX 12 14 90 15 13 16 2 17 1 18 6 19 7 20 11 21 8 22 10 23 9 24
REMARK SMILES IDX 22 25 23 26 24 27 25 28 26 30 27 31 28 32 89 33 29 34 88 35
REMARK SMILES IDX 30 36 31 37 32 38 82 39 33 40 87 41 81 42 83 43 34 44 86 45
REMARK SMILES IDX 80 46 79 47 35 49 67 50 47 51 66 52 48 53 51 54 65 55 84 56
REMARK SMILES IDX 49 57 50 58 64 60 85 61 52 62 36 63 37 64 45 65 38 66 39 67
REMARK SMILES IDX 43 68 46 69 40 70 41 71 44 72 42 73 68 74 69 75 77 76 70 77
REMARK SMILES IDX 71 78 75 79 78 80 72 81 73 82 76 83 74 84 53 85 54 86 62 87
REMARK SMILES IDX 55 88 56 89 60 90 63 91 57 92 58 93 61 94 59 95
REMARK H PARENT 17 8 24 29 83 48 51 59
REMARK Flexibility Score: inf
ROOT
ATOM      1  C   UNL A   1      40.413  21.144  26.881  1.00  0.00     0.002 C 
ENDROOT
BRANCH   1   2
ATOM      2  C   UNL A   1      39.275  21.804  26.079  1.00  0.00     0.002 C 
BRANCH   2   3
ATOM      3  C   UNL A   1      38.933  23.247  26.468  1.00  0.00     0.021 C 
BRANCH   3   4
ATOM      4  C   UNL A   1      37.546  23.694  25.998  1.00  0.00     0.116 C 
BRANCH   4   5
ATOM      5  N   UNL A   1      37.300  23.317  24.615  1.00  0.00    -0.351 N 
ATOM      6  C   UNL A   1      36.180  23.362  23.812  1.00  0.00     0.261 C 
ATOM      7  O   UNL A   1      36.367  23.072  22.628  1.00  0.00    -0.268 OA
ATOM      8  H   UNL A   1      38.095  22.956  24.160  1.00  0.00     0.163 HD
BRANCH   6   9
ATOM      9  C   UNL A   1      34.871  23.793  24.291  1.00  0.00     0.095 A 
ATOM     10  N   UNL A   1      31.657  23.904  26.160  1.00  0.00    -0.254 N 
ATOM     11  N   UNL A   1      31.430  25.183  26.584  1.00  0.00    -0.171 NA
ATOM     12  C   UNL A   1      32.713  23.849  25.326  1.00  0.00     0.122 A 
ATOM     13  C   UNL A   1      32.393  25.926  25.970  1.00  0.00     0.103 A 
ATOM     14  C   UNL A   1      33.258  25.062  25.293  1.00  0.00     0.040 A 
ATOM     15  S   UNL A   1      33.511  22.714  24.441  1.00  0.00    -0.110 S 
ATOM     16  C   UNL A   1      34.498  25.104  24.652  1.00  0.00     0.038 A 
BRANCH  10  17
ATOM     17  C   UNL A   1      31.045  22.752  26.790  1.00  0.00     0.142 C 
ATOM     18  C   UNL A   1      29.582  22.890  27.151  1.00  0.00     0.029 C 
ENDBRANCH  10  17
BRANCH  13  19
ATOM     19  C   UNL A   1      32.391  27.378  26.040  1.00  0.00     0.021 A 
ATOM     20  C   UNL A   1      32.290  28.062  27.253  1.00  0.00     0.013 A 
ATOM     21  C   UNL A   1      32.398  28.140  24.875  1.00  0.00     0.121 A 
ATOM     22  C   UNL A   1      32.206  29.455  27.253  1.00  0.00     0.021 A 
ATOM     23  N   UNL A   1      32.318  29.494  24.844  1.00  0.00    -0.264 NA
ATOM     24  C   UNL A   1      32.216  30.118  26.037  1.00  0.00     0.111 A 
ENDBRANCH  13  19
ENDBRANCH   6   9
ENDBRANCH   4   5
ENDBRANCH   3   4
ENDBRANCH   2   3
ENDBRANCH   1   2
BRANCH   1  25
ATOM     25  C   UNL A   1      41.193  20.022  26.178  1.00  0.00     0.021 C 
BRANCH  25  26
ATOM     26  C   UNL A   1      42.551  19.748  26.799  1.00  0.00     0.116 C 
BRANCH  26  27
ATOM     27  N   UNL A   1      43.618  19.606  25.798  1.00  0.00    -0.352 N 
ATOM     28  C   UNL A   1      44.187  20.581  24.989  1.00  0.00     0.251 C 
ATOM     29  H   UNL A   1      43.977  18.696  25.687  1.00  0.00     0.163 HD
ATOM     30  O   UNL A   1      44.805  20.301  23.982  1.00  0.00    -0.269 OA
BRANCH  28  31
ATOM     31  C   UNL A   1      44.029  21.983  25.409  1.00  0.00     0.039 A 
ATOM     32  C   UNL A   1      43.072  22.844  24.867  1.00  0.00     0.014 A 
ATOM     33  C   UNL A   1      44.846  22.388  26.451  1.00  0.00     0.014 A 
ATOM     34  C   UNL A   1      42.906  24.100  25.453  1.00  0.00     0.010 A 
ATOM     35  C   UNL A   1      44.476  23.467  27.190  1.00  0.00     0.010 A 
ATOM     36  C   UNL A   1      43.614  24.394  26.626  1.00  0.00    -0.014 A 
BRANCH  36  37
ATOM     37  C   UNL A   1      43.488  25.655  27.340  1.00  0.00     0.031 A 
ATOM     38  C   UNL A   1      44.463  26.705  26.956  1.00  0.00     0.074 A 
ATOM     39  C   UNL A   1      42.397  25.917  28.096  1.00  0.00     0.049 A 
ATOM     40  N   UNL A   1      45.370  27.250  27.695  1.00  0.00    -0.248 NA
ATOM     41  C   UNL A   1      44.508  27.127  25.547  1.00  0.00     0.031 C 
ATOM     42  C   UNL A   1      41.201  25.083  28.314  1.00  0.00     0.029 A 
ATOM     43  N   UNL A   1      42.074  27.057  28.759  1.00  0.00    -0.354 N 
ATOM     44  C   UNL A   1      45.971  28.226  26.906  1.00  0.00     0.074 A 
ATOM     45  C   UNL A   1      45.530  27.986  25.557  1.00  0.00     0.031 C 
ATOM     46  C   UNL A   1      40.207  25.830  28.839  1.00  0.00     0.029 A 
ATOM     47  C   UNL A   1      40.754  27.125  29.184  1.00  0.00     0.049 A 
ATOM     48  H   UNL A   1      42.724  27.779  28.924  1.00  0.00     0.167 HD
ATOM     49  C   UNL A   1      46.575  29.307  27.472  1.00  0.00     0.037 A 
ATOM     50  C   UNL A   1      40.148  28.179  29.776  1.00  0.00     0.037 A 
ATOM     51  C   UNL A   1      46.858  29.076  28.867  1.00  0.00     0.049 A 
ATOM     52  C   UNL A   1      41.225  29.032  30.334  1.00  0.00     0.074 A 
ATOM     53  C   UNL A   1      47.622  28.161  29.565  1.00  0.00     0.029 A 
ATOM     54  N   UNL A   1      46.002  29.620  29.794  1.00  0.00    -0.354 N 
ATOM     55  N   UNL A   1      42.020  28.650  31.298  1.00  0.00    -0.248 NA
ATOM     56  C   UNL A   1      41.726  30.111  29.500  1.00  0.00     0.031 C 
ATOM     57  C   UNL A   1      46.854  27.852  30.729  1.00  0.00     0.029 A 
ATOM     58  C   UNL A   1      45.702  28.639  30.704  1.00  0.00     0.049 A 
ATOM     59  H   UNL A   1      45.666  30.545  29.803  1.00  0.00     0.167 HD
ATOM     60  C   UNL A   1      43.270  29.135  30.940  1.00  0.00     0.074 A 
ATOM     61  C   UNL A   1      43.009  30.098  29.871  1.00  0.00     0.031 C 
ATOM     62  C   UNL A   1      44.412  28.503  31.343  1.00  0.00     0.037 A 
BRANCH  49  63
ATOM     63  C   UNL A   1      46.549  30.698  26.882  1.00  0.00     0.064 A 
ATOM     64  C   UNL A   1      47.744  31.442  26.833  1.00  0.00     0.173 A 
ATOM     65  C   UNL A   1      45.365  31.435  26.659  1.00  0.00     0.173 A 
ATOM     66  F   UNL A   1      48.928  30.848  27.044  1.00  0.00    -0.203 F 
ATOM     67  C   UNL A   1      47.744  32.830  26.665  1.00  0.00     0.198 A 
ATOM     68  C   UNL A   1      45.373  32.811  26.437  1.00  0.00     0.198 A 
ATOM     69  F   UNL A   1      44.150  30.886  26.760  1.00  0.00    -0.203 F 
ATOM     70  F   UNL A   1      48.892  33.512  26.760  1.00  0.00    -0.200 F 
ATOM     71  C   UNL A   1      46.556  33.514  26.476  1.00  0.00     0.200 A 
ATOM     72  F   UNL A   1      44.208  33.456  26.274  1.00  0.00    -0.200 F 
ATOM     73  F   UNL A   1      46.546  34.850  26.385  1.00  0.00    -0.200 F 
ENDBRANCH  49  63
BRANCH  50  74
ATOM     74  C   UNL A   1      38.759  28.646  29.562  1.00  0.00     0.064 A 
ATOM     75  C   UNL A   1      37.919  28.957  30.641  1.00  0.00     0.173 A 
ATOM     76  C   UNL A   1      38.320  29.053  28.285  1.00  0.00     0.173 A 
ATOM     77  F   UNL A   1      38.290  28.646  31.891  1.00  0.00    -0.203 F 
ATOM     78  C   UNL A   1      36.717  29.651  30.456  1.00  0.00     0.198 A 
ATOM     79  C   UNL A   1      37.121  29.743  28.102  1.00  0.00     0.198 A 
ATOM     80  F   UNL A   1      39.092  28.873  27.204  1.00  0.00    -0.203 F 
ATOM     81  F   UNL A   1      35.967  29.981  31.516  1.00  0.00    -0.200 F 
ATOM     82  C   UNL A   1      36.325  30.052  29.189  1.00  0.00     0.200 A 
ATOM     83  F   UNL A   1      36.775  30.160  26.876  1.00  0.00    -0.200 F 
ATOM     84  F   UNL A   1      35.206  30.770  29.020  1.00  0.00    -0.200 F 
ENDBRANCH  50  74
BRANCH  62  85
ATOM     85  C   UNL A   1      44.279  27.409  32.370  1.00  0.00     0.064 A 
ATOM     86  C   UNL A   1      44.219  26.040  32.054  1.00  0.00     0.173 A 
ATOM     87  C   UNL A   1      44.370  27.746  33.725  1.00  0.00     0.173 A 
ATOM     88  F   UNL A   1      44.231  25.626  30.785  1.00  0.00    -0.203 F 
ATOM     89  C   UNL A   1      44.213  25.060  33.047  1.00  0.00     0.198 A 
ATOM     90  C   UNL A   1      44.395  26.766  34.715  1.00  0.00     0.198 A 
ATOM     91  F   UNL A   1      44.489  29.033  34.088  1.00  0.00    -0.203 F 
ATOM     92  F   UNL A   1      44.151  23.763  32.711  1.00  0.00    -0.200 F 
ATOM     93  C   UNL A   1      44.308  25.425  34.377  1.00  0.00     0.200 A 
ATOM     94  F   UNL A   1      44.537  27.122  36.000  1.00  0.00    -0.200 F 
ATOM     95  F   UNL A   1      44.345  24.485  35.332  1.00  0.00    -0.200 F 
ENDBRANCH  62  85
ENDBRANCH  36  37
ENDBRANCH  28  31
ENDBRANCH  26  27
ENDBRANCH  25  26
ENDBRANCH   1  25
TORSDOF 15
ENDMDL
MODEL 2
REMARK VINA RESULT:     -12.4      1.943      3.573
REMARK SMILES CCn1nc(-c2cccnc2)c2cc(C(=O)NCCCCCCNC(=O)c3ccc(-c4c5nc(c(-c6c(F)c(F)c(F)c(F)c6F)c6ccc([nH]6)c(-c6c(F)c(F)c(F)c(F)c6F)c6nc(c(-c7c(F)c(F)c(F)c(F)c7F)c7ccc4[nH]7)C=C6)C=C5)cc3)sc21
REMARK SMILES IDX 21 1 20 2 19 3 18 4 17 5 15 6 16 7 14 9 3 10 4 11 91 12 5 13
REMARK SMILES IDX 12 14 90 15 13 16 2 17 1 18 6 19 7 20 11 21 8 22 10 23 9 24
REMARK SMILES IDX 22 25 23 26 24 27 25 28 26 30 27 31 28 32 89 33 29 34 88 35
REMARK SMILES IDX 30 36 31 37 32 38 82 39 33 40 87 41 81 42 83 43 34 44 86 45
REMARK SMILES IDX 80 46 79 47 35 49 67 50 47 51 66 52 48 53 51 54 65 55 84 56
REMARK SMILES IDX 49 57 50 58 64 60 85 61 52 62 36 63 37 64 45 65 38 66 39 67
REMARK SMILES IDX 43 68 46 69 40 70 41 71 44 72 42 73 68 74 69 75 77 76 70 77
REMARK SMILES IDX 71 78 75 79 78 80 72 81 73 82 76 83 74 84 53 85 54 86 62 87
REMARK SMILES IDX 55 88 56 89 60 90 63 91 57 92 58 93 61 94 59 95
REMARK H PARENT 17 8 24 29 83 48 51 59
REMARK Flexibility Score: inf
ROOT
ATOM      1  C   UNL A   1      40.691  20.555  26.745  1.00  0.00     0.002 C 
ENDROOT
BRANCH   1   2
ATOM      2  C   UNL A   1      39.599  21.433  26.104  1.00  0.00     0.002 C 
BRANCH   2   3
ATOM      3  C   UNL A   1      39.434  22.836  26.702  1.00  0.00     0.021 C 
BRANCH   3   4
ATOM      4  C   UNL A   1      38.103  23.502  26.339  1.00  0.00     0.116 C 
BRANCH   4   5
ATOM      5  N   UNL A   1      37.878  23.501  24.902  1.00  0.00    -0.351 N 
ATOM      6  C   UNL A   1      36.824  23.085  24.115  1.00  0.00     0.261 C 
ATOM      7  O   UNL A   1      36.922  23.354  22.915  1.00  0.00    -0.268 OA
ATOM      8  H   UNL A   1      38.629  23.872  24.386  1.00  0.00     0.163 HD
BRANCH   6   9
ATOM      9  C   UNL A   1      35.632  22.438  24.653  1.00  0.00     0.095 A 
ATOM     10  N   UNL A   1      32.082  21.724  25.504  1.00  0.00    -0.254 N 
ATOM     11  N   UNL A   1      31.835  20.394  25.310  1.00  0.00    -0.171 NA
ATOM     12  C   UNL A   1      33.396  21.995  25.384  1.00  0.00     0.122 A 
ATOM     13  C   UNL A   1      33.059  19.846  25.068  1.00  0.00     0.103 A 
ATOM     14  C   UNL A   1      34.000  20.877  24.993  1.00  0.00     0.040 A 
ATOM     15  S   UNL A   1      34.389  23.301  25.517  1.00  0.00    -0.110 S 
ATOM     16  C   UNL A   1      35.328  21.062  24.604  1.00  0.00     0.038 A 
BRANCH  10  17
ATOM     17  C   UNL A   1      31.033  22.722  25.507  1.00  0.00     0.142 C 
ATOM     18  C   UNL A   1      31.090  23.751  24.399  1.00  0.00     0.029 C 
ENDBRANCH  10  17
BRANCH  13  19
ATOM     19  C   UNL A   1      33.241  18.408  24.970  1.00  0.00     0.021 A 
ATOM     20  C   UNL A   1      33.998  17.824  23.953  1.00  0.00     0.013 A 
ATOM     21  C   UNL A   1      32.579  17.552  25.846  1.00  0.00     0.121 A 
ATOM     22  C   UNL A   1      34.068  16.433  23.858  1.00  0.00     0.021 A 
ATOM     23  N   UNL A   1      32.627  16.198  25.779  1.00  0.00    -0.264 NA
ATOM     24  C   UNL A   1      33.367  15.671  24.779  1.00  0.00     0.111 A 
ENDBRANCH  13  19
ENDBRANCH   6   9
ENDBRANCH   4   5
ENDBRANCH   3   4
ENDBRANCH   2   3
ENDBRANCH   1   2
BRANCH   1  25
ATOM     25  C   UNL A   1      41.448  19.600  25.808  1.00  0.00     0.021 C 
BRANCH  25  26
ATOM     26  C   UNL A   1      42.925  19.475  26.137  1.00  0.00     0.116 C 
BRANCH  26  27
ATOM     27  N   UNL A   1      43.792  19.813  24.999  1.00  0.00    -0.352 N 
ATOM     28  C   UNL A   1      44.175  21.067  24.541  1.00  0.00     0.251 C 
ATOM     29  H   UNL A   1      44.149  19.047  24.495  1.00  0.00     0.163 HD
ATOM     30  O   UNL A   1      44.605  21.238  23.418  1.00  0.00    -0.269 OA
BRANCH  28  31
ATOM     31  C   UNL A   1      44.060  22.194  25.481  1.00  0.00     0.039 A 
ATOM     32  C   UNL A   1      44.997  22.457  26.483  1.00  0.00     0.014 A 
ATOM     33  C   UNL A   1      42.992  23.046  25.261  1.00  0.00     0.014 A 
ATOM     34  C   UNL A   1      44.873  23.641  27.210  1.00  0.00     0.010 A 
ATOM     35  C   UNL A   1      43.054  24.312  25.753  1.00  0.00     0.010 A 
ATOM     36  C   UNL A   1      43.894  24.568  26.825  1.00  0.00    -0.014 A 
BRANCH  36  37
ATOM     37  C   UNL A   1      43.703  25.849  27.486  1.00  0.00     0.031 A 
ATOM     38  C   UNL A   1      44.631  26.928  27.066  1.00  0.00     0.074 A 
ATOM     39  C   UNL A   1      42.593  26.089  28.222  1.00  0.00     0.049 A 
ATOM     40  N   UNL A   1      45.504  27.544  27.790  1.00  0.00    -0.248 NA
ATOM     41  C   UNL A   1      44.669  27.294  25.642  1.00  0.00     0.031 C 
ATOM     42  C   UNL A   1      41.435  25.209  28.465  1.00  0.00     0.029 A 
ATOM     43  N   UNL A   1      42.211  27.239  28.835  1.00  0.00    -0.354 N 
ATOM     44  C   UNL A   1      46.066  28.515  26.966  1.00  0.00     0.074 A 
ATOM     45  C   UNL A   1      45.649  28.200  25.625  1.00  0.00     0.031 C 
ATOM     46  C   UNL A   1      40.402  25.929  28.951  1.00  0.00     0.029 A 
ATOM     47  C   UNL A   1      40.885  27.261  29.247  1.00  0.00     0.049 A 
ATOM     48  H   UNL A   1      42.824  27.996  28.976  1.00  0.00     0.167 HD
ATOM     49  C   UNL A   1      46.613  29.645  27.492  1.00  0.00     0.037 A 
ATOM     50  C   UNL A   1      40.224  28.309  29.791  1.00  0.00     0.037 A 
ATOM     51  C   UNL A   1      46.893  29.484  28.898  1.00  0.00     0.049 A 
ATOM     52  C   UNL A   1      41.255  29.233  30.323  1.00  0.00     0.074 A 
ATOM     53  C   UNL A   1      47.692  28.635  29.638  1.00  0.00     0.029 A 
ATOM     54  N   UNL A   1      46.005  30.024  29.795  1.00  0.00    -0.354 N 
ATOM     55  N   UNL A   1      42.058  28.928  31.307  1.00  0.00    -0.248 NA
ATOM     56  C   UNL A   1      41.713  30.300  29.449  1.00  0.00     0.031 C 
ATOM     57  C   UNL A   1      46.929  28.337  30.808  1.00  0.00     0.029 A 
ATOM     58  C   UNL A   1      45.742  29.068  30.742  1.00  0.00     0.049 A 
ATOM     59  H   UNL A   1      45.626  30.932  29.764  1.00  0.00     0.167 HD
ATOM     60  C   UNL A   1      43.287  29.457  30.939  1.00  0.00     0.074 A 
ATOM     61  C   UNL A   1      42.992  30.362  29.830  1.00  0.00     0.031 C 
ATOM     62  C   UNL A   1      44.454  28.896  31.376  1.00  0.00     0.037 A 
BRANCH  49  63
ATOM     63  C   UNL A   1      46.527  31.008  26.846  1.00  0.00     0.064 A 
ATOM     64  C   UNL A   1      47.681  31.817  26.800  1.00  0.00     0.173 A 
ATOM     65  C   UNL A   1      45.312  31.668  26.560  1.00  0.00     0.173 A 
ATOM     66  F   UNL A   1      48.889  31.299  27.067  1.00  0.00    -0.203 F 
ATOM     67  C   UNL A   1      47.608  33.195  26.576  1.00  0.00     0.198 A 
ATOM     68  C   UNL A   1      45.250  33.032  26.284  1.00  0.00     0.198 A 
ATOM     69  F   UNL A   1      44.126  31.055  26.651  1.00  0.00    -0.203 F 
ATOM     70  F   UNL A   1      48.714  33.944  26.675  1.00  0.00    -0.200 F 
ATOM     71  C   UNL A   1      46.390  33.802  26.326  1.00  0.00     0.200 A 
ATOM     72  F   UNL A   1      44.057  33.604  26.062  1.00  0.00    -0.200 F 
ATOM     73  F   UNL A   1      46.309  35.131  26.181  1.00  0.00    -0.200 F 
ENDBRANCH  49  63
BRANCH  50  74
ATOM     74  C   UNL A   1      38.817  28.700  29.548  1.00  0.00     0.064 A 
ATOM     75  C   UNL A   1      37.941  28.971  30.608  1.00  0.00     0.173 A 
ATOM     76  C   UNL A   1      38.382  29.078  28.260  1.00  0.00     0.173 A 
ATOM     77  F   UNL A   1      38.303  28.687  31.867  1.00  0.00    -0.203 F 
ATOM     78  C   UNL A   1      36.708  29.600  30.397  1.00  0.00     0.198 A 
ATOM     79  C   UNL A   1      37.153  29.702  28.051  1.00  0.00     0.198 A 
ATOM     80  F   UNL A   1      39.184  28.934  27.195  1.00  0.00    -0.203 F 
ATOM     81  F   UNL A   1      35.921  29.895  31.440  1.00  0.00    -0.200 F 
ATOM     82  C   UNL A   1      36.320  29.974  29.120  1.00  0.00     0.200 A 
ATOM     83  F   UNL A   1      36.809  30.095  26.815  1.00  0.00    -0.200 F 
ATOM     84  F   UNL A   1      35.169  30.631  28.925  1.00  0.00    -0.200 F 
ENDBRANCH  50  74
BRANCH  62  85
ATOM     85  C   UNL A   1      44.362  27.840  32.446  1.00  0.00     0.064 A 
ATOM     86  C   UNL A   1      44.137  28.118  33.806  1.00  0.00     0.173 A 
ATOM     87  C   UNL A   1      44.347  26.495  32.061  1.00  0.00     0.173 A 
ATOM     88  F   UNL A   1      44.035  29.375  34.243  1.00  0.00    -0.203 F 
ATOM     89  C   UNL A   1      43.944  27.099  34.739  1.00  0.00     0.198 A 
ATOM     90  C   UNL A   1      44.123  25.479  32.988  1.00  0.00     0.198 A 
ATOM     91  F   UNL A   1      44.498  26.168  30.767  1.00  0.00    -0.203 F 
ATOM     92  F   UNL A   1      43.736  27.399  36.030  1.00  0.00    -0.200 F 
ATOM     93  C   UNL A   1      43.931  25.779  34.326  1.00  0.00     0.200 A 
ATOM     94  F   UNL A   1      44.062  24.204  32.575  1.00  0.00    -0.200 F 
ATOM     95  F   UNL A   1      43.704  24.800  35.212  1.00  0.00    -0.200 F 
ENDBRANCH  62  85
ENDBRANCH  36  37
ENDBRANCH  28  31
ENDBRANCH  26  27
ENDBRANCH  25  26
ENDBRANCH   1  25
TORSDOF 15
ENDMDL
MODEL 3
REMARK VINA RESULT:     -12.2      4.145      9.446
REMARK SMILES CCn1nc(-c2cccnc2)c2cc(C(=O)NCCCCCCNC(=O)c3ccc(-c4c5nc(c(-c6c(F)c(F)c(F)c(F)c6F)c6ccc([nH]6)c(-c6c(F)c(F)c(F)c(F)c6F)c6nc(c(-c7c(F)c(F)c(F)c(F)c7F)c7ccc4[nH]7)C=C6)C=C5)cc3)sc21
REMARK SMILES IDX 21 1 20 2 19 3 18 4 17 5 15 6 16 7 14 9 3 10 4 11 91 12 5 13
REMARK SMILES IDX 12 14 90 15 13 16 2 17 1 18 6 19 7 20 11 21 8 22 10 23 9 24
REMARK SMILES IDX 22 25 23 26 24 27 25 28 26 30 27 31 28 32 89 33 29 34 88 35
REMARK SMILES IDX 30 36 31 37 32 38 82 39 33 40 87 41 81 42 83 43 34 44 86 45
REMARK SMILES IDX 80 46 79 47 35 49 67 50 47 51 66 52 48 53 51 54 65 55 84 56
REMARK SMILES IDX 49 57 50 58 64 60 85 61 52 62 36 63 37 64 45 65 38 66 39 67
REMARK SMILES IDX 43 68 46 69 40 70 41 71 44 72 42 73 68 74 69 75 77 76 70 77
REMARK SMILES IDX 71 78 75 79 78 80 72 81 73 82 76 83 74 84 53 85 54 86 62 87
REMARK SMILES IDX 55 88 56 89 60 90 63 91 57 92 58 93 61 94 59 95
REMARK H PARENT 17 8 24 29 83 48 51 59
REMARK Flexibility Score: inf
ROOT
ATOM      1  C   UNL A   1      35.384  33.491  28.071  1.00  0.00     0.002 C 
ENDROOT
BRANCH   1   2
ATOM      2  C   UNL A   1      34.473  32.267  27.863  1.00  0.00     0.002 C 
BRANCH   2   3
ATOM      3  C   UNL A   1      35.076  30.911  28.249  1.00  0.00     0.021 C 
BRANCH   3   4
ATOM      4  C   UNL A   1      34.624  29.761  27.344  1.00  0.00     0.116 C 
BRANCH   4   5
ATOM      5  N   UNL A   1      33.505  29.032  27.922  1.00  0.00    -0.351 N 
ATOM      6  C   UNL A   1      32.418  28.386  27.371  1.00  0.00     0.261 C 
ATOM      7  O   UNL A   1      31.720  27.754  28.168  1.00  0.00    -0.268 OA
ATOM      8  H   UNL A   1      33.529  28.991  28.905  1.00  0.00     0.163 HD
BRANCH   6   9
ATOM      9  C   UNL A   1      32.136  28.376  25.940  1.00  0.00     0.095 A 
ATOM     10  N   UNL A   1      31.371  27.182  22.500  1.00  0.00    -0.254 N 
ATOM     11  N   UNL A   1      30.418  27.991  21.949  1.00  0.00    -0.171 NA
ATOM     12  C   UNL A   1      31.811  27.681  23.672  1.00  0.00     0.122 A 
ATOM     13  C   UNL A   1      30.287  29.022  22.829  1.00  0.00     0.103 A 
ATOM     14  C   UNL A   1      31.069  28.747  23.955  1.00  0.00     0.040 A 
ATOM     15  S   UNL A   1      32.921  27.292  24.824  1.00  0.00    -0.110 S 
ATOM     16  C   UNL A   1      31.254  29.234  25.251  1.00  0.00     0.038 A 
BRANCH  10  17
ATOM     17  C   UNL A   1      31.613  25.831  22.040  1.00  0.00     0.142 C 
ATOM     18  C   UNL A   1      32.507  25.691  20.827  1.00  0.00     0.029 C 
ENDBRANCH  10  17
BRANCH  13  19
ATOM     19  C   UNL A   1      29.476  30.186  22.518  1.00  0.00     0.021 A 
ATOM     20  C   UNL A   1      28.928  30.996  23.515  1.00  0.00     0.013 A 
ATOM     21  C   UNL A   1      29.140  30.480  21.200  1.00  0.00     0.121 A 
ATOM     22  C   UNL A   1      28.086  32.051  23.160  1.00  0.00     0.021 A 
ATOM     23  N   UNL A   1      28.324  31.497  20.824  1.00  0.00    -0.264 NA
ATOM     24  C   UNL A   1      27.811  32.255  21.817  1.00  0.00     0.111 A 
ENDBRANCH  13  19
ENDBRANCH   6   9
ENDBRANCH   4   5
ENDBRANCH   3   4
ENDBRANCH   2   3
ENDBRANCH   1   2
BRANCH   1  25
ATOM     25  C   UNL A   1      34.734  34.740  28.686  1.00  0.00     0.021 C 
BRANCH  25  26
ATOM     26  C   UNL A   1      33.419  34.455  29.388  1.00  0.00     0.116 C 
BRANCH  26  27
ATOM     27  N   UNL A   1      33.263  35.214  30.637  1.00  0.00    -0.352 N 
ATOM     28  C   UNL A   1      33.768  34.926  31.898  1.00  0.00     0.251 C 
ATOM     29  H   UNL A   1      32.727  36.037  30.570  1.00  0.00     0.163 HD
ATOM     30  O   UNL A   1      33.307  35.423  32.906  1.00  0.00    -0.269 OA
BRANCH  28  31
ATOM     31  C   UNL A   1      34.910  33.999  31.973  1.00  0.00     0.039 A 
ATOM     32  C   UNL A   1      34.781  32.612  31.874  1.00  0.00     0.014 A 
ATOM     33  C   UNL A   1      36.156  34.596  32.066  1.00  0.00     0.014 A 
ATOM     34  C   UNL A   1      35.944  31.845  31.796  1.00  0.00     0.010 A 
ATOM     35  C   UNL A   1      37.251  33.885  31.689  1.00  0.00     0.010 A 
ATOM     36  C   UNL A   1      37.178  32.501  31.696  1.00  0.00    -0.014 A 
BRANCH  36  37
ATOM     37  C   UNL A   1      38.447  31.802  31.570  1.00  0.00     0.031 A 
ATOM     38  C   UNL A   1      39.144  31.511  32.847  1.00  0.00     0.074 A 
ATOM     39  C   UNL A   1      38.813  31.236  30.397  1.00  0.00     0.049 A 
ATOM     40  N   UNL A   1      40.292  31.952  33.239  1.00  0.00    -0.248 NA
ATOM     41  C   UNL A   1      38.430  30.720  33.861  1.00  0.00     0.031 C 
ATOM     42  C   UNL A   1      38.069  31.179  29.125  1.00  0.00     0.029 A 
ATOM     43  N   UNL A   1      39.909  30.483  30.120  1.00  0.00    -0.354 N 
ATOM     44  C   UNL A   1      40.540  31.336  34.463  1.00  0.00     0.074 A 
ATOM     45  C   UNL A   1      39.298  30.738  34.875  1.00  0.00     0.031 C 
ATOM     46  C   UNL A   1      38.610  30.244  28.315  1.00  0.00     0.029 A 
ATOM     47  C   UNL A   1      39.847  29.793  28.917  1.00  0.00     0.049 A 
ATOM     48  H   UNL A   1      40.684  30.430  30.724  1.00  0.00     0.167 HD
ATOM     49  C   UNL A   1      41.815  31.151  34.905  1.00  0.00     0.037 A 
ATOM     50  C   UNL A   1      40.750  28.902  28.447  1.00  0.00     0.037 A 
ATOM     51  C   UNL A   1      42.741  32.002  34.199  1.00  0.00     0.049 A 
ATOM     52  C   UNL A   1      42.019  29.162  29.170  1.00  0.00     0.074 A 
ATOM     53  C   UNL A   1      42.887  33.367  34.051  1.00  0.00     0.029 A 
ATOM     54  N   UNL A   1      43.480  31.444  33.185  1.00  0.00    -0.354 N 
ATOM     55  N   UNL A   1      42.702  30.269  29.052  1.00  0.00    -0.248 NA
ATOM     56  C   UNL A   1      42.270  28.397  30.380  1.00  0.00     0.031 C 
ATOM     57  C   UNL A   1      43.277  33.551  32.690  1.00  0.00     0.029 A 
ATOM     58  C   UNL A   1      43.407  32.289  32.107  1.00  0.00     0.049 A 
ATOM     59  H   UNL A   1      43.972  30.592  33.224  1.00  0.00     0.167 HD
ATOM     60  C   UNL A   1      43.142  30.552  30.337  1.00  0.00     0.074 A 
ATOM     61  C   UNL A   1      42.919  29.322  31.093  1.00  0.00     0.031 C 
ATOM     62  C   UNL A   1      43.376  31.839  30.734  1.00  0.00     0.037 A 
BRANCH  49  63
ATOM     63  C   UNL A   1      42.275  29.937  35.679  1.00  0.00     0.064 A 
ATOM     64  C   UNL A   1      43.178  30.110  36.747  1.00  0.00     0.173 A 
ATOM     65  C   UNL A   1      42.118  28.609  35.225  1.00  0.00     0.173 A 
ATOM     66  F   UNL A   1      43.416  31.331  37.249  1.00  0.00    -0.203 F 
ATOM     67  C   UNL A   1      43.931  29.048  37.256  1.00  0.00     0.198 A 
ATOM     68  C   UNL A   1      42.830  27.544  35.772  1.00  0.00     0.198 A 
ATOM     69  F   UNL A   1      41.364  28.300  34.164  1.00  0.00    -0.203 F 
ATOM     70  F   UNL A   1      44.874  29.283  38.177  1.00  0.00    -0.200 F 
ATOM     71  C   UNL A   1      43.762  27.767  36.761  1.00  0.00     0.200 A 
ATOM     72  F   UNL A   1      42.664  26.314  35.266  1.00  0.00    -0.200 F 
ATOM     73  F   UNL A   1      44.530  26.761  37.198  1.00  0.00    -0.200 F 
ENDBRANCH  49  63
BRANCH  50  74
ATOM     74  C   UNL A   1      40.469  27.652  27.704  1.00  0.00     0.064 A 
ATOM     75  C   UNL A   1      41.201  27.303  26.560  1.00  0.00     0.173 A 
ATOM     76  C   UNL A   1      39.655  26.645  28.262  1.00  0.00     0.173 A 
ATOM     77  F   UNL A   1      42.035  28.190  26.001  1.00  0.00    -0.203 F 
ATOM     78  C   UNL A   1      41.136  26.015  26.016  1.00  0.00     0.198 A 
ATOM     79  C   UNL A   1      39.590  25.363  27.717  1.00  0.00     0.198 A 
ATOM     80  F   UNL A   1      38.982  26.860  29.402  1.00  0.00    -0.203 F 
ATOM     81  F   UNL A   1      41.893  25.700  24.956  1.00  0.00    -0.200 F 
ATOM     82  C   UNL A   1      40.339  25.044  26.600  1.00  0.00     0.200 A 
ATOM     83  F   UNL A   1      38.846  24.422  28.317  1.00  0.00    -0.200 F 
ATOM     84  F   UNL A   1      40.325  23.795  26.116  1.00  0.00    -0.200 F 
ENDBRANCH  50  74
BRANCH  62  85
ATOM     85  C   UNL A   1      43.364  32.908  29.673  1.00  0.00     0.064 A 
ATOM     86  C   UNL A   1      42.272  33.760  29.429  1.00  0.00     0.173 A 
ATOM     87  C   UNL A   1      44.551  33.184  28.985  1.00  0.00     0.173 A 
ATOM     88  F   UNL A   1      41.134  33.632  30.115  1.00  0.00    -0.203 F 
ATOM     89  C   UNL A   1      42.353  34.810  28.515  1.00  0.00     0.198 A 
ATOM     90  C   UNL A   1      44.641  34.252  28.095  1.00  0.00     0.198 A 
ATOM     91  F   UNL A   1      45.647  32.443  29.218  1.00  0.00    -0.203 F 
ATOM     92  F   UNL A   1      41.290  35.601  28.303  1.00  0.00    -0.200 F 
ATOM     93  C   UNL A   1      43.542  35.059  27.854  1.00  0.00     0.200 A 
ATOM     94  F   UNL A   1      45.809  34.520  27.493  1.00  0.00    -0.200 F 
ATOM     95  F   UNL A   1      43.636  36.093  27.006  1.00  0.00    -0.200 F 
ENDBRANCH  62  85
ENDBRANCH  36  37
ENDBRANCH  28  31
ENDBRANCH  26  27
ENDBRANCH  25  26
ENDBRANCH   1  25
TORSDOF 15
ENDMDL
