MODEL 1
REMARK VINA RESULT:     -11.2      0.000      0.000
REMARK SMILES COc1cccc(N2/C(=[NH+]/C(=O)CCC(=O)NCCCCCCNC(=O)c3ccc(-c4c5nc(c(-c6c(F)c(F)c(F)c(F)c6F)c6ccc([nH]6)c(-c6c(F)c(F)c(F)c(F)c6F)c6nc(c(-c7c(F)c(F)c(F)c(F)c7F)c7ccc4[nH]7)C=C6)C=C5)cc3)S[C@@H]3CS(=O)(=O)C[C@H]32)c1
REMARK SMILES IDX 19 1 18 2 17 3 15 4 16 5 14 7 13 8 11 9 8 10 9 11 97 12
REMARK SMILES IDX 10 13 90 14 91 15 96 16 92 18 93 19 12 20 94 21 95 22 7 23
REMARK SMILES IDX 3 24 4 25 98 26 5 27 6 28 2 29 1 30 20 31 21 32 22 33 23 34
REMARK SMILES IDX 24 35 25 36 26 38 27 39 28 40 89 41 29 42 88 43 30 44 31 45
REMARK SMILES IDX 32 46 82 47 33 48 87 49 81 50 83 51 34 52 86 53 80 54 79 55
REMARK SMILES IDX 35 57 67 58 47 59 66 60 48 61 51 62 65 63 84 64 49 65 50 66
REMARK SMILES IDX 64 68 85 69 52 70 36 71 37 72 45 73 38 74 39 75 43 76 46 77
REMARK SMILES IDX 40 78 41 79 44 80 42 81 68 82 69 83 77 84 70 85 71 86 75 87
REMARK SMILES IDX 78 88 72 89 73 90 76 91 74 92 53 93 54 94 62 95 55 96 56 97
REMARK SMILES IDX 60 98 63 99 57 100 58 101 61 102 59 103
REMARK H PARENT 17 6 10 17 24 37 83 56 51 67
REMARK Flexibility Score: inf
ROOT
ATOM      1  C   UNL A   1      34.767  33.534  27.996  1.00  0.00     0.021 C 
ENDROOT
BRANCH   1   2
ATOM      2  C   UNL A   1      33.504  32.697  28.314  1.00  0.00     0.116 C 
BRANCH   2   3
ATOM      3  N   UNL A   1      32.541  32.564  27.227  1.00  0.00    -0.356 N 
ATOM      4  C   UNL A   1      31.837  31.517  26.715  1.00  0.00     0.220 C 
ATOM      5  O   UNL A   1      31.014  31.761  25.829  1.00  0.00    -0.275 OA
ATOM      6  H   UNL A   1      32.359  33.414  26.764  1.00  0.00     0.163 HD
BRANCH   4   7
ATOM      7  C   UNL A   1      32.055  30.092  27.174  1.00  0.00     0.112 C 
BRANCH   7   8
ATOM      8  C   UNL A   1      33.541  29.753  27.109  1.00  0.00     0.138 C 
BRANCH   8   9
ATOM      9  C   UNL A   1      33.640  28.443  26.390  1.00  0.00     0.308 C 
ATOM     10  N   UNL A   1      31.455  26.397  24.327  1.00  0.00    -0.216 N 
ATOM     11  C   UNL A   1      32.323  26.893  25.309  1.00  0.00     0.319 C 
ATOM     12  C   UNL A   1      32.135  25.295  23.635  1.00  0.00     0.212 C 
ATOM     13  N   UNL A   1      32.526  28.116  25.654  1.00  0.00    -0.204 N 
ATOM     14  S   UNL A   1      33.250  25.511  25.995  1.00  0.00    -0.029 SA
ATOM     15  C   UNL A   1      32.633  24.382  24.763  1.00  0.00     0.120 C 
ATOM     16  C   UNL A   1      31.517  24.340  22.646  1.00  0.00     0.188 C 
ATOM     17  H   UNL A   1      31.886  28.816  25.392  1.00  0.00     0.316 HD
ATOM     18  C   UNL A   1      33.646  23.482  24.122  1.00  0.00     0.156 C 
ATOM     19  S   UNL A   1      32.794  23.030  22.636  1.00  0.00     0.155 S 
ATOM     20  O   UNL A   1      34.740  27.894  26.314  1.00  0.00    -0.247 OA
ATOM     21  O   UNL A   1      32.157  21.748  22.821  1.00  0.00    -0.229 OA
ATOM     22  O   UNL A   1      33.757  23.280  21.587  1.00  0.00    -0.229 OA
BRANCH  10  23
ATOM     23  C   UNL A   1      30.364  27.072  23.751  1.00  0.00     0.132 A 
ATOM     24  C   UNL A   1      29.371  28.854  22.375  1.00  0.00     0.123 A 
ATOM     25  C   UNL A   1      28.098  28.464  22.782  1.00  0.00     0.047 A 
ATOM     26  C   UNL A   1      30.494  28.174  22.880  1.00  0.00     0.098 A 
ATOM     27  C   UNL A   1      27.938  27.398  23.658  1.00  0.00     0.008 A 
ATOM     28  C   UNL A   1      29.059  26.711  24.130  1.00  0.00     0.052 A 
BRANCH  24  29
ATOM     29  O   UNL A   1      29.374  29.956  21.568  1.00  0.00    -0.497 OA
ATOM     30  C   UNL A   1      28.129  30.548  21.236  1.00  0.00     0.278 C 
ENDBRANCH  24  29
ENDBRANCH  10  23
ENDBRANCH   8   9
ENDBRANCH   7   8
ENDBRANCH   4   7
ENDBRANCH   2   3
ENDBRANCH   1   2
BRANCH   1  31
ATOM     31  C   UNL A   1      34.755  35.029  28.381  1.00  0.00     0.002 C 
BRANCH  31  32
ATOM     32  C   UNL A   1      33.425  35.804  28.546  1.00  0.00     0.002 C 
BRANCH  32  33
ATOM     33  C   UNL A   1      33.403  37.235  29.131  1.00  0.00     0.021 C 
BRANCH  33  34
ATOM     34  C   UNL A   1      33.238  37.426  30.658  1.00  0.00     0.116 C 
BRANCH  34  35
ATOM     35  N   UNL A   1      32.353  36.502  31.368  1.00  0.00    -0.352 N 
ATOM     36  C   UNL A   1      32.661  35.373  32.125  1.00  0.00     0.251 C 
ATOM     37  H   UNL A   1      31.393  36.710  31.302  1.00  0.00     0.163 HD
ATOM     38  O   UNL A   1      31.824  34.929  32.908  1.00  0.00    -0.269 OA
BRANCH  36  39
ATOM     39  C   UNL A   1      33.980  34.687  32.047  1.00  0.00     0.039 A 
ATOM     40  C   UNL A   1      35.178  35.391  32.041  1.00  0.00     0.014 A 
ATOM     41  C   UNL A   1      34.046  33.312  31.859  1.00  0.00     0.014 A 
ATOM     42  C   UNL A   1      36.407  34.693  32.044  1.00  0.00     0.010 A 
ATOM     43  C   UNL A   1      35.258  32.618  32.071  1.00  0.00     0.010 A 
ATOM     44  C   UNL A   1      36.475  33.291  32.222  1.00  0.00    -0.014 A 
BRANCH  44  45
ATOM     45  C   UNL A   1      37.775  32.614  32.655  1.00  0.00     0.031 A 
ATOM     46  C   UNL A   1      38.497  32.885  33.974  1.00  0.00     0.074 A 
ATOM     47  C   UNL A   1      38.404  31.778  31.789  1.00  0.00     0.049 A 
ATOM     48  N   UNL A   1      39.599  32.330  34.446  1.00  0.00    -0.248 NA
ATOM     49  C   UNL A   1      37.972  33.939  34.850  1.00  0.00     0.031 C 
ATOM     50  C   UNL A   1      38.001  31.531  30.402  1.00  0.00     0.029 A 
ATOM     51  N   UNL A   1      39.509  30.960  31.939  1.00  0.00    -0.354 N 
ATOM     52  C   UNL A   1      39.901  32.992  35.635  1.00  0.00     0.074 A 
ATOM     53  C   UNL A   1      38.919  34.043  35.772  1.00  0.00     0.031 C 
ATOM     54  C   UNL A   1      38.751  30.553  29.877  1.00  0.00     0.029 A 
ATOM     55  C   UNL A   1      39.752  30.145  30.853  1.00  0.00     0.049 A 
ATOM     56  H   UNL A   1      40.073  30.962  32.747  1.00  0.00     0.167 HD
ATOM     57  C   UNL A   1      40.866  32.736  36.560  1.00  0.00     0.037 A 
ATOM     58  C   UNL A   1      40.659  29.168  30.646  1.00  0.00     0.037 A 
ATOM     59  C   UNL A   1      41.821  31.656  36.480  1.00  0.00     0.049 A 
ATOM     60  C   UNL A   1      41.651  28.823  31.722  1.00  0.00     0.074 A 
ATOM     61  C   UNL A   1      42.751  31.251  37.426  1.00  0.00     0.029 A 
ATOM     62  N   UNL A   1      41.971  30.810  35.394  1.00  0.00    -0.354 N 
ATOM     63  N   UNL A   1      41.812  29.369  32.901  1.00  0.00    -0.248 NA
ATOM     64  C   UNL A   1      42.586  27.722  31.440  1.00  0.00     0.031 C 
ATOM     65  C   UNL A   1      43.491  30.190  36.896  1.00  0.00     0.029 A 
ATOM     66  C   UNL A   1      42.985  29.896  35.642  1.00  0.00     0.049 A 
ATOM     67  H   UNL A   1      41.436  30.850  34.569  1.00  0.00     0.167 HD
ATOM     68  C   UNL A   1      42.840  28.661  33.510  1.00  0.00     0.074 A 
ATOM     69  C   UNL A   1      43.253  27.633  32.581  1.00  0.00     0.031 C 
ATOM     70  C   UNL A   1      43.391  28.857  34.731  1.00  0.00     0.037 A 
BRANCH  57  71
ATOM     71  C   UNL A   1      40.917  33.608  37.793  1.00  0.00     0.064 A 
ATOM     72  C   UNL A   1      41.813  34.685  37.891  1.00  0.00     0.173 A 
ATOM     73  C   UNL A   1      40.016  33.417  38.855  1.00  0.00     0.173 A 
ATOM     74  F   UNL A   1      42.686  34.929  36.903  1.00  0.00    -0.203 F 
ATOM     75  C   UNL A   1      41.842  35.501  39.021  1.00  0.00     0.198 A 
ATOM     76  C   UNL A   1      40.022  34.260  39.966  1.00  0.00     0.198 A 
ATOM     77  F   UNL A   1      39.113  32.427  38.809  1.00  0.00    -0.203 F 
ATOM     78  F   UNL A   1      42.749  36.484  39.110  1.00  0.00    -0.200 F 
ATOM     79  C   UNL A   1      40.943  35.293  40.054  1.00  0.00     0.200 A 
ATOM     80  F   UNL A   1      39.133  34.075  40.952  1.00  0.00    -0.200 F 
ATOM     81  F   UNL A   1      40.966  36.085  41.135  1.00  0.00    -0.200 F 
ENDBRANCH  57  71
BRANCH  58  82
ATOM     82  C   UNL A   1      40.637  28.387  29.373  1.00  0.00     0.064 A 
ATOM     83  C   UNL A   1      41.420  28.782  28.277  1.00  0.00     0.173 A 
ATOM     84  C   UNL A   1      39.837  27.247  29.220  1.00  0.00     0.173 A 
ATOM     85  F   UNL A   1      42.187  29.879  28.363  1.00  0.00    -0.203 F 
ATOM     86  C   UNL A   1      41.381  28.083  27.072  1.00  0.00     0.198 A 
ATOM     87  C   UNL A   1      39.828  26.527  28.026  1.00  0.00     0.198 A 
ATOM     88  F   UNL A   1      39.077  26.817  30.239  1.00  0.00    -0.203 F 
ATOM     89  F   UNL A   1      42.096  28.518  26.024  1.00  0.00    -0.200 F 
ATOM     90  C   UNL A   1      40.591  26.951  26.949  1.00  0.00     0.200 A 
ATOM     91  F   UNL A   1      39.078  25.421  27.919  1.00  0.00    -0.200 F 
ATOM     92  F   UNL A   1      40.558  26.276  25.793  1.00  0.00    -0.200 F 
ENDBRANCH  58  82
BRANCH  70  93
ATOM     93  C   UNL A   1      44.476  27.914  35.168  1.00  0.00     0.064 A 
ATOM     94  C   UNL A   1      44.189  26.711  35.829  1.00  0.00     0.173 A 
ATOM     95  C   UNL A   1      45.820  28.201  34.885  1.00  0.00     0.173 A 
ATOM     96  F   UNL A   1      42.922  26.395  36.138  1.00  0.00    -0.203 F 
ATOM     97  C   UNL A   1      45.208  25.842  36.210  1.00  0.00     0.198 A 
ATOM     98  C   UNL A   1      46.834  27.315  35.241  1.00  0.00     0.198 A 
ATOM     99  F   UNL A   1      46.151  29.337  34.252  1.00  0.00    -0.203 F 
ATOM    100  F   UNL A   1      44.913  24.720  36.883  1.00  0.00    -0.200 F 
ATOM    101  C   UNL A   1      46.529  26.141  35.909  1.00  0.00     0.200 A 
ATOM    102  F   UNL A   1      48.107  27.600  34.935  1.00  0.00    -0.200 F 
ATOM    103  F   UNL A   1      47.507  25.298  36.269  1.00  0.00    -0.200 F 
ENDBRANCH  70  93
ENDBRANCH  44  45
ENDBRANCH  36  39
ENDBRANCH  34  35
ENDBRANCH  33  34
ENDBRANCH  32  33
ENDBRANCH  31  32
ENDBRANCH   1  31
TORSDOF 17
ENDMDL
MODEL 2
REMARK VINA RESULT:     -11.2      5.891     11.465
REMARK SMILES COc1cccc(N2/C(=[NH+]/C(=O)CCC(=O)NCCCCCCNC(=O)c3ccc(-c4c5nc(c(-c6c(F)c(F)c(F)c(F)c6F)c6ccc([nH]6)c(-c6c(F)c(F)c(F)c(F)c6F)c6nc(c(-c7c(F)c(F)c(F)c(F)c7F)c7ccc4[nH]7)C=C6)C=C5)cc3)S[C@@H]3CS(=O)(=O)C[C@H]32)c1
REMARK SMILES IDX 19 1 18 2 17 3 15 4 16 5 14 7 13 8 11 9 8 10 9 11 97 12
REMARK SMILES IDX 10 13 90 14 91 15 96 16 92 18 93 19 12 20 94 21 95 22 7 23
REMARK SMILES IDX 3 24 4 25 98 26 5 27 6 28 2 29 1 30 20 31 21 32 22 33 23 34
REMARK SMILES IDX 24 35 25 36 26 38 27 39 28 40 89 41 29 42 88 43 30 44 31 45
REMARK SMILES IDX 32 46 82 47 33 48 87 49 81 50 83 51 34 52 86 53 80 54 79 55
REMARK SMILES IDX 35 57 67 58 47 59 66 60 48 61 51 62 65 63 84 64 49 65 50 66
REMARK SMILES IDX 64 68 85 69 52 70 36 71 37 72 45 73 38 74 39 75 43 76 46 77
REMARK SMILES IDX 40 78 41 79 44 80 42 81 68 82 69 83 77 84 70 85 71 86 75 87
REMARK SMILES IDX 78 88 72 89 73 90 76 91 74 92 53 93 54 94 62 95 55 96 56 97
REMARK SMILES IDX 60 98 63 99 57 100 58 101 61 102 59 103
REMARK H PARENT 17 6 10 17 24 37 83 56 51 67
REMARK Flexibility Score: inf
ROOT
ATOM      1  C   UNL A   1      47.049  27.068  31.554  1.00  0.00     0.021 C 
ENDROOT
BRANCH   1   2
ATOM      2  C   UNL A   1      47.633  27.035  30.119  1.00  0.00     0.116 C 
BRANCH   2   3
ATOM      3  N   UNL A   1      47.879  28.335  29.506  1.00  0.00    -0.356 N 
ATOM      4  C   UNL A   1      47.087  29.239  28.867  1.00  0.00     0.220 C 
ATOM      5  O   UNL A   1      47.598  30.313  28.537  1.00  0.00    -0.275 OA
ATOM      6  H   UNL A   1      48.820  28.620  29.567  1.00  0.00     0.163 HD
BRANCH   4   7
ATOM      7  C   UNL A   1      45.639  28.957  28.534  1.00  0.00     0.112 C 
BRANCH   7   8
ATOM      8  C   UNL A   1      45.387  29.245  27.057  1.00  0.00     0.138 C 
BRANCH   8   9
ATOM      9  C   UNL A   1      45.551  27.939  26.342  1.00  0.00     0.308 C 
ATOM     10  N   UNL A   1      45.413  24.415  27.227  1.00  0.00    -0.216 N 
ATOM     11  C   UNL A   1      45.781  25.686  26.766  1.00  0.00     0.319 C 
ATOM     12  C   UNL A   1      45.389  23.504  26.076  1.00  0.00     0.212 C 
ATOM     13  N   UNL A   1      45.320  26.833  27.126  1.00  0.00    -0.204 N 
ATOM     14  S   UNL A   1      46.987  25.482  25.445  1.00  0.00    -0.029 SA
ATOM     15  C   UNL A   1      46.744  23.717  25.389  1.00  0.00     0.120 C 
ATOM     16  C   UNL A   1      45.242  22.005  26.122  1.00  0.00     0.188 C 
ATOM     17  H   UNL A   1      44.805  26.918  27.959  1.00  0.00     0.316 HD
ATOM     18  C   UNL A   1      46.594  23.112  24.027  1.00  0.00     0.156 C 
ATOM     19  S   UNL A   1      45.794  21.584  24.430  1.00  0.00     0.155 S 
ATOM     20  O   UNL A   1      45.638  27.946  25.114  1.00  0.00    -0.247 OA
ATOM     21  O   UNL A   1      46.780  20.532  24.502  1.00  0.00    -0.229 OA
ATOM     22  O   UNL A   1      44.661  21.532  23.533  1.00  0.00    -0.229 OA
BRANCH  10  23
ATOM     23  C   UNL A   1      44.728  24.120  28.419  1.00  0.00     0.132 A 
ATOM     24  C   UNL A   1      44.523  24.068  30.871  1.00  0.00     0.123 A 
ATOM     25  C   UNL A   1      43.348  23.329  30.761  1.00  0.00     0.047 A 
ATOM     26  C   UNL A   1      45.217  24.437  29.705  1.00  0.00     0.098 A 
ATOM     27  C   UNL A   1      42.854  22.981  29.511  1.00  0.00     0.008 A 
ATOM     28  C   UNL A   1      43.536  23.377  28.357  1.00  0.00     0.052 A 
BRANCH  24  29
ATOM     29  O   UNL A   1      44.919  24.277  32.161  1.00  0.00    -0.497 OA
ATOM     30  C   UNL A   1      44.452  23.385  33.159  1.00  0.00     0.278 C 
ENDBRANCH  24  29
ENDBRANCH  10  23
ENDBRANCH   8   9
ENDBRANCH   7   8
ENDBRANCH   4   7
ENDBRANCH   2   3
ENDBRANCH   1   2
BRANCH   1  31
ATOM     31  C   UNL A   1      47.674  26.128  32.607  1.00  0.00     0.002 C 
BRANCH  31  32
ATOM     32  C   UNL A   1      49.192  26.157  32.907  1.00  0.00     0.002 C 
BRANCH  32  33
ATOM     33  C   UNL A   1      49.718  26.201  34.360  1.00  0.00     0.021 C 
BRANCH  33  34
ATOM     34  C   UNL A   1      49.745  27.552  35.114  1.00  0.00     0.116 C 
BRANCH  34  35
ATOM     35  N   UNL A   1      49.108  27.611  36.430  1.00  0.00    -0.352 N 
ATOM     36  C   UNL A   1      47.758  27.560  36.772  1.00  0.00     0.251 C 
ATOM     37  H   UNL A   1      49.727  27.700  37.190  1.00  0.00     0.163 HD
ATOM     38  O   UNL A   1      47.442  27.289  37.929  1.00  0.00    -0.269 OA
BRANCH  36  39
ATOM     39  C   UNL A   1      46.668  27.796  35.786  1.00  0.00     0.039 A 
ATOM     40  C   UNL A   1      45.633  26.888  35.600  1.00  0.00     0.014 A 
ATOM     41  C   UNL A   1      46.718  28.890  34.932  1.00  0.00     0.014 A 
ATOM     42  C   UNL A   1      44.580  27.191  34.709  1.00  0.00     0.010 A 
ATOM     43  C   UNL A   1      45.573  29.284  34.205  1.00  0.00     0.010 A 
ATOM     44  C   UNL A   1      44.442  28.467  34.112  1.00  0.00    -0.014 A 
BRANCH  44  45
ATOM     45  C   UNL A   1      43.110  28.920  33.519  1.00  0.00     0.031 A 
ATOM     46  C   UNL A   1      42.101  29.817  34.235  1.00  0.00     0.074 A 
ATOM     47  C   UNL A   1      42.725  28.435  32.310  1.00  0.00     0.049 A 
ATOM     48  N   UNL A   1      40.947  30.285  33.795  1.00  0.00    -0.248 NA
ATOM     49  C   UNL A   1      42.372  30.194  35.628  1.00  0.00     0.031 C 
ATOM     50  C   UNL A   1      43.436  27.411  31.541  1.00  0.00     0.029 A 
ATOM     51  N   UNL A   1      41.650  28.741  31.496  1.00  0.00    -0.354 N 
ATOM     52  C   UNL A   1      40.359  30.966  34.861  1.00  0.00     0.074 A 
ATOM     53  C   UNL A   1      41.241  30.781  35.992  1.00  0.00     0.031 C 
ATOM     54  C   UNL A   1      42.864  27.265  30.339  1.00  0.00     0.029 A 
ATOM     55  C   UNL A   1      41.690  28.123  30.263  1.00  0.00     0.049 A 
ATOM     56  H   UNL A   1      40.921  29.343  31.772  1.00  0.00     0.167 HD
ATOM     57  C   UNL A   1      39.225  31.716  34.904  1.00  0.00     0.037 A 
ATOM     58  C   UNL A   1      40.895  28.226  29.178  1.00  0.00     0.037 A 
ATOM     59  C   UNL A   1      38.359  31.968  33.777  1.00  0.00     0.049 A 
ATOM     60  C   UNL A   1      39.704  29.143  29.205  1.00  0.00     0.074 A 
ATOM     61  C   UNL A   1      37.260  32.811  33.701  1.00  0.00     0.029 A 
ATOM     62  N   UNL A   1      38.490  31.381  32.530  1.00  0.00    -0.354 N 
ATOM     63  N   UNL A   1      39.261  29.893  30.182  1.00  0.00    -0.248 NA
ATOM     64  C   UNL A   1      38.902  29.233  27.973  1.00  0.00     0.031 C 
ATOM     65  C   UNL A   1      36.703  32.701  32.423  1.00  0.00     0.029 A 
ATOM     66  C   UNL A   1      37.487  31.832  31.685  1.00  0.00     0.049 A 
ATOM     67  H   UNL A   1      39.193  30.739  32.279  1.00  0.00     0.167 HD
ATOM     68  C   UNL A   1      38.154  30.563  29.676  1.00  0.00     0.074 A 
ATOM     69  C   UNL A   1      38.003  30.149  28.300  1.00  0.00     0.031 C 
ATOM     70  C   UNL A   1      37.338  31.439  30.308  1.00  0.00     0.037 A 
BRANCH  57  71
ATOM     71  C   UNL A   1      38.864  32.383  36.210  1.00  0.00     0.064 A 
ATOM     72  C   UNL A   1      39.213  33.719  36.472  1.00  0.00     0.173 A 
ATOM     73  C   UNL A   1      38.100  31.712  37.181  1.00  0.00     0.173 A 
ATOM     74  F   UNL A   1      39.927  34.417  35.578  1.00  0.00    -0.203 F 
ATOM     75  C   UNL A   1      38.858  34.337  37.670  1.00  0.00     0.198 A 
ATOM     76  C   UNL A   1      37.714  32.347  38.361  1.00  0.00     0.198 A 
ATOM     77  F   UNL A   1      37.706  30.446  36.979  1.00  0.00    -0.203 F 
ATOM     78  F   UNL A   1      39.257  35.593  37.915  1.00  0.00    -0.200 F 
ATOM     79  C   UNL A   1      38.104  33.654  38.610  1.00  0.00     0.200 A 
ATOM     80  F   UNL A   1      36.959  31.696  39.258  1.00  0.00    -0.200 F 
ATOM     81  F   UNL A   1      37.756  34.254  39.757  1.00  0.00    -0.200 F 
ENDBRANCH  57  71
BRANCH  58  82
ATOM     82  C   UNL A   1      41.232  27.477  27.931  1.00  0.00     0.064 A 
ATOM     83  C   UNL A   1      41.844  28.127  26.848  1.00  0.00     0.173 A 
ATOM     84  C   UNL A   1      40.945  26.112  27.790  1.00  0.00     0.173 A 
ATOM     85  F   UNL A   1      42.119  29.437  26.922  1.00  0.00    -0.203 F 
ATOM     86  C   UNL A   1      42.130  27.447  25.666  1.00  0.00     0.198 A 
ATOM     87  C   UNL A   1      41.266  25.425  26.620  1.00  0.00     0.198 A 
ATOM     88  F   UNL A   1      40.371  25.438  28.798  1.00  0.00    -0.203 F 
ATOM     89  F   UNL A   1      42.662  28.108  24.627  1.00  0.00    -0.200 F 
ATOM     90  C   UNL A   1      41.848  26.094  25.555  1.00  0.00     0.200 A 
ATOM     91  F   UNL A   1      41.011  24.112  26.525  1.00  0.00    -0.200 F 
ATOM     92  F   UNL A   1      42.129  25.439  24.421  1.00  0.00    -0.200 F 
ENDBRANCH  58  82
BRANCH  70  93
ATOM     93  C   UNL A   1      36.225  32.057  29.510  1.00  0.00     0.064 A 
ATOM     94  C   UNL A   1      35.153  31.294  29.021  1.00  0.00     0.173 A 
ATOM     95  C   UNL A   1      36.211  33.439  29.265  1.00  0.00     0.173 A 
ATOM     96  F   UNL A   1      35.125  29.967  29.213  1.00  0.00    -0.203 F 
ATOM     97  C   UNL A   1      34.122  31.889  28.298  1.00  0.00     0.198 A 
ATOM     98  C   UNL A   1      35.163  34.034  28.568  1.00  0.00     0.198 A 
ATOM     99  F   UNL A   1      37.209  34.215  29.712  1.00  0.00    -0.203 F 
ATOM    100  F   UNL A   1      33.132  31.133  27.800  1.00  0.00    -0.200 F 
ATOM    101  C   UNL A   1      34.123  33.259  28.079  1.00  0.00     0.200 A 
ATOM    102  F   UNL A   1      35.159  35.360  28.371  1.00  0.00    -0.200 F 
ATOM    103  F   UNL A   1      33.125  33.831  27.391  1.00  0.00    -0.200 F 
ENDBRANCH  70  93
ENDBRANCH  44  45
ENDBRANCH  36  39
ENDBRANCH  34  35
ENDBRANCH  33  34
ENDBRANCH  32  33
ENDBRANCH  31  32
ENDBRANCH   1  31
TORSDOF 17
ENDMDL
MODEL 3
REMARK VINA RESULT:     -11.2      4.780     10.623
REMARK SMILES COc1cccc(N2/C(=[NH+]/C(=O)CCC(=O)NCCCCCCNC(=O)c3ccc(-c4c5nc(c(-c6c(F)c(F)c(F)c(F)c6F)c6ccc([nH]6)c(-c6c(F)c(F)c(F)c(F)c6F)c6nc(c(-c7c(F)c(F)c(F)c(F)c7F)c7ccc4[nH]7)C=C6)C=C5)cc3)S[C@@H]3CS(=O)(=O)C[C@H]32)c1
REMARK SMILES IDX 19 1 18 2 17 3 15 4 16 5 14 7 13 8 11 9 8 10 9 11 97 12
REMARK SMILES IDX 10 13 90 14 91 15 96 16 92 18 93 19 12 20 94 21 95 22 7 23
REMARK SMILES IDX 3 24 4 25 98 26 5 27 6 28 2 29 1 30 20 31 21 32 22 33 23 34
REMARK SMILES IDX 24 35 25 36 26 38 27 39 28 40 89 41 29 42 88 43 30 44 31 45
REMARK SMILES IDX 32 46 82 47 33 48 87 49 81 50 83 51 34 52 86 53 80 54 79 55
REMARK SMILES IDX 35 57 67 58 47 59 66 60 48 61 51 62 65 63 84 64 49 65 50 66
REMARK SMILES IDX 64 68 85 69 52 70 36 71 37 72 45 73 38 74 39 75 43 76 46 77
REMARK SMILES IDX 40 78 41 79 44 80 42 81 68 82 69 83 77 84 70 85 71 86 75 87
REMARK SMILES IDX 78 88 72 89 73 90 76 91 74 92 53 93 54 94 62 95 55 96 56 97
REMARK SMILES IDX 60 98 63 99 57 100 58 101 61 102 59 103
REMARK H PARENT 17 6 10 17 24 37 83 56 51 67
REMARK Flexibility Score: inf
ROOT
ATOM      1  C   UNL A   1      42.109  25.642  28.370  1.00  0.00     0.021 C 
ENDROOT
BRANCH   1   2
ATOM      2  C   UNL A   1      41.098  26.518  27.589  1.00  0.00     0.116 C 
BRANCH   2   3
ATOM      3  N   UNL A   1      39.905  26.917  28.327  1.00  0.00    -0.356 N 
ATOM      4  C   UNL A   1      39.674  27.803  29.335  1.00  0.00     0.220 C 
ATOM      5  O   UNL A   1      38.503  27.977  29.684  1.00  0.00    -0.275 OA
ATOM      6  H   UNL A   1      39.091  26.446  28.032  1.00  0.00     0.163 HD
BRANCH   4   7
ATOM      7  C   UNL A   1      40.791  28.538  30.040  1.00  0.00     0.112 C 
BRANCH   7   8
ATOM      8  C   UNL A   1      40.897  29.959  29.492  1.00  0.00     0.138 C 
BRANCH   8   9
ATOM      9  C   UNL A   1      40.116  30.828  30.429  1.00  0.00     0.308 C 
ATOM     10  N   UNL A   1      36.881  32.487  30.406  1.00  0.00    -0.216 N 
ATOM     11  C   UNL A   1      38.243  32.169  30.481  1.00  0.00     0.319 C 
ATOM     12  C   UNL A   1      36.466  33.021  31.710  1.00  0.00     0.212 C 
ATOM     13  N   UNL A   1      38.858  31.155  29.980  1.00  0.00    -0.204 N 
ATOM     14  S   UNL A   1      39.053  33.391  31.526  1.00  0.00    -0.029 SA
ATOM     15  C   UNL A   1      37.500  34.108  32.026  1.00  0.00     0.120 C 
ATOM     16  C   UNL A   1      35.147  33.674  32.033  1.00  0.00     0.188 C 
ATOM     17  H   UNL A   1      38.429  30.615  29.278  1.00  0.00     0.316 HD
ATOM     18  C   UNL A   1      37.341  34.389  33.489  1.00  0.00     0.156 C 
ATOM     19  S   UNL A   1      35.576  34.477  33.619  1.00  0.00     0.155 S 
ATOM     20  O   UNL A   1      40.534  30.982  31.576  1.00  0.00    -0.247 OA
ATOM     21  O   UNL A   1      35.162  35.860  33.575  1.00  0.00    -0.229 OA
ATOM     22  O   UNL A   1      35.259  33.602  34.724  1.00  0.00    -0.229 OA
BRANCH  10  23
ATOM     23  C   UNL A   1      35.949  31.978  29.484  1.00  0.00     0.132 A 
ATOM     24  C   UNL A   1      35.073  30.222  28.000  1.00  0.00     0.123 A 
ATOM     25  C   UNL A   1      34.121  31.110  27.505  1.00  0.00     0.047 A 
ATOM     26  C   UNL A   1      35.994  30.667  28.964  1.00  0.00     0.098 A 
ATOM     27  C   UNL A   1      34.067  32.414  27.978  1.00  0.00     0.008 A 
ATOM     28  C   UNL A   1      34.968  32.837  28.958  1.00  0.00     0.052 A 
BRANCH  24  29
ATOM     29  O   UNL A   1      35.048  28.998  27.392  1.00  0.00    -0.497 OA
ATOM     30  C   UNL A   1      33.954  28.693  26.545  1.00  0.00     0.278 C 
ENDBRANCH  24  29
ENDBRANCH  10  23
ENDBRANCH   8   9
ENDBRANCH   7   8
ENDBRANCH   4   7
ENDBRANCH   2   3
ENDBRANCH   1   2
BRANCH   1  31
ATOM     31  C   UNL A   1      43.070  24.752  27.553  1.00  0.00     0.002 C 
BRANCH  31  32
ATOM     32  C   UNL A   1      44.444  24.321  28.122  1.00  0.00     0.002 C 
BRANCH  32  33
ATOM     33  C   UNL A   1      45.411  23.443  27.295  1.00  0.00     0.021 C 
BRANCH  33  34
ATOM     34  C   UNL A   1      46.770  24.030  26.848  1.00  0.00     0.116 C 
BRANCH  34  35
ATOM     35  N   UNL A   1      46.881  24.524  25.474  1.00  0.00    -0.352 N 
ATOM     36  C   UNL A   1      46.844  25.830  24.989  1.00  0.00     0.251 C 
ATOM     37  H   UNL A   1      46.999  23.827  24.789  1.00  0.00     0.163 HD
ATOM     38  O   UNL A   1      47.283  26.064  23.865  1.00  0.00    -0.269 OA
BRANCH  36  39
ATOM     39  C   UNL A   1      46.315  26.971  25.785  1.00  0.00     0.039 A 
ATOM     40  C   UNL A   1      44.957  27.258  25.849  1.00  0.00     0.014 A 
ATOM     41  C   UNL A   1      47.186  27.861  26.401  1.00  0.00     0.014 A 
ATOM     42  C   UNL A   1      44.495  28.303  26.680  1.00  0.00     0.010 A 
ATOM     43  C   UNL A   1      46.714  28.761  27.381  1.00  0.00     0.010 A 
ATOM     44  C   UNL A   1      45.348  28.974  27.589  1.00  0.00    -0.014 A 
BRANCH  44  45
ATOM     45  C   UNL A   1      44.778  29.771  28.761  1.00  0.00     0.031 A 
ATOM     46  C   UNL A   1      44.443  29.182  30.131  1.00  0.00     0.074 A 
ATOM     47  C   UNL A   1      44.450  31.076  28.576  1.00  0.00     0.049 A 
ATOM     48  N   UNL A   1      43.981  29.794  31.207  1.00  0.00    -0.248 NA
ATOM     49  C   UNL A   1      44.577  27.733  30.315  1.00  0.00     0.031 C 
ATOM     50  C   UNL A   1      44.496  31.790  27.296  1.00  0.00     0.029 A 
ATOM     51  N   UNL A   1      44.027  32.053  29.458  1.00  0.00    -0.354 N 
ATOM     52  C   UNL A   1      43.744  28.802  32.158  1.00  0.00     0.074 A 
ATOM     53  C   UNL A   1      44.032  27.544  31.509  1.00  0.00     0.031 C 
ATOM     54  C   UNL A   1      44.243  33.091  27.491  1.00  0.00     0.029 A 
ATOM     55  C   UNL A   1      43.935  33.310  28.897  1.00  0.00     0.049 A 
ATOM     56  H   UNL A   1      43.809  31.868  30.400  1.00  0.00     0.167 HD
ATOM     57  C   UNL A   1      43.370  28.910  33.462  1.00  0.00     0.037 A 
ATOM     58  C   UNL A   1      43.649  34.516  29.431  1.00  0.00     0.037 A 
ATOM     59  C   UNL A   1      43.136  30.155  34.154  1.00  0.00     0.049 A 
ATOM     60  C   UNL A   1      43.344  34.633  30.899  1.00  0.00     0.074 A 
ATOM     61  C   UNL A   1      42.874  30.361  35.500  1.00  0.00     0.029 A 
ATOM     62  N   UNL A   1      43.135  31.405  33.557  1.00  0.00    -0.354 N 
ATOM     63  N   UNL A   1      43.277  33.692  31.806  1.00  0.00    -0.248 NA
ATOM     64  C   UNL A   1      43.077  35.985  31.419  1.00  0.00     0.031 C 
ATOM     65  C   UNL A   1      42.671  31.730  35.709  1.00  0.00     0.029 A 
ATOM     66  C   UNL A   1      42.863  32.382  34.504  1.00  0.00     0.049 A 
ATOM     67  H   UNL A   1      43.302  31.575  32.602  1.00  0.00     0.167 HD
ATOM     68  C   UNL A   1      42.993  34.337  33.003  1.00  0.00     0.074 A 
ATOM     69  C   UNL A   1      42.920  35.751  32.713  1.00  0.00     0.031 C 
ATOM     70  C   UNL A   1      42.806  33.794  34.229  1.00  0.00     0.037 A 
BRANCH  57  71
ATOM     71  C   UNL A   1      43.239  27.640  34.270  1.00  0.00     0.064 A 
ATOM     72  C   UNL A   1      44.351  27.051  34.895  1.00  0.00     0.173 A 
ATOM     73  C   UNL A   1      41.984  27.044  34.488  1.00  0.00     0.173 A 
ATOM     74  F   UNL A   1      45.572  27.583  34.739  1.00  0.00    -0.203 F 
ATOM     75  C   UNL A   1      44.222  25.892  35.658  1.00  0.00     0.198 A 
ATOM     76  C   UNL A   1      41.854  25.907  35.284  1.00  0.00     0.198 A 
ATOM     77  F   UNL A   1      40.879  27.576  33.946  1.00  0.00    -0.203 F 
ATOM     78  F   UNL A   1      45.310  25.321  36.192  1.00  0.00    -0.200 F 
ATOM     79  C   UNL A   1      42.974  25.324  35.857  1.00  0.00     0.200 A 
ATOM     80  F   UNL A   1      40.643  25.375  35.500  1.00  0.00    -0.200 F 
ATOM     81  F   UNL A   1      42.851  24.215  36.600  1.00  0.00    -0.200 F 
ENDBRANCH  57  71
BRANCH  58  82
ATOM     82  C   UNL A   1      43.697  35.741  28.579  1.00  0.00     0.064 A 
ATOM     83  C   UNL A   1      44.913  36.399  28.339  1.00  0.00     0.173 A 
ATOM     84  C   UNL A   1      42.542  36.281  27.998  1.00  0.00     0.173 A 
ATOM     85  F   UNL A   1      46.046  35.937  28.889  1.00  0.00    -0.203 F 
ATOM     86  C   UNL A   1      44.966  37.564  27.575  1.00  0.00     0.198 A 
ATOM     87  C   UNL A   1      42.601  37.426  27.204  1.00  0.00     0.198 A 
ATOM     88  F   UNL A   1      41.354  35.687  28.185  1.00  0.00    -0.203 F 
ATOM     89  F   UNL A   1      46.133  38.203  27.411  1.00  0.00    -0.200 F 
ATOM     90  C   UNL A   1      43.811  38.073  27.002  1.00  0.00     0.200 A 
ATOM     91  F   UNL A   1      41.485  37.902  26.634  1.00  0.00    -0.200 F 
ATOM     92  F   UNL A   1      43.862  39.188  26.262  1.00  0.00    -0.200 F 
ENDBRANCH  58  82
BRANCH  70  93
ATOM     93  C   UNL A   1      42.548  34.730  35.375  1.00  0.00     0.064 A 
ATOM     94  C   UNL A   1      43.591  35.246  36.159  1.00  0.00     0.173 A 
ATOM     95  C   UNL A   1      41.240  35.149  35.668  1.00  0.00     0.173 A 
ATOM     96  F   UNL A   1      44.858  34.867  35.932  1.00  0.00    -0.203 F 
ATOM     97  C   UNL A   1      43.332  36.127  37.207  1.00  0.00     0.198 A 
ATOM     98  C   UNL A   1      40.989  36.053  36.696  1.00  0.00     0.198 A 
ATOM     99  F   UNL A   1      40.206  34.689  34.948  1.00  0.00    -0.203 F 
ATOM    100  F   UNL A   1      44.340  36.570  37.972  1.00  0.00    -0.200 F 
ATOM    101  C   UNL A   1      42.033  36.536  37.470  1.00  0.00     0.200 A 
ATOM    102  F   UNL A   1      39.734  36.457  36.938  1.00  0.00    -0.200 F 
ATOM    103  F   UNL A   1      41.787  37.391  38.472  1.00  0.00    -0.200 F 
ENDBRANCH  70  93
ENDBRANCH  44  45
ENDBRANCH  36  39
ENDBRANCH  34  35
ENDBRANCH  33  34
ENDBRANCH  32  33
ENDBRANCH  31  32
ENDBRANCH   1  31
TORSDOF 17
ENDMDL
