MODEL 1
REMARK VINA RESULT:     -11.6      0.000      0.000
REMARK SMILES CC1(C)CCC[C@@]1(CC(=O)NCCCCCCNC(=O)c1ccc(-c2c3nc(c(-c4c(F)c(F)c(F)c(F)c4F)c4ccc([nH]4)c(-c4c(F)c(F)c(F)c(F)c4F)c4nc(c(-c5c(F)c(F)c(F)c(F)c5F)c5ccc2[nH]5)C=C4)C=C3)cc1)[NH+]1CCCCC1
REMARK SMILES IDX 14 1 13 2 12 3 11 4 9 5 10 6 8 8 7 9 1 10 2 11 3 12 4 13
REMARK SMILES IDX 5 14 6 15 84 16 85 17 89 18 86 20 88 21 87 22 15 23 16 24
REMARK SMILES IDX 17 25 18 26 19 27 20 29 21 30 22 31 83 32 23 33 82 34 24 35
REMARK SMILES IDX 25 36 26 37 76 38 27 39 81 40 75 41 77 42 28 43 80 44 74 45
REMARK SMILES IDX 73 46 29 48 61 49 41 50 60 51 42 52 45 53 59 54 78 55 43 56
REMARK SMILES IDX 44 57 58 59 79 60 46 61 30 62 31 63 39 64 32 65 33 66 37 67
REMARK SMILES IDX 40 68 34 69 35 70 38 71 36 72 62 73 63 74 71 75 64 76 65 77
REMARK SMILES IDX 69 78 72 79 66 80 67 81 70 82 68 83 47 84 48 85 56 86 49 87
REMARK SMILES IDX 50 88 54 89 57 90 51 91 52 92 55 93 53 94
REMARK H PARENT 11 7 84 19 18 28 77 47 45 58
REMARK Flexibility Score: inf
ROOT
ATOM      1  C   UNL A   1      35.037  20.306  25.020  1.00  0.00     0.002 C 
ENDROOT
BRANCH   1   2
ATOM      2  C   UNL A   1      34.054  21.003  25.953  1.00  0.00     0.021 C 
BRANCH   2   3
ATOM      3  C   UNL A   1      32.616  21.069  25.418  1.00  0.00     0.116 C 
BRANCH   3   4
ATOM      4  N   UNL A   1      31.804  21.859  26.318  1.00  0.00    -0.356 N 
ATOM      5  C   UNL A   1      31.345  23.140  26.236  1.00  0.00     0.226 C 
ATOM      6  O   UNL A   1      30.742  23.556  27.228  1.00  0.00    -0.275 OA
ATOM      7  H   UNL A   1      31.534  21.387  27.138  1.00  0.00     0.163 HD
BRANCH   5   8
ATOM      8  C   UNL A   1      31.435  23.954  24.938  1.00  0.00     0.169 C 
BRANCH   8   9
ATOM      9  C   UNL A   1      32.682  24.868  24.561  1.00  0.00     0.112 C 
ATOM     10  C   UNL A   1      32.693  24.963  21.896  1.00  0.00     0.018 C 
ATOM     11  C   UNL A   1      33.310  24.331  23.153  1.00  0.00     0.020 C 
ATOM     12  C   UNL A   1      33.210  22.789  22.931  1.00  0.00     0.018 C 
ATOM     13  C   UNL A   1      34.820  24.632  23.264  1.00  0.00     0.013 C 
ATOM     14  C   UNL A   1      35.148  24.332  24.710  1.00  0.00     0.007 C 
ATOM     15  C   UNL A   1      33.886  24.639  25.502  1.00  0.00     0.070 C 
BRANCH   9  16
ATOM     16  N   UNL A   1      32.286  26.327  24.505  1.00  0.00    -0.329 N 
ATOM     17  C   UNL A   1      33.291  27.399  24.555  1.00  0.00     0.262 C 
ATOM     18  C   UNL A   1      31.162  26.772  25.347  1.00  0.00     0.262 C 
ATOM     19  H   UNL A   1      32.008  26.225  23.528  1.00  0.00     0.348 HD
ATOM     20  C   UNL A   1      33.808  27.779  25.945  1.00  0.00     0.062 C 
ATOM     21  C   UNL A   1      31.530  26.938  26.820  1.00  0.00     0.062 C 
ATOM     22  C   UNL A   1      32.713  27.891  27.010  1.00  0.00     0.012 C 
ENDBRANCH   9  16
ENDBRANCH   8   9
ENDBRANCH   5   8
ENDBRANCH   3   4
ENDBRANCH   2   3
ENDBRANCH   1   2
BRANCH   1  23
ATOM     23  C   UNL A   1      36.428  20.938  25.000  1.00  0.00     0.002 C 
BRANCH  23  24
ATOM     24  C   UNL A   1      37.586  19.936  24.995  1.00  0.00     0.021 C 
BRANCH  24  25
ATOM     25  C   UNL A   1      38.842  20.426  25.706  1.00  0.00     0.116 C 
BRANCH  25  26
ATOM     26  N   UNL A   1      39.833  19.367  25.828  1.00  0.00    -0.352 N 
ATOM     27  C   UNL A   1      41.182  19.478  26.036  1.00  0.00     0.251 C 
ATOM     28  H   UNL A   1      39.488  18.449  25.752  1.00  0.00     0.163 HD
ATOM     29  O   UNL A   1      41.928  18.519  25.857  1.00  0.00    -0.269 OA
BRANCH  27  30
ATOM     30  C   UNL A   1      41.733  20.772  26.476  1.00  0.00     0.039 A 
ATOM     31  C   UNL A   1      42.151  21.701  25.520  1.00  0.00     0.014 A 
ATOM     32  C   UNL A   1      41.826  21.062  27.840  1.00  0.00     0.014 A 
ATOM     33  C   UNL A   1      42.625  22.946  25.936  1.00  0.00     0.010 A 
ATOM     34  C   UNL A   1      42.223  22.329  28.247  1.00  0.00     0.010 A 
ATOM     35  C   UNL A   1      42.641  23.279  27.301  1.00  0.00    -0.014 A 
BRANCH  35  36
ATOM     36  C   UNL A   1      43.130  24.596  27.777  1.00  0.00     0.031 A 
ATOM     37  C   UNL A   1      42.136  25.666  28.133  1.00  0.00     0.074 A 
ATOM     38  C   UNL A   1      44.450  24.853  27.812  1.00  0.00     0.049 A 
ATOM     39  N   UNL A   1      42.342  26.922  28.438  1.00  0.00    -0.248 NA
ATOM     40  C   UNL A   1      40.714  25.280  28.110  1.00  0.00     0.031 C 
ATOM     41  C   UNL A   1      45.509  23.904  27.464  1.00  0.00     0.029 A 
ATOM     42  N   UNL A   1      45.129  26.000  28.141  1.00  0.00    -0.354 N 
ATOM     43  C   UNL A   1      41.082  27.476  28.620  1.00  0.00     0.074 A 
ATOM     44  C   UNL A   1      40.115  26.438  28.340  1.00  0.00     0.031 C 
ATOM     45  C   UNL A   1      46.701  24.503  27.607  1.00  0.00     0.029 A 
ATOM     46  C   UNL A   1      46.492  25.890  28.011  1.00  0.00     0.049 A 
ATOM     47  H   UNL A   1      44.681  26.823  28.442  1.00  0.00     0.167 HD
ATOM     48  C   UNL A   1      40.762  28.732  29.009  1.00  0.00     0.037 A 
ATOM     49  C   UNL A   1      47.460  26.812  28.181  1.00  0.00     0.037 A 
ATOM     50  C   UNL A   1      41.731  29.750  29.316  1.00  0.00     0.049 A 
ATOM     51  C   UNL A   1      47.074  28.209  28.595  1.00  0.00     0.074 A 
ATOM     52  C   UNL A   1      41.513  31.039  29.768  1.00  0.00     0.029 A 
ATOM     53  N   UNL A   1      43.105  29.591  29.200  1.00  0.00    -0.354 N 
ATOM     54  N   UNL A   1      45.883  28.709  28.818  1.00  0.00    -0.248 NA
ATOM     55  C   UNL A   1      48.169  29.172  28.785  1.00  0.00     0.031 C 
ATOM     56  C   UNL A   1      42.751  31.679  29.873  1.00  0.00     0.029 A 
ATOM     57  C   UNL A   1      43.745  30.768  29.553  1.00  0.00     0.049 A 
ATOM     58  H   UNL A   1      43.557  28.766  28.910  1.00  0.00     0.167 HD
ATOM     59  C   UNL A   1      46.087  30.023  29.220  1.00  0.00     0.074 A 
ATOM     60  C   UNL A   1      47.517  30.245  29.210  1.00  0.00     0.031 C 
ATOM     61  C   UNL A   1      45.173  30.959  29.571  1.00  0.00     0.037 A 
BRANCH  48  62
ATOM     62  C   UNL A   1      39.306  29.082  29.126  1.00  0.00     0.064 A 
ATOM     63  C   UNL A   1      38.639  29.063  30.361  1.00  0.00     0.173 A 
ATOM     64  C   UNL A   1      38.581  29.490  27.996  1.00  0.00     0.173 A 
ATOM     65  F   UNL A   1      39.283  28.669  31.470  1.00  0.00    -0.203 F 
ATOM     66  C   UNL A   1      37.295  29.414  30.455  1.00  0.00     0.198 A 
ATOM     67  C   UNL A   1      37.247  29.874  28.100  1.00  0.00     0.198 A 
ATOM     68  F   UNL A   1      39.171  29.532  26.792  1.00  0.00    -0.203 F 
ATOM     69  F   UNL A   1      36.667  29.341  31.636  1.00  0.00    -0.200 F 
ATOM     70  C   UNL A   1      36.603  29.828  29.327  1.00  0.00     0.200 A 
ATOM     71  F   UNL A   1      36.585  30.289  27.011  1.00  0.00    -0.200 F 
ATOM     72  F   UNL A   1      35.313  30.179  29.421  1.00  0.00    -0.200 F 
ENDBRANCH  48  62
BRANCH  49  73
ATOM     73  C   UNL A   1      48.887  26.450  27.970  1.00  0.00     0.064 A 
ATOM     74  C   UNL A   1      49.731  26.178  29.056  1.00  0.00     0.173 A 
ATOM     75  C   UNL A   1      49.445  26.394  26.684  1.00  0.00     0.173 A 
ATOM     76  F   UNL A   1      49.250  26.236  30.307  1.00  0.00    -0.203 F 
ATOM     77  C   UNL A   1      51.083  25.897  28.867  1.00  0.00     0.198 A 
ATOM     78  C   UNL A   1      50.789  26.080  26.494  1.00  0.00     0.198 A 
ATOM     79  F   UNL A   1      48.681  26.638  25.608  1.00  0.00    -0.203 F 
ATOM     80  F   UNL A   1      51.878  25.702  29.929  1.00  0.00    -0.200 F 
ATOM     81  C   UNL A   1      51.610  25.844  27.586  1.00  0.00     0.200 A 
ATOM     82  F   UNL A   1      51.290  26.012  25.253  1.00  0.00    -0.200 F 
ATOM     83  F   UNL A   1      52.911  25.577  27.405  1.00  0.00    -0.200 F 
ENDBRANCH  49  73
BRANCH  61  84
ATOM     84  C   UNL A   1      45.681  32.290  30.046  1.00  0.00     0.064 A 
ATOM     85  C   UNL A   1      46.007  32.525  31.389  1.00  0.00     0.173 A 
ATOM     86  C   UNL A   1      45.912  33.321  29.121  1.00  0.00     0.173 A 
ATOM     87  F   UNL A   1      45.792  31.577  32.312  1.00  0.00    -0.203 F 
ATOM     88  C   UNL A   1      46.530  33.751  31.792  1.00  0.00     0.198 A 
ATOM     89  C   UNL A   1      46.467  34.533  29.523  1.00  0.00     0.198 A 
ATOM     90  F   UNL A   1      45.624  33.144  27.824  1.00  0.00    -0.203 F 
ATOM     91  F   UNL A   1      46.797  33.969  33.086  1.00  0.00    -0.200 F 
ATOM     92  C   UNL A   1      46.769  34.749  30.858  1.00  0.00     0.200 A 
ATOM     93  F   UNL A   1      46.714  35.487  28.616  1.00  0.00    -0.200 F 
ATOM     94  F   UNL A   1      47.291  35.920  31.245  1.00  0.00    -0.200 F 
ENDBRANCH  61  84
ENDBRANCH  35  36
ENDBRANCH  27  30
ENDBRANCH  25  26
ENDBRANCH  24  25
ENDBRANCH  23  24
ENDBRANCH   1  23
TORSDOF 15
ENDMDL
MODEL 2
REMARK VINA RESULT:     -11.5      5.152     10.353
REMARK SMILES CC1(C)CCC[C@@]1(CC(=O)NCCCCCCNC(=O)c1ccc(-c2c3nc(c(-c4c(F)c(F)c(F)c(F)c4F)c4ccc([nH]4)c(-c4c(F)c(F)c(F)c(F)c4F)c4nc(c(-c5c(F)c(F)c(F)c(F)c5F)c5ccc2[nH]5)C=C4)C=C3)cc1)[NH+]1CCCCC1
REMARK SMILES IDX 14 1 13 2 12 3 11 4 9 5 10 6 8 8 7 9 1 10 2 11 3 12 4 13
REMARK SMILES IDX 5 14 6 15 84 16 85 17 89 18 86 20 88 21 87 22 15 23 16 24
REMARK SMILES IDX 17 25 18 26 19 27 20 29 21 30 22 31 83 32 23 33 82 34 24 35
REMARK SMILES IDX 25 36 26 37 76 38 27 39 81 40 75 41 77 42 28 43 80 44 74 45
REMARK SMILES IDX 73 46 29 48 61 49 41 50 60 51 42 52 45 53 59 54 78 55 43 56
REMARK SMILES IDX 44 57 58 59 79 60 46 61 30 62 31 63 39 64 32 65 33 66 37 67
REMARK SMILES IDX 40 68 34 69 35 70 38 71 36 72 62 73 63 74 71 75 64 76 65 77
REMARK SMILES IDX 69 78 72 79 66 80 67 81 70 82 68 83 47 84 48 85 56 86 49 87
REMARK SMILES IDX 50 88 54 89 57 90 51 91 52 92 55 93 53 94
REMARK H PARENT 11 7 84 19 18 28 77 47 45 58
REMARK Flexibility Score: inf
ROOT
ATOM      1  C   UNL A   1      32.175  29.728  26.944  1.00  0.00     0.002 C 
ENDROOT
BRANCH   1   2
ATOM      2  C   UNL A   1      32.399  28.417  26.199  1.00  0.00     0.021 C 
BRANCH   2   3
ATOM      3  C   UNL A   1      33.715  28.358  25.410  1.00  0.00     0.116 C 
BRANCH   3   4
ATOM      4  N   UNL A   1      33.563  27.452  24.291  1.00  0.00    -0.356 N 
ATOM      5  C   UNL A   1      33.931  26.151  24.122  1.00  0.00     0.226 C 
ATOM      6  O   UNL A   1      33.736  25.681  22.998  1.00  0.00    -0.275 OA
ATOM      7  H   UNL A   1      33.111  27.847  23.510  1.00  0.00     0.163 HD
BRANCH   5   8
ATOM      8  C   UNL A   1      34.411  25.284  25.294  1.00  0.00     0.169 C 
BRANCH   8   9
ATOM      9  C   UNL A   1      34.014  23.753  25.473  1.00  0.00     0.112 C 
ATOM     10  C   UNL A   1      31.552  23.553  24.467  1.00  0.00     0.018 C 
ATOM     11  C   UNL A   1      32.406  23.665  25.739  1.00  0.00     0.020 C 
ATOM     12  C   UNL A   1      31.801  24.863  26.537  1.00  0.00     0.018 C 
ATOM     13  C   UNL A   1      32.233  22.434  26.656  1.00  0.00     0.013 C 
ATOM     14  C   UNL A   1      33.422  22.504  27.589  1.00  0.00     0.007 C 
ATOM     15  C   UNL A   1      34.543  23.159  26.797  1.00  0.00     0.070 C 
BRANCH   9  16
ATOM     16  N   UNL A   1      34.454  22.936  24.279  1.00  0.00    -0.329 N 
ATOM     17  C   UNL A   1      34.231  21.485  24.216  1.00  0.00     0.262 C 
ATOM     18  C   UNL A   1      35.804  23.173  23.737  1.00  0.00     0.262 C 
ATOM     19  H   UNL A   1      33.734  23.373  23.701  1.00  0.00     0.348 HD
ATOM     20  C   UNL A   1      35.245  20.611  24.959  1.00  0.00     0.062 C 
ATOM     21  C   UNL A   1      36.916  22.539  24.569  1.00  0.00     0.062 C 
ATOM     22  C   UNL A   1      36.702  21.035  24.757  1.00  0.00     0.012 C 
ENDBRANCH   9  16
ENDBRANCH   8   9
ENDBRANCH   5   8
ENDBRANCH   3   4
ENDBRANCH   2   3
ENDBRANCH   1   2
BRANCH   1  23
ATOM     23  C   UNL A   1      31.613  30.850  26.072  1.00  0.00     0.002 C 
BRANCH  23  24
ATOM     24  C   UNL A   1      31.400  32.180  26.799  1.00  0.00     0.021 C 
BRANCH  24  25
ATOM     25  C   UNL A   1      32.684  32.837  27.294  1.00  0.00     0.116 C 
BRANCH  25  26
ATOM     26  N   UNL A   1      32.469  34.234  27.640  1.00  0.00    -0.352 N 
ATOM     27  C   UNL A   1      33.029  34.958  28.659  1.00  0.00     0.251 C 
ATOM     28  H   UNL A   1      31.838  34.724  27.065  1.00  0.00     0.163 HD
ATOM     29  O   UNL A   1      32.561  36.045  28.989  1.00  0.00    -0.269 OA
BRANCH  27  30
ATOM     30  C   UNL A   1      34.204  34.413  29.362  1.00  0.00     0.039 A 
ATOM     31  C   UNL A   1      34.031  33.759  30.583  1.00  0.00     0.014 A 
ATOM     32  C   UNL A   1      35.476  34.547  28.799  1.00  0.00     0.014 A 
ATOM     33  C   UNL A   1      35.137  33.199  31.224  1.00  0.00     0.010 A 
ATOM     34  C   UNL A   1      36.561  33.921  29.397  1.00  0.00     0.010 A 
ATOM     35  C   UNL A   1      36.406  33.253  30.623  1.00  0.00    -0.014 A 
BRANCH  35  36
ATOM     36  C   UNL A   1      37.601  32.660  31.271  1.00  0.00     0.031 A 
ATOM     37  C   UNL A   1      38.321  31.527  30.594  1.00  0.00     0.074 A 
ATOM     38  C   UNL A   1      37.987  33.081  32.490  1.00  0.00     0.049 A 
ATOM     39  N   UNL A   1      39.297  30.778  31.040  1.00  0.00    -0.248 NA
ATOM     40  C   UNL A   1      37.859  31.165  29.242  1.00  0.00     0.031 C 
ATOM     41  C   UNL A   1      37.350  34.152  33.258  1.00  0.00     0.029 A 
ATOM     42  N   UNL A   1      38.999  32.643  33.308  1.00  0.00    -0.354 N 
ATOM     43  C   UNL A   1      39.547  29.849  30.039  1.00  0.00     0.074 A 
ATOM     44  C   UNL A   1      38.588  30.091  28.984  1.00  0.00     0.031 C 
ATOM     45  C   UNL A   1      37.992  34.295  34.428  1.00  0.00     0.029 A 
ATOM     46  C   UNL A   1      39.054  33.297  34.515  1.00  0.00     0.049 A 
ATOM     47  H   UNL A   1      39.626  31.928  33.053  1.00  0.00     0.167 HD
ATOM     48  C   UNL A   1      40.506  28.895  29.995  1.00  0.00     0.037 A 
ATOM     49  C   UNL A   1      39.858  33.098  35.577  1.00  0.00     0.037 A 
ATOM     50  C   UNL A   1      41.476  28.682  31.036  1.00  0.00     0.049 A 
ATOM     51  C   UNL A   1      40.905  32.015  35.509  1.00  0.00     0.074 A 
ATOM     52  C   UNL A   1      42.521  27.776  31.067  1.00  0.00     0.029 A 
ATOM     53  N   UNL A   1      41.517  29.385  32.232  1.00  0.00    -0.354 N 
ATOM     54  N   UNL A   1      41.170  31.178  34.536  1.00  0.00    -0.248 NA
ATOM     55  C   UNL A   1      41.769  31.851  36.687  1.00  0.00     0.031 C 
ATOM     56  C   UNL A   1      43.162  27.892  32.304  1.00  0.00     0.029 A 
ATOM     57  C   UNL A   1      42.559  28.917  33.015  1.00  0.00     0.049 A 
ATOM     58  H   UNL A   1      40.898  30.107  32.485  1.00  0.00     0.167 HD
ATOM     59  C   UNL A   1      42.256  30.425  34.962  1.00  0.00     0.074 A 
ATOM     60  C   UNL A   1      42.603  30.904  36.283  1.00  0.00     0.031 C 
ATOM     61  C   UNL A   1      42.911  29.430  34.315  1.00  0.00     0.037 A 
BRANCH  48  62
ATOM     62  C   UNL A   1      40.557  28.008  28.785  1.00  0.00     0.064 A 
ATOM     63  C   UNL A   1      39.827  26.811  28.716  1.00  0.00     0.173 A 
ATOM     64  C   UNL A   1      41.306  28.384  27.660  1.00  0.00     0.173 A 
ATOM     65  F   UNL A   1      39.105  26.398  29.769  1.00  0.00    -0.203 F 
ATOM     66  C   UNL A   1      39.867  26.011  27.576  1.00  0.00     0.198 A 
ATOM     67  C   UNL A   1      41.315  27.600  26.509  1.00  0.00     0.198 A 
ATOM     68  F   UNL A   1      42.017  29.521  27.670  1.00  0.00    -0.203 F 
ATOM     69  F   UNL A   1      39.201  24.849  27.552  1.00  0.00    -0.200 F 
ATOM     70  C   UNL A   1      40.603  26.412  26.470  1.00  0.00     0.200 A 
ATOM     71  F   UNL A   1      42.014  27.997  25.436  1.00  0.00    -0.200 F 
ATOM     72  F   UNL A   1      40.629  25.649  25.369  1.00  0.00    -0.200 F 
ENDBRANCH  48  62
BRANCH  49  73
ATOM     73  C   UNL A   1      39.718  33.941  36.794  1.00  0.00     0.064 A 
ATOM     74  C   UNL A   1      38.902  33.539  37.862  1.00  0.00     0.173 A 
ATOM     75  C   UNL A   1      40.371  35.177  36.906  1.00  0.00     0.173 A 
ATOM     76  F   UNL A   1      38.242  32.373  37.795  1.00  0.00    -0.203 F 
ATOM     77  C   UNL A   1      38.719  34.353  38.977  1.00  0.00     0.198 A 
ATOM     78  C   UNL A   1      40.215  35.976  38.037  1.00  0.00     0.198 A 
ATOM     79  F   UNL A   1      41.170  35.608  35.918  1.00  0.00    -0.203 F 
ATOM     80  F   UNL A   1      37.885  33.969  39.954  1.00  0.00    -0.200 F 
ATOM     81  C   UNL A   1      39.379  35.569  39.066  1.00  0.00     0.200 A 
ATOM     82  F   UNL A   1      40.868  37.142  38.127  1.00  0.00    -0.200 F 
ATOM     83  F   UNL A   1      39.200  36.354  40.138  1.00  0.00    -0.200 F 
ENDBRANCH  49  73
BRANCH  61  84
ATOM     84  C   UNL A   1      44.116  28.836  34.984  1.00  0.00     0.064 A 
ATOM     85  C   UNL A   1      44.034  27.683  35.777  1.00  0.00     0.173 A 
ATOM     86  C   UNL A   1      45.385  29.396  34.765  1.00  0.00     0.173 A 
ATOM     87  F   UNL A   1      42.844  27.118  36.028  1.00  0.00    -0.203 F 
ATOM     88  C   UNL A   1      45.178  27.121  36.340  1.00  0.00     0.198 A 
ATOM     89  C   UNL A   1      46.529  28.812  35.300  1.00  0.00     0.198 A 
ATOM     90  F   UNL A   1      45.518  30.495  34.008  1.00  0.00    -0.203 F 
ATOM     91  F   UNL A   1      45.073  26.042  37.127  1.00  0.00    -0.200 F 
ATOM     92  C   UNL A   1      46.423  27.679  36.092  1.00  0.00     0.200 A 
ATOM     93  F   UNL A   1      47.733  29.341  35.044  1.00  0.00    -0.200 F 
ATOM     94  F   UNL A   1      47.524  27.125  36.618  1.00  0.00    -0.200 F 
ENDBRANCH  61  84
ENDBRANCH  35  36
ENDBRANCH  27  30
ENDBRANCH  25  26
ENDBRANCH  24  25
ENDBRANCH  23  24
ENDBRANCH   1  23
TORSDOF 15
ENDMDL
MODEL 3
REMARK VINA RESULT:     -11.5      5.923     10.497
REMARK SMILES CC1(C)CCC[C@@]1(CC(=O)NCCCCCCNC(=O)c1ccc(-c2c3nc(c(-c4c(F)c(F)c(F)c(F)c4F)c4ccc([nH]4)c(-c4c(F)c(F)c(F)c(F)c4F)c4nc(c(-c5c(F)c(F)c(F)c(F)c5F)c5ccc2[nH]5)C=C4)C=C3)cc1)[NH+]1CCCCC1
REMARK SMILES IDX 14 1 13 2 12 3 11 4 9 5 10 6 8 8 7 9 1 10 2 11 3 12 4 13
REMARK SMILES IDX 5 14 6 15 84 16 85 17 89 18 86 20 88 21 87 22 15 23 16 24
REMARK SMILES IDX 17 25 18 26 19 27 20 29 21 30 22 31 83 32 23 33 82 34 24 35
REMARK SMILES IDX 25 36 26 37 76 38 27 39 81 40 75 41 77 42 28 43 80 44 74 45
REMARK SMILES IDX 73 46 29 48 61 49 41 50 60 51 42 52 45 53 59 54 78 55 43 56
REMARK SMILES IDX 44 57 58 59 79 60 46 61 30 62 31 63 39 64 32 65 33 66 37 67
REMARK SMILES IDX 40 68 34 69 35 70 38 71 36 72 62 73 63 74 71 75 64 76 65 77
REMARK SMILES IDX 69 78 72 79 66 80 67 81 70 82 68 83 47 84 48 85 56 86 49 87
REMARK SMILES IDX 50 88 54 89 57 90 51 91 52 92 55 93 53 94
REMARK H PARENT 11 7 84 19 18 28 77 47 45 58
REMARK Flexibility Score: inf
ROOT
ATOM      1  C   UNL A   1      34.263  32.247  28.695  1.00  0.00     0.002 C 
ENDROOT
BRANCH   1   2
ATOM      2  C   UNL A   1      35.202  31.661  27.647  1.00  0.00     0.021 C 
BRANCH   2   3
ATOM      3  C   UNL A   1      35.439  30.151  27.787  1.00  0.00     0.116 C 
BRANCH   3   4
ATOM      4  N   UNL A   1      34.179  29.490  28.056  1.00  0.00    -0.356 N 
ATOM      5  C   UNL A   1      33.379  28.713  27.273  1.00  0.00     0.226 C 
ATOM      6  O   UNL A   1      32.308  28.370  27.779  1.00  0.00    -0.275 OA
ATOM      7  H   UNL A   1      33.839  29.627  28.969  1.00  0.00     0.163 HD
BRANCH   5   8
ATOM      8  C   UNL A   1      33.848  28.173  25.915  1.00  0.00     0.169 C 
BRANCH   8   9
ATOM      9  C   UNL A   1      32.909  27.352  24.926  1.00  0.00     0.112 C 
ATOM     10  C   UNL A   1      32.186  25.182  26.296  1.00  0.00     0.018 C 
ATOM     11  C   UNL A   1      33.116  25.760  25.220  1.00  0.00     0.020 C 
ATOM     12  C   UNL A   1      34.558  25.351  25.658  1.00  0.00     0.018 C 
ATOM     13  C   UNL A   1      32.898  25.083  23.849  1.00  0.00     0.013 C 
ATOM     14  C   UNL A   1      33.542  26.034  22.865  1.00  0.00     0.007 C 
ATOM     15  C   UNL A   1      33.392  27.426  23.460  1.00  0.00     0.070 C 
BRANCH   9  16
ATOM     16  N   UNL A   1      31.468  27.788  25.062  1.00  0.00    -0.329 N 
ATOM     17  C   UNL A   1      30.356  26.885  24.730  1.00  0.00     0.262 C 
ATOM     18  C   UNL A   1      31.093  29.115  24.541  1.00  0.00     0.262 C 
ATOM     19  H   UNL A   1      31.553  27.793  26.079  1.00  0.00     0.348 HD
ATOM     20  C   UNL A   1      29.995  26.772  23.247  1.00  0.00     0.062 C 
ATOM     21  C   UNL A   1      30.953  29.158  23.022  1.00  0.00     0.062 C 
ATOM     22  C   UNL A   1      29.958  28.114  22.509  1.00  0.00     0.012 C 
ENDBRANCH   9  16
ENDBRANCH   8   9
ENDBRANCH   5   8
ENDBRANCH   3   4
ENDBRANCH   2   3
ENDBRANCH   1   2
BRANCH   1  23
ATOM     23  C   UNL A   1      34.467  33.741  28.945  1.00  0.00     0.002 C 
BRANCH  23  24
ATOM     24  C   UNL A   1      33.174  34.556  29.032  1.00  0.00     0.021 C 
BRANCH  24  25
ATOM     25  C   UNL A   1      33.378  36.017  29.419  1.00  0.00     0.116 C 
BRANCH  25  26
ATOM     26  N   UNL A   1      32.537  36.393  30.545  1.00  0.00    -0.352 N 
ATOM     27  C   UNL A   1      32.558  35.910  31.826  1.00  0.00     0.251 C 
ATOM     28  H   UNL A   1      31.863  37.087  30.362  1.00  0.00     0.163 HD
ATOM     29  O   UNL A   1      31.625  36.128  32.596  1.00  0.00    -0.269 OA
BRANCH  27  30
ATOM     30  C   UNL A   1      33.717  35.118  32.273  1.00  0.00     0.039 A 
ATOM     31  C   UNL A   1      33.523  33.813  32.729  1.00  0.00     0.014 A 
ATOM     32  C   UNL A   1      34.999  35.674  32.230  1.00  0.00     0.014 A 
ATOM     33  C   UNL A   1      34.626  33.045  33.103  1.00  0.00     0.010 A 
ATOM     34  C   UNL A   1      36.101  34.884  32.528  1.00  0.00     0.010 A 
ATOM     35  C   UNL A   1      35.926  33.567  32.981  1.00  0.00    -0.014 A 
BRANCH  35  36
ATOM     36  C   UNL A   1      37.122  32.776  33.362  1.00  0.00     0.031 A 
ATOM     37  C   UNL A   1      37.829  33.084  34.652  1.00  0.00     0.074 A 
ATOM     38  C   UNL A   1      37.612  31.847  32.520  1.00  0.00     0.049 A 
ATOM     39  N   UNL A   1      38.960  32.613  35.111  1.00  0.00    -0.248 NA
ATOM     40  C   UNL A   1      37.194  34.082  35.531  1.00  0.00     0.031 C 
ATOM     41  C   UNL A   1      37.029  31.480  31.229  1.00  0.00     0.029 A 
ATOM     42  N   UNL A   1      38.727  31.053  32.618  1.00  0.00    -0.354 N 
ATOM     43  C   UNL A   1      39.181  33.272  36.314  1.00  0.00     0.074 A 
ATOM     44  C   UNL A   1      38.097  34.213  36.490  1.00  0.00     0.031 C 
ATOM     45  C   UNL A   1      37.784  30.527  30.660  1.00  0.00     0.029 A 
ATOM     46  C   UNL A   1      38.929  30.249  31.522  1.00  0.00     0.049 A 
ATOM     47  H   UNL A   1      39.326  31.059  33.400  1.00  0.00     0.167 HD
ATOM     48  C   UNL A   1      40.185  33.090  37.202  1.00  0.00     0.037 A 
ATOM     49  C   UNL A   1      39.936  29.399  31.239  1.00  0.00     0.037 A 
ATOM     50  C   UNL A   1      41.243  32.129  37.034  1.00  0.00     0.049 A 
ATOM     51  C   UNL A   1      41.053  29.231  32.238  1.00  0.00     0.074 A 
ATOM     52  C   UNL A   1      42.280  31.829  37.899  1.00  0.00     0.029 A 
ATOM     53  N   UNL A   1      41.396  31.312  35.923  1.00  0.00    -0.354 N 
ATOM     54  N   UNL A   1      41.224  29.817  33.398  1.00  0.00    -0.248 NA
ATOM     55  C   UNL A   1      42.117  28.277  31.890  1.00  0.00     0.031 C 
ATOM     56  C   UNL A   1      43.094  30.871  37.288  1.00  0.00     0.029 A 
ATOM     57  C   UNL A   1      42.525  30.523  36.073  1.00  0.00     0.049 A 
ATOM     58  H   UNL A   1      40.794  31.296  35.145  1.00  0.00     0.167 HD
ATOM     59  C   UNL A   1      42.382  29.271  33.937  1.00  0.00     0.074 A 
ATOM     60  C   UNL A   1      42.873  28.305  32.978  1.00  0.00     0.031 C 
ATOM     61  C   UNL A   1      42.980  29.541  35.122  1.00  0.00     0.037 A 
BRANCH  48  62
ATOM     62  C   UNL A   1      40.194  33.944  38.437  1.00  0.00     0.064 A 
ATOM     63  C   UNL A   1      39.531  33.552  39.611  1.00  0.00     0.173 A 
ATOM     64  C   UNL A   1      40.917  35.147  38.463  1.00  0.00     0.173 A 
ATOM     65  F   UNL A   1      38.816  32.417  39.636  1.00  0.00    -0.203 F 
ATOM     66  C   UNL A   1      39.570  34.346  40.755  1.00  0.00     0.198 A 
ATOM     67  C   UNL A   1      40.982  35.919  39.620  1.00  0.00     0.198 A 
ATOM     68  F   UNL A   1      41.573  35.566  37.371  1.00  0.00    -0.203 F 
ATOM     69  F   UNL A   1      38.890  33.974  41.847  1.00  0.00    -0.200 F 
ATOM     70  C   UNL A   1      40.303  35.523  40.762  1.00  0.00     0.200 A 
ATOM     71  F   UNL A   1      41.704  37.049  39.628  1.00  0.00    -0.200 F 
ATOM     72  F   UNL A   1      40.351  36.278  41.867  1.00  0.00    -0.200 F 
ENDBRANCH  48  62
BRANCH  49  73
ATOM     73  C   UNL A   1      39.937  28.635  29.964  1.00  0.00     0.064 A 
ATOM     74  C   UNL A   1      39.378  27.350  29.892  1.00  0.00     0.173 A 
ATOM     75  C   UNL A   1      40.517  29.157  28.799  1.00  0.00     0.173 A 
ATOM     76  F   UNL A   1      38.827  26.799  30.983  1.00  0.00    -0.203 F 
ATOM     77  C   UNL A   1      39.430  26.605  28.715  1.00  0.00     0.198 A 
ATOM     78  C   UNL A   1      40.538  28.425  27.612  1.00  0.00     0.198 A 
ATOM     79  F   UNL A   1      41.059  30.384  28.809  1.00  0.00    -0.203 F 
ATOM     80  F   UNL A   1      38.943  25.357  28.694  1.00  0.00    -0.200 F 
ATOM     81  C   UNL A   1      40.006  27.145  27.575  1.00  0.00     0.200 A 
ATOM     82  F   UNL A   1      41.080  28.957  26.509  1.00  0.00    -0.200 F 
ATOM     83  F   UNL A   1      40.059  26.428  26.444  1.00  0.00    -0.200 F 
ENDBRANCH  49  73
BRANCH  61  84
ATOM     84  C   UNL A   1      44.192  28.736  35.493  1.00  0.00     0.064 A 
ATOM     85  C   UNL A   1      44.098  27.538  36.212  1.00  0.00     0.173 A 
ATOM     86  C   UNL A   1      45.463  29.143  35.054  1.00  0.00     0.173 A 
ATOM     87  F   UNL A   1      42.909  27.113  36.665  1.00  0.00    -0.203 F 
ATOM     88  C   UNL A   1      45.234  26.782  36.493  1.00  0.00     0.198 A 
ATOM     89  C   UNL A   1      46.591  28.369  35.307  1.00  0.00     0.198 A 
ATOM     90  F   UNL A   1      45.606  30.279  34.355  1.00  0.00    -0.203 F 
ATOM     91  F   UNL A   1      45.126  25.660  37.217  1.00  0.00    -0.200 F 
ATOM     92  C   UNL A   1      46.476  27.193  36.032  1.00  0.00     0.200 A 
ATOM     93  F   UNL A   1      47.787  28.757  34.844  1.00  0.00    -0.200 F 
ATOM     94  F   UNL A   1      47.564  26.454  36.286  1.00  0.00    -0.200 F 
ENDBRANCH  61  84
ENDBRANCH  35  36
ENDBRANCH  27  30
ENDBRANCH  25  26
ENDBRANCH  24  25
ENDBRANCH  23  24
ENDBRANCH   1  23
TORSDOF 15
ENDMDL
