MODEL 1
REMARK VINA RESULT:     -12.3      0.000      0.000
REMARK SMILES COc1cc(/C=C/C(=O)c2ccc(OCC(=O)NCCCCCCNC(=O)c3ccc(-c4c5nc(c(-c6c(F)c(F)c(F)c(F)c6F)c6ccc([nH]6)c(-c6c(F)c(F)c(F)c(F)c6F)c6nc(c(-c7c(F)c(F)c(F)c(F)c7F)c7ccc4[nH]7)C=C6)C=C5)cc3)cc2)cc2c1OCCO2
REMARK SMILES IDX 19 1 18 2 16 3 17 4 15 6 14 7 13 8 10 9 11 10 92 11 12 12
REMARK SMILES IDX 91 13 8 14 9 15 7 16 6 17 5 18 3 19 4 20 95 21 94 22 96 23
REMARK SMILES IDX 93 24 99 25 97 26 98 27 2 28 1 29 20 30 21 31 22 32 23 33
REMARK SMILES IDX 24 34 25 35 26 36 27 38 28 39 29 40 90 41 30 42 89 43 31 44
REMARK SMILES IDX 32 45 33 46 83 47 34 48 88 49 82 50 84 51 35 52 87 53 81 54
REMARK SMILES IDX 80 55 36 57 68 58 48 59 67 60 49 61 52 62 66 63 85 64 50 65
REMARK SMILES IDX 51 66 65 68 86 69 53 70 37 71 38 72 46 73 39 74 40 75 44 76
REMARK SMILES IDX 47 77 41 78 42 79 45 80 43 81 69 82 70 83 78 84 71 85 72 86
REMARK SMILES IDX 76 87 79 88 73 89 74 90 77 91 75 92 54 93 55 94 63 95 56 96
REMARK SMILES IDX 57 97 61 98 64 99 58 100 59 101 62 102 60 103
REMARK H PARENT 18 5 25 37 84 56 52 67
REMARK Flexibility Score: inf
ROOT
ATOM      1  C   UNL A   1      38.805  21.609  26.005  1.00  0.00     0.116 C 
ENDROOT
BRANCH   1   2
ATOM      2  N   UNL A   1      37.948  22.199  24.997  1.00  0.00    -0.353 N 
ATOM      3  C   UNL A   1      36.779  21.719  24.483  1.00  0.00     0.257 C 
ATOM      4  O   UNL A   1      36.205  22.372  23.609  1.00  0.00    -0.271 OA
ATOM      5  H   UNL A   1      38.250  23.062  24.635  1.00  0.00     0.163 HD
BRANCH   3   6
ATOM      6  C   UNL A   1      36.180  20.417  25.030  1.00  0.00     0.329 C 
BRANCH   6   7
ATOM      7  O   UNL A   1      34.815  20.158  24.742  1.00  0.00    -0.484 OA
BRANCH   7   8
ATOM      8  C   UNL A   1      33.878  20.984  25.294  1.00  0.00     0.120 A 
ATOM      9  C   UNL A   1      31.852  22.727  26.138  1.00  0.00     0.022 A 
ATOM     10  C   UNL A   1      31.744  22.071  24.908  1.00  0.00     0.016 A 
ATOM     11  C   UNL A   1      32.943  22.459  26.972  1.00  0.00     0.016 A 
ATOM     12  C   UNL A   1      32.757  21.206  24.491  1.00  0.00     0.047 A 
ATOM     13  C   UNL A   1      33.956  21.592  26.548  1.00  0.00     0.047 A 
BRANCH   9  14
ATOM     14  C   UNL A   1      30.768  23.651  26.539  1.00  0.00     0.185 C 
ATOM     15  O   UNL A   1      29.962  23.308  27.401  1.00  0.00    -0.289 OA
BRANCH  14  16
ATOM     16  C   UNL A   1      30.631  24.992  25.908  1.00  0.00     0.053 C 
ATOM     17  C   UNL A   1      30.666  25.230  24.587  1.00  0.00     0.012 C 
BRANCH  17  18
ATOM     18  C   UNL A   1      30.479  26.550  23.952  1.00  0.00    -0.018 A 
ATOM     19  C   UNL A   1      31.501  28.499  22.878  1.00  0.00     0.165 A 
ATOM     20  C   UNL A   1      31.611  27.248  23.502  1.00  0.00     0.058 A 
ATOM     21  C   UNL A   1      30.238  29.058  22.656  1.00  0.00     0.203 A 
ATOM     22  C   UNL A   1      29.103  28.349  23.074  1.00  0.00     0.165 A 
ATOM     23  O   UNL A   1      30.139  30.254  21.991  1.00  0.00    -0.483 OA
ATOM     24  C   UNL A   1      29.222  27.122  23.729  1.00  0.00     0.058 A 
ATOM     25  O   UNL A   1      27.816  28.787  22.868  1.00  0.00    -0.486 OA
ATOM     26  C   UNL A   1      28.839  30.839  22.110  1.00  0.00     0.271 C 
ATOM     27  C   UNL A   1      27.765  29.800  21.860  1.00  0.00     0.271 C 
BRANCH  19  28
ATOM     28  O   UNL A   1      32.698  29.038  22.475  1.00  0.00    -0.493 OA
ATOM     29  C   UNL A   1      33.850  28.443  23.066  1.00  0.00     0.278 C 
ENDBRANCH  19  28
ENDBRANCH  17  18
ENDBRANCH  14  16
ENDBRANCH   9  14
ENDBRANCH   7   8
ENDBRANCH   6   7
ENDBRANCH   3   6
ENDBRANCH   1   2
BRANCH   1  30
ATOM     30  C   UNL A   1      39.748  22.641  26.625  1.00  0.00     0.021 C 
BRANCH  30  31
ATOM     31  C   UNL A   1      41.026  22.057  27.244  1.00  0.00     0.002 C 
BRANCH  31  32
ATOM     32  C   UNL A   1      42.076  21.550  26.248  1.00  0.00     0.002 C 
BRANCH  32  33
ATOM     33  C   UNL A   1      41.936  20.084  25.839  1.00  0.00     0.021 C 
BRANCH  33  34
ATOM     34  C   UNL A   1      43.092  19.188  26.266  1.00  0.00     0.116 C 
BRANCH  34  35
ATOM     35  N   UNL A   1      43.888  18.725  25.140  1.00  0.00    -0.352 N 
ATOM     36  C   UNL A   1      44.705  19.452  24.307  1.00  0.00     0.251 C 
ATOM     37  H   UNL A   1      43.833  17.761  24.947  1.00  0.00     0.163 HD
ATOM     38  O   UNL A   1      45.192  18.942  23.303  1.00  0.00    -0.269 OA
BRANCH  36  39
ATOM     39  C   UNL A   1      44.973  20.872  24.616  1.00  0.00     0.039 A 
ATOM     40  C   UNL A   1      44.552  21.858  23.720  1.00  0.00     0.014 A 
ATOM     41  C   UNL A   1      45.618  21.226  25.803  1.00  0.00     0.014 A 
ATOM     42  C   UNL A   1      44.713  23.206  24.049  1.00  0.00     0.010 A 
ATOM     43  C   UNL A   1      45.716  22.566  26.160  1.00  0.00     0.010 A 
ATOM     44  C   UNL A   1      45.263  23.569  25.287  1.00  0.00    -0.014 A 
BRANCH  44  45
ATOM     45  C   UNL A   1      45.403  24.989  25.703  1.00  0.00     0.031 A 
ATOM     46  C   UNL A   1      46.752  25.647  25.638  1.00  0.00     0.074 A 
ATOM     47  C   UNL A   1      44.354  25.646  26.232  1.00  0.00     0.049 A 
ATOM     48  N   UNL A   1      47.138  26.800  26.118  1.00  0.00    -0.248 NA
ATOM     49  C   UNL A   1      47.819  24.887  24.967  1.00  0.00     0.031 C 
ATOM     50  C   UNL A   1      42.999  25.110  26.369  1.00  0.00     0.029 A 
ATOM     51  N   UNL A   1      44.270  26.903  26.778  1.00  0.00    -0.354 N 
ATOM     52  C   UNL A   1      48.495  26.890  25.836  1.00  0.00     0.074 A 
ATOM     53  C   UNL A   1      48.875  25.658  25.180  1.00  0.00     0.031 C 
ATOM     54  C   UNL A   1      42.219  26.033  26.956  1.00  0.00     0.029 A 
ATOM     55  C   UNL A   1      43.027  27.205  27.280  1.00  0.00     0.049 A 
ATOM     56  H   UNL A   1      45.029  27.529  26.806  1.00  0.00     0.167 HD
ATOM     57  C   UNL A   1      49.343  27.916  26.087  1.00  0.00     0.037 A 
ATOM     58  C   UNL A   1      42.596  28.294  27.946  1.00  0.00     0.037 A 
ATOM     59  C   UNL A   1      48.951  29.153  26.708  1.00  0.00     0.049 A 
ATOM     60  C   UNL A   1      43.563  29.414  28.227  1.00  0.00     0.074 A 
ATOM     61  C   UNL A   1      49.722  30.273  26.961  1.00  0.00     0.029 A 
ATOM     62  N   UNL A   1      47.673  29.432  27.171  1.00  0.00    -0.354 N 
ATOM     63  N   UNL A   1      44.834  29.507  27.920  1.00  0.00    -0.248 NA
ATOM     64  C   UNL A   1      43.035  30.582  28.948  1.00  0.00     0.031 C 
ATOM     65  C   UNL A   1      48.923  31.215  27.614  1.00  0.00     0.029 A 
ATOM     66  C   UNL A   1      47.639  30.702  27.721  1.00  0.00     0.049 A 
ATOM     67  H   UNL A   1      46.905  28.819  27.116  1.00  0.00     0.167 HD
ATOM     68  C   UNL A   1      45.245  30.753  28.372  1.00  0.00     0.074 A 
ATOM     69  C   UNL A   1      44.091  31.384  28.976  1.00  0.00     0.031 C 
ATOM     70  C   UNL A   1      46.471  31.325  28.289  1.00  0.00     0.037 A 
BRANCH  57  71
ATOM     71  C   UNL A   1      50.779  27.744  25.688  1.00  0.00     0.064 A 
ATOM     72  C   UNL A   1      51.209  27.970  24.372  1.00  0.00     0.173 A 
ATOM     73  C   UNL A   1      51.743  27.384  26.641  1.00  0.00     0.173 A 
ATOM     74  F   UNL A   1      50.324  28.305  23.420  1.00  0.00    -0.203 F 
ATOM     75  C   UNL A   1      52.546  27.813  24.018  1.00  0.00     0.198 A 
ATOM     76  C   UNL A   1      53.085  27.259  26.291  1.00  0.00     0.198 A 
ATOM     77  F   UNL A   1      51.386  27.164  27.915  1.00  0.00    -0.203 F 
ATOM     78  F   UNL A   1      52.925  27.984  22.744  1.00  0.00    -0.200 F 
ATOM     79  C   UNL A   1      53.484  27.464  24.979  1.00  0.00     0.200 A 
ATOM     80  F   UNL A   1      53.992  26.937  27.223  1.00  0.00    -0.200 F 
ATOM     81  F   UNL A   1      54.772  27.321  24.639  1.00  0.00    -0.200 F 
ENDBRANCH  57  71
BRANCH  58  82
ATOM     82  C   UNL A   1      41.179  28.386  28.384  1.00  0.00     0.064 A 
ATOM     83  C   UNL A   1      40.199  28.920  27.535  1.00  0.00     0.173 A 
ATOM     84  C   UNL A   1      40.775  27.956  29.657  1.00  0.00     0.173 A 
ATOM     85  F   UNL A   1      40.542  29.365  26.317  1.00  0.00    -0.203 F 
ATOM     86  C   UNL A   1      38.874  29.039  27.948  1.00  0.00     0.198 A 
ATOM     87  C   UNL A   1      39.444  28.050  30.059  1.00  0.00     0.198 A 
ATOM     88  F   UNL A   1      41.672  27.434  30.506  1.00  0.00    -0.203 F 
ATOM     89  F   UNL A   1      37.968  29.597  27.134  1.00  0.00    -0.200 F 
ATOM     90  C   UNL A   1      38.496  28.599  29.209  1.00  0.00     0.200 A 
ATOM     91  F   UNL A   1      39.080  27.610  31.272  1.00  0.00    -0.200 F 
ATOM     92  F   UNL A   1      37.222  28.712  29.605  1.00  0.00    -0.200 F 
ENDBRANCH  58  82
BRANCH  70  93
ATOM     93  C   UNL A   1      46.623  32.727  28.803  1.00  0.00     0.064 A 
ATOM     94  C   UNL A   1      46.352  33.841  27.998  1.00  0.00     0.173 A 
ATOM     95  C   UNL A   1      46.965  32.950  30.145  1.00  0.00     0.173 A 
ATOM     96  F   UNL A   1      46.036  33.679  26.704  1.00  0.00    -0.203 F 
ATOM     97  C   UNL A   1      46.427  35.131  28.517  1.00  0.00     0.198 A 
ATOM     98  C   UNL A   1      47.012  34.239  30.668  1.00  0.00     0.198 A 
ATOM     99  F   UNL A   1      47.227  31.914  30.958  1.00  0.00    -0.203 F 
ATOM    100  F   UNL A   1      46.192  36.186  27.723  1.00  0.00    -0.200 F 
ATOM    101  C   UNL A   1      46.746  35.328  29.853  1.00  0.00     0.200 A 
ATOM    102  F   UNL A   1      47.306  34.426  31.962  1.00  0.00    -0.200 F 
ATOM    103  F   UNL A   1      46.797  36.569  30.355  1.00  0.00    -0.200 F 
ENDBRANCH  70  93
ENDBRANCH  44  45
ENDBRANCH  36  39
ENDBRANCH  34  35
ENDBRANCH  33  34
ENDBRANCH  32  33
ENDBRANCH  31  32
ENDBRANCH  30  31
ENDBRANCH   1  30
TORSDOF 19
ENDMDL
MODEL 2
REMARK VINA RESULT:     -11.9      1.101      2.121
REMARK SMILES COc1cc(/C=C/C(=O)c2ccc(OCC(=O)NCCCCCCNC(=O)c3ccc(-c4c5nc(c(-c6c(F)c(F)c(F)c(F)c6F)c6ccc([nH]6)c(-c6c(F)c(F)c(F)c(F)c6F)c6nc(c(-c7c(F)c(F)c(F)c(F)c7F)c7ccc4[nH]7)C=C6)C=C5)cc3)cc2)cc2c1OCCO2
REMARK SMILES IDX 19 1 18 2 16 3 17 4 15 6 14 7 13 8 10 9 11 10 92 11 12 12
REMARK SMILES IDX 91 13 8 14 9 15 7 16 6 17 5 18 3 19 4 20 95 21 94 22 96 23
REMARK SMILES IDX 93 24 99 25 97 26 98 27 2 28 1 29 20 30 21 31 22 32 23 33
REMARK SMILES IDX 24 34 25 35 26 36 27 38 28 39 29 40 90 41 30 42 89 43 31 44
REMARK SMILES IDX 32 45 33 46 83 47 34 48 88 49 82 50 84 51 35 52 87 53 81 54
REMARK SMILES IDX 80 55 36 57 68 58 48 59 67 60 49 61 52 62 66 63 85 64 50 65
REMARK SMILES IDX 51 66 65 68 86 69 53 70 37 71 38 72 46 73 39 74 40 75 44 76
REMARK SMILES IDX 47 77 41 78 42 79 45 80 43 81 69 82 70 83 78 84 71 85 72 86
REMARK SMILES IDX 76 87 79 88 73 89 74 90 77 91 75 92 54 93 55 94 63 95 56 96
REMARK SMILES IDX 57 97 61 98 64 99 58 100 59 101 62 102 60 103
REMARK H PARENT 18 5 25 37 84 56 52 67
REMARK Flexibility Score: inf
ROOT
ATOM      1  C   UNL A   1      41.036  22.422  26.137  1.00  0.00     0.116 C 
ENDROOT
BRANCH   1   2
ATOM      2  N   UNL A   1      39.943  23.332  26.415  1.00  0.00    -0.353 N 
ATOM      3  C   UNL A   1      38.605  23.141  26.230  1.00  0.00     0.257 C 
ATOM      4  O   UNL A   1      37.832  24.057  26.516  1.00  0.00    -0.271 OA
ATOM      5  H   UNL A   1      40.201  24.205  26.788  1.00  0.00     0.163 HD
BRANCH   3   6
ATOM      6  C   UNL A   1      38.088  21.789  25.723  1.00  0.00     0.329 C 
BRANCH   6   7
ATOM      7  O   UNL A   1      37.588  21.740  24.396  1.00  0.00    -0.484 OA
BRANCH   7   8
ATOM      8  C   UNL A   1      36.265  22.014  24.201  1.00  0.00     0.120 A 
ATOM      9  C   UNL A   1      33.639  22.859  23.711  1.00  0.00     0.022 A 
ATOM     10  C   UNL A   1      34.710  23.502  23.083  1.00  0.00     0.016 A 
ATOM     11  C   UNL A   1      33.880  21.754  24.533  1.00  0.00     0.016 A 
ATOM     12  C   UNL A   1      36.016  23.079  23.332  1.00  0.00     0.047 A 
ATOM     13  C   UNL A   1      35.192  21.335  24.780  1.00  0.00     0.047 A 
BRANCH   9  14
ATOM     14  C   UNL A   1      32.268  23.347  23.437  1.00  0.00     0.185 C 
ATOM     15  O   UNL A   1      31.377  22.545  23.170  1.00  0.00    -0.289 OA
BRANCH  14  16
ATOM     16  C   UNL A   1      31.951  24.801  23.470  1.00  0.00     0.053 C 
ATOM     17  C   UNL A   1      30.717  25.320  23.577  1.00  0.00     0.012 C 
BRANCH  17  18
ATOM     18  C   UNL A   1      30.401  26.759  23.663  1.00  0.00    -0.018 A 
ATOM     19  C   UNL A   1      31.087  28.995  24.390  1.00  0.00     0.165 A 
ATOM     20  C   UNL A   1      31.321  27.615  24.288  1.00  0.00     0.058 A 
ATOM     21  C   UNL A   1      29.934  29.549  23.823  1.00  0.00     0.203 A 
ATOM     22  C   UNL A   1      29.028  28.702  23.169  1.00  0.00     0.165 A 
ATOM     23  O   UNL A   1      29.745  30.907  23.877  1.00  0.00    -0.483 OA
ATOM     24  C   UNL A   1      29.249  27.325  23.107  1.00  0.00     0.058 A 
ATOM     25  O   UNL A   1      27.888  29.148  22.545  1.00  0.00    -0.486 OA
ATOM     26  C   UNL A   1      28.407  31.286  23.542  1.00  0.00     0.271 C 
ATOM     27  C   UNL A   1      27.945  30.555  22.297  1.00  0.00     0.271 C 
BRANCH  19  28
ATOM     28  O   UNL A   1      32.094  29.695  25.006  1.00  0.00    -0.493 OA
ATOM     29  C   UNL A   1      33.341  29.010  25.079  1.00  0.00     0.278 C 
ENDBRANCH  19  28
ENDBRANCH  17  18
ENDBRANCH  14  16
ENDBRANCH   9  14
ENDBRANCH   7   8
ENDBRANCH   6   7
ENDBRANCH   3   6
ENDBRANCH   1   2
BRANCH   1  30
ATOM     30  C   UNL A   1      41.626  21.833  27.419  1.00  0.00     0.021 C 
BRANCH  30  31
ATOM     31  C   UNL A   1      41.512  20.307  27.540  1.00  0.00     0.002 C 
BRANCH  31  32
ATOM     32  C   UNL A   1      41.361  19.544  26.219  1.00  0.00     0.002 C 
BRANCH  32  33
ATOM     33  C   UNL A   1      42.300  18.351  26.041  1.00  0.00     0.021 C 
BRANCH  33  34
ATOM     34  C   UNL A   1      43.784  18.691  26.090  1.00  0.00     0.116 C 
BRANCH  34  35
ATOM     35  N   UNL A   1      44.425  18.592  24.788  1.00  0.00    -0.352 N 
ATOM     36  C   UNL A   1      44.905  19.601  23.987  1.00  0.00     0.251 C 
ATOM     37  H   UNL A   1      44.529  17.681  24.432  1.00  0.00     0.163 HD
ATOM     38  O   UNL A   1      45.282  19.369  22.843  1.00  0.00    -0.269 OA
BRANCH  36  39
ATOM     39  C   UNL A   1      44.938  20.984  24.507  1.00  0.00     0.039 A 
ATOM     40  C   UNL A   1      45.606  21.248  25.706  1.00  0.00     0.014 A 
ATOM     41  C   UNL A   1      44.330  22.020  23.795  1.00  0.00     0.014 A 
ATOM     42  C   UNL A   1      45.727  22.566  26.154  1.00  0.00     0.010 A 
ATOM     43  C   UNL A   1      44.508  23.335  24.206  1.00  0.00     0.010 A 
ATOM     44  C   UNL A   1      45.210  23.622  25.389  1.00  0.00    -0.014 A 
BRANCH  44  45
ATOM     45  C   UNL A   1      45.362  25.042  25.798  1.00  0.00     0.031 A 
ATOM     46  C   UNL A   1      46.716  25.690  25.721  1.00  0.00     0.074 A 
ATOM     47  C   UNL A   1      44.322  25.709  26.331  1.00  0.00     0.049 A 
ATOM     48  N   UNL A   1      47.113  26.842  26.195  1.00  0.00    -0.248 NA
ATOM     49  C   UNL A   1      47.773  24.920  25.046  1.00  0.00     0.031 C 
ATOM     50  C   UNL A   1      42.964  25.183  26.480  1.00  0.00     0.029 A 
ATOM     51  N   UNL A   1      44.251  26.968  26.873  1.00  0.00    -0.354 N 
ATOM     52  C   UNL A   1      48.469  26.921  25.903  1.00  0.00     0.074 A 
ATOM     53  C   UNL A   1      48.835  25.684  25.249  1.00  0.00     0.031 C 
ATOM     54  C   UNL A   1      42.194  26.114  27.068  1.00  0.00     0.029 A 
ATOM     55  C   UNL A   1      43.013  27.281  27.382  1.00  0.00     0.049 A 
ATOM     56  H   UNL A   1      45.014  27.589  26.894  1.00  0.00     0.167 HD
ATOM     57  C   UNL A   1      49.326  27.942  26.144  1.00  0.00     0.037 A 
ATOM     58  C   UNL A   1      42.595  28.376  28.048  1.00  0.00     0.037 A 
ATOM     59  C   UNL A   1      48.947  29.184  26.763  1.00  0.00     0.049 A 
ATOM     60  C   UNL A   1      43.571  29.490  28.318  1.00  0.00     0.074 A 
ATOM     61  C   UNL A   1      49.728  30.299  27.007  1.00  0.00     0.029 A 
ATOM     62  N   UNL A   1      47.675  29.474  27.234  1.00  0.00    -0.354 N 
ATOM     63  N   UNL A   1      44.841  29.573  28.001  1.00  0.00    -0.248 NA
ATOM     64  C   UNL A   1      43.057  30.664  29.038  1.00  0.00     0.031 C 
ATOM     65  C   UNL A   1      48.940  31.250  27.662  1.00  0.00     0.029 A 
ATOM     66  C   UNL A   1      47.653  30.747  27.779  1.00  0.00     0.049 A 
ATOM     67  H   UNL A   1      46.901  28.866  27.187  1.00  0.00     0.167 HD
ATOM     68  C   UNL A   1      45.265  30.817  28.446  1.00  0.00     0.074 A 
ATOM     69  C   UNL A   1      44.119  31.458  29.055  1.00  0.00     0.031 C 
ATOM     70  C   UNL A   1      46.494  31.380  28.353  1.00  0.00     0.037 A 
BRANCH  57  71
ATOM     71  C   UNL A   1      50.758  27.758  25.736  1.00  0.00     0.064 A 
ATOM     72  C   UNL A   1      51.176  27.952  24.411  1.00  0.00     0.173 A 
ATOM     73  C   UNL A   1      51.730  27.419  26.689  1.00  0.00     0.173 A 
ATOM     74  F   UNL A   1      50.283  28.267  23.460  1.00  0.00    -0.203 F 
ATOM     75  C   UNL A   1      52.510  27.785  24.049  1.00  0.00     0.198 A 
ATOM     76  C   UNL A   1      53.069  27.282  26.329  1.00  0.00     0.198 A 
ATOM     77  F   UNL A   1      51.385  27.228  27.971  1.00  0.00    -0.203 F 
ATOM     78  F   UNL A   1      52.878  27.925  22.768  1.00  0.00    -0.200 F 
ATOM     79  C   UNL A   1      53.456  27.456  25.009  1.00  0.00     0.200 A 
ATOM     80  F   UNL A   1      53.983  26.980  27.260  1.00  0.00    -0.200 F 
ATOM     81  F   UNL A   1      54.741  27.303  24.661  1.00  0.00    -0.200 F 
ENDBRANCH  57  71
BRANCH  58  82
ATOM     82  C   UNL A   1      41.182  28.480  28.495  1.00  0.00     0.064 A 
ATOM     83  C   UNL A   1      40.805  28.074  29.784  1.00  0.00     0.173 A 
ATOM     84  C   UNL A   1      40.178  28.972  27.648  1.00  0.00     0.173 A 
ATOM     85  F   UNL A   1      41.726  27.576  30.623  1.00  0.00    -0.203 F 
ATOM     86  C   UNL A   1      39.478  28.139  30.201  1.00  0.00     0.198 A 
ATOM     87  C   UNL A   1      38.855  29.062  28.076  1.00  0.00     0.198 A 
ATOM     88  F   UNL A   1      40.485  29.376  26.407  1.00  0.00    -0.203 F 
ATOM     89  F   UNL A   1      39.139  27.701  31.422  1.00  0.00    -0.200 F 
ATOM     90  C   UNL A   1      38.504  28.637  29.348  1.00  0.00     0.200 A 
ATOM     91  F   UNL A   1      37.920  29.558  27.254  1.00  0.00    -0.200 F 
ATOM     92  F   UNL A   1      37.228  28.701  29.750  1.00  0.00    -0.200 F 
ENDBRANCH  58  82
BRANCH  70  93
ATOM     93  C   UNL A   1      46.660  32.783  28.860  1.00  0.00     0.064 A 
ATOM     94  C   UNL A   1      47.069  33.049  30.173  1.00  0.00     0.173 A 
ATOM     95  C   UNL A   1      46.485  33.869  27.989  1.00  0.00     0.173 A 
ATOM     96  F   UNL A   1      47.234  32.044  31.046  1.00  0.00    -0.203 F 
ATOM     97  C   UNL A   1      47.289  34.356  30.600  1.00  0.00     0.198 A 
ATOM     98  C   UNL A   1      46.732  35.172  28.412  1.00  0.00     0.198 A 
ATOM     99  F   UNL A   1      46.100  33.665  26.720  1.00  0.00    -0.203 F 
ATOM    100  F   UNL A   1      47.652  34.592  31.869  1.00  0.00    -0.200 F 
ATOM    101  C   UNL A   1      47.131  35.415  29.717  1.00  0.00     0.200 A 
ATOM    102  F   UNL A   1      46.593  36.191  27.553  1.00  0.00    -0.200 F 
ATOM    103  F   UNL A   1      47.363  36.669  30.125  1.00  0.00    -0.200 F 
ENDBRANCH  70  93
ENDBRANCH  44  45
ENDBRANCH  36  39
ENDBRANCH  34  35
ENDBRANCH  33  34
ENDBRANCH  32  33
ENDBRANCH  31  32
ENDBRANCH  30  31
ENDBRANCH   1  30
TORSDOF 19
ENDMDL
MODEL 3
REMARK VINA RESULT:     -11.2      5.929     13.301
REMARK SMILES COc1cc(/C=C/C(=O)c2ccc(OCC(=O)NCCCCCCNC(=O)c3ccc(-c4c5nc(c(-c6c(F)c(F)c(F)c(F)c6F)c6ccc([nH]6)c(-c6c(F)c(F)c(F)c(F)c6F)c6nc(c(-c7c(F)c(F)c(F)c(F)c7F)c7ccc4[nH]7)C=C6)C=C5)cc3)cc2)cc2c1OCCO2
REMARK SMILES IDX 19 1 18 2 16 3 17 4 15 6 14 7 13 8 10 9 11 10 92 11 12 12
REMARK SMILES IDX 91 13 8 14 9 15 7 16 6 17 5 18 3 19 4 20 95 21 94 22 96 23
REMARK SMILES IDX 93 24 99 25 97 26 98 27 2 28 1 29 20 30 21 31 22 32 23 33
REMARK SMILES IDX 24 34 25 35 26 36 27 38 28 39 29 40 90 41 30 42 89 43 31 44
REMARK SMILES IDX 32 45 33 46 83 47 34 48 88 49 82 50 84 51 35 52 87 53 81 54
REMARK SMILES IDX 80 55 36 57 68 58 48 59 67 60 49 61 52 62 66 63 85 64 50 65
REMARK SMILES IDX 51 66 65 68 86 69 53 70 37 71 38 72 46 73 39 74 40 75 44 76
REMARK SMILES IDX 47 77 41 78 42 79 45 80 43 81 69 82 70 83 78 84 71 85 72 86
REMARK SMILES IDX 76 87 79 88 73 89 74 90 77 91 75 92 54 93 55 94 63 95 56 96
REMARK SMILES IDX 57 97 61 98 64 99 58 100 59 101 62 102 60 103
REMARK H PARENT 18 5 25 37 84 56 52 67
REMARK Flexibility Score: inf
ROOT
ATOM      1  C   UNL A   1      46.640  26.975  30.034  1.00  0.00     0.116 C 
ENDROOT
BRANCH   1   2
ATOM      2  N   UNL A   1      46.714  28.291  30.636  1.00  0.00    -0.353 N 
ATOM      3  C   UNL A   1      46.889  29.500  30.028  1.00  0.00     0.257 C 
ATOM      4  O   UNL A   1      46.942  30.513  30.729  1.00  0.00    -0.271 OA
ATOM      5  H   UNL A   1      46.625  28.317  31.616  1.00  0.00     0.163 HD
BRANCH   3   6
ATOM      6  C   UNL A   1      46.965  29.583  28.498  1.00  0.00     0.329 C 
BRANCH   6   7
ATOM      7  O   UNL A   1      48.195  29.225  27.888  1.00  0.00    -0.484 OA
BRANCH   7   8
ATOM      8  C   UNL A   1      48.186  28.200  26.986  1.00  0.00     0.120 A 
ATOM      9  C   UNL A   1      47.888  26.197  25.049  1.00  0.00     0.022 A 
ATOM     10  C   UNL A   1      47.145  27.378  24.955  1.00  0.00     0.016 A 
ATOM     11  C   UNL A   1      48.825  26.049  26.076  1.00  0.00     0.016 A 
ATOM     12  C   UNL A   1      47.296  28.372  25.924  1.00  0.00     0.047 A 
ATOM     13  C   UNL A   1      48.971  27.048  27.045  1.00  0.00     0.047 A 
BRANCH   9  14
ATOM     14  C   UNL A   1      47.689  25.158  24.014  1.00  0.00     0.185 C 
ATOM     15  O   UNL A   1      48.257  25.259  22.931  1.00  0.00    -0.289 OA
BRANCH  14  16
ATOM     16  C   UNL A   1      46.800  23.989  24.263  1.00  0.00     0.053 C 
ATOM     17  C   UNL A   1      45.842  23.935  25.202  1.00  0.00     0.012 C 
BRANCH  17  18
ATOM     18  C   UNL A   1      44.923  22.799  25.418  1.00  0.00    -0.018 A 
ATOM     19  C   UNL A   1      44.507  20.396  25.198  1.00  0.00     0.165 A 
ATOM     20  C   UNL A   1      45.326  21.519  25.008  1.00  0.00     0.058 A 
ATOM     21  C   UNL A   1      43.275  20.535  25.846  1.00  0.00     0.203 A 
ATOM     22  C   UNL A   1      42.883  21.807  26.287  1.00  0.00     0.165 A 
ATOM     23  O   UNL A   1      42.509  19.421  26.079  1.00  0.00    -0.483 OA
ATOM     24  C   UNL A   1      43.686  22.925  26.059  1.00  0.00     0.058 A 
ATOM     25  O   UNL A   1      41.714  22.046  26.969  1.00  0.00    -0.486 OA
ATOM     26  C   UNL A   1      41.169  19.749  26.460  1.00  0.00     0.271 C 
ATOM     27  C   UNL A   1      41.170  20.841  27.512  1.00  0.00     0.271 C 
BRANCH  19  28
ATOM     28  O   UNL A   1      45.056  19.215  24.765  1.00  0.00    -0.493 OA
ATOM     29  C   UNL A   1      46.261  18.837  25.427  1.00  0.00     0.278 C 
ENDBRANCH  19  28
ENDBRANCH  17  18
ENDBRANCH  14  16
ENDBRANCH   9  14
ENDBRANCH   7   8
ENDBRANCH   6   7
ENDBRANCH   3   6
ENDBRANCH   1   2
BRANCH   1  30
ATOM     30  C   UNL A   1      47.052  25.878  31.015  1.00  0.00     0.021 C 
BRANCH  30  31
ATOM     31  C   UNL A   1      46.416  25.987  32.409  1.00  0.00     0.002 C 
BRANCH  31  32
ATOM     32  C   UNL A   1      45.964  24.666  33.040  1.00  0.00     0.002 C 
BRANCH  32  33
ATOM     33  C   UNL A   1      46.905  24.089  34.098  1.00  0.00     0.021 C 
BRANCH  33  34
ATOM     34  C   UNL A   1      46.220  23.624  35.376  1.00  0.00     0.116 C 
BRANCH  34  35
ATOM     35  N   UNL A   1      46.727  24.298  36.562  1.00  0.00    -0.352 N 
ATOM     36  C   UNL A   1      46.486  25.582  36.990  1.00  0.00     0.251 C 
ATOM     37  H   UNL A   1      47.323  23.764  37.134  1.00  0.00     0.163 HD
ATOM     38  O   UNL A   1      47.112  26.057  37.932  1.00  0.00    -0.269 OA
BRANCH  36  39
ATOM     39  C   UNL A   1      45.481  26.403  36.284  1.00  0.00     0.039 A 
ATOM     40  C   UNL A   1      45.887  27.572  35.634  1.00  0.00     0.014 A 
ATOM     41  C   UNL A   1      44.143  26.003  36.246  1.00  0.00     0.014 A 
ATOM     42  C   UNL A   1      44.963  28.302  34.882  1.00  0.00     0.010 A 
ATOM     43  C   UNL A   1      43.242  26.691  35.443  1.00  0.00     0.010 A 
ATOM     44  C   UNL A   1      43.642  27.847  34.752  1.00  0.00    -0.014 A 
BRANCH  44  45
ATOM     45  C   UNL A   1      42.640  28.560  33.919  1.00  0.00     0.031 A 
ATOM     46  C   UNL A   1      41.653  29.480  34.579  1.00  0.00     0.074 A 
ATOM     47  C   UNL A   1      42.550  28.304  32.600  1.00  0.00     0.049 A 
ATOM     48  N   UNL A   1      40.588  30.053  34.080  1.00  0.00    -0.248 NA
ATOM     49  C   UNL A   1      41.879  29.769  36.005  1.00  0.00     0.031 C 
ATOM     50  C   UNL A   1      43.436  27.416  31.847  1.00  0.00     0.029 A 
ATOM     51  N   UNL A   1      41.651  28.749  31.663  1.00  0.00    -0.354 N 
ATOM     52  C   UNL A   1      40.003  30.741  35.135  1.00  0.00     0.074 A 
ATOM     53  C   UNL A   1      40.806  30.483  36.309  1.00  0.00     0.031 C 
ATOM     54  C   UNL A   1      43.038  27.385  30.563  1.00  0.00     0.029 A 
ATOM     55  C   UNL A   1      41.844  28.211  30.414  1.00  0.00     0.049 A 
ATOM     56  H   UNL A   1      40.935  29.394  31.867  1.00  0.00     0.167 HD
ATOM     57  C   UNL A   1      38.903  31.532  35.119  1.00  0.00     0.037 A 
ATOM     58  C   UNL A   1      41.125  28.351  29.283  1.00  0.00     0.037 A 
ATOM     59  C   UNL A   1      38.129  31.814  33.940  1.00  0.00     0.049 A 
ATOM     60  C   UNL A   1      39.897  29.223  29.295  1.00  0.00     0.074 A 
ATOM     61  C   UNL A   1      37.028  32.641  33.809  1.00  0.00     0.029 A 
ATOM     62  N   UNL A   1      38.379  31.276  32.686  1.00  0.00    -0.354 N 
ATOM     63  N   UNL A   1      39.375  29.903  30.287  1.00  0.00    -0.248 NA
ATOM     64  C   UNL A   1      39.157  29.348  28.031  1.00  0.00     0.031 C 
ATOM     65  C   UNL A   1      36.586  32.573  32.484  1.00  0.00     0.029 A 
ATOM     66  C   UNL A   1      37.444  31.743  31.778  1.00  0.00     0.049 A 
ATOM     67  H   UNL A   1      39.112  30.654  32.473  1.00  0.00     0.167 HD
ATOM     68  C   UNL A   1      38.275  30.565  29.759  1.00  0.00     0.074 A 
ATOM     69  C   UNL A   1      38.202  30.206  28.359  1.00  0.00     0.031 C 
ATOM     70  C   UNL A   1      37.406  31.399  30.380  1.00  0.00     0.037 A 
BRANCH  57  71
ATOM     71  C   UNL A   1      38.473  32.151  36.416  1.00  0.00     0.064 A 
ATOM     72  C   UNL A   1      37.768  31.418  37.383  1.00  0.00     0.173 A 
ATOM     73  C   UNL A   1      38.801  33.483  36.712  1.00  0.00     0.173 A 
ATOM     74  F   UNL A   1      37.421  30.144  37.144  1.00  0.00    -0.203 F 
ATOM     75  C   UNL A   1      37.381  32.004  38.585  1.00  0.00     0.198 A 
ATOM     76  C   UNL A   1      38.440  34.057  37.928  1.00  0.00     0.198 A 
ATOM     77  F   UNL A   1      39.479  34.226  35.825  1.00  0.00    -0.203 F 
ATOM     78  F   UNL A   1      36.665  31.301  39.472  1.00  0.00    -0.200 F 
ATOM     79  C   UNL A   1      37.723  33.321  38.860  1.00  0.00     0.200 A 
ATOM     80  F   UNL A   1      38.783  35.323  38.198  1.00  0.00    -0.200 F 
ATOM     81  F   UNL A   1      37.357  33.881  40.020  1.00  0.00    -0.200 F 
ENDBRANCH  57  71
BRANCH  58  82
ATOM     82  C   UNL A   1      41.552  27.659  28.039  1.00  0.00     0.064 A 
ATOM     83  C   UNL A   1      40.928  26.473  27.627  1.00  0.00     0.173 A 
ATOM     84  C   UNL A   1      42.595  28.157  27.244  1.00  0.00     0.173 A 
ATOM     85  F   UNL A   1      39.940  25.946  28.367  1.00  0.00    -0.203 F 
ATOM     86  C   UNL A   1      41.343  25.801  26.479  1.00  0.00     0.198 A 
ATOM     87  C   UNL A   1      42.990  27.499  26.081  1.00  0.00     0.198 A 
ATOM     88  F   UNL A   1      43.223  29.290  27.591  1.00  0.00    -0.203 F 
ATOM     89  F   UNL A   1      40.759  24.644  26.135  1.00  0.00    -0.200 F 
ATOM     90  C   UNL A   1      42.371  26.317  25.704  1.00  0.00     0.200 A 
ATOM     91  F   UNL A   1      43.974  28.009  25.327  1.00  0.00    -0.200 F 
ATOM     92  F   UNL A   1      42.768  25.672  24.599  1.00  0.00    -0.200 F 
ENDBRANCH  58  82
BRANCH  70  93
ATOM     93  C   UNL A   1      36.336  32.039  29.545  1.00  0.00     0.064 A 
ATOM     94  C   UNL A   1      35.252  31.305  29.046  1.00  0.00     0.173 A 
ATOM     95  C   UNL A   1      36.359  33.423  29.315  1.00  0.00     0.173 A 
ATOM     96  F   UNL A   1      35.194  29.977  29.228  1.00  0.00    -0.203 F 
ATOM     97  C   UNL A   1      34.231  31.934  28.338  1.00  0.00     0.198 A 
ATOM     98  C   UNL A   1      35.323  34.052  28.630  1.00  0.00     0.198 A 
ATOM     99  F   UNL A   1      37.373  34.170  29.778  1.00  0.00    -0.203 F 
ATOM    100  F   UNL A   1      33.217  31.210  27.844  1.00  0.00    -0.200 F 
ATOM    101  C   UNL A   1      34.262  33.307  28.140  1.00  0.00     0.200 A 
ATOM    102  F   UNL A   1      35.348  35.380  28.452  1.00  0.00    -0.200 F 
ATOM    103  F   UNL A   1      33.269  33.912  27.475  1.00  0.00    -0.200 F 
ENDBRANCH  70  93
ENDBRANCH  44  45
ENDBRANCH  36  39
ENDBRANCH  34  35
ENDBRANCH  33  34
ENDBRANCH  32  33
ENDBRANCH  31  32
ENDBRANCH  30  31
ENDBRANCH   1  30
TORSDOF 19
ENDMDL
