MODEL 1
REMARK VINA RESULT:     -12.2      0.000      0.000
REMARK SMILES C[C@H](C(=O)NCCCCCCNC(=O)c1ccc(-c2c3nc(c(-c4c(F)c(F)c(F)c(F)c4F)c4ccc([nH]4)c(-c4c(F)c(F)c(F)c(F)c4F)c4nc(c(-c5c(F)c(F)c(F)c(F)c5F)c5ccc2[nH]5)C=C4)C=C3)cc1)c1ccc2ncccc2c1
REMARK SMILES IDX 9 1 8 2 7 3 6 4 5 5 3 6 4 7 2 9 1 10 78 11 79 12 87 13 80 14
REMARK SMILES IDX 86 15 81 16 85 17 82 18 84 19 83 20 10 21 11 22 12 23 13 24
REMARK SMILES IDX 14 26 15 27 16 28 77 29 17 30 76 31 18 32 19 33 20 34 70 35
REMARK SMILES IDX 21 36 75 37 69 38 71 39 22 40 74 41 68 42 67 43 23 45 55 46
REMARK SMILES IDX 35 47 54 48 36 49 39 50 53 51 72 52 37 53 38 54 52 56 73 57
REMARK SMILES IDX 40 58 24 59 25 60 33 61 26 62 27 63 31 64 34 65 28 66 29 67
REMARK SMILES IDX 32 68 30 69 56 70 57 71 65 72 58 73 59 74 63 75 66 76 60 77
REMARK SMILES IDX 61 78 64 79 62 80 41 81 42 82 50 83 43 84 44 85 48 86 51 87
REMARK SMILES IDX 45 88 46 89 49 90 47 91
REMARK H PARENT 5 8 12 25 71 44 39 55
REMARK Flexibility Score: inf
ROOT
ATOM      1  C   UNL A   1      34.584  33.836  29.053  1.00  0.00     0.002 C 
ENDROOT
BRANCH   1   2
ATOM      2  C   UNL A   1      34.652  32.682  28.043  1.00  0.00     0.002 C 
BRANCH   2   3
ATOM      3  C   UNL A   1      33.332  31.921  27.881  1.00  0.00     0.021 C 
BRANCH   3   4
ATOM      4  C   UNL A   1      33.517  30.615  27.106  1.00  0.00     0.116 C 
BRANCH   4   5
ATOM      5  N   UNL A   1      32.674  29.569  27.627  1.00  0.00    -0.356 N 
ATOM      6  C   UNL A   1      32.036  28.495  27.116  1.00  0.00     0.227 C 
ATOM      7  O   UNL A   1      31.403  27.871  27.984  1.00  0.00    -0.274 OA
ATOM      8  H   UNL A   1      32.526  29.660  28.595  1.00  0.00     0.163 HD
BRANCH   6   9
ATOM      9  C   UNL A   1      32.149  27.928  25.680  1.00  0.00     0.105 C 
ATOM     10  C   UNL A   1      31.967  26.396  25.825  1.00  0.00     0.023 C 
BRANCH   9  11
ATOM     11  C   UNL A   1      31.269  28.494  24.558  1.00  0.00    -0.035 A 
ATOM     12  C   UNL A   1      30.887  27.683  23.485  1.00  0.00     0.007 A 
ATOM     13  C   UNL A   1      30.655  29.759  24.612  1.00  0.00     0.015 A 
ATOM     14  C   UNL A   1      30.123  28.171  22.416  1.00  0.00     0.029 A 
ATOM     15  C   UNL A   1      29.750  30.195  23.612  1.00  0.00     0.000 A 
ATOM     16  C   UNL A   1      29.549  29.423  22.455  1.00  0.00     0.070 A 
ATOM     17  C   UNL A   1      28.992  31.370  23.738  1.00  0.00     0.012 A 
ATOM     18  N   UNL A   1      28.768  29.820  21.434  1.00  0.00    -0.256 NA
ATOM     19  C   UNL A   1      28.131  31.756  22.716  1.00  0.00     0.021 A 
ATOM     20  C   UNL A   1      28.083  30.974  21.579  1.00  0.00     0.112 A 
ENDBRANCH   9  11
ENDBRANCH   6   9
ENDBRANCH   4   5
ENDBRANCH   3   4
ENDBRANCH   2   3
ENDBRANCH   1   2
BRANCH   1  21
ATOM     21  C   UNL A   1      33.265  34.608  29.048  1.00  0.00     0.021 C 
BRANCH  21  22
ATOM     22  C   UNL A   1      33.421  36.088  29.373  1.00  0.00     0.116 C 
BRANCH  22  23
ATOM     23  N   UNL A   1      32.562  36.481  30.483  1.00  0.00    -0.352 N 
ATOM     24  C   UNL A   1      32.520  35.984  31.760  1.00  0.00     0.251 C 
ATOM     25  H   UNL A   1      31.924  37.205  30.288  1.00  0.00     0.163 HD
ATOM     26  O   UNL A   1      31.569  36.215  32.495  1.00  0.00    -0.269 OA
BRANCH  24  27
ATOM     27  C   UNL A   1      33.649  35.164  32.239  1.00  0.00     0.039 A 
ATOM     28  C   UNL A   1      33.415  33.865  32.695  1.00  0.00     0.014 A 
ATOM     29  C   UNL A   1      34.940  35.696  32.232  1.00  0.00     0.014 A 
ATOM     30  C   UNL A   1      34.493  33.076  33.098  1.00  0.00     0.010 A 
ATOM     31  C   UNL A   1      36.017  34.883  32.548  1.00  0.00     0.010 A 
ATOM     32  C   UNL A   1      35.803  33.573  33.004  1.00  0.00    -0.014 A 
BRANCH  32  33
ATOM     33  C   UNL A   1      36.980  32.774  33.415  1.00  0.00     0.031 A 
ATOM     34  C   UNL A   1      37.665  33.096  34.712  1.00  0.00     0.074 A 
ATOM     35  C   UNL A   1      37.490  31.848  32.584  1.00  0.00     0.049 A 
ATOM     36  N   UNL A   1      38.800  32.650  35.186  1.00  0.00    -0.248 NA
ATOM     37  C   UNL A   1      37.003  34.090  35.571  1.00  0.00     0.031 C 
ATOM     38  C   UNL A   1      36.928  31.476  31.286  1.00  0.00     0.029 A 
ATOM     39  N   UNL A   1      38.614  31.071  32.699  1.00  0.00    -0.354 N 
ATOM     40  C   UNL A   1      38.998  33.329  36.381  1.00  0.00     0.074 A 
ATOM     41  C   UNL A   1      37.900  34.260  36.529  1.00  0.00     0.031 C 
ATOM     42  C   UNL A   1      37.709  30.538  30.726  1.00  0.00     0.029 A 
ATOM     43  C   UNL A   1      38.848  30.281  31.602  1.00  0.00     0.049 A 
ATOM     44  H   UNL A   1      39.197  31.080  33.492  1.00  0.00     0.167 HD
ATOM     45  C   UNL A   1      39.997  33.177  37.281  1.00  0.00     0.037 A 
ATOM     46  C   UNL A   1      39.878  29.459  31.326  1.00  0.00     0.037 A 
ATOM     47  C   UNL A   1      41.074  32.234  37.129  1.00  0.00     0.049 A 
ATOM     48  C   UNL A   1      40.987  29.311  32.333  1.00  0.00     0.074 A 
ATOM     49  C   UNL A   1      42.106  31.954  38.005  1.00  0.00     0.029 A 
ATOM     50  N   UNL A   1      41.257  31.421  36.019  1.00  0.00    -0.354 N 
ATOM     51  N   UNL A   1      41.141  29.912  33.487  1.00  0.00    -0.248 NA
ATOM     52  C   UNL A   1      42.062  28.366  32.002  1.00  0.00     0.031 C 
ATOM     53  C   UNL A   1      42.948  31.015  37.399  1.00  0.00     0.029 A 
ATOM     54  C   UNL A   1      42.401  30.656  36.177  1.00  0.00     0.049 A 
ATOM     55  H   UNL A   1      40.662  31.392  35.235  1.00  0.00     0.167 HD
ATOM     56  C   UNL A   1      42.304  29.394  34.039  1.00  0.00     0.074 A 
ATOM     57  C   UNL A   1      42.819  28.428  33.090  1.00  0.00     0.031 C 
ATOM     58  C   UNL A   1      42.888  29.686  35.228  1.00  0.00     0.037 A 
BRANCH  45  59
ATOM     59  C   UNL A   1      39.975  34.063  38.494  1.00  0.00     0.064 A 
ATOM     60  C   UNL A   1      39.284  33.705  39.663  1.00  0.00     0.173 A 
ATOM     61  C   UNL A   1      40.653  35.292  38.488  1.00  0.00     0.173 A 
ATOM     62  F   UNL A   1      38.611  32.547  39.723  1.00  0.00    -0.203 F 
ATOM     63  C   UNL A   1      39.229  34.565  40.757  1.00  0.00     0.198 A 
ATOM     64  C   UNL A   1      40.629  36.132  39.599  1.00  0.00     0.198 A 
ATOM     65  F   UNL A   1      41.337  35.684  37.402  1.00  0.00    -0.203 F 
ATOM     66  F   UNL A   1      38.500  34.234  41.831  1.00  0.00    -0.200 F 
ATOM     67  C   UNL A   1      39.906  35.775  40.727  1.00  0.00     0.200 A 
ATOM     68  F   UNL A   1      41.298  37.293  39.573  1.00  0.00    -0.200 F 
ATOM     69  F   UNL A   1      39.851  36.602  41.779  1.00  0.00    -0.200 F 
ENDBRANCH  45  59
BRANCH  46  70
ATOM     70  C   UNL A   1      39.890  28.701  30.048  1.00  0.00     0.064 A 
ATOM     71  C   UNL A   1      40.486  29.238  28.898  1.00  0.00     0.173 A 
ATOM     72  C   UNL A   1      39.339  27.414  29.956  1.00  0.00     0.173 A 
ATOM     73  F   UNL A   1      41.010  30.472  28.932  1.00  0.00    -0.203 F 
ATOM     74  C   UNL A   1      40.518  28.523  27.703  1.00  0.00     0.198 A 
ATOM     75  C   UNL A   1      39.398  26.688  28.769  1.00  0.00     0.198 A 
ATOM     76  F   UNL A   1      38.765  26.851  31.030  1.00  0.00    -0.203 F 
ATOM     77  F   UNL A   1      41.063  29.075  26.611  1.00  0.00    -0.200 F 
ATOM     78  C   UNL A   1      39.983  27.245  27.642  1.00  0.00     0.200 A 
ATOM     79  F   UNL A   1      38.897  25.447  28.718  1.00  0.00    -0.200 F 
ATOM     80  F   UNL A   1      40.028  26.553  26.496  1.00  0.00    -0.200 F 
ENDBRANCH  46  70
BRANCH  58  81
ATOM     81  C   UNL A   1      44.117  28.911  35.610  1.00  0.00     0.064 A 
ATOM     82  C   UNL A   1      45.408  29.364  35.302  1.00  0.00     0.173 A 
ATOM     83  C   UNL A   1      43.996  27.734  36.365  1.00  0.00     0.173 A 
ATOM     84  F   UNL A   1      45.576  30.476  34.570  1.00  0.00    -0.203 F 
ATOM     85  C   UNL A   1      46.531  28.659  35.725  1.00  0.00     0.198 A 
ATOM     86  C   UNL A   1      45.122  27.051  36.815  1.00  0.00     0.198 A 
ATOM     87  F   UNL A   1      42.784  27.262  36.693  1.00  0.00    -0.203 F 
ATOM     88  F   UNL A   1      47.755  29.090  35.389  1.00  0.00    -0.200 F 
ATOM     89  C   UNL A   1      46.389  27.511  36.490  1.00  0.00     0.200 A 
ATOM     90  F   UNL A   1      44.981  25.952  37.569  1.00  0.00    -0.200 F 
ATOM     91  F   UNL A   1      47.472  26.847  36.914  1.00  0.00    -0.200 F 
ENDBRANCH  58  81
ENDBRANCH  32  33
ENDBRANCH  24  27
ENDBRANCH  22  23
ENDBRANCH  21  22
ENDBRANCH   1  21
TORSDOF 14
ENDMDL
MODEL 2
REMARK VINA RESULT:     -12.2      1.722      7.775
REMARK SMILES C[C@H](C(=O)NCCCCCCNC(=O)c1ccc(-c2c3nc(c(-c4c(F)c(F)c(F)c(F)c4F)c4ccc([nH]4)c(-c4c(F)c(F)c(F)c(F)c4F)c4nc(c(-c5c(F)c(F)c(F)c(F)c5F)c5ccc2[nH]5)C=C4)C=C3)cc1)c1ccc2ncccc2c1
REMARK SMILES IDX 9 1 8 2 7 3 6 4 5 5 3 6 4 7 2 9 1 10 78 11 79 12 87 13 80 14
REMARK SMILES IDX 86 15 81 16 85 17 82 18 84 19 83 20 10 21 11 22 12 23 13 24
REMARK SMILES IDX 14 26 15 27 16 28 77 29 17 30 76 31 18 32 19 33 20 34 70 35
REMARK SMILES IDX 21 36 75 37 69 38 71 39 22 40 74 41 68 42 67 43 23 45 55 46
REMARK SMILES IDX 35 47 54 48 36 49 39 50 53 51 72 52 37 53 38 54 52 56 73 57
REMARK SMILES IDX 40 58 24 59 25 60 33 61 26 62 27 63 31 64 34 65 28 66 29 67
REMARK SMILES IDX 32 68 30 69 56 70 57 71 65 72 58 73 59 74 63 75 66 76 60 77
REMARK SMILES IDX 61 78 64 79 62 80 41 81 42 82 50 83 43 84 44 85 48 86 51 87
REMARK SMILES IDX 45 88 46 89 49 90 47 91
REMARK H PARENT 5 8 12 25 71 44 39 55
REMARK Flexibility Score: inf
ROOT
ATOM      1  C   UNL A   1      31.428  30.465  25.725  1.00  0.00     0.002 C 
ENDROOT
BRANCH   1   2
ATOM      2  C   UNL A   1      32.811  29.817  25.881  1.00  0.00     0.002 C 
BRANCH   2   3
ATOM      3  C   UNL A   1      32.826  28.608  26.821  1.00  0.00     0.021 C 
BRANCH   3   4
ATOM      4  C   UNL A   1      31.416  28.086  27.104  1.00  0.00     0.116 C 
BRANCH   4   5
ATOM      5  N   UNL A   1      31.402  26.652  27.248  1.00  0.00    -0.356 N 
ATOM      6  C   UNL A   1      31.405  25.594  26.411  1.00  0.00     0.227 C 
ATOM      7  O   UNL A   1      31.380  24.513  27.023  1.00  0.00    -0.274 OA
ATOM      8  H   UNL A   1      31.385  26.376  28.192  1.00  0.00     0.163 HD
BRANCH   6   9
ATOM      9  C   UNL A   1      31.586  25.612  24.873  1.00  0.00     0.105 C 
ATOM     10  C   UNL A   1      30.942  24.296  24.367  1.00  0.00     0.023 C 
BRANCH   9  11
ATOM     11  C   UNL A   1      31.110  26.820  24.057  1.00  0.00    -0.035 A 
ATOM     12  C   UNL A   1      31.958  27.414  23.117  1.00  0.00     0.007 A 
ATOM     13  C   UNL A   1      29.783  27.288  24.058  1.00  0.00     0.015 A 
ATOM     14  C   UNL A   1      31.581  28.547  22.383  1.00  0.00     0.029 A 
ATOM     15  C   UNL A   1      29.355  28.329  23.197  1.00  0.00     0.000 A 
ATOM     16  C   UNL A   1      30.289  29.025  22.410  1.00  0.00     0.070 A 
ATOM     17  C   UNL A   1      28.005  28.685  23.053  1.00  0.00     0.012 A 
ATOM     18  N   UNL A   1      29.960  30.074  21.636  1.00  0.00    -0.256 NA
ATOM     19  C   UNL A   1      27.646  29.727  22.203  1.00  0.00     0.021 A 
ATOM     20  C   UNL A   1      28.655  30.408  21.552  1.00  0.00     0.112 A 
ENDBRANCH   9  11
ENDBRANCH   6   9
ENDBRANCH   4   5
ENDBRANCH   3   4
ENDBRANCH   2   3
ENDBRANCH   1   2
BRANCH   1  21
ATOM     21  C   UNL A   1      31.258  31.787  26.475  1.00  0.00     0.021 C 
BRANCH  21  22
ATOM     22  C   UNL A   1      32.563  32.358  27.013  1.00  0.00     0.116 C 
BRANCH  22  23
ATOM     23  N   UNL A   1      32.406  33.749  27.417  1.00  0.00    -0.352 N 
ATOM     24  C   UNL A   1      33.036  34.432  28.426  1.00  0.00     0.251 C 
ATOM     25  H   UNL A   1      31.759  34.272  26.891  1.00  0.00     0.163 HD
ATOM     26  O   UNL A   1      32.606  35.507  28.823  1.00  0.00    -0.269 OA
BRANCH  24  27
ATOM     27  C   UNL A   1      34.251  33.849  29.027  1.00  0.00     0.039 A 
ATOM     28  C   UNL A   1      35.504  34.358  28.682  1.00  0.00     0.014 A 
ATOM     29  C   UNL A   1      34.133  32.793  29.933  1.00  0.00     0.014 A 
ATOM     30  C   UNL A   1      36.646  33.836  29.293  1.00  0.00     0.010 A 
ATOM     31  C   UNL A   1      35.258  32.338  30.603  1.00  0.00     0.010 A 
ATOM     32  C   UNL A   1      36.526  32.840  30.275  1.00  0.00    -0.014 A 
BRANCH  32  33
ATOM     33  C   UNL A   1      37.707  32.258  30.953  1.00  0.00     0.031 A 
ATOM     34  C   UNL A   1      38.483  31.170  30.268  1.00  0.00     0.074 A 
ATOM     35  C   UNL A   1      38.010  32.624  32.212  1.00  0.00     0.049 A 
ATOM     36  N   UNL A   1      39.434  30.404  30.737  1.00  0.00    -0.248 NA
ATOM     37  C   UNL A   1      38.104  30.877  28.876  1.00  0.00     0.031 C 
ATOM     38  C   UNL A   1      37.306  33.644  32.988  1.00  0.00     0.029 A 
ATOM     39  N   UNL A   1      38.974  32.155  33.068  1.00  0.00    -0.354 N 
ATOM     40  C   UNL A   1      39.744  29.523  29.710  1.00  0.00     0.074 A 
ATOM     41  C   UNL A   1      38.840  29.808  28.616  1.00  0.00     0.031 C 
ATOM     42  C   UNL A   1      37.865  33.728  34.206  1.00  0.00     0.029 A 
ATOM     43  C   UNL A   1      38.931  32.737  34.310  1.00  0.00     0.049 A 
ATOM     44  H   UNL A   1      39.633  31.469  32.815  1.00  0.00     0.167 HD
ATOM     45  C   UNL A   1      40.709  28.574  29.676  1.00  0.00     0.037 A 
ATOM     46  C   UNL A   1      39.656  32.480  35.415  1.00  0.00     0.037 A 
ATOM     47  C   UNL A   1      41.613  28.314  30.765  1.00  0.00     0.049 A 
ATOM     48  C   UNL A   1      40.715  31.412  35.364  1.00  0.00     0.074 A 
ATOM     49  C   UNL A   1      42.664  27.418  30.818  1.00  0.00     0.029 A 
ATOM     50  N   UNL A   1      41.563  28.950  31.998  1.00  0.00    -0.354 N 
ATOM     51  N   UNL A   1      41.045  30.620  34.372  1.00  0.00    -0.248 NA
ATOM     52  C   UNL A   1      41.510  31.206  36.583  1.00  0.00     0.031 C 
ATOM     53  C   UNL A   1      43.213  27.468  32.104  1.00  0.00     0.029 A 
ATOM     54  C   UNL A   1      42.551  28.448  32.829  1.00  0.00     0.049 A 
ATOM     55  H   UNL A   1      40.921  29.654  32.246  1.00  0.00     0.167 HD
ATOM     56  C   UNL A   1      42.105  29.851  34.830  1.00  0.00     0.074 A 
ATOM     57  C   UNL A   1      42.364  30.270  36.192  1.00  0.00     0.031 C 
ATOM     58  C   UNL A   1      42.806  28.890  34.177  1.00  0.00     0.037 A 
BRANCH  45  59
ATOM     59  C   UNL A   1      40.816  27.742  28.429  1.00  0.00     0.064 A 
ATOM     60  C   UNL A   1      40.153  26.512  28.298  1.00  0.00     0.173 A 
ATOM     61  C   UNL A   1      41.598  28.181  27.349  1.00  0.00     0.173 A 
ATOM     62  F   UNL A   1      39.401  26.038  29.303  1.00  0.00    -0.203 F 
ATOM     63  C   UNL A   1      40.310  25.729  27.156  1.00  0.00     0.198 A 
ATOM     64  C   UNL A   1      41.719  27.414  26.192  1.00  0.00     0.198 A 
ATOM     65  F   UNL A   1      42.247  29.353  27.414  1.00  0.00    -0.203 F 
ATOM     66  F   UNL A   1      39.728  24.524  27.088  1.00  0.00    -0.200 F 
ATOM     67  C   UNL A   1      41.088  26.183  26.102  1.00  0.00     0.200 A 
ATOM     68  F   UNL A   1      42.458  27.863  25.168  1.00  0.00    -0.200 F 
ATOM     69  F   UNL A   1      41.239  25.429  25.006  1.00  0.00    -0.200 F 
ENDBRANCH  45  59
BRANCH  46  70
ATOM     70  C   UNL A   1      39.412  33.267  36.652  1.00  0.00     0.064 A 
ATOM     71  C   UNL A   1      40.040  34.504  36.853  1.00  0.00     0.173 A 
ATOM     72  C   UNL A   1      38.523  32.818  37.640  1.00  0.00     0.173 A 
ATOM     73  F   UNL A   1      40.911  34.967  35.944  1.00  0.00    -0.203 F 
ATOM     74  C   UNL A   1      39.798  35.255  38.000  1.00  0.00     0.198 A 
ATOM     75  C   UNL A   1      38.261  33.584  38.774  1.00  0.00     0.198 A 
ATOM     76  F   UNL A   1      37.889  31.645  37.492  1.00  0.00    -0.203 F 
ATOM     77  F   UNL A   1      40.439  36.418  38.183  1.00  0.00    -0.200 F 
ATOM     78  C   UNL A   1      38.902  34.800  38.955  1.00  0.00     0.200 A 
ATOM     79  F   UNL A   1      37.380  33.149  39.686  1.00  0.00    -0.200 F 
ATOM     80  F   UNL A   1      38.660  35.530  40.052  1.00  0.00    -0.200 F 
ENDBRANCH  46  70
BRANCH  58  81
ATOM     81  C   UNL A   1      43.965  28.263  34.897  1.00  0.00     0.064 A 
ATOM     82  C   UNL A   1      43.833  27.071  35.623  1.00  0.00     0.173 A 
ATOM     83  C   UNL A   1      45.246  28.828  34.789  1.00  0.00     0.173 A 
ATOM     84  F   UNL A   1      42.628  26.499  35.768  1.00  0.00    -0.203 F 
ATOM     85  C   UNL A   1      44.938  26.476  36.227  1.00  0.00     0.198 A 
ATOM     86  C   UNL A   1      46.353  28.213  35.365  1.00  0.00     0.198 A 
ATOM     87  F   UNL A   1      45.427  29.964  34.099  1.00  0.00    -0.203 F 
ATOM     88  F   UNL A   1      44.783  25.357  36.947  1.00  0.00    -0.200 F 
ATOM     89  C   UNL A   1      46.198  27.040  36.087  1.00  0.00     0.200 A 
ATOM     90  F   UNL A   1      47.571  28.750  35.213  1.00  0.00    -0.200 F 
ATOM     91  F   UNL A   1      47.263  26.454  36.651  1.00  0.00    -0.200 F 
ENDBRANCH  58  81
ENDBRANCH  32  33
ENDBRANCH  24  27
ENDBRANCH  22  23
ENDBRANCH  21  22
ENDBRANCH   1  21
TORSDOF 14
ENDMDL
MODEL 3
REMARK VINA RESULT:     -12.0      3.100      8.879
REMARK SMILES C[C@H](C(=O)NCCCCCCNC(=O)c1ccc(-c2c3nc(c(-c4c(F)c(F)c(F)c(F)c4F)c4ccc([nH]4)c(-c4c(F)c(F)c(F)c(F)c4F)c4nc(c(-c5c(F)c(F)c(F)c(F)c5F)c5ccc2[nH]5)C=C4)C=C3)cc1)c1ccc2ncccc2c1
REMARK SMILES IDX 9 1 8 2 7 3 6 4 5 5 3 6 4 7 2 9 1 10 78 11 79 12 87 13 80 14
REMARK SMILES IDX 86 15 81 16 85 17 82 18 84 19 83 20 10 21 11 22 12 23 13 24
REMARK SMILES IDX 14 26 15 27 16 28 77 29 17 30 76 31 18 32 19 33 20 34 70 35
REMARK SMILES IDX 21 36 75 37 69 38 71 39 22 40 74 41 68 42 67 43 23 45 55 46
REMARK SMILES IDX 35 47 54 48 36 49 39 50 53 51 72 52 37 53 38 54 52 56 73 57
REMARK SMILES IDX 40 58 24 59 25 60 33 61 26 62 27 63 31 64 34 65 28 66 29 67
REMARK SMILES IDX 32 68 30 69 56 70 57 71 65 72 58 73 59 74 63 75 66 76 60 77
REMARK SMILES IDX 61 78 64 79 62 80 41 81 42 82 50 83 43 84 44 85 48 86 51 87
REMARK SMILES IDX 45 88 46 89 49 90 47 91
REMARK H PARENT 5 8 12 25 71 44 39 55
REMARK Flexibility Score: inf
ROOT
ATOM      1  C   UNL A   1      33.718  26.372  25.803  1.00  0.00     0.002 C 
ENDROOT
BRANCH   1   2
ATOM      2  C   UNL A   1      34.288  25.574  24.622  1.00  0.00     0.002 C 
BRANCH   2   3
ATOM      3  C   UNL A   1      35.215  24.428  25.038  1.00  0.00     0.021 C 
BRANCH   3   4
ATOM      4  C   UNL A   1      35.526  23.491  23.869  1.00  0.00     0.116 C 
BRANCH   4   5
ATOM      5  N   UNL A   1      35.783  22.148  24.322  1.00  0.00    -0.356 N 
ATOM      6  C   UNL A   1      35.033  21.074  24.647  1.00  0.00     0.227 C 
ATOM      7  O   UNL A   1      35.727  20.108  25.001  1.00  0.00    -0.274 OA
ATOM      8  H   UNL A   1      36.746  21.969  24.421  1.00  0.00     0.163 HD
BRANCH   6   9
ATOM      9  C   UNL A   1      33.503  20.909  24.474  1.00  0.00     0.105 C 
ATOM     10  C   UNL A   1      33.162  19.538  25.110  1.00  0.00     0.023 C 
BRANCH   9  11
ATOM     11  C   UNL A   1      32.550  22.008  24.963  1.00  0.00    -0.035 A 
ATOM     12  C   UNL A   1      32.485  22.329  26.323  1.00  0.00     0.007 A 
ATOM     13  C   UNL A   1      31.838  22.863  24.102  1.00  0.00     0.015 A 
ATOM     14  C   UNL A   1      31.596  23.292  26.819  1.00  0.00     0.029 A 
ATOM     15  C   UNL A   1      31.065  23.944  24.592  1.00  0.00     0.000 A 
ATOM     16  C   UNL A   1      30.873  24.108  25.975  1.00  0.00     0.070 A 
ATOM     17  C   UNL A   1      30.498  24.912  23.749  1.00  0.00     0.012 A 
ATOM     18  N   UNL A   1      30.085  25.062  26.500  1.00  0.00    -0.256 NA
ATOM     19  C   UNL A   1      29.734  25.943  24.287  1.00  0.00     0.021 A 
ATOM     20  C   UNL A   1      29.528  25.953  25.652  1.00  0.00     0.112 A 
ENDBRANCH   9  11
ENDBRANCH   6   9
ENDBRANCH   4   5
ENDBRANCH   3   4
ENDBRANCH   2   3
ENDBRANCH   1   2
BRANCH   1  21
ATOM     21  C   UNL A   1      32.915  27.610  25.404  1.00  0.00     0.021 C 
BRANCH  21  22
ATOM     22  C   UNL A   1      33.770  28.853  25.195  1.00  0.00     0.116 C 
BRANCH  22  23
ATOM     23  N   UNL A   1      33.088  30.052  25.666  1.00  0.00    -0.352 N 
ATOM     24  C   UNL A   1      33.327  30.794  26.794  1.00  0.00     0.251 C 
ATOM     25  H   UNL A   1      32.354  30.374  25.094  1.00  0.00     0.163 HD
ATOM     26  O   UNL A   1      32.504  31.604  27.201  1.00  0.00    -0.269 OA
BRANCH  24  27
ATOM     27  C   UNL A   1      34.601  30.603  27.512  1.00  0.00     0.039 A 
ATOM     28  C   UNL A   1      35.496  31.669  27.626  1.00  0.00     0.014 A 
ATOM     29  C   UNL A   1      34.899  29.359  28.071  1.00  0.00     0.014 A 
ATOM     30  C   UNL A   1      36.677  31.497  28.351  1.00  0.00     0.010 A 
ATOM     31  C   UNL A   1      36.027  29.216  28.863  1.00  0.00     0.010 A 
ATOM     32  C   UNL A   1      36.936  30.277  28.994  1.00  0.00    -0.014 A 
BRANCH  32  33
ATOM     33  C   UNL A   1      38.172  30.047  29.777  1.00  0.00     0.031 A 
ATOM     34  C   UNL A   1      39.215  29.110  29.239  1.00  0.00     0.074 A 
ATOM     35  C   UNL A   1      38.303  30.585  31.002  1.00  0.00     0.049 A 
ATOM     36  N   UNL A   1      40.283  28.630  29.823  1.00  0.00    -0.248 NA
ATOM     37  C   UNL A   1      39.002  28.612  27.870  1.00  0.00     0.031 C 
ATOM     38  C   UNL A   1      37.339  31.481  31.640  1.00  0.00     0.029 A 
ATOM     39  N   UNL A   1      39.291  30.431  31.941  1.00  0.00    -0.354 N 
ATOM     40  C   UNL A   1      40.849  27.755  28.906  1.00  0.00     0.074 A 
ATOM     41  C   UNL A   1      39.976  27.724  27.752  1.00  0.00     0.031 C 
ATOM     42  C   UNL A   1      37.785  31.802  32.865  1.00  0.00     0.029 A 
ATOM     43  C   UNL A   1      39.039  31.097  33.115  1.00  0.00     0.049 A 
ATOM     44  H   UNL A   1      40.103  29.896  31.788  1.00  0.00     0.167 HD
ATOM     45  C   UNL A   1      42.003  27.056  29.010  1.00  0.00     0.037 A 
ATOM     46  C   UNL A   1      39.731  31.115  34.269  1.00  0.00     0.037 A 
ATOM     47  C   UNL A   1      42.871  27.111  30.156  1.00  0.00     0.049 A 
ATOM     48  C   UNL A   1      41.006  30.321  34.372  1.00  0.00     0.074 A 
ATOM     49  C   UNL A   1      44.092  26.490  30.345  1.00  0.00     0.029 A 
ATOM     50  N   UNL A   1      42.601  27.827  31.314  1.00  0.00    -0.354 N 
ATOM     51  N   UNL A   1      41.568  29.540  33.481  1.00  0.00    -0.248 NA
ATOM     52  C   UNL A   1      41.746  30.415  35.637  1.00  0.00     0.031 C 
ATOM     53  C   UNL A   1      44.532  26.782  31.640  1.00  0.00     0.029 A 
ATOM     54  C   UNL A   1      43.621  27.644  32.232  1.00  0.00     0.049 A 
ATOM     55  H   UNL A   1      41.802  28.384  31.462  1.00  0.00     0.167 HD
ATOM     56  C   UNL A   1      42.743  29.081  34.059  1.00  0.00     0.074 A 
ATOM     57  C   UNL A   1      42.814  29.670  35.381  1.00  0.00     0.031 C 
ATOM     58  C   UNL A   1      43.683  28.253  33.538  1.00  0.00     0.037 A 
BRANCH  45  59
ATOM     59  C   UNL A   1      42.375  26.162  27.861  1.00  0.00     0.064 A 
ATOM     60  C   UNL A   1      43.278  26.568  26.865  1.00  0.00     0.173 A 
ATOM     61  C   UNL A   1      41.817  24.878  27.751  1.00  0.00     0.173 A 
ATOM     62  F   UNL A   1      43.834  27.788  26.914  1.00  0.00    -0.203 F 
ATOM     63  C   UNL A   1      43.567  25.747  25.778  1.00  0.00     0.198 A 
ATOM     64  C   UNL A   1      42.140  24.044  26.683  1.00  0.00     0.198 A 
ATOM     65  F   UNL A   1      40.955  24.432  28.677  1.00  0.00    -0.203 F 
ATOM     66  F   UNL A   1      44.372  26.189  24.802  1.00  0.00    -0.200 F 
ATOM     67  C   UNL A   1      43.003  24.483  25.691  1.00  0.00     0.200 A 
ATOM     68  F   UNL A   1      41.607  22.816  26.610  1.00  0.00    -0.200 F 
ATOM     69  F   UNL A   1      43.280  23.695  24.645  1.00  0.00    -0.200 F 
ENDBRANCH  45  59
BRANCH  46  70
ATOM     70  C   UNL A   1      39.238  31.933  35.408  1.00  0.00     0.064 A 
ATOM     71  C   UNL A   1      39.542  33.298  35.498  1.00  0.00     0.173 A 
ATOM     72  C   UNL A   1      38.425  31.378  36.408  1.00  0.00     0.173 A 
ATOM     73  F   UNL A   1      40.330  33.869  34.575  1.00  0.00    -0.203 F 
ATOM     74  C   UNL A   1      39.064  34.074  36.551  1.00  0.00     0.198 A 
ATOM     75  C   UNL A   1      37.924  32.161  37.445  1.00  0.00     0.198 A 
ATOM     76  F   UNL A   1      38.096  30.078  36.363  1.00  0.00    -0.203 F 
ATOM     77  F   UNL A   1      39.400  35.368  36.632  1.00  0.00    -0.200 F 
ATOM     78  C   UNL A   1      38.248  33.508  37.519  1.00  0.00     0.200 A 
ATOM     79  F   UNL A   1      37.120  31.615  38.368  1.00  0.00    -0.200 F 
ATOM     80  F   UNL A   1      37.778  34.258  38.524  1.00  0.00    -0.200 F 
ENDBRANCH  46  70
BRANCH  58  81
ATOM     81  C   UNL A   1      44.905  27.978  34.366  1.00  0.00     0.064 A 
ATOM     82  C   UNL A   1      46.028  28.818  34.337  1.00  0.00     0.173 A 
ATOM     83  C   UNL A   1      44.917  26.896  35.261  1.00  0.00     0.173 A 
ATOM     84  F   UNL A   1      46.073  29.856  33.489  1.00  0.00    -0.203 F 
ATOM     85  C   UNL A   1      47.123  28.575  35.162  1.00  0.00     0.198 A 
ATOM     86  C   UNL A   1      45.998  26.677  36.109  1.00  0.00     0.198 A 
ATOM     87  F   UNL A   1      43.864  26.067  35.333  1.00  0.00    -0.203 F 
ATOM     88  F   UNL A   1      48.201  29.368  35.093  1.00  0.00    -0.200 F 
ATOM     89  C   UNL A   1      47.102  27.514  36.056  1.00  0.00     0.200 A 
ATOM     90  F   UNL A   1      45.968  25.662  36.982  1.00  0.00    -0.200 F 
ATOM     91  F   UNL A   1      48.148  27.295  36.864  1.00  0.00    -0.200 F 
ENDBRANCH  58  81
ENDBRANCH  32  33
ENDBRANCH  24  27
ENDBRANCH  22  23
ENDBRANCH  21  22
ENDBRANCH   1  21
TORSDOF 14
ENDMDL
