MODEL 1
REMARK VINA RESULT:     -12.7      0.000      0.000
REMARK SMILES O=C(NCCCCCCNC(=O)[C@@]1([NH2+]C2CC2)CC[C@@H]([N@@H+]2CC[N@@H+]3CCC[C@@H]3C2)C1)c1ccc(-c2c3nc(c(-c4c(F)c(F)c(F)c(F)c4F)c4ccc([nH]4)c(-c4c(F)c(F)c(F)c(F)c4F)c4nc(c(-c5c(F)c(F)c(F)c(F)c5F)c5ccc2[nH]5)C=C4)C=C3)cc1
REMARK SMILES IDX 6 1 5 2 4 3 3 4 1 5 2 6 31 8 32 9 93 10 33 11 92 12 34 13
REMARK SMILES IDX 35 14 36 15 86 16 37 17 91 18 85 19 87 20 38 21 90 22 84 23
REMARK SMILES IDX 83 24 39 26 71 27 51 28 70 29 52 30 55 31 69 32 88 33 53 34
REMARK SMILES IDX 54 35 68 37 89 38 56 39 40 40 41 41 49 42 42 43 43 44 47 45
REMARK SMILES IDX 50 46 44 47 45 48 48 49 46 50 72 51 73 52 81 53 74 54 75 55
REMARK SMILES IDX 79 56 82 57 76 58 77 59 80 60 78 61 57 62 58 63 66 64 59 65
REMARK SMILES IDX 60 66 64 67 67 68 61 69 62 70 65 71 63 72 7 73 8 74 9 75
REMARK SMILES IDX 10 76 11 77 12 79 13 80 18 81 30 82 19 83 20 84 14 85 15 88
REMARK SMILES IDX 16 89 17 90 21 91 22 92 29 93 23 95 28 96 24 97 27 98 25 99
REMARK SMILES IDX 26 101
REMARK H PARENT 3 7 87 25 55 36 10 78 14 86 14 87 21 94 24 100
REMARK Flexibility Score: inf
ROOT
ATOM      1  C   UNL A   1      31.472  30.786  26.167  1.00  0.00     0.002 C 
ENDROOT
BRANCH   1   2
ATOM      2  C   UNL A   1      31.386  32.275  26.502  1.00  0.00     0.021 C 
BRANCH   2   3
ATOM      3  C   UNL A   1      32.643  32.863  27.132  1.00  0.00     0.116 C 
BRANCH   3   4
ATOM      4  N   UNL A   1      32.436  34.225  27.592  1.00  0.00    -0.352 N 
ATOM      5  O   UNL A   1      32.586  35.933  29.068  1.00  0.00    -0.269 OA
ATOM      6  C   UNL A   1      33.029  34.873  28.648  1.00  0.00     0.251 C 
ATOM      7  H   UNL A   1      31.783  34.754  27.079  1.00  0.00     0.163 HD
BRANCH   6   8
ATOM      8  C   UNL A   1      34.220  34.265  29.276  1.00  0.00     0.039 A 
ATOM      9  C   UNL A   1      34.060  33.347  30.316  1.00  0.00     0.014 A 
ATOM     10  C   UNL A   1      35.495  34.607  28.823  1.00  0.00     0.014 A 
ATOM     11  C   UNL A   1      35.174  32.874  30.991  1.00  0.00     0.010 A 
ATOM     12  C   UNL A   1      36.618  34.047  29.437  1.00  0.00     0.010 A 
ATOM     13  C   UNL A   1      36.465  33.184  30.534  1.00  0.00    -0.014 A 
BRANCH  13  14
ATOM     14  C   UNL A   1      37.622  32.489  31.150  1.00  0.00     0.031 A 
ATOM     15  C   UNL A   1      38.108  32.835  32.527  1.00  0.00     0.074 A 
ATOM     16  C   UNL A   1      38.211  31.504  30.443  1.00  0.00     0.049 A 
ATOM     17  N   UNL A   1      39.093  32.302  33.207  1.00  0.00    -0.248 NA
ATOM     18  C   UNL A   1      37.410  33.918  33.233  1.00  0.00     0.031 C 
ATOM     19  C   UNL A   1      37.827  31.101  29.086  1.00  0.00     0.029 A 
ATOM     20  N   UNL A   1      39.236  30.653  30.762  1.00  0.00    -0.354 N 
ATOM     21  C   UNL A   1      39.139  32.988  34.413  1.00  0.00     0.074 A 
ATOM     22  C   UNL A   1      38.103  33.998  34.361  1.00  0.00     0.031 C 
ATOM     23  C   UNL A   1      38.566  30.048  28.712  1.00  0.00     0.029 A 
ATOM     24  C   UNL A   1      39.529  29.755  29.764  1.00  0.00     0.049 A 
ATOM     25  H   UNL A   1      39.714  30.681  31.622  1.00  0.00     0.167 HD
ATOM     26  C   UNL A   1      39.969  32.782  35.465  1.00  0.00     0.037 A 
ATOM     27  C   UNL A   1      40.489  28.816  29.691  1.00  0.00     0.037 A 
ATOM     28  C   UNL A   1      40.997  31.771  35.500  1.00  0.00     0.049 A 
ATOM     29  C   UNL A   1      41.417  28.645  30.859  1.00  0.00     0.074 A 
ATOM     30  C   UNL A   1      41.875  31.467  36.527  1.00  0.00     0.029 A 
ATOM     31  N   UNL A   1      41.291  30.902  34.457  1.00  0.00    -0.354 N 
ATOM     32  N   UNL A   1      41.426  29.274  32.008  1.00  0.00    -0.248 NA
ATOM     33  C   UNL A   1      42.471  27.634  30.717  1.00  0.00     0.031 C 
ATOM     34  C   UNL A   1      42.733  30.456  36.087  1.00  0.00     0.029 A 
ATOM     35  C   UNL A   1      42.353  30.082  34.809  1.00  0.00     0.049 A 
ATOM     36  H   UNL A   1      40.816  30.873  33.596  1.00  0.00     0.167 HD
ATOM     37  C   UNL A   1      42.471  28.724  32.734  1.00  0.00     0.074 A 
ATOM     38  C   UNL A   1      43.051  27.686  31.907  1.00  0.00     0.031 C 
ATOM     39  C   UNL A   1      42.918  29.054  33.971  1.00  0.00     0.037 A 
BRANCH  26  40
ATOM     40  C   UNL A   1      39.817  33.672  36.667  1.00  0.00     0.064 A 
ATOM     41  C   UNL A   1      40.517  34.882  36.782  1.00  0.00     0.173 A 
ATOM     42  C   UNL A   1      38.904  33.346  37.682  1.00  0.00     0.173 A 
ATOM     43  F   UNL A   1      41.409  35.237  35.844  1.00  0.00    -0.203 F 
ATOM     44  C   UNL A   1      40.320  35.725  37.873  1.00  0.00     0.198 A 
ATOM     45  C   UNL A   1      38.688  34.204  38.757  1.00  0.00     0.198 A 
ATOM     46  F   UNL A   1      38.203  32.203  37.621  1.00  0.00    -0.203 F 
ATOM     47  F   UNL A   1      41.025  36.859  37.978  1.00  0.00    -0.200 F 
ATOM     48  C   UNL A   1      39.398  35.391  38.854  1.00  0.00     0.200 A 
ATOM     49  F   UNL A   1      37.786  33.886  39.697  1.00  0.00    -0.200 F 
ATOM     50  F   UNL A   1      39.198  36.211  39.895  1.00  0.00    -0.200 F 
ENDBRANCH  26  40
BRANCH  27  51
ATOM     51  C   UNL A   1      40.633  27.991  28.463  1.00  0.00     0.064 A 
ATOM     52  C   UNL A   1      40.018  26.736  28.356  1.00  0.00     0.173 A 
ATOM     53  C   UNL A   1      41.405  28.433  27.377  1.00  0.00     0.173 A 
ATOM     54  F   UNL A   1      39.282  26.262  29.372  1.00  0.00    -0.203 F 
ATOM     55  C   UNL A   1      40.196  25.943  27.224  1.00  0.00     0.198 A 
ATOM     56  C   UNL A   1      41.549  27.656  26.231  1.00  0.00     0.198 A 
ATOM     57  F   UNL A   1      42.008  29.630  27.425  1.00  0.00    -0.203 F 
ATOM     58  F   UNL A   1      39.647  24.722  27.174  1.00  0.00    -0.200 F 
ATOM     59  C   UNL A   1      40.956  26.405  26.160  1.00  0.00     0.200 A 
ATOM     60  F   UNL A   1      42.266  28.119  25.197  1.00  0.00    -0.200 F 
ATOM     61  F   UNL A   1      41.126  25.642  25.073  1.00  0.00    -0.200 F 
ENDBRANCH  27  51
BRANCH  39  62
ATOM     62  C   UNL A   1      44.071  28.256  34.509  1.00  0.00     0.064 A 
ATOM     63  C   UNL A   1      45.400  28.672  34.337  1.00  0.00     0.173 A 
ATOM     64  C   UNL A   1      43.842  27.060  35.206  1.00  0.00     0.173 A 
ATOM     65  F   UNL A   1      45.672  29.799  33.661  1.00  0.00    -0.203 F 
ATOM     66  C   UNL A   1      46.458  27.900  34.808  1.00  0.00     0.198 A 
ATOM     67  C   UNL A   1      44.902  26.310  35.709  1.00  0.00     0.198 A 
ATOM     68  F   UNL A   1      42.591  26.619  35.403  1.00  0.00    -0.203 F 
ATOM     69  F   UNL A   1      47.721  28.284  34.572  1.00  0.00    -0.200 F 
ATOM     70  C   UNL A   1      46.208  26.724  35.499  1.00  0.00     0.200 A 
ATOM     71  F   UNL A   1      44.658  25.182  36.390  1.00  0.00    -0.200 F 
ATOM     72  F   UNL A   1      47.228  25.983  35.952  1.00  0.00    -0.200 F 
ENDBRANCH  39  62
ENDBRANCH  13  14
ENDBRANCH   6   8
ENDBRANCH   3   4
ENDBRANCH   2   3
ENDBRANCH   1   2
BRANCH   1  73
ATOM     73  C   UNL A   1      32.506  29.995  26.968  1.00  0.00     0.002 C 
BRANCH  73  74
ATOM     74  C   UNL A   1      32.148  28.538  27.247  1.00  0.00     0.021 C 
BRANCH  74  75
ATOM     75  C   UNL A   1      31.337  27.810  26.163  1.00  0.00     0.116 C 
BRANCH  75  76
ATOM     76  N   UNL A   1      30.903  26.515  26.659  1.00  0.00    -0.351 N 
ATOM     77  C   UNL A   1      30.840  25.262  26.124  1.00  0.00     0.281 C 
ATOM     78  H   UNL A   1      30.585  26.550  27.590  1.00  0.00     0.163 HD
ATOM     79  O   UNL A   1      30.078  24.496  26.737  1.00  0.00    -0.268 OA
BRANCH  77  80
ATOM     80  C   UNL A   1      31.692  24.733  24.919  1.00  0.00     0.181 C 
ATOM     81  C   UNL A   1      33.208  24.606  25.109  1.00  0.00     0.085 C 
ATOM     82  C   UNL A   1      31.334  23.206  24.873  1.00  0.00     0.144 C 
ATOM     83  C   UNL A   1      33.656  23.481  24.175  1.00  0.00     0.072 C 
ATOM     84  C   UNL A   1      32.473  22.499  24.116  1.00  0.00     0.191 C 
BRANCH  80  85
ATOM     85  N   UNL A   1      31.241  25.217  23.593  1.00  0.00    -0.331 N 
ATOM     86  H   UNL A   1      30.271  25.500  23.733  1.00  0.00     0.347 HD
ATOM     87  H   UNL A   1      31.522  24.418  23.024  1.00  0.00     0.347 HD
BRANCH  85  88
ATOM     88  C   UNL A   1      31.829  26.281  22.802  1.00  0.00     0.183 C 
ATOM     89  C   UNL A   1      33.045  26.144  21.970  1.00  0.00     0.071 C 
ATOM     90  C   UNL A   1      31.720  26.325  21.302  1.00  0.00     0.071 C 
ENDBRANCH  85  88
ENDBRANCH  80  85
BRANCH  84  91
ATOM     91  N   UNL A   1      32.789  21.140  24.567  1.00  0.00    -0.323 N 
ATOM     92  C   UNL A   1      34.119  21.048  25.207  1.00  0.00     0.324 C 
ATOM     93  C   UNL A   1      32.591  20.083  23.571  1.00  0.00     0.328 C 
ATOM     94  H   UNL A   1      32.083  20.954  25.279  1.00  0.00     0.348 HD
ATOM     95  C   UNL A   1      34.919  19.736  24.980  1.00  0.00     0.324 C 
ATOM     96  C   UNL A   1      32.845  18.685  24.166  1.00  0.00     0.240 C 
ATOM     97  N   UNL A   1      34.125  18.506  24.881  1.00  0.00    -0.323 N 
ATOM     98  C   UNL A   1      32.809  17.604  23.086  1.00  0.00     0.077 C 
ATOM     99  C   UNL A   1      34.866  17.417  24.235  1.00  0.00     0.263 C 
ATOM    100  H   UNL A   1      33.924  18.260  25.849  1.00  0.00     0.348 HD
ATOM    101  C   UNL A   1      33.790  16.565  23.586  1.00  0.00     0.068 C 
ENDBRANCH  84  91
ENDBRANCH  77  80
ENDBRANCH  75  76
ENDBRANCH  74  75
ENDBRANCH  73  74
ENDBRANCH   1  73
TORSDOF 16
ENDMDL
MODEL 2
REMARK VINA RESULT:     -12.4      2.137      7.682
REMARK SMILES O=C(NCCCCCCNC(=O)[C@@]1([NH2+]C2CC2)CC[C@@H]([N@@H+]2CC[N@@H+]3CCC[C@@H]3C2)C1)c1ccc(-c2c3nc(c(-c4c(F)c(F)c(F)c(F)c4F)c4ccc([nH]4)c(-c4c(F)c(F)c(F)c(F)c4F)c4nc(c(-c5c(F)c(F)c(F)c(F)c5F)c5ccc2[nH]5)C=C4)C=C3)cc1
REMARK SMILES IDX 6 1 5 2 4 3 3 4 1 5 2 6 31 8 32 9 93 10 33 11 92 12 34 13
REMARK SMILES IDX 35 14 36 15 86 16 37 17 91 18 85 19 87 20 38 21 90 22 84 23
REMARK SMILES IDX 83 24 39 26 71 27 51 28 70 29 52 30 55 31 69 32 88 33 53 34
REMARK SMILES IDX 54 35 68 37 89 38 56 39 40 40 41 41 49 42 42 43 43 44 47 45
REMARK SMILES IDX 50 46 44 47 45 48 48 49 46 50 72 51 73 52 81 53 74 54 75 55
REMARK SMILES IDX 79 56 82 57 76 58 77 59 80 60 78 61 57 62 58 63 66 64 59 65
REMARK SMILES IDX 60 66 64 67 67 68 61 69 62 70 65 71 63 72 7 73 8 74 9 75
REMARK SMILES IDX 10 76 11 77 12 79 13 80 18 81 30 82 19 83 20 84 14 85 15 88
REMARK SMILES IDX 16 89 17 90 21 91 22 92 29 93 23 95 28 96 24 97 27 98 25 99
REMARK SMILES IDX 26 101
REMARK H PARENT 3 7 87 25 55 36 10 78 14 86 14 87 21 94 24 100
REMARK Flexibility Score: inf
ROOT
ATOM      1  C   UNL A   1      34.424  33.785  29.093  1.00  0.00     0.002 C 
ENDROOT
BRANCH   1   2
ATOM      2  C   UNL A   1      33.118  34.578  29.123  1.00  0.00     0.021 C 
BRANCH   2   3
ATOM      3  C   UNL A   1      33.264  36.037  29.541  1.00  0.00     0.116 C 
BRANCH   3   4
ATOM      4  N   UNL A   1      32.469  36.349  30.716  1.00  0.00    -0.352 N 
ATOM      5  O   UNL A   1      31.683  36.001  32.808  1.00  0.00    -0.269 OA
ATOM      6  C   UNL A   1      32.567  35.826  31.983  1.00  0.00     0.251 C 
ATOM      7  H   UNL A   1      31.766  37.027  30.587  1.00  0.00     0.163 HD
BRANCH   6   8
ATOM      8  C   UNL A   1      33.767  35.040  32.334  1.00  0.00     0.039 A 
ATOM      9  C   UNL A   1      35.029  35.632  32.253  1.00  0.00     0.014 A 
ATOM     10  C   UNL A   1      33.632  33.713  32.747  1.00  0.00     0.014 A 
ATOM     11  C   UNL A   1      36.163  34.862  32.456  1.00  0.00     0.010 A 
ATOM     12  C   UNL A   1      34.773  32.967  33.054  1.00  0.00     0.010 A 
ATOM     13  C   UNL A   1      36.049  33.533  32.900  1.00  0.00    -0.014 A 
BRANCH  13  14
ATOM     14  C   UNL A   1      37.279  32.814  33.309  1.00  0.00     0.031 A 
ATOM     15  C   UNL A   1      37.926  31.791  32.422  1.00  0.00     0.074 A 
ATOM     16  C   UNL A   1      37.824  33.130  34.501  1.00  0.00     0.049 A 
ATOM     17  N   UNL A   1      39.015  31.093  32.634  1.00  0.00    -0.248 NA
ATOM     18  C   UNL A   1      37.271  31.504  31.139  1.00  0.00     0.031 C 
ATOM     19  C   UNL A   1      37.263  34.099  35.449  1.00  0.00     0.029 A 
ATOM     20  N   UNL A   1      38.970  32.696  35.113  1.00  0.00    -0.354 N 
ATOM     21  C   UNL A   1      39.171  30.282  31.518  1.00  0.00     0.074 A 
ATOM     22  C   UNL A   1      38.049  30.549  30.644  1.00  0.00     0.031 C 
ATOM     23  C   UNL A   1      38.092  34.226  36.492  1.00  0.00     0.029 A 
ATOM     24  C   UNL A   1      39.196  33.291  36.330  1.00  0.00     0.049 A 
ATOM     25  H   UNL A   1      39.572  32.025  34.719  1.00  0.00     0.167 HD
ATOM     26  C   UNL A   1      40.168  29.402  31.253  1.00  0.00     0.037 A 
ATOM     27  C   UNL A   1      40.171  33.086  37.233  1.00  0.00     0.037 A 
ATOM     28  C   UNL A   1      41.280  29.147  32.136  1.00  0.00     0.049 A 
ATOM     29  C   UNL A   1      41.235  32.073  36.923  1.00  0.00     0.074 A 
ATOM     30  C   UNL A   1      42.353  28.292  31.947  1.00  0.00     0.029 A 
ATOM     31  N   UNL A   1      41.459  29.741  33.378  1.00  0.00    -0.354 N 
ATOM     32  N   UNL A   1      41.393  31.340  35.848  1.00  0.00    -0.248 NA
ATOM     33  C   UNL A   1      42.257  31.858  37.954  1.00  0.00     0.031 C 
ATOM     34  C   UNL A   1      43.149  28.327  33.096  1.00  0.00     0.029 A 
ATOM     35  C   UNL A   1      42.610  29.251  33.976  1.00  0.00     0.049 A 
ATOM     36  H   UNL A   1      40.858  30.411  33.775  1.00  0.00     0.167 HD
ATOM     37  C   UNL A   1      42.539  30.591  36.064  1.00  0.00     0.074 A 
ATOM     38  C   UNL A   1      43.055  30.984  37.360  1.00  0.00     0.031 C 
ATOM     39  C   UNL A   1      43.109  29.654  35.267  1.00  0.00     0.037 A 
BRANCH  26  40
ATOM     40  C   UNL A   1      40.105  28.634  29.963  1.00  0.00     0.064 A 
ATOM     41  C   UNL A   1      40.749  29.087  28.802  1.00  0.00     0.173 A 
ATOM     42  C   UNL A   1      39.454  27.391  29.906  1.00  0.00     0.173 A 
ATOM     43  F   UNL A   1      41.377  30.273  28.798  1.00  0.00    -0.203 F 
ATOM     44  C   UNL A   1      40.732  28.334  27.630  1.00  0.00     0.198 A 
ATOM     45  C   UNL A   1      39.465  26.626  28.742  1.00  0.00     0.198 A 
ATOM     46  F   UNL A   1      38.827  26.905  30.988  1.00  0.00    -0.203 F 
ATOM     47  F   UNL A   1      41.325  28.804  26.525  1.00  0.00    -0.200 F 
ATOM     48  C   UNL A   1      40.099  27.100  27.604  1.00  0.00     0.200 A 
ATOM     49  F   UNL A   1      38.865  25.428  28.723  1.00  0.00    -0.200 F 
ATOM     50  F   UNL A   1      40.098  26.369  26.480  1.00  0.00    -0.200 F 
ENDBRANCH  26  40
BRANCH  27  51
ATOM     51  C   UNL A   1      40.168  33.834  38.518  1.00  0.00     0.064 A 
ATOM     52  C   UNL A   1      40.931  34.998  38.681  1.00  0.00     0.173 A 
ATOM     53  C   UNL A   1      39.415  33.388  39.616  1.00  0.00     0.173 A 
ATOM     54  F   UNL A   1      41.679  35.457  37.667  1.00  0.00    -0.203 F 
ATOM     55  C   UNL A   1      40.966  35.669  39.902  1.00  0.00     0.198 A 
ATOM     56  C   UNL A   1      39.420  34.083  40.823  1.00  0.00     0.198 A 
ATOM     57  F   UNL A   1      38.661  32.285  39.510  1.00  0.00    -0.203 F 
ATOM     58  F   UNL A   1      41.751  36.744  40.050  1.00  0.00    -0.200 F 
ATOM     59  C   UNL A   1      40.206  35.215  40.970  1.00  0.00     0.200 A 
ATOM     60  F   UNL A   1      38.666  33.651  41.843  1.00  0.00    -0.200 F 
ATOM     61  F   UNL A   1      40.240  35.861  42.142  1.00  0.00    -0.200 F 
ENDBRANCH  27  51
BRANCH  39  62
ATOM     62  C   UNL A   1      44.374  29.019  35.768  1.00  0.00     0.064 A 
ATOM     63  C   UNL A   1      45.637  29.556  35.472  1.00  0.00     0.173 A 
ATOM     64  C   UNL A   1      44.322  27.860  36.558  1.00  0.00     0.173 A 
ATOM     65  F   UNL A   1      45.741  30.653  34.706  1.00  0.00    -0.203 F 
ATOM     66  C   UNL A   1      46.800  28.933  35.913  1.00  0.00     0.198 A 
ATOM     67  C   UNL A   1      45.488  27.261  37.028  1.00  0.00     0.198 A 
ATOM     68  F   UNL A   1      43.142  27.308  36.875  1.00  0.00    -0.203 F 
ATOM     69  F   UNL A   1      47.996  29.426  35.561  1.00  0.00    -0.200 F 
ATOM     70  C   UNL A   1      46.725  27.790  36.696  1.00  0.00     0.200 A 
ATOM     71  F   UNL A   1      45.412  26.166  37.797  1.00  0.00    -0.200 F 
ATOM     72  F   UNL A   1      47.847  27.192  37.120  1.00  0.00    -0.200 F 
ENDBRANCH  39  62
ENDBRANCH  13  14
ENDBRANCH   6   8
ENDBRANCH   3   4
ENDBRANCH   2   3
ENDBRANCH   1   2
BRANCH   1  73
ATOM     73  C   UNL A   1      34.582  32.830  27.911  1.00  0.00     0.002 C 
BRANCH  73  74
ATOM     74  C   UNL A   1      34.276  31.364  28.205  1.00  0.00     0.021 C 
BRANCH  74  75
ATOM     75  C   UNL A   1      33.556  30.577  27.098  1.00  0.00     0.116 C 
BRANCH  75  76
ATOM     76  N   UNL A   1      32.920  29.399  27.665  1.00  0.00    -0.351 N 
ATOM     77  C   UNL A   1      32.215  28.354  27.145  1.00  0.00     0.281 C 
ATOM     78  H   UNL A   1      33.021  29.344  28.642  1.00  0.00     0.163 HD
ATOM     79  O   UNL A   1      31.533  27.746  27.985  1.00  0.00    -0.268 OA
BRANCH  77  80
ATOM     80  C   UNL A   1      32.287  27.842  25.665  1.00  0.00     0.181 C 
ATOM     81  C   UNL A   1      33.648  27.869  24.958  1.00  0.00     0.085 C 
ATOM     82  C   UNL A   1      32.134  26.288  25.817  1.00  0.00     0.144 C 
ATOM     83  C   UNL A   1      33.608  26.741  23.926  1.00  0.00     0.072 C 
ATOM     84  C   UNL A   1      32.715  25.650  24.541  1.00  0.00     0.191 C 
BRANCH  80  85
ATOM     85  N   UNL A   1      31.116  28.208  24.834  1.00  0.00    -0.331 N 
ATOM     86  H   UNL A   1      30.350  28.325  25.497  1.00  0.00     0.347 HD
ATOM     87  H   UNL A   1      31.162  27.454  24.148  1.00  0.00     0.347 HD
BRANCH  85  88
ATOM     88  C   UNL A   1      31.002  29.336  23.930  1.00  0.00     0.183 C 
ATOM     89  C   UNL A   1      30.625  29.241  22.502  1.00  0.00     0.071 C 
ATOM     90  C   UNL A   1      29.672  29.868  23.468  1.00  0.00     0.071 C 
ENDBRANCH  85  88
ENDBRANCH  80  85
BRANCH  84  91
ATOM     91  N   UNL A   1      33.375  24.354  24.721  1.00  0.00    -0.323 N 
ATOM     92  C   UNL A   1      33.540  23.993  26.145  1.00  0.00     0.324 C 
ATOM     93  C   UNL A   1      34.617  24.168  23.965  1.00  0.00     0.328 C 
ATOM     94  H   UNL A   1      32.721  23.692  24.302  1.00  0.00     0.348 HD
ATOM     95  C   UNL A   1      34.826  23.211  26.527  1.00  0.00     0.324 C 
ATOM     96  C   UNL A   1      35.179  22.744  24.134  1.00  0.00     0.240 C 
ATOM     97  N   UNL A   1      35.328  22.265  25.523  1.00  0.00    -0.323 N 
ATOM     98  C   UNL A   1      36.558  22.609  23.489  1.00  0.00     0.077 C 
ATOM     99  C   UNL A   1      36.736  21.915  25.742  1.00  0.00     0.263 C 
ATOM    100  H   UNL A   1      34.744  21.438  25.645  1.00  0.00     0.348 HD
ATOM    101  C   UNL A   1      37.259  21.584  24.356  1.00  0.00     0.068 C 
ENDBRANCH  84  91
ENDBRANCH  77  80
ENDBRANCH  75  76
ENDBRANCH  74  75
ENDBRANCH  73  74
ENDBRANCH   1  73
TORSDOF 16
ENDMDL
MODEL 3
REMARK VINA RESULT:     -12.4      2.089      3.019
REMARK SMILES O=C(NCCCCCCNC(=O)[C@@]1([NH2+]C2CC2)CC[C@@H]([N@@H+]2CC[N@@H+]3CCC[C@@H]3C2)C1)c1ccc(-c2c3nc(c(-c4c(F)c(F)c(F)c(F)c4F)c4ccc([nH]4)c(-c4c(F)c(F)c(F)c(F)c4F)c4nc(c(-c5c(F)c(F)c(F)c(F)c5F)c5ccc2[nH]5)C=C4)C=C3)cc1
REMARK SMILES IDX 6 1 5 2 4 3 3 4 1 5 2 6 31 8 32 9 93 10 33 11 92 12 34 13
REMARK SMILES IDX 35 14 36 15 86 16 37 17 91 18 85 19 87 20 38 21 90 22 84 23
REMARK SMILES IDX 83 24 39 26 71 27 51 28 70 29 52 30 55 31 69 32 88 33 53 34
REMARK SMILES IDX 54 35 68 37 89 38 56 39 40 40 41 41 49 42 42 43 43 44 47 45
REMARK SMILES IDX 50 46 44 47 45 48 48 49 46 50 72 51 73 52 81 53 74 54 75 55
REMARK SMILES IDX 79 56 82 57 76 58 77 59 80 60 78 61 57 62 58 63 66 64 59 65
REMARK SMILES IDX 60 66 64 67 67 68 61 69 62 70 65 71 63 72 7 73 8 74 9 75
REMARK SMILES IDX 10 76 11 77 12 79 13 80 18 81 30 82 19 83 20 84 14 85 15 88
REMARK SMILES IDX 16 89 17 90 21 91 22 92 29 93 23 95 28 96 24 97 27 98 25 99
REMARK SMILES IDX 26 101
REMARK H PARENT 3 7 87 25 55 36 10 78 14 86 14 87 21 94 24 100
REMARK Flexibility Score: inf
ROOT
ATOM      1  C   UNL A   1      34.248  33.617  29.180  1.00  0.00     0.002 C 
ENDROOT
BRANCH   1   2
ATOM      2  C   UNL A   1      33.073  34.584  29.037  1.00  0.00     0.021 C 
BRANCH   2   3
ATOM      3  C   UNL A   1      33.327  35.985  29.583  1.00  0.00     0.116 C 
BRANCH   3   4
ATOM      4  N   UNL A   1      32.530  36.262  30.765  1.00  0.00    -0.352 N 
ATOM      5  O   UNL A   1      31.766  35.868  32.858  1.00  0.00    -0.269 OA
ATOM      6  C   UNL A   1      32.650  35.727  32.026  1.00  0.00     0.251 C 
ATOM      7  H   UNL A   1      31.807  36.920  30.648  1.00  0.00     0.163 HD
BRANCH   6   8
ATOM      8  C   UNL A   1      33.874  34.972  32.362  1.00  0.00     0.039 A 
ATOM      9  C   UNL A   1      35.122  35.587  32.234  1.00  0.00     0.014 A 
ATOM     10  C   UNL A   1      33.776  33.653  32.807  1.00  0.00     0.014 A 
ATOM     11  C   UNL A   1      36.276  34.843  32.424  1.00  0.00     0.010 A 
ATOM     12  C   UNL A   1      34.940  32.936  33.099  1.00  0.00     0.010 A 
ATOM     13  C   UNL A   1      36.199  33.523  32.899  1.00  0.00    -0.014 A 
BRANCH  13  14
ATOM     14  C   UNL A   1      37.454  32.836  33.291  1.00  0.00     0.031 A 
ATOM     15  C   UNL A   1      38.142  33.133  34.591  1.00  0.00     0.074 A 
ATOM     16  C   UNL A   1      37.947  31.904  32.452  1.00  0.00     0.049 A 
ATOM     17  N   UNL A   1      39.234  32.600  35.082  1.00  0.00    -0.248 NA
ATOM     18  C   UNL A   1      37.539  34.161  35.451  1.00  0.00     0.031 C 
ATOM     19  C   UNL A   1      37.364  31.551  31.153  1.00  0.00     0.029 A 
ATOM     20  N   UNL A   1      39.029  31.071  32.564  1.00  0.00    -0.354 N 
ATOM     21  C   UNL A   1      39.454  33.231  36.298  1.00  0.00     0.074 A 
ATOM     22  C   UNL A   1      38.400  34.210  36.460  1.00  0.00     0.031 C 
ATOM     23  C   UNL A   1      38.059  30.540  30.617  1.00  0.00     0.029 A 
ATOM     24  C   UNL A   1      39.182  30.229  31.489  1.00  0.00     0.049 A 
ATOM     25  H   UNL A   1      39.635  31.074  33.339  1.00  0.00     0.167 HD
ATOM     26  C   UNL A   1      40.444  33.002  37.196  1.00  0.00     0.037 A 
ATOM     27  C   UNL A   1      40.139  29.324  31.220  1.00  0.00     0.037 A 
ATOM     28  C   UNL A   1      41.488  32.023  37.019  1.00  0.00     0.049 A 
ATOM     29  C   UNL A   1      41.244  29.128  32.218  1.00  0.00     0.074 A 
ATOM     30  C   UNL A   1      42.522  31.699  37.881  1.00  0.00     0.029 A 
ATOM     31  N   UNL A   1      41.634  31.212  35.902  1.00  0.00    -0.354 N 
ATOM     32  N   UNL A   1      41.418  29.703  33.383  1.00  0.00    -0.248 NA
ATOM     33  C   UNL A   1      42.285  28.157  31.864  1.00  0.00     0.031 C 
ATOM     34  C   UNL A   1      43.324  30.735  37.261  1.00  0.00     0.029 A 
ATOM     35  C   UNL A   1      42.756  30.409  36.041  1.00  0.00     0.049 A 
ATOM     36  H   UNL A   1      41.029  31.208  35.125  1.00  0.00     0.167 HD
ATOM     37  C   UNL A   1      42.578  29.153  33.908  1.00  0.00     0.074 A 
ATOM     38  C   UNL A   1      43.044  28.172  32.949  1.00  0.00     0.031 C 
ATOM     39  C   UNL A   1      43.205  29.439  35.075  1.00  0.00     0.037 A 
BRANCH  26  40
ATOM     40  C   UNL A   1      40.463  33.830  38.450  1.00  0.00     0.064 A 
ATOM     41  C   UNL A   1      39.760  33.443  39.601  1.00  0.00     0.173 A 
ATOM     42  C   UNL A   1      41.254  34.988  38.526  1.00  0.00     0.173 A 
ATOM     43  F   UNL A   1      38.982  32.351  39.580  1.00  0.00    -0.203 F 
ATOM     44  C   UNL A   1      39.837  34.189  40.775  1.00  0.00     0.198 A 
ATOM     45  C   UNL A   1      41.352  35.715  39.710  1.00  0.00     0.198 A 
ATOM     46  F   UNL A   1      41.952  35.402  37.458  1.00  0.00    -0.203 F 
ATOM     47  F   UNL A   1      39.130  33.818  41.850  1.00  0.00    -0.200 F 
ATOM     48  C   UNL A   1      40.640  35.319  40.831  1.00  0.00     0.200 A 
ATOM     49  F   UNL A   1      42.140  36.798  39.767  1.00  0.00    -0.200 F 
ATOM     50  F   UNL A   1      40.725  36.026  41.967  1.00  0.00    -0.200 F 
ENDBRANCH  26  40
BRANCH  27  51
ATOM     51  C   UNL A   1      40.107  28.561  29.944  1.00  0.00     0.064 A 
ATOM     52  C   UNL A   1      39.457  27.322  29.856  1.00  0.00     0.173 A 
ATOM     53  C   UNL A   1      40.743  29.047  28.791  1.00  0.00     0.173 A 
ATOM     54  F   UNL A   1      38.848  26.807  30.934  1.00  0.00    -0.203 F 
ATOM     55  C   UNL A   1      39.472  26.586  28.674  1.00  0.00     0.198 A 
ATOM     56  C   UNL A   1      40.722  28.328  27.599  1.00  0.00     0.198 A 
ATOM     57  F   UNL A   1      41.372  30.231  28.819  1.00  0.00    -0.203 F 
ATOM     58  F   UNL A   1      38.896  25.377  28.635  1.00  0.00    -0.200 F 
ATOM     59  C   UNL A   1      40.099  27.091  27.545  1.00  0.00     0.200 A 
ATOM     60  F   UNL A   1      41.310  28.833  26.506  1.00  0.00    -0.200 F 
ATOM     61  F   UNL A   1      40.111  26.382  26.408  1.00  0.00    -0.200 F 
ENDBRANCH  27  51
BRANCH  39  62
ATOM     62  C   UNL A   1      44.447  28.652  35.385  1.00  0.00     0.064 A 
ATOM     63  C   UNL A   1      45.720  29.101  34.999  1.00  0.00     0.173 A 
ATOM     64  C   UNL A   1      44.362  27.436  36.079  1.00  0.00     0.173 A 
ATOM     65  F   UNL A   1      45.853  30.249  34.317  1.00  0.00    -0.203 F 
ATOM     66  C   UNL A   1      46.855  28.340  35.261  1.00  0.00     0.198 A 
ATOM     67  C   UNL A   1      45.504  26.697  36.373  1.00  0.00     0.198 A 
ATOM     68  F   UNL A   1      43.171  26.964  36.476  1.00  0.00    -0.203 F 
ATOM     69  F   UNL A   1      48.052  28.755  34.822  1.00  0.00    -0.200 F 
ATOM     70  C   UNL A   1      46.748  27.143  35.953  1.00  0.00     0.200 A 
ATOM     71  F   UNL A   1      45.400  25.548  37.054  1.00  0.00    -0.200 F 
ATOM     72  F   UNL A   1      47.843  26.412  36.204  1.00  0.00    -0.200 F 
ENDBRANCH  39  62
ENDBRANCH  13  14
ENDBRANCH   6   8
ENDBRANCH   3   4
ENDBRANCH   2   3
ENDBRANCH   1   2
BRANCH   1  73
ATOM     73  C   UNL A   1      34.614  32.841  27.916  1.00  0.00     0.002 C 
BRANCH  73  74
ATOM     74  C   UNL A   1      34.391  31.333  27.982  1.00  0.00     0.021 C 
BRANCH  74  75
ATOM     75  C   UNL A   1      33.270  30.765  27.098  1.00  0.00     0.116 C 
BRANCH  75  76
ATOM     76  N   UNL A   1      32.764  29.531  27.675  1.00  0.00    -0.351 N 
ATOM     77  C   UNL A   1      32.133  28.432  27.172  1.00  0.00     0.281 C 
ATOM     78  H   UNL A   1      32.910  29.476  28.647  1.00  0.00     0.163 HD
ATOM     79  O   UNL A   1      31.543  27.758  28.032  1.00  0.00    -0.268 OA
BRANCH  77  80
ATOM     80  C   UNL A   1      32.188  27.941  25.683  1.00  0.00     0.181 C 
ATOM     81  C   UNL A   1      33.542  27.975  24.963  1.00  0.00     0.085 C 
ATOM     82  C   UNL A   1      32.033  26.385  25.815  1.00  0.00     0.144 C 
ATOM     83  C   UNL A   1      33.488  26.863  23.915  1.00  0.00     0.072 C 
ATOM     84  C   UNL A   1      32.598  25.765  24.523  1.00  0.00     0.191 C 
BRANCH  80  85
ATOM     85  N   UNL A   1      31.009  28.322  24.871  1.00  0.00    -0.331 N 
ATOM     86  H   UNL A   1      30.293  28.579  25.551  1.00  0.00     0.347 HD
ATOM     87  H   UNL A   1      30.952  27.498  24.272  1.00  0.00     0.347 HD
BRANCH  85  88
ATOM     88  C   UNL A   1      30.943  29.352  23.852  1.00  0.00     0.183 C 
ATOM     89  C   UNL A   1      30.425  29.154  22.481  1.00  0.00     0.071 C 
ATOM     90  C   UNL A   1      29.647  29.997  23.440  1.00  0.00     0.071 C 
ENDBRANCH  85  88
ENDBRANCH  80  85
BRANCH  84  91
ATOM     91  N   UNL A   1      33.257  24.465  24.677  1.00  0.00    -0.323 N 
ATOM     92  C   UNL A   1      33.383  24.056  26.093  1.00  0.00     0.324 C 
ATOM     93  C   UNL A   1      34.521  24.308  23.951  1.00  0.00     0.328 C 
ATOM     94  H   UNL A   1      32.618  23.816  24.218  1.00  0.00     0.348 HD
ATOM     95  C   UNL A   1      34.660  23.263  26.484  1.00  0.00     0.324 C 
ATOM     96  C   UNL A   1      35.082  22.880  24.087  1.00  0.00     0.240 C 
ATOM     97  N   UNL A   1      35.194  22.353  25.463  1.00  0.00    -0.323 N 
ATOM     98  C   UNL A   1      36.480  22.770  23.478  1.00  0.00     0.077 C 
ATOM     99  C   UNL A   1      36.595  22.000  25.710  1.00  0.00     0.263 C 
ATOM    100  H   UNL A   1      34.609  21.522  25.540  1.00  0.00     0.348 HD
ATOM    101  C   UNL A   1      37.159  21.718  24.329  1.00  0.00     0.068 C 
ENDBRANCH  84  91
ENDBRANCH  77  80
ENDBRANCH  75  76
ENDBRANCH  74  75
ENDBRANCH  73  74
ENDBRANCH   1  73
TORSDOF 16
ENDMDL
