MODEL 1
REMARK VINA RESULT:     -12.6      0.000      0.000
REMARK SMILES Cc1cc(C(=O)NCCCCCCNC(=O)c2ccc(-c3c4nc(c(-c5c(F)c(F)c(F)c(F)c5F)c5ccc([nH]5)c(-c5c(F)c(F)c(F)c(F)c5F)c5nc(c(-c6c(F)c(F)c(F)c(F)c6F)c6ccc3[nH]6)C=C5)C=C4)cc2)c(NC(=O)c2nc(C(C)(C)C)n[nH]2)s1
REMARK SMILES IDX 10 1 9 2 8 3 7 4 5 5 6 6 4 8 1 9 2 10 3 11 93 12 80 13 81 14
REMARK SMILES IDX 82 15 83 17 84 18 85 19 92 20 86 21 91 22 87 24 88 25 89 26
REMARK SMILES IDX 90 27 11 28 12 29 13 30 14 31 15 32 16 34 17 35 18 36 79 37
REMARK SMILES IDX 19 38 78 39 20 40 21 41 22 42 72 43 23 44 77 45 71 46 73 47
REMARK SMILES IDX 24 48 76 49 70 50 69 51 25 53 57 54 37 55 56 56 38 57 41 58
REMARK SMILES IDX 55 59 74 60 39 61 40 62 54 64 75 65 42 66 26 67 27 68 35 69
REMARK SMILES IDX 28 70 29 71 33 72 36 73 30 74 31 75 34 76 32 77 58 78 59 79
REMARK SMILES IDX 67 80 60 81 61 82 65 83 68 84 62 85 63 86 66 87 64 88 43 89
REMARK SMILES IDX 44 90 52 91 45 92 46 93 50 94 53 95 47 96 48 97 51 98 49 99
REMARK H PARENT 7 7 81 16 92 23 14 33 73 52 41 63
REMARK Flexibility Score: inf
ROOT
ATOM      1  C   UNL A   1      32.199  29.868  27.242  1.00  0.00     0.002 C 
ENDROOT
BRANCH   1   2
ATOM      2  C   UNL A   1      32.380  28.402  26.837  1.00  0.00     0.021 C 
BRANCH   2   3
ATOM      3  C   UNL A   1      31.091  27.703  26.416  1.00  0.00     0.116 C 
BRANCH   3   4
ATOM      4  N   UNL A   1      31.030  26.326  26.854  1.00  0.00    -0.352 N 
ATOM      5  C   UNL A   1      31.449  25.136  26.319  1.00  0.00     0.254 C 
ATOM      6  O   UNL A   1      31.176  24.130  26.980  1.00  0.00    -0.269 OA
ATOM      7  H   UNL A   1      30.591  26.220  27.729  1.00  0.00     0.163 HD
BRANCH   5   8
ATOM      8  C   UNL A   1      32.144  25.014  25.027  1.00  0.00     0.074 A 
ATOM      9  C   UNL A   1      32.690  25.573  21.298  1.00  0.00     0.056 C 
ATOM     10  C   UNL A   1      32.692  25.178  22.734  1.00  0.00     0.004 A 
ATOM     11  C   UNL A   1      31.862  25.609  23.746  1.00  0.00     0.031 A 
ATOM     12  S   UNL A   1      33.825  24.068  23.320  1.00  0.00    -0.122 S 
ATOM     13  C   UNL A   1      33.355  24.323  24.931  1.00  0.00     0.108 A 
BRANCH  13  14
ATOM     14  N   UNL A   1      34.084  23.797  25.987  1.00  0.00    -0.310 N 
ATOM     15  C   UNL A   1      34.123  22.539  26.560  1.00  0.00     0.293 C 
ATOM     16  H   UNL A   1      34.693  24.444  26.411  1.00  0.00     0.171 HD
ATOM     17  O   UNL A   1      34.803  22.407  27.580  1.00  0.00    -0.265 OA
BRANCH  15  18
ATOM     18  C   UNL A   1      33.482  21.418  25.922  1.00  0.00     0.214 A 
ATOM     19  N   UNL A   1      34.095  20.342  25.471  1.00  0.00    -0.207 NA
ATOM     20  N   UNL A   1      32.146  21.291  25.679  1.00  0.00    -0.255 N 
ATOM     21  C   UNL A   1      33.067  19.536  25.048  1.00  0.00     0.156 A 
ATOM     22  N   UNL A   1      31.852  20.095  25.140  1.00  0.00    -0.158 NA
ATOM     23  H   UNL A   1      31.479  21.989  25.873  1.00  0.00     0.192 HD
BRANCH  21  24
ATOM     24  C   UNL A   1      33.322  18.148  24.515  1.00  0.00     0.024 C 
ATOM     25  C   UNL A   1      32.656  18.006  23.136  1.00  0.00     0.019 C 
ATOM     26  C   UNL A   1      34.839  17.909  24.366  1.00  0.00     0.019 C 
ATOM     27  C   UNL A   1      32.766  17.059  25.455  1.00  0.00     0.019 C 
ENDBRANCH  21  24
ENDBRANCH  15  18
ENDBRANCH  13  14
ENDBRANCH   5   8
ENDBRANCH   3   4
ENDBRANCH   2   3
ENDBRANCH   1   2
BRANCH   1  28
ATOM     28  C   UNL A   1      31.508  30.762  26.202  1.00  0.00     0.002 C 
BRANCH  28  29
ATOM     29  C   UNL A   1      31.390  32.244  26.577  1.00  0.00     0.021 C 
BRANCH  29  30
ATOM     30  C   UNL A   1      32.656  32.857  27.166  1.00  0.00     0.116 C 
BRANCH  30  31
ATOM     31  N   UNL A   1      32.440  34.222  27.614  1.00  0.00    -0.352 N 
ATOM     32  C   UNL A   1      33.016  34.903  28.657  1.00  0.00     0.251 C 
ATOM     33  H   UNL A   1      31.781  34.735  27.092  1.00  0.00     0.163 HD
ATOM     34  O   UNL A   1      32.552  35.979  29.019  1.00  0.00    -0.269 OA
BRANCH  32  35
ATOM     35  C   UNL A   1      34.190  34.338  29.354  1.00  0.00     0.039 A 
ATOM     36  C   UNL A   1      33.990  33.612  30.532  1.00  0.00     0.014 A 
ATOM     37  C   UNL A   1      35.486  34.552  28.874  1.00  0.00     0.014 A 
ATOM     38  C   UNL A   1      35.084  33.057  31.200  1.00  0.00     0.010 A 
ATOM     39  C   UNL A   1      36.568  33.942  29.502  1.00  0.00     0.010 A 
ATOM     40  C   UNL A   1      36.379  33.195  30.674  1.00  0.00    -0.014 A 
BRANCH  40  41
ATOM     41  C   UNL A   1      37.548  32.569  31.341  1.00  0.00     0.031 A 
ATOM     42  C   UNL A   1      38.282  31.438  30.675  1.00  0.00     0.074 A 
ATOM     43  C   UNL A   1      37.907  32.976  32.573  1.00  0.00     0.049 A 
ATOM     44  N   UNL A   1      39.277  30.717  31.126  1.00  0.00    -0.248 NA
ATOM     45  C   UNL A   1      37.819  31.050  29.335  1.00  0.00     0.031 C 
ATOM     46  C   UNL A   1      37.245  34.033  33.340  1.00  0.00     0.029 A 
ATOM     47  N   UNL A   1      38.909  32.542  33.404  1.00  0.00    -0.354 N 
ATOM     48  C   UNL A   1      39.547  29.783  30.135  1.00  0.00     0.074 A 
ATOM     49  C   UNL A   1      38.579  29.995  29.079  1.00  0.00     0.031 C 
ATOM     50  C   UNL A   1      37.872  34.179  34.518  1.00  0.00     0.029 A 
ATOM     51  C   UNL A   1      38.953  33.202  34.607  1.00  0.00     0.049 A 
ATOM     52  H   UNL A   1      39.538  31.824  33.159  1.00  0.00     0.167 HD
ATOM     53  C   UNL A   1      40.526  28.848  30.099  1.00  0.00     0.037 A 
ATOM     54  C   UNL A   1      39.770  33.034  35.664  1.00  0.00     0.037 A 
ATOM     55  C   UNL A   1      41.503  28.659  31.139  1.00  0.00     0.049 A 
ATOM     56  C   UNL A   1      40.848  31.986  35.599  1.00  0.00     0.074 A 
ATOM     57  C   UNL A   1      42.574  27.783  31.169  1.00  0.00     0.029 A 
ATOM     58  N   UNL A   1      41.527  29.361  32.336  1.00  0.00    -0.354 N 
ATOM     59  N   UNL A   1      41.135  31.154  34.628  1.00  0.00    -0.248 NA
ATOM     60  C   UNL A   1      41.719  31.860  36.776  1.00  0.00     0.031 C 
ATOM     61  C   UNL A   1      43.218  27.922  32.403  1.00  0.00     0.029 A 
ATOM     62  C   UNL A   1      42.581  28.921  33.121  1.00  0.00     0.049 A 
ATOM     63  H   UNL A   1      40.890  30.067  32.589  1.00  0.00     0.167 HD
ATOM     64  C   UNL A   1      42.235  30.427  35.062  1.00  0.00     0.074 A 
ATOM     65  C   UNL A   1      42.572  30.926  36.379  1.00  0.00     0.031 C 
ATOM     66  C   UNL A   1      42.906  29.435  34.427  1.00  0.00     0.037 A 
BRANCH  53  67
ATOM     67  C   UNL A   1      40.590  27.955  28.893  1.00  0.00     0.064 A 
ATOM     68  C   UNL A   1      39.856  26.762  28.819  1.00  0.00     0.173 A 
ATOM     69  C   UNL A   1      41.366  28.318  27.781  1.00  0.00     0.173 A 
ATOM     70  F   UNL A   1      39.106  26.365  29.858  1.00  0.00    -0.203 F 
ATOM     71  C   UNL A   1      39.919  25.949  27.690  1.00  0.00     0.198 A 
ATOM     72  C   UNL A   1      41.403  27.517  26.642  1.00  0.00     0.198 A 
ATOM     73  F   UNL A   1      42.083  29.451  27.796  1.00  0.00    -0.203 F 
ATOM     74  F   UNL A   1      39.249  24.790  27.663  1.00  0.00    -0.200 F 
ATOM     75  C   UNL A   1      40.687  26.331  26.600  1.00  0.00     0.200 A 
ATOM     76  F   UNL A   1      42.136  27.894  25.584  1.00  0.00    -0.200 F 
ATOM     77  F   UNL A   1      40.742  25.551  25.511  1.00  0.00    -0.200 F 
ENDBRANCH  53  67
BRANCH  54  78
ATOM     78  C   UNL A   1      39.616  33.896  36.864  1.00  0.00     0.064 A 
ATOM     79  C   UNL A   1      38.842  33.475  37.955  1.00  0.00     0.173 A 
ATOM     80  C   UNL A   1      40.233  35.152  36.948  1.00  0.00     0.173 A 
ATOM     81  F   UNL A   1      38.216  32.290  37.914  1.00  0.00    -0.203 F 
ATOM     82  C   UNL A   1      38.674  34.287  39.074  1.00  0.00     0.198 A 
ATOM     83  C   UNL A   1      40.088  35.951  38.079  1.00  0.00     0.198 A 
ATOM     84  F   UNL A   1      40.989  35.598  35.934  1.00  0.00    -0.203 F 
ATOM     85  F   UNL A   1      37.892  33.880  40.084  1.00  0.00    -0.200 F 
ATOM     86  C   UNL A   1      39.302  35.522  39.139  1.00  0.00     0.200 A 
ATOM     87  F   UNL A   1      40.708  37.138  38.143  1.00  0.00    -0.200 F 
ATOM     88  F   UNL A   1      39.144  36.302  40.217  1.00  0.00    -0.200 F 
ENDBRANCH  54  78
BRANCH  66  89
ATOM     89  C   UNL A   1      44.095  28.847  35.131  1.00  0.00     0.064 A 
ATOM     90  C   UNL A   1      45.379  29.393  34.990  1.00  0.00     0.173 A 
ATOM     91  C   UNL A   1      43.938  27.748  35.988  1.00  0.00     0.173 A 
ATOM     92  F   UNL A   1      45.583  30.434  34.169  1.00  0.00    -0.203 F 
ATOM     93  C   UNL A   1      46.467  28.844  35.663  1.00  0.00     0.198 A 
ATOM     94  C   UNL A   1      45.023  27.220  36.683  1.00  0.00     0.198 A 
ATOM     95  F   UNL A   1      42.730  27.192  36.162  1.00  0.00    -0.203 F 
ATOM     96  F   UNL A   1      47.693  29.353  35.476  1.00  0.00    -0.200 F 
ATOM     97  C   UNL A   1      46.287  27.764  36.513  1.00  0.00     0.200 A 
ATOM     98  F   UNL A   1      44.845  26.185  37.515  1.00  0.00    -0.200 F 
ATOM     99  F   UNL A   1      47.334  27.242  37.166  1.00  0.00    -0.200 F 
ENDBRANCH  66  89
ENDBRANCH  40  41
ENDBRANCH  32  35
ENDBRANCH  30  31
ENDBRANCH  29  30
ENDBRANCH  28  29
ENDBRANCH   1  28
TORSDOF 16
ENDMDL
MODEL 2
REMARK VINA RESULT:     -12.5      4.031      8.467
REMARK SMILES Cc1cc(C(=O)NCCCCCCNC(=O)c2ccc(-c3c4nc(c(-c5c(F)c(F)c(F)c(F)c5F)c5ccc([nH]5)c(-c5c(F)c(F)c(F)c(F)c5F)c5nc(c(-c6c(F)c(F)c(F)c(F)c6F)c6ccc3[nH]6)C=C5)C=C4)cc2)c(NC(=O)c2nc(C(C)(C)C)n[nH]2)s1
REMARK SMILES IDX 10 1 9 2 8 3 7 4 5 5 6 6 4 8 1 9 2 10 3 11 93 12 80 13 81 14
REMARK SMILES IDX 82 15 83 17 84 18 85 19 92 20 86 21 91 22 87 24 88 25 89 26
REMARK SMILES IDX 90 27 11 28 12 29 13 30 14 31 15 32 16 34 17 35 18 36 79 37
REMARK SMILES IDX 19 38 78 39 20 40 21 41 22 42 72 43 23 44 77 45 71 46 73 47
REMARK SMILES IDX 24 48 76 49 70 50 69 51 25 53 57 54 37 55 56 56 38 57 41 58
REMARK SMILES IDX 55 59 74 60 39 61 40 62 54 64 75 65 42 66 26 67 27 68 35 69
REMARK SMILES IDX 28 70 29 71 33 72 36 73 30 74 31 75 34 76 32 77 58 78 59 79
REMARK SMILES IDX 67 80 60 81 61 82 65 83 68 84 62 85 63 86 66 87 64 88 43 89
REMARK SMILES IDX 44 90 52 91 45 92 46 93 50 94 53 95 47 96 48 97 51 98 49 99
REMARK H PARENT 7 7 81 16 92 23 14 33 73 52 41 63
REMARK Flexibility Score: inf
ROOT
ATOM      1  C   UNL A   1      34.138  22.060  26.614  1.00  0.00     0.002 C 
ENDROOT
BRANCH   1   2
ATOM      2  C   UNL A   1      33.180  22.936  27.428  1.00  0.00     0.021 C 
BRANCH   2   3
ATOM      3  C   UNL A   1      31.762  23.003  26.868  1.00  0.00     0.116 C 
BRANCH   3   4
ATOM      4  N   UNL A   1      31.208  24.339  26.900  1.00  0.00    -0.352 N 
ATOM      5  C   UNL A   1      31.241  25.404  26.040  1.00  0.00     0.254 C 
ATOM      6  O   UNL A   1      30.674  26.426  26.437  1.00  0.00    -0.269 OA
ATOM      7  H   UNL A   1      30.697  24.523  27.722  1.00  0.00     0.163 HD
BRANCH   5   8
ATOM      8  C   UNL A   1      31.928  25.390  24.737  1.00  0.00     0.074 A 
ATOM      9  C   UNL A   1      32.892  24.004  21.323  1.00  0.00     0.056 C 
ATOM     10  C   UNL A   1      32.712  24.737  22.606  1.00  0.00     0.004 A 
ATOM     11  C   UNL A   1      31.831  24.472  23.632  1.00  0.00     0.031 A 
ATOM     12  S   UNL A   1      33.651  26.098  22.959  1.00  0.00    -0.122 S 
ATOM     13  C   UNL A   1      32.750  26.453  24.353  1.00  0.00     0.108 A 
BRANCH  13  14
ATOM     14  N   UNL A   1      32.925  27.644  25.042  1.00  0.00    -0.310 N 
ATOM     15  C   UNL A   1      32.471  28.930  24.812  1.00  0.00     0.293 C 
ATOM     16  H   UNL A   1      33.479  27.558  25.850  1.00  0.00     0.171 HD
ATOM     17  O   UNL A   1      32.898  29.817  25.556  1.00  0.00    -0.265 OA
BRANCH  15  18
ATOM     18  C   UNL A   1      31.462  29.190  23.817  1.00  0.00     0.214 A 
ATOM     19  N   UNL A   1      30.179  29.375  24.060  1.00  0.00    -0.207 NA
ATOM     20  N   UNL A   1      31.668  29.281  22.472  1.00  0.00    -0.255 N 
ATOM     21  C   UNL A   1      29.657  29.678  22.826  1.00  0.00     0.156 A 
ATOM     22  N   UNL A   1      30.540  29.609  21.820  1.00  0.00    -0.158 NA
ATOM     23  H   UNL A   1      32.535  29.124  22.033  1.00  0.00     0.192 HD
BRANCH  21  24
ATOM     24  C   UNL A   1      28.203  30.040  22.655  1.00  0.00     0.024 C 
ATOM     25  C   UNL A   1      27.874  31.248  23.549  1.00  0.00     0.019 C 
ATOM     26  C   UNL A   1      27.921  30.413  21.184  1.00  0.00     0.019 C 
ATOM     27  C   UNL A   1      27.270  28.870  23.029  1.00  0.00     0.019 C 
ENDBRANCH  21  24
ENDBRANCH  15  18
ENDBRANCH  13  14
ENDBRANCH   5   8
ENDBRANCH   3   4
ENDBRANCH   2   3
ENDBRANCH   1   2
BRANCH   1  28
ATOM     28  C   UNL A   1      34.341  22.481  25.151  1.00  0.00     0.002 C 
BRANCH  28  29
ATOM     29  C   UNL A   1      35.495  23.457  24.896  1.00  0.00     0.021 C 
BRANCH  29  30
ATOM     30  C   UNL A   1      36.451  23.635  26.071  1.00  0.00     0.116 C 
BRANCH  30  31
ATOM     31  N   UNL A   1      37.537  22.669  26.038  1.00  0.00    -0.352 N 
ATOM     32  C   UNL A   1      38.876  22.848  26.274  1.00  0.00     0.251 C 
ATOM     33  H   UNL A   1      37.271  21.749  25.811  1.00  0.00     0.163 HD
ATOM     34  O   UNL A   1      39.674  21.962  25.988  1.00  0.00    -0.269 OA
BRANCH  32  35
ATOM     35  C   UNL A   1      39.364  24.113  26.863  1.00  0.00     0.039 A 
ATOM     36  C   UNL A   1      40.022  25.031  26.039  1.00  0.00     0.014 A 
ATOM     37  C   UNL A   1      39.208  24.380  28.227  1.00  0.00     0.014 A 
ATOM     38  C   UNL A   1      40.478  26.239  26.572  1.00  0.00     0.010 A 
ATOM     39  C   UNL A   1      39.602  25.612  28.741  1.00  0.00     0.010 A 
ATOM     40  C   UNL A   1      40.247  26.550  27.922  1.00  0.00    -0.014 A 
BRANCH  40  41
ATOM     41  C   UNL A   1      40.679  27.850  28.494  1.00  0.00     0.031 A 
ATOM     42  C   UNL A   1      42.116  28.064  28.882  1.00  0.00     0.074 A 
ATOM     43  C   UNL A   1      39.766  28.812  28.723  1.00  0.00     0.049 A 
ATOM     44  N   UNL A   1      42.672  29.098  29.461  1.00  0.00    -0.248 NA
ATOM     45  C   UNL A   1      43.045  26.958  28.607  1.00  0.00     0.031 C 
ATOM     46  C   UNL A   1      38.335  28.706  28.430  1.00  0.00     0.029 A 
ATOM     47  N   UNL A   1      39.901  30.065  29.266  1.00  0.00    -0.354 N 
ATOM     48  C   UNL A   1      44.008  28.761  29.633  1.00  0.00     0.074 A 
ATOM     49  C   UNL A   1      44.170  27.409  29.143  1.00  0.00     0.031 C 
ATOM     50  C   UNL A   1      37.730  29.852  28.777  1.00  0.00     0.029 A 
ATOM     51  C   UNL A   1      38.719  30.759  29.352  1.00  0.00     0.049 A 
ATOM     52  H   UNL A   1      40.764  30.431  29.567  1.00  0.00     0.167 HD
ATOM     53  C   UNL A   1      45.013  29.519  30.134  1.00  0.00     0.037 A 
ATOM     54  C   UNL A   1      38.463  31.986  29.843  1.00  0.00     0.037 A 
ATOM     55  C   UNL A   1      44.852  30.874  30.593  1.00  0.00     0.049 A 
ATOM     56  C   UNL A   1      39.597  32.806  30.396  1.00  0.00     0.074 A 
ATOM     57  C   UNL A   1      45.819  31.749  31.058  1.00  0.00     0.029 A 
ATOM     58  N   UNL A   1      43.642  31.551  30.646  1.00  0.00    -0.354 N 
ATOM     59  N   UNL A   1      40.868  32.503  30.492  1.00  0.00    -0.248 NA
ATOM     60  C   UNL A   1      39.259  34.144  30.904  1.00  0.00     0.031 C 
ATOM     61  C   UNL A   1      45.187  32.939  31.436  1.00  0.00     0.029 A 
ATOM     62  C   UNL A   1      43.835  32.824  31.159  1.00  0.00     0.049 A 
ATOM     63  H   UNL A   1      42.775  31.181  30.363  1.00  0.00     0.167 HD
ATOM     64  C   UNL A   1      41.487  33.618  31.040  1.00  0.00     0.074 A 
ATOM     65  C   UNL A   1      40.452  34.610  31.244  1.00  0.00     0.031 C 
ATOM     66  C   UNL A   1      42.794  33.803  31.347  1.00  0.00     0.037 A 
BRANCH  53  67
ATOM     67  C   UNL A   1      46.379  28.901  30.209  1.00  0.00     0.064 A 
ATOM     68  C   UNL A   1      47.287  28.987  29.141  1.00  0.00     0.173 A 
ATOM     69  C   UNL A   1      46.800  28.247  31.376  1.00  0.00     0.173 A 
ATOM     70  F   UNL A   1      46.929  29.593  27.999  1.00  0.00    -0.203 F 
ATOM     71  C   UNL A   1      48.554  28.416  29.229  1.00  0.00     0.198 A 
ATOM     72  C   UNL A   1      48.079  27.704  31.471  1.00  0.00     0.198 A 
ATOM     73  F   UNL A   1      45.976  28.141  32.428  1.00  0.00    -0.203 F 
ATOM     74  F   UNL A   1      49.384  28.468  28.179  1.00  0.00    -0.200 F 
ATOM     75  C   UNL A   1      48.951  27.781  30.396  1.00  0.00     0.200 A 
ATOM     76  F   UNL A   1      48.467  27.100  32.604  1.00  0.00    -0.200 F 
ATOM     77  F   UNL A   1      50.173  27.237  30.482  1.00  0.00    -0.200 F 
ENDBRANCH  53  67
BRANCH  54  78
ATOM     78  C   UNL A   1      37.078  32.523  29.812  1.00  0.00     0.064 A 
ATOM     79  C   UNL A   1      36.617  33.255  28.709  1.00  0.00     0.173 A 
ATOM     80  C   UNL A   1      36.190  32.320  30.879  1.00  0.00     0.173 A 
ATOM     81  F   UNL A   1      37.436  33.491  27.673  1.00  0.00    -0.203 F 
ATOM     82  C   UNL A   1      35.327  33.781  28.682  1.00  0.00     0.198 A 
ATOM     83  C   UNL A   1      34.892  32.823  30.839  1.00  0.00     0.198 A 
ATOM     84  F   UNL A   1      36.580  31.622  31.955  1.00  0.00    -0.203 F 
ATOM     85  F   UNL A   1      34.927  34.515  27.635  1.00  0.00    -0.200 F 
ATOM     86  C   UNL A   1      34.463  33.560  29.744  1.00  0.00     0.200 A 
ATOM     87  F   UNL A   1      34.055  32.594  31.861  1.00  0.00    -0.200 F 
ATOM     88  F   UNL A   1      33.222  34.063  29.717  1.00  0.00    -0.200 F 
ENDBRANCH  54  78
BRANCH  66  89
ATOM     89  C   UNL A   1      43.187  35.141  31.903  1.00  0.00     0.064 A 
ATOM     90  C   UNL A   1      43.646  36.176  31.076  1.00  0.00     0.173 A 
ATOM     91  C   UNL A   1      43.067  35.401  33.276  1.00  0.00     0.173 A 
ATOM     92  F   UNL A   1      43.795  35.972  29.758  1.00  0.00    -0.203 F 
ATOM     93  C   UNL A   1      43.992  37.415  31.607  1.00  0.00     0.198 A 
ATOM     94  C   UNL A   1      43.385  36.651  33.800  1.00  0.00     0.198 A 
ATOM     95  F   UNL A   1      42.627  34.446  34.110  1.00  0.00    -0.203 F 
ATOM     96  F   UNL A   1      44.473  38.375  30.804  1.00  0.00    -0.200 F 
ATOM     97  C   UNL A   1      43.855  37.654  32.966  1.00  0.00     0.200 A 
ATOM     98  F   UNL A   1      43.238  36.883  35.111  1.00  0.00    -0.200 F 
ATOM     99  F   UNL A   1      44.181  38.850  33.474  1.00  0.00    -0.200 F 
ENDBRANCH  66  89
ENDBRANCH  40  41
ENDBRANCH  32  35
ENDBRANCH  30  31
ENDBRANCH  29  30
ENDBRANCH  28  29
ENDBRANCH   1  28
TORSDOF 16
ENDMDL
MODEL 3
REMARK VINA RESULT:     -12.5      0.636      7.260
REMARK SMILES Cc1cc(C(=O)NCCCCCCNC(=O)c2ccc(-c3c4nc(c(-c5c(F)c(F)c(F)c(F)c5F)c5ccc([nH]5)c(-c5c(F)c(F)c(F)c(F)c5F)c5nc(c(-c6c(F)c(F)c(F)c(F)c6F)c6ccc3[nH]6)C=C5)C=C4)cc2)c(NC(=O)c2nc(C(C)(C)C)n[nH]2)s1
REMARK SMILES IDX 10 1 9 2 8 3 7 4 5 5 6 6 4 8 1 9 2 10 3 11 93 12 80 13 81 14
REMARK SMILES IDX 82 15 83 17 84 18 85 19 92 20 86 21 91 22 87 24 88 25 89 26
REMARK SMILES IDX 90 27 11 28 12 29 13 30 14 31 15 32 16 34 17 35 18 36 79 37
REMARK SMILES IDX 19 38 78 39 20 40 21 41 22 42 72 43 23 44 77 45 71 46 73 47
REMARK SMILES IDX 24 48 76 49 70 50 69 51 25 53 57 54 37 55 56 56 38 57 41 58
REMARK SMILES IDX 55 59 74 60 39 61 40 62 54 64 75 65 42 66 26 67 27 68 35 69
REMARK SMILES IDX 28 70 29 71 33 72 36 73 30 74 31 75 34 76 32 77 58 78 59 79
REMARK SMILES IDX 67 80 60 81 61 82 65 83 68 84 62 85 63 86 66 87 64 88 43 89
REMARK SMILES IDX 44 90 52 91 45 92 46 93 50 94 53 95 47 96 48 97 51 98 49 99
REMARK H PARENT 7 7 81 16 92 23 14 33 73 52 41 63
REMARK Flexibility Score: inf
ROOT
ATOM      1  C   UNL A   1      32.635  30.012  27.253  1.00  0.00     0.002 C 
ENDROOT
BRANCH   1   2
ATOM      2  C   UNL A   1      32.577  28.481  27.284  1.00  0.00     0.021 C 
BRANCH   2   3
ATOM      3  C   UNL A   1      31.411  27.881  26.504  1.00  0.00     0.116 C 
BRANCH   3   4
ATOM      4  N   UNL A   1      31.159  26.499  26.847  1.00  0.00    -0.352 N 
ATOM      5  C   UNL A   1      31.441  25.301  26.246  1.00  0.00     0.254 C 
ATOM      6  O   UNL A   1      31.018  24.299  26.830  1.00  0.00    -0.269 OA
ATOM      7  H   UNL A   1      30.677  26.397  27.700  1.00  0.00     0.163 HD
BRANCH   5   8
ATOM      8  C   UNL A   1      32.163  25.171  24.969  1.00  0.00     0.074 A 
ATOM      9  C   UNL A   1      32.791  25.715  21.251  1.00  0.00     0.056 C 
ATOM     10  C   UNL A   1      32.760  25.324  22.687  1.00  0.00     0.004 A 
ATOM     11  C   UNL A   1      31.912  25.763  23.681  1.00  0.00     0.031 A 
ATOM     12  S   UNL A   1      33.873  24.208  23.300  1.00  0.00    -0.122 S 
ATOM     13  C   UNL A   1      33.371  24.470  24.900  1.00  0.00     0.108 A 
BRANCH  13  14
ATOM     14  N   UNL A   1      34.074  23.942  25.973  1.00  0.00    -0.310 N 
ATOM     15  C   UNL A   1      34.073  22.694  26.567  1.00  0.00     0.293 C 
ATOM     16  H   UNL A   1      34.694  24.581  26.394  1.00  0.00     0.171 HD
ATOM     17  O   UNL A   1      34.738  22.560  27.596  1.00  0.00    -0.265 OA
BRANCH  15  18
ATOM     18  C   UNL A   1      33.409  21.579  25.939  1.00  0.00     0.214 A 
ATOM     19  N   UNL A   1      34.005  20.500  25.473  1.00  0.00    -0.207 NA
ATOM     20  N   UNL A   1      32.068  21.464  25.722  1.00  0.00    -0.255 N 
ATOM     21  C   UNL A   1      32.961  19.703  25.068  1.00  0.00     0.156 A 
ATOM     22  N   UNL A   1      31.753  20.273  25.186  1.00  0.00    -0.158 NA
ATOM     23  H   UNL A   1      31.411  22.168  25.931  1.00  0.00     0.192 HD
BRANCH  21  24
ATOM     24  C   UNL A   1      33.194  18.315  24.527  1.00  0.00     0.024 C 
ATOM     25  C   UNL A   1      32.529  18.194  23.145  1.00  0.00     0.019 C 
ATOM     26  C   UNL A   1      34.707  18.051  24.381  1.00  0.00     0.019 C 
ATOM     27  C   UNL A   1      32.616  17.229  25.458  1.00  0.00     0.019 C 
ENDBRANCH  21  24
ENDBRANCH  15  18
ENDBRANCH  13  14
ENDBRANCH   5   8
ENDBRANCH   3   4
ENDBRANCH   2   3
ENDBRANCH   1   2
BRANCH   1  28
ATOM     28  C   UNL A   1      31.494  30.703  26.492  1.00  0.00     0.002 C 
BRANCH  28  29
ATOM     29  C   UNL A   1      31.424  32.227  26.645  1.00  0.00     0.021 C 
BRANCH  29  30
ATOM     30  C   UNL A   1      32.748  32.894  27.002  1.00  0.00     0.116 C 
BRANCH  30  31
ATOM     31  N   UNL A   1      32.551  34.204  27.600  1.00  0.00    -0.352 N 
ATOM     32  C   UNL A   1      33.124  34.750  28.720  1.00  0.00     0.251 C 
ATOM     33  H   UNL A   1      31.909  34.786  27.132  1.00  0.00     0.163 HD
ATOM     34  O   UNL A   1      32.675  35.787  29.196  1.00  0.00    -0.269 OA
BRANCH  32  35
ATOM     35  C   UNL A   1      34.278  34.086  29.364  1.00  0.00     0.039 A 
ATOM     36  C   UNL A   1      34.038  33.074  30.298  1.00  0.00     0.014 A 
ATOM     37  C   UNL A   1      35.588  34.481  29.078  1.00  0.00     0.014 A 
ATOM     38  C   UNL A   1      35.113  32.424  30.907  1.00  0.00     0.010 A 
ATOM     39  C   UNL A   1      36.658  33.787  29.633  1.00  0.00     0.010 A 
ATOM     40  C   UNL A   1      36.432  32.756  30.558  1.00  0.00    -0.014 A 
BRANCH  40  41
ATOM     41  C   UNL A   1      37.588  32.041  31.157  1.00  0.00     0.031 A 
ATOM     42  C   UNL A   1      38.068  32.402  32.535  1.00  0.00     0.074 A 
ATOM     43  C   UNL A   1      38.242  31.113  30.433  1.00  0.00     0.049 A 
ATOM     44  N   UNL A   1      39.100  31.945  33.198  1.00  0.00    -0.248 NA
ATOM     45  C   UNL A   1      37.302  33.433  33.251  1.00  0.00     0.031 C 
ATOM     46  C   UNL A   1      37.898  30.708  29.069  1.00  0.00     0.029 A 
ATOM     47  N   UNL A   1      39.341  30.351  30.739  1.00  0.00    -0.354 N 
ATOM     48  C   UNL A   1      39.115  32.642  34.399  1.00  0.00     0.074 A 
ATOM     49  C   UNL A   1      38.021  33.589  34.354  1.00  0.00     0.031 C 
ATOM     50  C   UNL A   1      38.755  29.757  28.665  1.00  0.00     0.029 A 
ATOM     51  C   UNL A   1      39.731  29.513  29.723  1.00  0.00     0.049 A 
ATOM     52  H   UNL A   1      39.806  30.399  31.606  1.00  0.00     0.167 HD
ATOM     53  C   UNL A   1      39.953  32.492  35.453  1.00  0.00     0.037 A 
ATOM     54  C   UNL A   1      40.762  28.650  29.651  1.00  0.00     0.037 A 
ATOM     55  C   UNL A   1      41.023  31.530  35.505  1.00  0.00     0.049 A 
ATOM     56  C   UNL A   1      41.679  28.504  30.836  1.00  0.00     0.074 A 
ATOM     57  C   UNL A   1      41.886  31.255  36.550  1.00  0.00     0.029 A 
ATOM     58  N   UNL A   1      41.375  30.685  34.462  1.00  0.00    -0.354 N 
ATOM     59  N   UNL A   1      41.643  29.121  31.991  1.00  0.00    -0.248 NA
ATOM     60  C   UNL A   1      42.777  27.536  30.705  1.00  0.00     0.031 C 
ATOM     61  C   UNL A   1      42.791  30.275  36.124  1.00  0.00     0.029 A 
ATOM     62  C   UNL A   1      42.458  29.904  34.832  1.00  0.00     0.049 A 
ATOM     63  H   UNL A   1      40.923  30.646  33.589  1.00  0.00     0.167 HD
ATOM     64  C   UNL A   1      42.690  28.596  32.736  1.00  0.00     0.074 A 
ATOM     65  C   UNL A   1      43.336  27.601  31.905  1.00  0.00     0.031 C 
ATOM     66  C   UNL A   1      43.083  28.911  33.995  1.00  0.00     0.037 A 
BRANCH  53  67
ATOM     67  C   UNL A   1      39.745  33.388  36.640  1.00  0.00     0.064 A 
ATOM     68  C   UNL A   1      38.864  33.044  37.677  1.00  0.00     0.173 A 
ATOM     69  C   UNL A   1      40.464  34.587  36.760  1.00  0.00     0.173 A 
ATOM     70  F   UNL A   1      38.145  31.913  37.605  1.00  0.00    -0.203 F 
ATOM     71  C   UNL A   1      38.688  33.881  38.776  1.00  0.00     0.198 A 
ATOM     72  C   UNL A   1      40.307  35.406  37.876  1.00  0.00     0.198 A 
ATOM     73  F   UNL A   1      41.322  34.961  35.801  1.00  0.00    -0.203 F 
ATOM     74  F   UNL A   1      37.805  33.556  39.729  1.00  0.00    -0.200 F 
ATOM     75  C   UNL A   1      39.415  35.058  38.878  1.00  0.00     0.200 A 
ATOM     76  F   UNL A   1      41.020  36.538  37.979  1.00  0.00    -0.200 F 
ATOM     77  F   UNL A   1      39.250  35.860  39.939  1.00  0.00    -0.200 F 
ENDBRANCH  53  67
BRANCH  54  78
ATOM     78  C   UNL A   1      40.967  27.840  28.424  1.00  0.00     0.064 A 
ATOM     79  C   UNL A   1      41.793  28.301  27.389  1.00  0.00     0.173 A 
ATOM     80  C   UNL A   1      40.344  26.594  28.256  1.00  0.00     0.173 A 
ATOM     81  F   UNL A   1      42.395  29.495  27.495  1.00  0.00    -0.203 F 
ATOM     82  C   UNL A   1      41.972  27.557  26.225  1.00  0.00     0.198 A 
ATOM     83  C   UNL A   1      40.546  25.838  27.104  1.00  0.00     0.198 A 
ATOM     84  F   UNL A   1      39.549  26.106  29.219  1.00  0.00    -0.203 F 
ATOM     85  F   UNL A   1      42.731  28.042  25.232  1.00  0.00    -0.200 F 
ATOM     86  C   UNL A   1      41.354  26.323  26.085  1.00  0.00     0.200 A 
ATOM     87  F   UNL A   1      39.958  24.640  26.980  1.00  0.00    -0.200 F 
ATOM     88  F   UNL A   1      41.528  25.606  24.967  1.00  0.00    -0.200 F 
ENDBRANCH  54  78
BRANCH  66  89
ATOM     89  C   UNL A   1      44.242  28.147  34.566  1.00  0.00     0.064 A 
ATOM     90  C   UNL A   1      44.062  26.929  35.236  1.00  0.00     0.173 A 
ATOM     91  C   UNL A   1      45.552  28.622  34.405  1.00  0.00     0.173 A 
ATOM     92  F   UNL A   1      42.827  26.441  35.431  1.00  0.00    -0.203 F 
ATOM     93  C   UNL A   1      45.150  26.226  35.747  1.00  0.00     0.198 A 
ATOM     94  C   UNL A   1      46.640  27.901  34.890  1.00  0.00     0.198 A 
ATOM     95  F   UNL A   1      45.779  29.779  33.766  1.00  0.00    -0.203 F 
ATOM     96  F   UNL A   1      44.950  25.088  36.425  1.00  0.00    -0.200 F 
ATOM     97  C   UNL A   1      46.437  26.709  35.567  1.00  0.00     0.200 A 
ATOM     98  F   UNL A   1      47.884  28.362  34.703  1.00  0.00    -0.200 F 
ATOM     99  F   UNL A   1      47.483  26.026  36.052  1.00  0.00    -0.200 F 
ENDBRANCH  66  89
ENDBRANCH  40  41
ENDBRANCH  32  35
ENDBRANCH  30  31
ENDBRANCH  29  30
ENDBRANCH  28  29
ENDBRANCH   1  28
TORSDOF 16
ENDMDL
