MODEL 1
REMARK VINA RESULT:     -12.7      0.000      0.000
REMARK SMILES O=C(NCCCCCCNC(=O)c1cccc2c(=O)oc(=O)[nH]c12)c1ccc(-c2c3nc(c(-c4c(F)c(F)c(F)c(F)c4F)c4ccc([nH]4)c(-c4c(F)c(F)c(F)c(F)c4F)c4nc(c(-c5c(F)c(F)c(F)c(F)c5F)c5ccc2[nH]5)C=C4)C=C3)cc1
REMARK SMILES IDX 5 1 4 2 3 3 1 4 2 5 25 7 26 8 87 9 27 10 86 11 28 12 29 13
REMARK SMILES IDX 30 14 80 15 31 16 85 17 79 18 81 19 32 20 84 21 78 22 77 23
REMARK SMILES IDX 33 25 65 26 45 27 64 28 46 29 49 30 63 31 82 32 47 33 48 34
REMARK SMILES IDX 62 36 83 37 50 38 34 39 35 40 43 41 36 42 37 43 41 44 44 45
REMARK SMILES IDX 38 46 39 47 42 48 40 49 66 50 67 51 75 52 68 53 69 54 73 55
REMARK SMILES IDX 76 56 70 57 71 58 74 59 72 60 51 61 52 62 60 63 53 64 54 65
REMARK SMILES IDX 58 66 61 67 55 68 56 69 59 70 57 71 6 72 7 73 8 74 9 75
REMARK SMILES IDX 10 76 11 77 12 79 13 80 14 81 24 82 15 83 17 84 23 85 16 86
REMARK SMILES IDX 18 87 21 88 19 90 20 91 22 92
REMARK H PARENT 3 6 81 24 49 35 10 78 23 89
REMARK Flexibility Score: inf
ROOT
ATOM      1  C   UNL A   1      31.310  32.429  26.591  1.00  0.00     0.021 C 
ENDROOT
BRANCH   1   2
ATOM      2  C   UNL A   1      32.569  32.970  27.254  1.00  0.00     0.116 C 
BRANCH   2   3
ATOM      3  N   UNL A   1      32.404  34.343  27.697  1.00  0.00    -0.352 N 
ATOM      4  O   UNL A   1      32.604  36.104  29.083  1.00  0.00    -0.269 OA
ATOM      5  C   UNL A   1      33.022  35.008  28.723  1.00  0.00     0.251 C 
ATOM      6  H   UNL A   1      31.750  34.873  27.186  1.00  0.00     0.163 HD
BRANCH   5   7
ATOM      7  C   UNL A   1      34.194  34.411  29.401  1.00  0.00     0.039 A 
ATOM      8  C   UNL A   1      35.463  34.618  28.854  1.00  0.00     0.014 A 
ATOM      9  C   UNL A   1      34.043  33.598  30.529  1.00  0.00     0.014 A 
ATOM     10  C   UNL A   1      36.576  34.014  29.439  1.00  0.00     0.010 A 
ATOM     11  C   UNL A   1      35.164  33.072  31.164  1.00  0.00     0.010 A 
ATOM     12  C   UNL A   1      36.436  33.236  30.599  1.00  0.00    -0.014 A 
BRANCH  12  13
ATOM     13  C   UNL A   1      37.594  32.502  31.169  1.00  0.00     0.031 A 
ATOM     14  C   UNL A   1      38.088  32.853  32.548  1.00  0.00     0.074 A 
ATOM     15  C   UNL A   1      38.202  31.533  30.459  1.00  0.00     0.049 A 
ATOM     16  N   UNL A   1      39.097  32.357  33.218  1.00  0.00    -0.248 NA
ATOM     17  C   UNL A   1      37.366  33.919  33.262  1.00  0.00     0.031 C 
ATOM     18  C   UNL A   1      37.828  31.119  29.107  1.00  0.00     0.029 A 
ATOM     19  N   UNL A   1      39.258  30.717  30.778  1.00  0.00    -0.354 N 
ATOM     20  C   UNL A   1      39.133  33.057  34.418  1.00  0.00     0.074 A 
ATOM     21  C   UNL A   1      38.094  34.057  34.360  1.00  0.00     0.031 C 
ATOM     22  C   UNL A   1      38.617  30.100  28.728  1.00  0.00     0.029 A 
ATOM     23  C   UNL A   1      39.578  29.818  29.792  1.00  0.00     0.049 A 
ATOM     24  H   UNL A   1      39.741  30.772  31.635  1.00  0.00     0.167 HD
ATOM     25  C   UNL A   1      39.936  32.856  35.488  1.00  0.00     0.037 A 
ATOM     26  C   UNL A   1      40.539  28.874  29.750  1.00  0.00     0.037 A 
ATOM     27  C   UNL A   1      40.942  31.831  35.559  1.00  0.00     0.049 A 
ATOM     28  C   UNL A   1      41.443  28.693  30.941  1.00  0.00     0.074 A 
ATOM     29  C   UNL A   1      41.771  31.513  36.619  1.00  0.00     0.029 A 
ATOM     30  N   UNL A   1      41.249  30.955  34.529  1.00  0.00    -0.354 N 
ATOM     31  N   UNL A   1      41.432  29.325  32.090  1.00  0.00    -0.248 NA
ATOM     32  C   UNL A   1      42.490  27.668  30.832  1.00  0.00     0.031 C 
ATOM     33  C   UNL A   1      42.620  30.482  36.212  1.00  0.00     0.029 A 
ATOM     34  C   UNL A   1      42.280  30.117  34.919  1.00  0.00     0.049 A 
ATOM     35  H   UNL A   1      40.802  30.932  33.652  1.00  0.00     0.167 HD
ATOM     36  C   UNL A   1      42.453  28.764  32.845  1.00  0.00     0.074 A 
ATOM     37  C   UNL A   1      43.052  27.725  32.032  1.00  0.00     0.031 C 
ATOM     38  C   UNL A   1      42.860  29.084  34.098  1.00  0.00     0.037 A 
BRANCH  25  39
ATOM     39  C   UNL A   1      39.751  33.750  36.681  1.00  0.00     0.064 A 
ATOM     40  C   UNL A   1      40.364  35.010  36.756  1.00  0.00     0.173 A 
ATOM     41  C   UNL A   1      38.901  33.371  37.730  1.00  0.00     0.173 A 
ATOM     42  F   UNL A   1      41.198  35.414  35.785  1.00  0.00    -0.203 F 
ATOM     43  C   UNL A   1      40.150  35.848  37.846  1.00  0.00     0.198 A 
ATOM     44  C   UNL A   1      38.661  34.226  38.803  1.00  0.00     0.198 A 
ATOM     45  F   UNL A   1      38.286  32.179  37.707  1.00  0.00    -0.203 F 
ATOM     46  F   UNL A   1      40.779  37.029  37.916  1.00  0.00    -0.200 F 
ATOM     47  C   UNL A   1      39.288  35.461  38.863  1.00  0.00     0.200 A 
ATOM     48  F   UNL A   1      37.818  33.857  39.776  1.00  0.00    -0.200 F 
ATOM     49  F   UNL A   1      39.067  36.278  39.902  1.00  0.00    -0.200 F 
ENDBRANCH  25  39
BRANCH  26  50
ATOM     50  C   UNL A   1      40.670  28.009  28.548  1.00  0.00     0.064 A 
ATOM     51  C   UNL A   1      40.012  26.775  28.474  1.00  0.00     0.173 A 
ATOM     52  C   UNL A   1      41.429  28.410  27.438  1.00  0.00     0.173 A 
ATOM     53  F   UNL A   1      39.290  26.337  29.518  1.00  0.00    -0.203 F 
ATOM     54  C   UNL A   1      40.113  25.969  27.342  1.00  0.00     0.198 A 
ATOM     55  C   UNL A   1      41.505  27.618  26.293  1.00  0.00     0.198 A 
ATOM     56  F   UNL A   1      42.076  29.584  27.455  1.00  0.00    -0.203 F 
ATOM     57  F   UNL A   1      39.500  24.779  27.311  1.00  0.00    -0.200 F 
ATOM     58  C   UNL A   1      40.851  26.397  26.248  1.00  0.00     0.200 A 
ATOM     59  F   UNL A   1      42.206  28.043  25.234  1.00  0.00    -0.200 F 
ATOM     60  F   UNL A   1      40.935  25.630  25.153  1.00  0.00    -0.200 F 
ENDBRANCH  26  50
BRANCH  38  61
ATOM     61  C   UNL A   1      44.001  28.305  34.686  1.00  0.00     0.064 A 
ATOM     62  C   UNL A   1      45.323  28.765  34.594  1.00  0.00     0.173 A 
ATOM     63  C   UNL A   1      43.759  27.145  35.439  1.00  0.00     0.173 A 
ATOM     64  F   UNL A   1      45.607  29.862  33.876  1.00  0.00    -0.203 F 
ATOM     65  C   UNL A   1      46.361  28.088  35.227  1.00  0.00     0.198 A 
ATOM     66  C   UNL A   1      44.795  26.489  36.097  1.00  0.00     0.198 A 
ATOM     67  F   UNL A   1      42.511  26.671  35.567  1.00  0.00    -0.203 F 
ATOM     68  F   UNL A   1      47.620  28.529  35.102  1.00  0.00    -0.200 F 
ATOM     69  C   UNL A   1      46.095  26.959  35.989  1.00  0.00     0.200 A 
ATOM     70  F   UNL A   1      44.533  25.412  36.850  1.00  0.00    -0.200 F 
ATOM     71  F   UNL A   1      47.093  26.325  36.620  1.00  0.00    -0.200 F 
ENDBRANCH  38  61
ENDBRANCH  12  13
ENDBRANCH   5   7
ENDBRANCH   2   3
ENDBRANCH   1   2
BRANCH   1  72
ATOM     72  C   UNL A   1      31.396  30.962  26.165  1.00  0.00     0.002 C 
BRANCH  72  73
ATOM     73  C   UNL A   1      32.501  30.152  26.848  1.00  0.00     0.002 C 
BRANCH  73  74
ATOM     74  C   UNL A   1      32.275  28.636  26.885  1.00  0.00     0.021 C 
BRANCH  74  75
ATOM     75  C   UNL A   1      33.089  27.845  25.862  1.00  0.00     0.116 C 
BRANCH  75  76
ATOM     76  N   UNL A   1      33.233  28.581  24.618  1.00  0.00    -0.352 N 
ATOM     77  C   UNL A   1      32.435  28.557  23.507  1.00  0.00     0.253 C 
ATOM     78  H   UNL A   1      34.013  29.179  24.568  1.00  0.00     0.163 HD
ATOM     79  O   UNL A   1      32.854  28.988  22.437  1.00  0.00    -0.269 OA
BRANCH  77  80
ATOM     80  C   UNL A   1      31.076  27.983  23.576  1.00  0.00     0.064 A 
ATOM     81  C   UNL A   1      30.903  26.651  23.983  1.00  0.00     0.016 A 
ATOM     82  C   UNL A   1      29.959  28.778  23.288  1.00  0.00     0.071 A 
ATOM     83  C   UNL A   1      29.623  26.101  24.045  1.00  0.00     0.002 A 
ATOM     84  C   UNL A   1      28.692  28.230  23.361  1.00  0.00     0.085 A 
ATOM     85  N   UNL A   1      30.066  30.110  22.914  1.00  0.00    -0.289 N 
ATOM     86  C   UNL A   1      28.516  26.890  23.731  1.00  0.00     0.018 A 
ATOM     87  C   UNL A   1      27.539  29.087  23.055  1.00  0.00     0.349 A 
ATOM     88  C   UNL A   1      29.001  30.895  22.587  1.00  0.00     0.419 A 
ATOM     89  H   UNL A   1      30.964  30.512  22.882  1.00  0.00     0.173 HD
ATOM     90  O   UNL A   1      26.406  28.629  23.152  1.00  0.00    -0.246 OA
ATOM     91  O   UNL A   1      27.756  30.359  22.657  1.00  0.00    -0.372 OA
ATOM     92  O   UNL A   1      29.175  32.058  22.232  1.00  0.00    -0.224 OA
ENDBRANCH  77  80
ENDBRANCH  75  76
ENDBRANCH  74  75
ENDBRANCH  73  74
ENDBRANCH  72  73
ENDBRANCH   1  72
TORSDOF 13
ENDMDL
MODEL 2
REMARK VINA RESULT:     -12.6      1.727      2.732
REMARK SMILES O=C(NCCCCCCNC(=O)c1cccc2c(=O)oc(=O)[nH]c12)c1ccc(-c2c3nc(c(-c4c(F)c(F)c(F)c(F)c4F)c4ccc([nH]4)c(-c4c(F)c(F)c(F)c(F)c4F)c4nc(c(-c5c(F)c(F)c(F)c(F)c5F)c5ccc2[nH]5)C=C4)C=C3)cc1
REMARK SMILES IDX 5 1 4 2 3 3 1 4 2 5 25 7 26 8 87 9 27 10 86 11 28 12 29 13
REMARK SMILES IDX 30 14 80 15 31 16 85 17 79 18 81 19 32 20 84 21 78 22 77 23
REMARK SMILES IDX 33 25 65 26 45 27 64 28 46 29 49 30 63 31 82 32 47 33 48 34
REMARK SMILES IDX 62 36 83 37 50 38 34 39 35 40 43 41 36 42 37 43 41 44 44 45
REMARK SMILES IDX 38 46 39 47 42 48 40 49 66 50 67 51 75 52 68 53 69 54 73 55
REMARK SMILES IDX 76 56 70 57 71 58 74 59 72 60 51 61 52 62 60 63 53 64 54 65
REMARK SMILES IDX 58 66 61 67 55 68 56 69 59 70 57 71 6 72 7 73 8 74 9 75
REMARK SMILES IDX 10 76 11 77 12 79 13 80 14 81 24 82 15 83 17 84 23 85 16 86
REMARK SMILES IDX 18 87 21 88 19 90 20 91 22 92
REMARK H PARENT 3 6 81 24 49 35 10 78 23 89
REMARK Flexibility Score: inf
ROOT
ATOM      1  C   UNL A   1      31.302  32.312  26.501  1.00  0.00     0.021 C 
ENDROOT
BRANCH   1   2
ATOM      2  C   UNL A   1      32.564  32.835  27.173  1.00  0.00     0.116 C 
BRANCH   2   3
ATOM      3  N   UNL A   1      32.410  34.203  27.634  1.00  0.00    -0.352 N 
ATOM      4  O   UNL A   1      32.622  35.945  29.042  1.00  0.00    -0.269 OA
ATOM      5  C   UNL A   1      33.032  34.850  28.669  1.00  0.00     0.251 C 
ATOM      6  H   UNL A   1      31.763  34.746  27.127  1.00  0.00     0.163 HD
BRANCH   5   7
ATOM      7  C   UNL A   1      34.195  34.234  29.343  1.00  0.00     0.039 A 
ATOM      8  C   UNL A   1      35.471  34.466  28.824  1.00  0.00     0.014 A 
ATOM      9  C   UNL A   1      34.031  33.380  30.439  1.00  0.00     0.014 A 
ATOM     10  C   UNL A   1      36.579  33.845  29.404  1.00  0.00     0.010 A 
ATOM     11  C   UNL A   1      35.144  32.837  31.072  1.00  0.00     0.010 A 
ATOM     12  C   UNL A   1      36.425  33.026  30.533  1.00  0.00    -0.014 A 
BRANCH  12  13
ATOM     13  C   UNL A   1      37.577  32.277  31.095  1.00  0.00     0.031 A 
ATOM     14  C   UNL A   1      38.057  32.590  32.487  1.00  0.00     0.074 A 
ATOM     15  C   UNL A   1      38.192  31.328  30.364  1.00  0.00     0.049 A 
ATOM     16  N   UNL A   1      39.060  32.076  33.154  1.00  0.00    -0.248 NA
ATOM     17  C   UNL A   1      37.328  33.637  33.223  1.00  0.00     0.031 C 
ATOM     18  C   UNL A   1      37.831  30.950  28.998  1.00  0.00     0.029 A 
ATOM     19  N   UNL A   1      39.245  30.504  30.672  1.00  0.00    -0.354 N 
ATOM     20  C   UNL A   1      39.084  32.743  34.372  1.00  0.00     0.074 A 
ATOM     21  C   UNL A   1      38.046  33.746  34.331  1.00  0.00     0.031 C 
ATOM     22  C   UNL A   1      38.624  29.942  28.600  1.00  0.00     0.029 A 
ATOM     23  C   UNL A   1      39.575  29.632  29.665  1.00  0.00     0.049 A 
ATOM     24  H   UNL A   1      39.719  30.535  31.535  1.00  0.00     0.167 HD
ATOM     25  C   UNL A   1      39.876  32.514  35.444  1.00  0.00     0.037 A 
ATOM     26  C   UNL A   1      40.537  28.689  29.607  1.00  0.00     0.037 A 
ATOM     27  C   UNL A   1      40.882  31.488  35.498  1.00  0.00     0.049 A 
ATOM     28  C   UNL A   1      41.429  28.476  30.802  1.00  0.00     0.074 A 
ATOM     29  C   UNL A   1      41.701  31.141  36.557  1.00  0.00     0.029 A 
ATOM     30  N   UNL A   1      41.200  30.640  34.447  1.00  0.00    -0.354 N 
ATOM     31  N   UNL A   1      41.407  29.076  31.966  1.00  0.00    -0.248 NA
ATOM     32  C   UNL A   1      42.478  27.454  30.675  1.00  0.00     0.031 C 
ATOM     33  C   UNL A   1      42.555  30.121  36.130  1.00  0.00     0.029 A 
ATOM     34  C   UNL A   1      42.227  29.791  34.824  1.00  0.00     0.049 A 
ATOM     35  H   UNL A   1      40.761  30.641  33.566  1.00  0.00     0.167 HD
ATOM     36  C   UNL A   1      42.421  28.495  32.716  1.00  0.00     0.074 A 
ATOM     37  C   UNL A   1      43.027  27.479  31.881  1.00  0.00     0.031 C 
ATOM     38  C   UNL A   1      42.815  28.781  33.982  1.00  0.00     0.037 A 
BRANCH  25  39
ATOM     39  C   UNL A   1      39.680  33.375  36.659  1.00  0.00     0.064 A 
ATOM     40  C   UNL A   1      40.356  34.596  36.811  1.00  0.00     0.173 A 
ATOM     41  C   UNL A   1      38.758  33.009  37.650  1.00  0.00     0.173 A 
ATOM     42  F   UNL A   1      41.259  34.986  35.898  1.00  0.00    -0.203 F 
ATOM     43  C   UNL A   1      40.132  35.407  37.920  1.00  0.00     0.198 A 
ATOM     44  C   UNL A   1      38.511  33.839  38.741  1.00  0.00     0.198 A 
ATOM     45  F   UNL A   1      38.081  31.855  37.552  1.00  0.00    -0.203 F 
ATOM     46  F   UNL A   1      40.820  36.547  38.064  1.00  0.00    -0.200 F 
ATOM     47  C   UNL A   1      39.200  35.034  38.878  1.00  0.00     0.200 A 
ATOM     48  F   UNL A   1      37.600  33.484  39.657  1.00  0.00    -0.200 F 
ATOM     49  F   UNL A   1      38.971  35.825  39.934  1.00  0.00    -0.200 F 
ENDBRANCH  25  39
BRANCH  26  50
ATOM     50  C   UNL A   1      40.679  27.857  28.383  1.00  0.00     0.064 A 
ATOM     51  C   UNL A   1      41.475  28.284  27.311  1.00  0.00     0.173 A 
ATOM     52  C   UNL A   1      40.050  26.609  28.269  1.00  0.00     0.173 A 
ATOM     53  F   UNL A   1      42.082  29.479  27.363  1.00  0.00    -0.203 F 
ATOM     54  C   UNL A   1      41.630  27.499  26.170  1.00  0.00     0.198 A 
ATOM     55  C   UNL A   1      40.230  25.811  27.141  1.00  0.00     0.198 A 
ATOM     56  F   UNL A   1      39.279  26.152  29.267  1.00  0.00    -0.203 F 
ATOM     57  F   UNL A   1      42.370  27.946  25.147  1.00  0.00    -0.200 F 
ATOM     58  C   UNL A   1      41.016  26.258  26.091  1.00  0.00     0.200 A 
ATOM     59  F   UNL A   1      39.647  24.606  27.076  1.00  0.00    -0.200 F 
ATOM     60  F   UNL A   1      41.178  25.497  25.001  1.00  0.00    -0.200 F 
ENDBRANCH  26  50
BRANCH  38  61
ATOM     61  C   UNL A   1      43.951  27.987  34.559  1.00  0.00     0.064 A 
ATOM     62  C   UNL A   1      45.271  28.457  34.509  1.00  0.00     0.173 A 
ATOM     63  C   UNL A   1      43.703  26.797  35.262  1.00  0.00     0.173 A 
ATOM     64  F   UNL A   1      45.561  29.584  33.840  1.00  0.00    -0.203 F 
ATOM     65  C   UNL A   1      46.302  27.763  35.134  1.00  0.00     0.198 A 
ATOM     66  C   UNL A   1      44.732  26.121  35.913  1.00  0.00     0.198 A 
ATOM     67  F   UNL A   1      42.456  26.310  35.349  1.00  0.00    -0.203 F 
ATOM     68  F   UNL A   1      47.560  28.216  35.049  1.00  0.00    -0.200 F 
ATOM     69  C   UNL A   1      46.030  26.603  35.846  1.00  0.00     0.200 A 
ATOM     70  F   UNL A   1      44.463  25.014  36.617  1.00  0.00    -0.200 F 
ATOM     71  F   UNL A   1      47.021  25.951  36.470  1.00  0.00    -0.200 F 
ENDBRANCH  38  61
ENDBRANCH  12  13
ENDBRANCH   5   7
ENDBRANCH   2   3
ENDBRANCH   1   2
BRANCH   1  72
ATOM     72  C   UNL A   1      31.406  30.877  25.983  1.00  0.00     0.002 C 
BRANCH  72  73
ATOM     73  C   UNL A   1      32.389  29.983  26.742  1.00  0.00     0.002 C 
BRANCH  73  74
ATOM     74  C   UNL A   1      31.804  28.668  27.271  1.00  0.00     0.021 C 
BRANCH  74  75
ATOM     75  C   UNL A   1      32.588  27.417  26.876  1.00  0.00     0.116 C 
BRANCH  75  76
ATOM     76  N   UNL A   1      31.761  26.226  26.962  1.00  0.00    -0.352 N 
ATOM     77  C   UNL A   1      30.921  25.693  26.024  1.00  0.00     0.253 C 
ATOM     78  H   UNL A   1      31.814  25.735  27.813  1.00  0.00     0.163 HD
ATOM     79  O   UNL A   1      30.069  24.874  26.352  1.00  0.00    -0.269 OA
BRANCH  77  80
ATOM     80  C   UNL A   1      31.009  26.122  24.613  1.00  0.00     0.064 A 
ATOM     81  C   UNL A   1      30.246  27.211  24.167  1.00  0.00     0.016 A 
ATOM     82  C   UNL A   1      31.890  25.477  23.733  1.00  0.00     0.071 A 
ATOM     83  C   UNL A   1      30.319  27.617  22.836  1.00  0.00     0.002 A 
ATOM     84  C   UNL A   1      31.967  25.891  22.417  1.00  0.00     0.085 A 
ATOM     85  N   UNL A   1      32.695  24.416  24.126  1.00  0.00    -0.289 N 
ATOM     86  C   UNL A   1      31.179  26.955  21.958  1.00  0.00     0.018 A 
ATOM     87  C   UNL A   1      32.900  25.199  21.518  1.00  0.00     0.349 A 
ATOM     88  C   UNL A   1      33.529  23.745  23.283  1.00  0.00     0.419 A 
ATOM     89  H   UNL A   1      32.661  24.132  25.068  1.00  0.00     0.173 HD
ATOM     90  O   UNL A   1      33.010  25.578  20.357  1.00  0.00    -0.246 OA
ATOM     91  O   UNL A   1      33.606  24.149  21.989  1.00  0.00    -0.372 OA
ATOM     92  O   UNL A   1      34.187  22.793  23.693  1.00  0.00    -0.224 OA
ENDBRANCH  77  80
ENDBRANCH  75  76
ENDBRANCH  74  75
ENDBRANCH  73  74
ENDBRANCH  72  73
ENDBRANCH   1  72
TORSDOF 13
ENDMDL
MODEL 3
REMARK VINA RESULT:     -12.6      1.475      7.877
REMARK SMILES O=C(NCCCCCCNC(=O)c1cccc2c(=O)oc(=O)[nH]c12)c1ccc(-c2c3nc(c(-c4c(F)c(F)c(F)c(F)c4F)c4ccc([nH]4)c(-c4c(F)c(F)c(F)c(F)c4F)c4nc(c(-c5c(F)c(F)c(F)c(F)c5F)c5ccc2[nH]5)C=C4)C=C3)cc1
REMARK SMILES IDX 5 1 4 2 3 3 1 4 2 5 25 7 26 8 87 9 27 10 86 11 28 12 29 13
REMARK SMILES IDX 30 14 80 15 31 16 85 17 79 18 81 19 32 20 84 21 78 22 77 23
REMARK SMILES IDX 33 25 65 26 45 27 64 28 46 29 49 30 63 31 82 32 47 33 48 34
REMARK SMILES IDX 62 36 83 37 50 38 34 39 35 40 43 41 36 42 37 43 41 44 44 45
REMARK SMILES IDX 38 46 39 47 42 48 40 49 66 50 67 51 75 52 68 53 69 54 73 55
REMARK SMILES IDX 76 56 70 57 71 58 74 59 72 60 51 61 52 62 60 63 53 64 54 65
REMARK SMILES IDX 58 66 61 67 55 68 56 69 59 70 57 71 6 72 7 73 8 74 9 75
REMARK SMILES IDX 10 76 11 77 12 79 13 80 14 81 24 82 15 83 17 84 23 85 16 86
REMARK SMILES IDX 18 87 21 88 19 90 20 91 22 92
REMARK H PARENT 3 6 81 24 49 35 10 78 23 89
REMARK Flexibility Score: inf
ROOT
ATOM      1  C   UNL A   1      31.393  32.280  26.679  1.00  0.00     0.021 C 
ENDROOT
BRANCH   1   2
ATOM      2  C   UNL A   1      32.630  32.873  27.342  1.00  0.00     0.116 C 
BRANCH   2   3
ATOM      3  N   UNL A   1      32.462  34.282  27.648  1.00  0.00    -0.352 N 
ATOM      4  O   UNL A   1      32.615  36.161  28.876  1.00  0.00    -0.269 OA
ATOM      5  C   UNL A   1      33.036  35.033  28.640  1.00  0.00     0.251 C 
ATOM      6  H   UNL A   1      31.843  34.769  27.056  1.00  0.00     0.163 HD
BRANCH   5   7
ATOM      7  C   UNL A   1      34.161  34.490  29.431  1.00  0.00     0.039 A 
ATOM      8  C   UNL A   1      35.445  34.522  28.881  1.00  0.00     0.014 A 
ATOM      9  C   UNL A   1      33.951  33.892  30.678  1.00  0.00     0.014 A 
ATOM     10  C   UNL A   1      36.513  33.960  29.579  1.00  0.00     0.010 A 
ATOM     11  C   UNL A   1      35.031  33.415  31.414  1.00  0.00     0.010 A 
ATOM     12  C   UNL A   1      36.315  33.402  30.853  1.00  0.00    -0.014 A 
BRANCH  12  13
ATOM     13  C   UNL A   1      37.420  32.706  31.560  1.00  0.00     0.031 A 
ATOM     14  C   UNL A   1      38.133  31.567  30.882  1.00  0.00     0.074 A 
ATOM     15  C   UNL A   1      37.780  33.087  32.801  1.00  0.00     0.049 A 
ATOM     16  N   UNL A   1      39.100  30.808  31.332  1.00  0.00    -0.248 NA
ATOM     17  C   UNL A   1      37.684  31.215  29.524  1.00  0.00     0.031 C 
ATOM     18  C   UNL A   1      37.152  34.163  33.567  1.00  0.00     0.029 A 
ATOM     19  N   UNL A   1      38.766  32.617  33.631  1.00  0.00    -0.354 N 
ATOM     20  C   UNL A   1      39.362  29.892  30.321  1.00  0.00     0.074 A 
ATOM     21  C   UNL A   1      38.411  30.139  29.264  1.00  0.00     0.031 C 
ATOM     22  C   UNL A   1      37.793  34.296  34.740  1.00  0.00     0.029 A 
ATOM     23  C   UNL A   1      38.848  33.289  34.825  1.00  0.00     0.049 A 
ATOM     24  H   UNL A   1      39.359  31.868  33.392  1.00  0.00     0.167 HD
ATOM     25  C   UNL A   1      40.336  28.955  30.264  1.00  0.00     0.037 A 
ATOM     26  C   UNL A   1      39.680  33.112  35.870  1.00  0.00     0.037 A 
ATOM     27  C   UNL A   1      41.309  28.739  31.300  1.00  0.00     0.049 A 
ATOM     28  C   UNL A   1      40.734  32.038  35.796  1.00  0.00     0.074 A 
ATOM     29  C   UNL A   1      42.367  27.849  31.314  1.00  0.00     0.029 A 
ATOM     30  N   UNL A   1      41.343  29.427  32.504  1.00  0.00    -0.354 N 
ATOM     31  N   UNL A   1      41.006  31.214  34.814  1.00  0.00    -0.248 NA
ATOM     32  C   UNL A   1      41.597  31.870  36.974  1.00  0.00     0.031 C 
ATOM     33  C   UNL A   1      43.009  27.957  32.550  1.00  0.00     0.029 A 
ATOM     34  C   UNL A   1      42.388  28.957  33.283  1.00  0.00     0.049 A 
ATOM     35  H   UNL A   1      40.719  30.141  32.767  1.00  0.00     0.167 HD
ATOM     36  C   UNL A   1      42.080  30.446  35.244  1.00  0.00     0.074 A 
ATOM     37  C   UNL A   1      42.423  30.915  36.571  1.00  0.00     0.031 C 
ATOM     38  C   UNL A   1      42.720  29.439  34.599  1.00  0.00     0.037 A 
BRANCH  25  39
ATOM     39  C   UNL A   1      40.414  28.098  29.033  1.00  0.00     0.064 A 
ATOM     40  C   UNL A   1      39.683  26.904  28.921  1.00  0.00     0.173 A 
ATOM     41  C   UNL A   1      41.173  28.507  27.927  1.00  0.00     0.173 A 
ATOM     42  F   UNL A   1      38.951  26.462  29.955  1.00  0.00    -0.203 F 
ATOM     43  C   UNL A   1      39.728  26.142  27.757  1.00  0.00     0.198 A 
ATOM     44  C   UNL A   1      41.189  27.759  26.752  1.00  0.00     0.198 A 
ATOM     45  F   UNL A   1      41.887  29.642  27.978  1.00  0.00    -0.203 F 
ATOM     46  F   UNL A   1      39.056  24.985  27.690  1.00  0.00    -0.200 F 
ATOM     47  C   UNL A   1      40.471  26.577  26.669  1.00  0.00     0.200 A 
ATOM     48  F   UNL A   1      41.896  28.188  25.697  1.00  0.00    -0.200 F 
ATOM     49  F   UNL A   1      40.497  25.852  25.542  1.00  0.00    -0.200 F 
ENDBRANCH  25  39
BRANCH  26  50
ATOM     50  C   UNL A   1      39.566  33.996  37.060  1.00  0.00     0.064 A 
ATOM     51  C   UNL A   1      40.199  35.246  37.091  1.00  0.00     0.173 A 
ATOM     52  C   UNL A   1      38.801  33.626  38.176  1.00  0.00     0.173 A 
ATOM     53  F   UNL A   1      40.959  35.638  36.057  1.00  0.00    -0.203 F 
ATOM     54  C   UNL A   1      40.078  36.088  38.195  1.00  0.00     0.198 A 
ATOM     55  C   UNL A   1      38.656  34.481  39.266  1.00  0.00     0.198 A 
ATOM     56  F   UNL A   1      38.172  32.441  38.196  1.00  0.00    -0.203 F 
ATOM     57  F   UNL A   1      40.721  37.263  38.211  1.00  0.00    -0.200 F 
ATOM     58  C   UNL A   1      39.298  35.710  39.277  1.00  0.00     0.200 A 
ATOM     59  F   UNL A   1      37.888  34.118  40.302  1.00  0.00    -0.200 F 
ATOM     60  F   UNL A   1      39.169  36.526  40.330  1.00  0.00    -0.200 F 
ENDBRANCH  26  50
BRANCH  38  61
ATOM     61  C   UNL A   1      43.866  28.771  35.302  1.00  0.00     0.064 A 
ATOM     62  C   UNL A   1      43.666  27.656  36.128  1.00  0.00     0.173 A 
ATOM     63  C   UNL A   1      45.186  29.186  35.065  1.00  0.00     0.173 A 
ATOM     64  F   UNL A   1      42.423  27.228  36.395  1.00  0.00    -0.203 F 
ATOM     65  C   UNL A   1      44.744  26.984  36.695  1.00  0.00     0.198 A 
ATOM     66  C   UNL A   1      46.263  28.492  35.608  1.00  0.00     0.198 A 
ATOM     67  F   UNL A   1      45.431  30.242  34.274  1.00  0.00    -0.203 F 
ATOM     68  F   UNL A   1      44.528  25.937  37.504  1.00  0.00    -0.200 F 
ATOM     69  C   UNL A   1      46.042  27.394  36.425  1.00  0.00     0.200 A 
ATOM     70  F   UNL A   1      47.516  28.877  35.328  1.00  0.00    -0.200 F 
ATOM     71  F   UNL A   1      47.079  26.728  36.951  1.00  0.00    -0.200 F 
ENDBRANCH  38  61
ENDBRANCH  12  13
ENDBRANCH   5   7
ENDBRANCH   2   3
ENDBRANCH   1   2
BRANCH   1  72
ATOM     72  C   UNL A   1      31.573  30.853  26.159  1.00  0.00     0.002 C 
BRANCH  72  73
ATOM     73  C   UNL A   1      32.399  29.933  27.061  1.00  0.00     0.002 C 
BRANCH  73  74
ATOM     74  C   UNL A   1      33.793  29.576  26.531  1.00  0.00     0.021 C 
BRANCH  74  75
ATOM     75  C   UNL A   1      34.094  28.078  26.489  1.00  0.00     0.116 C 
BRANCH  75  76
ATOM     76  N   UNL A   1      32.952  27.296  26.927  1.00  0.00    -0.352 N 
ATOM     77  C   UNL A   1      32.322  26.262  26.290  1.00  0.00     0.253 C 
ATOM     78  H   UNL A   1      32.579  27.545  27.803  1.00  0.00     0.163 HD
ATOM     79  O   UNL A   1      31.198  25.915  26.638  1.00  0.00    -0.269 OA
BRANCH  77  80
ATOM     80  C   UNL A   1      32.976  25.574  25.157  1.00  0.00     0.064 A 
ATOM     81  C   UNL A   1      33.987  24.633  25.404  1.00  0.00     0.016 A 
ATOM     82  C   UNL A   1      32.555  25.822  23.844  1.00  0.00     0.071 A 
ATOM     83  C   UNL A   1      34.612  23.985  24.340  1.00  0.00     0.002 A 
ATOM     84  C   UNL A   1      33.171  25.170  22.794  1.00  0.00     0.085 A 
ATOM     85  N   UNL A   1      31.538  26.717  23.541  1.00  0.00    -0.289 N 
ATOM     86  C   UNL A   1      34.206  24.255  23.032  1.00  0.00     0.018 A 
ATOM     87  C   UNL A   1      32.708  25.447  21.427  1.00  0.00     0.349 A 
ATOM     88  C   UNL A   1      31.136  27.008  22.272  1.00  0.00     0.419 A 
ATOM     89  H   UNL A   1      31.080  27.168  24.287  1.00  0.00     0.173 HD
ATOM     90  O   UNL A   1      33.217  24.848  20.486  1.00  0.00    -0.246 OA
ATOM     91  O   UNL A   1      31.741  26.369  21.239  1.00  0.00    -0.372 OA
ATOM     92  O   UNL A   1      30.251  27.837  22.078  1.00  0.00    -0.224 OA
ENDBRANCH  77  80
ENDBRANCH  75  76
ENDBRANCH  74  75
ENDBRANCH  73  74
ENDBRANCH  72  73
ENDBRANCH   1  72
TORSDOF 13
ENDMDL
