MODEL 1
REMARK VINA RESULT:     -11.8      0.000      0.000
REMARK SMILES Cc1nc([C@]2(C)CCCO2)nc(C)c1C(=O)NCCCCCCNC(=O)c1ccc(-c2c3nc(c(-c4c(F)c(F)c(F)c(F)c4F)c4ccc([nH]4)c(-c4c(F)c(F)c(F)c(F)c4F)c4nc(c(-c5c(F)c(F)c(F)c(F)c5F)c5ccc2[nH]5)C=C4)C=C3)cc1
REMARK SMILES IDX 21 1 20 2 19 3 18 4 17 5 15 6 16 7 14 9 1 10 2 11 3 12 4 13
REMARK SMILES IDX 12 14 11 15 13 16 5 17 7 18 10 19 6 20 8 21 9 22 22 23 23 24
REMARK SMILES IDX 24 25 25 26 26 28 27 29 28 30 89 31 29 32 88 33 30 34 31 35
REMARK SMILES IDX 32 36 82 37 33 38 87 39 81 40 83 41 34 42 86 43 80 44 79 45
REMARK SMILES IDX 35 47 67 48 47 49 66 50 48 51 51 52 65 53 84 54 49 55 50 56
REMARK SMILES IDX 64 58 85 59 52 60 36 61 37 62 45 63 38 64 39 65 43 66 46 67
REMARK SMILES IDX 40 68 41 69 44 70 42 71 68 72 69 73 77 74 70 75 71 76 75 77
REMARK SMILES IDX 78 78 72 79 73 80 76 81 74 82 53 83 54 84 62 85 55 86 56 87
REMARK SMILES IDX 60 88 63 89 57 90 58 91 61 92 59 93
REMARK H PARENT 17 8 24 27 83 46 51 57
REMARK Flexibility Score: inf
ROOT
ATOM      1  C   UNL A   1      31.323  30.503  25.751  1.00  0.00     0.002 C 
ENDROOT
BRANCH   1   2
ATOM      2  C   UNL A   1      32.364  29.539  26.334  1.00  0.00     0.002 C 
BRANCH   2   3
ATOM      3  C   UNL A   1      31.832  28.133  26.636  1.00  0.00     0.021 C 
BRANCH   3   4
ATOM      4  C   UNL A   1      32.852  27.034  26.322  1.00  0.00     0.116 C 
BRANCH   4   5
ATOM      5  N   UNL A   1      32.395  26.212  25.232  1.00  0.00    -0.352 N 
ATOM      6  C   UNL A   1      31.668  26.280  24.085  1.00  0.00     0.254 C 
ATOM      7  O   UNL A   1      31.662  25.174  23.530  1.00  0.00    -0.269 OA
ATOM      8  H   UNL A   1      32.719  25.291  25.359  1.00  0.00     0.163 HD
BRANCH   6   9
ATOM      9  C   UNL A   1      30.930  27.425  23.445  1.00  0.00     0.082 A 
ATOM     10  C   UNL A   1      32.836  28.959  22.578  1.00  0.00     0.068 C 
ATOM     11  C   UNL A   1      31.422  28.563  22.811  1.00  0.00     0.054 A 
ATOM     12  N   UNL A   1      30.616  29.531  22.297  1.00  0.00    -0.234 NA
ATOM     13  C   UNL A   1      29.291  29.448  22.437  1.00  0.00     0.160 A 
ATOM     14  C   UNL A   1      29.515  27.415  23.518  1.00  0.00     0.054 A 
ATOM     15  N   UNL A   1      28.712  28.398  23.018  1.00  0.00    -0.234 NA
ATOM     16  C   UNL A   1      28.698  26.338  24.186  1.00  0.00     0.068 C 
BRANCH  13  17
ATOM     17  C   UNL A   1      28.447  30.636  21.958  1.00  0.00     0.125 C 
ATOM     18  C   UNL A   1      29.147  31.974  22.199  1.00  0.00     0.046 C 
ATOM     19  O   UNL A   1      27.233  30.730  22.748  1.00  0.00    -0.367 OA
ATOM     20  C   UNL A   1      28.030  30.485  20.494  1.00  0.00     0.051 C 
ATOM     21  C   UNL A   1      28.796  32.313  23.631  1.00  0.00     0.032 C 
ATOM     22  C   UNL A   1      27.489  31.580  23.875  1.00  0.00     0.161 C 
ENDBRANCH  13  17
ENDBRANCH   6   9
ENDBRANCH   4   5
ENDBRANCH   3   4
ENDBRANCH   2   3
ENDBRANCH   1   2
BRANCH   1  23
ATOM     23  C   UNL A   1      31.207  31.843  26.483  1.00  0.00     0.021 C 
BRANCH  23  24
ATOM     24  C   UNL A   1      32.547  32.446  26.890  1.00  0.00     0.116 C 
BRANCH  24  25
ATOM     25  N   UNL A   1      32.397  33.825  27.329  1.00  0.00    -0.352 N 
ATOM     26  C   UNL A   1      32.998  34.474  28.371  1.00  0.00     0.251 C 
ATOM     27  H   UNL A   1      31.772  34.369  26.798  1.00  0.00     0.163 HD
ATOM     28  O   UNL A   1      32.557  35.556  28.764  1.00  0.00    -0.269 OA
BRANCH  26  29
ATOM     29  C   UNL A   1      34.179  33.883  29.024  1.00  0.00     0.039 A 
ATOM     30  C   UNL A   1      35.447  34.376  28.709  1.00  0.00     0.014 A 
ATOM     31  C   UNL A   1      34.036  32.817  29.919  1.00  0.00     0.014 A 
ATOM     32  C   UNL A   1      36.572  33.826  29.324  1.00  0.00     0.010 A 
ATOM     33  C   UNL A   1      35.150  32.317  30.582  1.00  0.00     0.010 A 
ATOM     34  C   UNL A   1      36.428  32.808  30.281  1.00  0.00    -0.014 A 
BRANCH  34  35
ATOM     35  C   UNL A   1      37.609  32.230  30.967  1.00  0.00     0.031 A 
ATOM     36  C   UNL A   1      38.415  31.156  30.292  1.00  0.00     0.074 A 
ATOM     37  C   UNL A   1      37.910  32.627  32.216  1.00  0.00     0.049 A 
ATOM     38  N   UNL A   1      39.430  30.471  30.754  1.00  0.00    -0.248 NA
ATOM     39  C   UNL A   1      38.010  30.782  28.927  1.00  0.00     0.031 C 
ATOM     40  C   UNL A   1      37.170  33.629  32.987  1.00  0.00     0.029 A 
ATOM     41  N   UNL A   1      38.911  32.228  33.066  1.00  0.00    -0.354 N 
ATOM     42  C   UNL A   1      39.772  29.579  29.747  1.00  0.00     0.074 A 
ATOM     43  C   UNL A   1      38.829  29.773  28.668  1.00  0.00     0.031 C 
ATOM     44  C   UNL A   1      37.752  33.778  34.187  1.00  0.00     0.029 A 
ATOM     45  C   UNL A   1      38.881  32.859  34.285  1.00  0.00     0.049 A 
ATOM     46  H   UNL A   1      39.585  31.553  32.823  1.00  0.00     0.167 HD
ATOM     47  C   UNL A   1      40.796  28.693  29.718  1.00  0.00     0.037 A 
ATOM     48  C   UNL A   1      39.674  32.705  35.362  1.00  0.00     0.037 A 
ATOM     49  C   UNL A   1      41.750  28.529  30.782  1.00  0.00     0.049 A 
ATOM     50  C   UNL A   1      40.808  31.717  35.298  1.00  0.00     0.074 A 
ATOM     51  C   UNL A   1      42.862  27.705  30.825  1.00  0.00     0.029 A 
ATOM     52  N   UNL A   1      41.707  29.207  31.991  1.00  0.00    -0.354 N 
ATOM     53  N   UNL A   1      41.163  30.926  34.315  1.00  0.00    -0.248 NA
ATOM     54  C   UNL A   1      41.657  31.608  36.492  1.00  0.00     0.031 C 
ATOM     55  C   UNL A   1      43.466  27.853  32.077  1.00  0.00     0.029 A 
ATOM     56  C   UNL A   1      42.762  28.805  32.795  1.00  0.00     0.049 A 
ATOM     57  H   UNL A   1      41.029  29.875  32.241  1.00  0.00     0.167 HD
ATOM     58  C   UNL A   1      42.291  30.249  34.758  1.00  0.00     0.074 A 
ATOM     59  C   UNL A   1      42.569  30.732  36.095  1.00  0.00     0.031 C 
ATOM     60  C   UNL A   1      43.029  29.310  34.117  1.00  0.00     0.037 A 
BRANCH  47  61
ATOM     61  C   UNL A   1      40.944  27.837  28.495  1.00  0.00     0.064 A 
ATOM     62  C   UNL A   1      40.280  26.607  28.374  1.00  0.00     0.173 A 
ATOM     63  C   UNL A   1      41.721  28.271  27.411  1.00  0.00     0.173 A 
ATOM     64  F   UNL A   1      39.534  26.140  29.388  1.00  0.00    -0.203 F 
ATOM     65  C   UNL A   1      40.404  25.835  27.223  1.00  0.00     0.198 A 
ATOM     66  C   UNL A   1      41.820  27.510  26.249  1.00  0.00     0.198 A 
ATOM     67  F   UNL A   1      42.374  29.441  27.473  1.00  0.00    -0.203 F 
ATOM     68  F   UNL A   1      39.793  24.644  27.146  1.00  0.00    -0.200 F 
ATOM     69  C   UNL A   1      41.167  26.291  26.158  1.00  0.00     0.200 A 
ATOM     70  F   UNL A   1      42.548  27.958  25.217  1.00  0.00    -0.200 F 
ATOM     71  F   UNL A   1      41.277  25.552  25.045  1.00  0.00    -0.200 F 
ENDBRANCH  47  61
BRANCH  48  72
ATOM     72  C   UNL A   1      39.439  33.518  36.582  1.00  0.00     0.064 A 
ATOM     73  C   UNL A   1      38.663  33.023  37.638  1.00  0.00     0.173 A 
ATOM     74  C   UNL A   1      39.974  34.809  36.714  1.00  0.00     0.173 A 
ATOM     75  F   UNL A   1      38.116  31.802  37.551  1.00  0.00    -0.203 F 
ATOM     76  C   UNL A   1      38.407  33.797  38.769  1.00  0.00     0.198 A 
ATOM     77  C   UNL A   1      39.741  35.570  37.857  1.00  0.00     0.198 A 
ATOM     78  F   UNL A   1      40.730  35.326  35.734  1.00  0.00    -0.203 F 
ATOM     79  F   UNL A   1      37.621  33.318  39.741  1.00  0.00    -0.200 F 
ATOM     80  C   UNL A   1      38.951  35.067  38.879  1.00  0.00     0.200 A 
ATOM     81  F   UNL A   1      40.281  36.792  37.966  1.00  0.00    -0.200 F 
ATOM     82  F   UNL A   1      38.706  35.811  39.966  1.00  0.00    -0.200 F 
ENDBRANCH  48  72
BRANCH  60  83
ATOM     83  C   UNL A   1      44.231  28.773  34.837  1.00  0.00     0.064 A 
ATOM     84  C   UNL A   1      45.480  29.404  34.753  1.00  0.00     0.173 A 
ATOM     85  C   UNL A   1      44.120  27.637  35.652  1.00  0.00     0.173 A 
ATOM     86  F   UNL A   1      45.640  30.485  33.973  1.00  0.00    -0.203 F 
ATOM     87  C   UNL A   1      46.582  28.902  35.441  1.00  0.00     0.198 A 
ATOM     88  C   UNL A   1      45.216  27.155  36.362  1.00  0.00     0.198 A 
ATOM     89  F   UNL A   1      42.944  27.002  35.770  1.00  0.00    -0.203 F 
ATOM     90  F   UNL A   1      47.777  29.493  35.310  1.00  0.00    -0.200 F 
ATOM     91  C   UNL A   1      46.446  27.783  36.250  1.00  0.00     0.200 A 
ATOM     92  F   UNL A   1      45.080  26.083  37.154  1.00  0.00    -0.200 F 
ATOM     93  F   UNL A   1      47.506  27.306  36.917  1.00  0.00    -0.200 F 
ENDBRANCH  60  83
ENDBRANCH  34  35
ENDBRANCH  26  29
ENDBRANCH  24  25
ENDBRANCH  23  24
ENDBRANCH   1  23
TORSDOF 14
ENDMDL
MODEL 2
REMARK VINA RESULT:     -11.7      1.552      3.483
REMARK SMILES Cc1nc([C@]2(C)CCCO2)nc(C)c1C(=O)NCCCCCCNC(=O)c1ccc(-c2c3nc(c(-c4c(F)c(F)c(F)c(F)c4F)c4ccc([nH]4)c(-c4c(F)c(F)c(F)c(F)c4F)c4nc(c(-c5c(F)c(F)c(F)c(F)c5F)c5ccc2[nH]5)C=C4)C=C3)cc1
REMARK SMILES IDX 21 1 20 2 19 3 18 4 17 5 15 6 16 7 14 9 1 10 2 11 3 12 4 13
REMARK SMILES IDX 12 14 11 15 13 16 5 17 7 18 10 19 6 20 8 21 9 22 22 23 23 24
REMARK SMILES IDX 24 25 25 26 26 28 27 29 28 30 89 31 29 32 88 33 30 34 31 35
REMARK SMILES IDX 32 36 82 37 33 38 87 39 81 40 83 41 34 42 86 43 80 44 79 45
REMARK SMILES IDX 35 47 67 48 47 49 66 50 48 51 51 52 65 53 84 54 49 55 50 56
REMARK SMILES IDX 64 58 85 59 52 60 36 61 37 62 45 63 38 64 39 65 43 66 46 67
REMARK SMILES IDX 40 68 41 69 44 70 42 71 68 72 69 73 77 74 70 75 71 76 75 77
REMARK SMILES IDX 78 78 72 79 73 80 76 81 74 82 53 83 54 84 62 85 55 86 56 87
REMARK SMILES IDX 60 88 63 89 57 90 58 91 61 92 59 93
REMARK H PARENT 17 8 24 27 83 46 51 57
REMARK Flexibility Score: inf
ROOT
ATOM      1  C   UNL A   1      31.403  30.906  25.947  1.00  0.00     0.002 C 
ENDROOT
BRANCH   1   2
ATOM      2  C   UNL A   1      30.610  30.653  24.658  1.00  0.00     0.002 C 
BRANCH   2   3
ATOM      3  C   UNL A   1      30.665  29.208  24.149  1.00  0.00     0.021 C 
BRANCH   3   4
ATOM      4  C   UNL A   1      30.934  29.120  22.644  1.00  0.00     0.116 C 
BRANCH   4   5
ATOM      5  N   UNL A   1      32.344  28.982  22.385  1.00  0.00    -0.352 N 
ATOM      6  C   UNL A   1      33.370  28.104  22.546  1.00  0.00     0.254 C 
ATOM      7  O   UNL A   1      34.403  28.577  22.056  1.00  0.00    -0.269 OA
ATOM      8  H   UNL A   1      32.676  29.795  21.941  1.00  0.00     0.163 HD
BRANCH   6   9
ATOM      9  C   UNL A   1      33.419  26.742  23.185  1.00  0.00     0.082 A 
ATOM     10  C   UNL A   1      32.903  25.134  21.213  1.00  0.00     0.068 C 
ATOM     11  C   UNL A   1      33.217  25.483  22.623  1.00  0.00     0.054 A 
ATOM     12  N   UNL A   1      33.273  24.332  23.347  1.00  0.00    -0.234 NA
ATOM     13  C   UNL A   1      33.474  24.376  24.666  1.00  0.00     0.160 A 
ATOM     14  C   UNL A   1      33.652  26.681  24.581  1.00  0.00     0.054 A 
ATOM     15  N   UNL A   1      33.689  25.526  25.304  1.00  0.00    -0.234 NA
ATOM     16  C   UNL A   1      33.860  27.881  25.469  1.00  0.00     0.068 C 
BRANCH  13  17
ATOM     17  C   UNL A   1      33.389  23.057  25.444  1.00  0.00     0.125 C 
ATOM     18  C   UNL A   1      34.385  23.006  26.604  1.00  0.00     0.046 C 
ATOM     19  O   UNL A   1      33.792  21.954  24.590  1.00  0.00    -0.367 OA
ATOM     20  C   UNL A   1      31.965  22.768  25.923  1.00  0.00     0.051 C 
ATOM     21  C   UNL A   1      35.669  22.534  25.957  1.00  0.00     0.032 C 
ATOM     22  C   UNL A   1      35.206  21.758  24.737  1.00  0.00     0.161 C 
ENDBRANCH  13  17
ENDBRANCH   6   9
ENDBRANCH   4   5
ENDBRANCH   3   4
ENDBRANCH   2   3
ENDBRANCH   1   2
BRANCH   1  23
ATOM     23  C   UNL A   1      31.291  32.328  26.501  1.00  0.00     0.021 C 
BRANCH  23  24
ATOM     24  C   UNL A   1      32.532  32.801  27.252  1.00  0.00     0.116 C 
BRANCH  24  25
ATOM     25  N   UNL A   1      32.423  34.204  27.625  1.00  0.00    -0.352 N 
ATOM     26  C   UNL A   1      33.036  34.880  28.642  1.00  0.00     0.251 C 
ATOM     27  H   UNL A   1      31.821  34.743  27.063  1.00  0.00     0.163 HD
ATOM     28  O   UNL A   1      32.629  35.993  28.981  1.00  0.00    -0.269 OA
BRANCH  26  29
ATOM     29  C   UNL A   1      34.193  34.282  29.333  1.00  0.00     0.039 A 
ATOM     30  C   UNL A   1      33.973  33.472  30.449  1.00  0.00     0.014 A 
ATOM     31  C   UNL A   1      35.495  34.551  28.898  1.00  0.00     0.014 A 
ATOM     32  C   UNL A   1      35.060  32.898  31.107  1.00  0.00     0.010 A 
ATOM     33  C   UNL A   1      36.573  33.924  29.512  1.00  0.00     0.010 A 
ATOM     34  C   UNL A   1      36.366  33.102  30.630  1.00  0.00    -0.014 A 
BRANCH  34  35
ATOM     35  C   UNL A   1      37.532  32.478  31.298  1.00  0.00     0.031 A 
ATOM     36  C   UNL A   1      38.275  31.362  30.619  1.00  0.00     0.074 A 
ATOM     37  C   UNL A   1      37.877  32.874  32.536  1.00  0.00     0.049 A 
ATOM     38  N   UNL A   1      39.267  30.635  31.068  1.00  0.00    -0.248 NA
ATOM     39  C   UNL A   1      37.825  30.993  29.267  1.00  0.00     0.031 C 
ATOM     40  C   UNL A   1      37.200  33.916  33.311  1.00  0.00     0.029 A 
ATOM     41  N   UNL A   1      38.876  32.438  33.370  1.00  0.00    -0.354 N 
ATOM     42  C   UNL A   1      39.547  29.718  30.064  1.00  0.00     0.074 A 
ATOM     43  C   UNL A   1      38.590  29.944  29.002  1.00  0.00     0.031 C 
ATOM     44  C   UNL A   1      37.813  34.050  34.497  1.00  0.00     0.029 A 
ATOM     45  C   UNL A   1      38.902  33.081  34.582  1.00  0.00     0.049 A 
ATOM     46  H   UNL A   1      39.514  31.729  33.121  1.00  0.00     0.167 HD
ATOM     47  C   UNL A   1      40.527  28.786  30.023  1.00  0.00     0.037 A 
ATOM     48  C   UNL A   1      39.709  32.902  35.644  1.00  0.00     0.037 A 
ATOM     49  C   UNL A   1      41.496  28.589  31.069  1.00  0.00     0.049 A 
ATOM     50  C   UNL A   1      40.795  31.863  35.568  1.00  0.00     0.074 A 
ATOM     51  C   UNL A   1      42.569  27.715  31.099  1.00  0.00     0.029 A 
ATOM     52  N   UNL A   1      41.509  29.280  32.271  1.00  0.00    -0.354 N 
ATOM     53  N   UNL A   1      41.093  31.046  34.586  1.00  0.00    -0.248 NA
ATOM     54  C   UNL A   1      41.663  31.726  36.745  1.00  0.00     0.031 C 
ATOM     55  C   UNL A   1      43.206  27.848  32.336  1.00  0.00     0.029 A 
ATOM     56  C   UNL A   1      42.561  28.838  33.058  1.00  0.00     0.049 A 
ATOM     57  H   UNL A   1      40.867  29.981  32.528  1.00  0.00     0.167 HD
ATOM     58  C   UNL A   1      42.198  30.322  35.014  1.00  0.00     0.074 A 
ATOM     59  C   UNL A   1      42.526  30.805  36.339  1.00  0.00     0.031 C 
ATOM     60  C   UNL A   1      42.878  29.344  34.369  1.00  0.00     0.037 A 
BRANCH  47  61
ATOM     61  C   UNL A   1      40.611  27.911  28.807  1.00  0.00     0.064 A 
ATOM     62  C   UNL A   1      39.881  26.717  28.709  1.00  0.00     0.173 A 
ATOM     63  C   UNL A   1      41.392  28.294  27.707  1.00  0.00     0.173 A 
ATOM     64  F   UNL A   1      39.129  26.300  29.739  1.00  0.00    -0.203 F 
ATOM     65  C   UNL A   1      39.946  25.929  27.564  1.00  0.00     0.198 A 
ATOM     66  C   UNL A   1      41.432  27.518  26.551  1.00  0.00     0.198 A 
ATOM     67  F   UNL A   1      42.107  29.428  27.746  1.00  0.00    -0.203 F 
ATOM     68  F   UNL A   1      39.272  24.771  27.510  1.00  0.00    -0.200 F 
ATOM     69  C   UNL A   1      40.714  26.334  26.483  1.00  0.00     0.200 A 
ATOM     70  F   UNL A   1      42.166  27.917  25.503  1.00  0.00    -0.200 F 
ATOM     71  F   UNL A   1      40.767  25.580  25.376  1.00  0.00    -0.200 F 
ENDBRANCH  47  61
BRANCH  48  72
ATOM     72  C   UNL A   1      39.537  33.737  36.860  1.00  0.00     0.064 A 
ATOM     73  C   UNL A   1      38.756  33.292  37.934  1.00  0.00     0.173 A 
ATOM     74  C   UNL A   1      40.138  35.000  36.969  1.00  0.00     0.173 A 
ATOM     75  F   UNL A   1      38.146  32.099  37.869  1.00  0.00    -0.203 F 
ATOM     76  C   UNL A   1      38.560  34.088  39.061  1.00  0.00     0.198 A 
ATOM     77  C   UNL A   1      39.965  35.783  38.108  1.00  0.00     0.198 A 
ATOM     78  F   UNL A   1      40.902  35.469  35.971  1.00  0.00    -0.203 F 
ATOM     79  F   UNL A   1      37.767  33.659  40.052  1.00  0.00    -0.200 F 
ATOM     80  C   UNL A   1      39.168  35.331  39.149  1.00  0.00     0.200 A 
ATOM     81  F   UNL A   1      40.567  36.977  38.196  1.00  0.00    -0.200 F 
ATOM     82  F   UNL A   1      38.981  36.096  40.233  1.00  0.00    -0.200 F 
ENDBRANCH  48  72
BRANCH  60  83
ATOM     83  C   UNL A   1      44.070  28.760  35.069  1.00  0.00     0.064 A 
ATOM     84  C   UNL A   1      45.345  29.328  34.947  1.00  0.00     0.173 A 
ATOM     85  C   UNL A   1      43.922  27.643  35.905  1.00  0.00     0.173 A 
ATOM     86  F   UNL A   1      45.539  30.387  34.146  1.00  0.00    -0.203 F 
ATOM     87  C   UNL A   1      46.437  28.782  35.618  1.00  0.00     0.198 A 
ATOM     88  C   UNL A   1      45.009  27.119  36.598  1.00  0.00     0.198 A 
ATOM     89  F   UNL A   1      42.720  27.068  36.061  1.00  0.00    -0.203 F 
ATOM     90  F   UNL A   1      47.656  29.312  35.450  1.00  0.00    -0.200 F 
ATOM     91  C   UNL A   1      46.267  27.684  36.447  1.00  0.00     0.200 A 
ATOM     92  F   UNL A   1      44.841  26.066  37.410  1.00  0.00    -0.200 F 
ATOM     93  F   UNL A   1      47.317  27.165  37.099  1.00  0.00    -0.200 F 
ENDBRANCH  60  83
ENDBRANCH  34  35
ENDBRANCH  26  29
ENDBRANCH  24  25
ENDBRANCH  23  24
ENDBRANCH   1  23
TORSDOF 14
ENDMDL
MODEL 3
REMARK VINA RESULT:     -11.7      1.452      3.684
REMARK SMILES Cc1nc([C@]2(C)CCCO2)nc(C)c1C(=O)NCCCCCCNC(=O)c1ccc(-c2c3nc(c(-c4c(F)c(F)c(F)c(F)c4F)c4ccc([nH]4)c(-c4c(F)c(F)c(F)c(F)c4F)c4nc(c(-c5c(F)c(F)c(F)c(F)c5F)c5ccc2[nH]5)C=C4)C=C3)cc1
REMARK SMILES IDX 21 1 20 2 19 3 18 4 17 5 15 6 16 7 14 9 1 10 2 11 3 12 4 13
REMARK SMILES IDX 12 14 11 15 13 16 5 17 7 18 10 19 6 20 8 21 9 22 22 23 23 24
REMARK SMILES IDX 24 25 25 26 26 28 27 29 28 30 89 31 29 32 88 33 30 34 31 35
REMARK SMILES IDX 32 36 82 37 33 38 87 39 81 40 83 41 34 42 86 43 80 44 79 45
REMARK SMILES IDX 35 47 67 48 47 49 66 50 48 51 51 52 65 53 84 54 49 55 50 56
REMARK SMILES IDX 64 58 85 59 52 60 36 61 37 62 45 63 38 64 39 65 43 66 46 67
REMARK SMILES IDX 40 68 41 69 44 70 42 71 68 72 69 73 77 74 70 75 71 76 75 77
REMARK SMILES IDX 78 78 72 79 73 80 76 81 74 82 53 83 54 84 62 85 55 86 56 87
REMARK SMILES IDX 60 88 63 89 57 90 58 91 61 92 59 93
REMARK H PARENT 17 8 24 27 83 46 51 57
REMARK Flexibility Score: inf
ROOT
ATOM      1  C   UNL A   1      31.361  30.830  25.750  1.00  0.00     0.002 C 
ENDROOT
BRANCH   1   2
ATOM      2  C   UNL A   1      30.447  30.618  24.536  1.00  0.00     0.002 C 
BRANCH   2   3
ATOM      3  C   UNL A   1      30.460  29.194  23.968  1.00  0.00     0.021 C 
BRANCH   3   4
ATOM      4  C   UNL A   1      30.875  29.147  22.495  1.00  0.00     0.116 C 
BRANCH   4   5
ATOM      5  N   UNL A   1      32.301  28.992  22.371  1.00  0.00    -0.352 N 
ATOM      6  C   UNL A   1      33.319  28.189  22.781  1.00  0.00     0.254 C 
ATOM      7  O   UNL A   1      34.382  28.576  22.280  1.00  0.00    -0.269 OA
ATOM      8  H   UNL A   1      32.659  29.705  21.796  1.00  0.00     0.163 HD
BRANCH   6   9
ATOM      9  C   UNL A   1      33.331  26.987  23.687  1.00  0.00     0.082 A 
ATOM     10  C   UNL A   1      33.889  27.993  26.014  1.00  0.00     0.068 C 
ATOM     11  C   UNL A   1      33.577  26.901  25.055  1.00  0.00     0.054 A 
ATOM     12  N   UNL A   1      33.574  25.722  25.735  1.00  0.00    -0.234 NA
ATOM     13  C   UNL A   1      33.385  24.571  25.085  1.00  0.00     0.160 A 
ATOM     14  C   UNL A   1      33.114  25.718  23.095  1.00  0.00     0.054 A 
ATOM     15  N   UNL A   1      33.130  24.538  23.778  1.00  0.00    -0.234 NA
ATOM     16  C   UNL A   1      32.868  25.488  21.626  1.00  0.00     0.068 C 
BRANCH  13  17
ATOM     17  C   UNL A   1      33.529  23.269  25.884  1.00  0.00     0.125 C 
ATOM     18  C   UNL A   1      32.849  22.088  25.191  1.00  0.00     0.046 C 
ATOM     19  O   UNL A   1      32.824  23.386  27.148  1.00  0.00    -0.367 OA
ATOM     20  C   UNL A   1      34.993  22.957  26.204  1.00  0.00     0.051 C 
ATOM     21  C   UNL A   1      31.406  22.191  25.634  1.00  0.00     0.032 C 
ATOM     22  C   UNL A   1      31.478  22.926  26.961  1.00  0.00     0.161 C 
ENDBRANCH  13  17
ENDBRANCH   6   9
ENDBRANCH   4   5
ENDBRANCH   3   4
ENDBRANCH   2   3
ENDBRANCH   1   2
BRANCH   1  23
ATOM     23  C   UNL A   1      31.185  32.174  26.460  1.00  0.00     0.021 C 
BRANCH  23  24
ATOM     24  C   UNL A   1      32.411  32.625  27.248  1.00  0.00     0.116 C 
BRANCH  24  25
ATOM     25  N   UNL A   1      32.364  34.051  27.531  1.00  0.00    -0.352 N 
ATOM     26  C   UNL A   1      33.024  34.767  28.490  1.00  0.00     0.251 C 
ATOM     27  H   UNL A   1      31.771  34.577  26.947  1.00  0.00     0.163 HD
ATOM     28  O   UNL A   1      32.666  35.914  28.764  1.00  0.00    -0.269 OA
BRANCH  26  29
ATOM     29  C   UNL A   1      34.171  34.169  29.196  1.00  0.00     0.039 A 
ATOM     30  C   UNL A   1      33.935  33.257  30.226  1.00  0.00     0.014 A 
ATOM     31  C   UNL A   1      35.479  34.539  28.863  1.00  0.00     0.014 A 
ATOM     32  C   UNL A   1      35.013  32.682  30.898  1.00  0.00     0.010 A 
ATOM     33  C   UNL A   1      36.553  33.914  29.487  1.00  0.00     0.010 A 
ATOM     34  C   UNL A   1      36.330  32.991  30.518  1.00  0.00    -0.014 A 
BRANCH  34  35
ATOM     35  C   UNL A   1      37.490  32.369  31.200  1.00  0.00     0.031 A 
ATOM     36  C   UNL A   1      38.229  31.239  30.540  1.00  0.00     0.074 A 
ATOM     37  C   UNL A   1      37.832  32.781  32.434  1.00  0.00     0.049 A 
ATOM     38  N   UNL A   1      39.215  30.513  31.003  1.00  0.00    -0.248 NA
ATOM     39  C   UNL A   1      37.782  30.854  29.191  1.00  0.00     0.031 C 
ATOM     40  C   UNL A   1      37.158  33.838  33.191  1.00  0.00     0.029 A 
ATOM     41  N   UNL A   1      38.825  32.351  33.278  1.00  0.00    -0.354 N 
ATOM     42  C   UNL A   1      39.494  29.581  30.014  1.00  0.00     0.074 A 
ATOM     43  C   UNL A   1      38.543  29.797  28.945  1.00  0.00     0.031 C 
ATOM     44  C   UNL A   1      37.766  33.985  34.378  1.00  0.00     0.029 A 
ATOM     45  C   UNL A   1      38.849  33.011  34.481  1.00  0.00     0.049 A 
ATOM     46  H   UNL A   1      39.459  31.635  33.042  1.00  0.00     0.167 HD
ATOM     47  C   UNL A   1      40.469  28.643  29.991  1.00  0.00     0.037 A 
ATOM     48  C   UNL A   1      39.650  32.842  35.549  1.00  0.00     0.037 A 
ATOM     49  C   UNL A   1      41.432  28.455  31.044  1.00  0.00     0.049 A 
ATOM     50  C   UNL A   1      40.731  31.796  35.493  1.00  0.00     0.074 A 
ATOM     51  C   UNL A   1      42.500  27.575  31.090  1.00  0.00     0.029 A 
ATOM     52  N   UNL A   1      41.444  29.163  32.236  1.00  0.00    -0.354 N 
ATOM     53  N   UNL A   1      41.028  30.964  34.524  1.00  0.00    -0.248 NA
ATOM     54  C   UNL A   1      41.593  31.671  36.675  1.00  0.00     0.031 C 
ATOM     55  C   UNL A   1      43.132  27.723  32.328  1.00  0.00     0.029 A 
ATOM     56  C   UNL A   1      42.490  28.726  33.033  1.00  0.00     0.049 A 
ATOM     57  H   UNL A   1      40.805  29.871  32.480  1.00  0.00     0.167 HD
ATOM     58  C   UNL A   1      42.127  30.240  34.966  1.00  0.00     0.074 A 
ATOM     59  C   UNL A   1      42.452  30.740  36.286  1.00  0.00     0.031 C 
ATOM     60  C   UNL A   1      42.804  29.249  34.338  1.00  0.00     0.037 A 
BRANCH  47  61
ATOM     61  C   UNL A   1      40.553  27.750  28.788  1.00  0.00     0.064 A 
ATOM     62  C   UNL A   1      41.369  28.068  27.692  1.00  0.00     0.173 A 
ATOM     63  C   UNL A   1      39.847  26.538  28.750  1.00  0.00     0.173 A 
ATOM     64  F   UNL A   1      42.055  29.221  27.674  1.00  0.00    -0.203 F 
ATOM     65  C   UNL A   1      41.459  27.217  26.594  1.00  0.00     0.198 A 
ATOM     66  C   UNL A   1      39.962  25.675  27.662  1.00  0.00     0.198 A 
ATOM     67  F   UNL A   1      39.055  26.184  29.772  1.00  0.00    -0.203 F 
ATOM     68  F   UNL A   1      42.213  27.562  25.540  1.00  0.00    -0.200 F 
ATOM     69  C   UNL A   1      40.763  26.018  26.583  1.00  0.00     0.200 A 
ATOM     70  F   UNL A   1      39.297  24.511  27.659  1.00  0.00    -0.200 F 
ATOM     71  F   UNL A   1      40.859  25.194  25.531  1.00  0.00    -0.200 F 
ENDBRANCH  47  61
BRANCH  48  72
ATOM     72  C   UNL A   1      39.478  33.696  36.752  1.00  0.00     0.064 A 
ATOM     73  C   UNL A   1      40.094  34.952  36.836  1.00  0.00     0.173 A 
ATOM     74  C   UNL A   1      38.708  33.272  37.845  1.00  0.00     0.173 A 
ATOM     75  F   UNL A   1      40.855  35.393  35.823  1.00  0.00    -0.203 F 
ATOM     76  C   UNL A   1      39.968  35.741  37.977  1.00  0.00     0.198 A 
ATOM     77  C   UNL A   1      38.560  34.074  38.974  1.00  0.00     0.198 A 
ATOM     78  F   UNL A   1      38.093  32.081  37.812  1.00  0.00    -0.203 F 
ATOM     79  F   UNL A   1      40.608  36.916  38.051  1.00  0.00    -0.200 F 
ATOM     80  C   UNL A   1      39.197  35.304  39.043  1.00  0.00     0.200 A 
ATOM     81  F   UNL A   1      37.802  33.654  39.996  1.00  0.00    -0.200 F 
ATOM     82  F   UNL A   1      39.075  36.063  40.141  1.00  0.00    -0.200 F 
ENDBRANCH  48  72
BRANCH  60  83
ATOM     83  C   UNL A   1      43.990  28.668  35.052  1.00  0.00     0.064 A 
ATOM     84  C   UNL A   1      45.268  29.230  34.932  1.00  0.00     0.173 A 
ATOM     85  C   UNL A   1      43.833  27.560  35.898  1.00  0.00     0.173 A 
ATOM     86  F   UNL A   1      45.470  30.281  34.122  1.00  0.00    -0.203 F 
ATOM     87  C   UNL A   1      46.353  28.688  35.615  1.00  0.00     0.198 A 
ATOM     88  C   UNL A   1      44.914  27.039  36.603  1.00  0.00     0.198 A 
ATOM     89  F   UNL A   1      42.629  26.990  36.052  1.00  0.00    -0.203 F 
ATOM     90  F   UNL A   1      47.576  29.212  35.450  1.00  0.00    -0.200 F 
ATOM     91  C   UNL A   1      46.174  27.599  36.455  1.00  0.00     0.200 A 
ATOM     92  F   UNL A   1      44.737  25.995  37.424  1.00  0.00    -0.200 F 
ATOM     93  F   UNL A   1      47.219  27.083  37.118  1.00  0.00    -0.200 F 
ENDBRANCH  60  83
ENDBRANCH  34  35
ENDBRANCH  26  29
ENDBRANCH  24  25
ENDBRANCH  23  24
ENDBRANCH   1  23
TORSDOF 14
ENDMDL
