MODEL 1
REMARK VINA RESULT:     -12.7      0.000      0.000
REMARK SMILES Cc1ccc(C)c(/C=C2\SC(=S)N(CC(=O)NCCCCCCNC(=O)c3ccc(-c4c5nc(c(-c6c(F)c(F)c(F)c(F)c6F)c6ccc([nH]6)c(-c6c(F)c(F)c(F)c(F)c6F)c6nc(c(-c7c(F)c(F)c(F)c(F)c7F)c7ccc4[nH]7)C=C6)C=C5)cc3)C2=O)c1
REMARK SMILES IDX 20 1 19 2 18 3 17 4 15 5 16 6 14 8 13 9 8 10 9 11 10 12
REMARK SMILES IDX 90 13 11 14 91 15 12 16 7 17 1 18 2 19 3 20 92 21 4 22 5 23
REMARK SMILES IDX 6 24 21 25 22 26 23 27 24 28 25 29 26 31 27 32 28 33 89 34
REMARK SMILES IDX 29 35 88 36 30 37 31 38 32 39 82 40 33 41 87 42 81 43 83 44
REMARK SMILES IDX 34 45 86 46 80 47 79 48 35 50 67 51 47 52 66 53 48 54 51 55
REMARK SMILES IDX 65 56 84 57 49 58 50 59 64 61 85 62 52 63 36 64 37 65 45 66
REMARK SMILES IDX 38 67 39 68 43 69 46 70 40 71 41 72 44 73 42 74 68 75 69 76
REMARK SMILES IDX 77 77 70 78 71 79 75 80 78 81 72 82 73 83 76 84 74 85 53 86
REMARK SMILES IDX 54 87 62 88 55 89 56 90 60 91 63 92 57 93 58 94 61 95 59 96
REMARK H PARENT 17 7 24 30 83 49 51 60
REMARK Flexibility Score: inf
ROOT
ATOM      1  C   UNL A   1      31.039  27.316  26.777  1.00  0.00     0.002 C 
ENDROOT
BRANCH   1   2
ATOM      2  C   UNL A   1      31.496  27.116  25.331  1.00  0.00     0.021 C 
BRANCH   2   3
ATOM      3  C   UNL A   1      31.258  25.707  24.800  1.00  0.00     0.116 C 
BRANCH   3   4
ATOM      4  N   UNL A   1      31.433  24.703  25.827  1.00  0.00    -0.355 N 
ATOM      5  C   UNL A   1      32.266  23.628  25.903  1.00  0.00     0.240 C 
ATOM      6  O   UNL A   1      32.409  23.118  27.020  1.00  0.00    -0.273 OA
ATOM      7  H   UNL A   1      30.845  24.817  26.609  1.00  0.00     0.163 HD
BRANCH   5   8
ATOM      8  C   UNL A   1      33.143  23.173  24.728  1.00  0.00     0.227 C 
BRANCH   8   9
ATOM      9  N   UNL A   1      34.501  22.776  25.087  1.00  0.00    -0.283 N 
ATOM     10  C   UNL A   1      37.749  23.988  26.052  1.00  0.00     0.029 C 
ATOM     11  C   UNL A   1      36.728  23.207  25.682  1.00  0.00     0.081 C 
ATOM     12  S   UNL A   1      36.647  21.495  25.698  1.00  0.00    -0.054 SA
ATOM     13  C   UNL A   1      35.428  23.781  25.273  1.00  0.00     0.266 C 
ATOM     14  C   UNL A   1      34.979  21.484  25.143  1.00  0.00     0.148 C 
ATOM     15  O   UNL A   1      35.222  24.986  25.151  1.00  0.00    -0.268 OA
ATOM     16  S   UNL A   1      34.182  20.063  24.784  1.00  0.00    -0.052 S 
BRANCH  10  17
ATOM     17  C   UNL A   1      38.998  23.501  26.643  1.00  0.00    -0.021 A 
ATOM     18  C   UNL A   1      41.133  20.355  26.623  1.00  0.00     0.044 C 
ATOM     19  C   UNL A   1      40.678  21.762  26.869  1.00  0.00    -0.051 A 
ATOM     20  C   UNL A   1      41.440  22.615  27.674  1.00  0.00     0.004 A 
ATOM     21  C   UNL A   1      39.481  22.230  26.317  1.00  0.00     0.011 A 
ATOM     22  C   UNL A   1      40.949  23.873  28.025  1.00  0.00     0.004 A 
ATOM     23  C   UNL A   1      39.697  24.299  27.562  1.00  0.00    -0.044 A 
ATOM     24  C   UNL A   1      39.115  25.590  28.062  1.00  0.00     0.045 C 
ENDBRANCH  10  17
ENDBRANCH   8   9
ENDBRANCH   5   8
ENDBRANCH   3   4
ENDBRANCH   2   3
ENDBRANCH   1   2
BRANCH   1  25
ATOM     25  C   UNL A   1      31.900  28.239  27.653  1.00  0.00     0.002 C 
BRANCH  25  26
ATOM     26  C   UNL A   1      32.219  29.658  27.150  1.00  0.00     0.021 C 
BRANCH  26  27
ATOM     27  C   UNL A   1      33.689  30.028  26.948  1.00  0.00     0.116 C 
BRANCH  27  28
ATOM     28  N   UNL A   1      34.032  31.356  27.476  1.00  0.00    -0.352 N 
ATOM     29  C   UNL A   1      35.059  31.805  28.289  1.00  0.00     0.251 C 
ATOM     30  H   UNL A   1      33.409  32.067  27.197  1.00  0.00     0.163 HD
ATOM     31  O   UNL A   1      34.926  32.863  28.902  1.00  0.00    -0.269 OA
BRANCH  29  32
ATOM     32  C   UNL A   1      36.324  31.050  28.413  1.00  0.00     0.039 A 
ATOM     33  C   UNL A   1      36.543  29.805  27.818  1.00  0.00     0.014 A 
ATOM     34  C   UNL A   1      37.326  31.599  29.192  1.00  0.00     0.014 A 
ATOM     35  C   UNL A   1      37.759  29.150  28.051  1.00  0.00     0.010 A 
ATOM     36  C   UNL A   1      38.598  31.118  29.168  1.00  0.00     0.010 A 
ATOM     37  C   UNL A   1      38.774  29.819  28.753  1.00  0.00    -0.014 A 
BRANCH  37  38
ATOM     38  C   UNL A   1      40.106  29.282  28.981  1.00  0.00     0.031 A 
ATOM     39  C   UNL A   1      40.353  29.015  30.407  1.00  0.00     0.074 A 
ATOM     40  C   UNL A   1      40.924  28.861  27.988  1.00  0.00     0.049 A 
ATOM     41  N   UNL A   1      41.115  29.705  31.182  1.00  0.00    -0.248 NA
ATOM     42  C   UNL A   1      39.519  28.024  31.103  1.00  0.00     0.031 C 
ATOM     43  C   UNL A   1      40.678  28.875  26.541  1.00  0.00     0.029 A 
ATOM     44  N   UNL A   1      42.147  28.255  28.069  1.00  0.00    -0.354 N 
ATOM     45  C   UNL A   1      41.032  29.091  32.422  1.00  0.00     0.074 A 
ATOM     46  C   UNL A   1      39.875  28.239  32.371  1.00  0.00     0.031 C 
ATOM     47  C   UNL A   1      41.647  28.179  25.901  1.00  0.00     0.029 A 
ATOM     48  C   UNL A   1      42.641  27.736  26.862  1.00  0.00     0.049 A 
ATOM     49  H   UNL A   1      42.646  28.187  28.915  1.00  0.00     0.167 HD
ATOM     50  C   UNL A   1      42.108  29.105  33.253  1.00  0.00     0.037 A 
ATOM     51  C   UNL A   1      43.774  26.991  26.709  1.00  0.00     0.037 A 
ATOM     52  C   UNL A   1      43.079  30.076  32.800  1.00  0.00     0.049 A 
ATOM     53  C   UNL A   1      44.632  27.379  27.858  1.00  0.00     0.074 A 
ATOM     54  C   UNL A   1      43.115  31.449  32.667  1.00  0.00     0.029 A 
ATOM     55  N   UNL A   1      44.078  29.577  32.001  1.00  0.00    -0.354 N 
ATOM     56  N   UNL A   1      45.183  28.556  27.966  1.00  0.00    -0.248 NA
ATOM     57  C   UNL A   1      44.609  26.591  29.086  1.00  0.00     0.031 C 
ATOM     58  C   UNL A   1      43.930  31.706  31.522  1.00  0.00     0.029 A 
ATOM     59  C   UNL A   1      44.403  30.489  31.032  1.00  0.00     0.049 A 
ATOM     60  H   UNL A   1      44.499  28.694  32.108  1.00  0.00     0.167 HD
ATOM     61  C   UNL A   1      45.148  28.828  29.321  1.00  0.00     0.074 A 
ATOM     62  C   UNL A   1      44.969  27.532  29.963  1.00  0.00     0.031 C 
ATOM     63  C   UNL A   1      44.961  30.108  29.754  1.00  0.00     0.037 A 
BRANCH  50  64
ATOM     64  C   UNL A   1      42.503  27.954  34.154  1.00  0.00     0.064 A 
ATOM     65  C   UNL A   1      43.073  26.809  33.564  1.00  0.00     0.173 A 
ATOM     66  C   UNL A   1      42.072  27.794  35.491  1.00  0.00     0.173 A 
ATOM     67  F   UNL A   1      43.505  26.839  32.294  1.00  0.00    -0.203 F 
ATOM     68  C   UNL A   1      43.122  25.580  34.228  1.00  0.00     0.198 A 
ATOM     69  C   UNL A   1      42.173  26.580  36.167  1.00  0.00     0.198 A 
ATOM     70  F   UNL A   1      41.433  28.753  36.166  1.00  0.00    -0.203 F 
ATOM     71  F   UNL A   1      43.548  24.490  33.576  1.00  0.00    -0.200 F 
ATOM     72  C   UNL A   1      42.664  25.466  35.526  1.00  0.00     0.200 A 
ATOM     73  F   UNL A   1      41.702  26.488  37.420  1.00  0.00    -0.200 F 
ATOM     74  F   UNL A   1      42.646  24.277  36.143  1.00  0.00    -0.200 F 
ENDBRANCH  50  64
BRANCH  51  75
ATOM     75  C   UNL A   1      44.196  25.908  25.759  1.00  0.00     0.064 A 
ATOM     76  C   UNL A   1      45.570  25.719  25.479  1.00  0.00     0.173 A 
ATOM     77  C   UNL A   1      43.359  24.875  25.307  1.00  0.00     0.173 A 
ATOM     78  F   UNL A   1      46.470  26.664  25.793  1.00  0.00    -0.203 F 
ATOM     79  C   UNL A   1      46.075  24.534  24.929  1.00  0.00     0.198 A 
ATOM     80  C   UNL A   1      43.863  23.681  24.768  1.00  0.00     0.198 A 
ATOM     81  F   UNL A   1      42.030  24.974  25.396  1.00  0.00    -0.203 F 
ATOM     82  F   UNL A   1      47.396  24.387  24.758  1.00  0.00    -0.200 F 
ATOM     83  C   UNL A   1      45.222  23.497  24.614  1.00  0.00     0.200 A 
ATOM     84  F   UNL A   1      43.020  22.692  24.438  1.00  0.00    -0.200 F 
ATOM     85  F   UNL A   1      45.707  22.329  24.167  1.00  0.00    -0.200 F 
ENDBRANCH  51  75
BRANCH  63  86
ATOM     86  C   UNL A   1      45.190  31.192  28.738  1.00  0.00     0.064 A 
ATOM     87  C   UNL A   1      44.202  31.695  27.874  1.00  0.00     0.173 A 
ATOM     88  C   UNL A   1      46.457  31.781  28.676  1.00  0.00     0.173 A 
ATOM     89  F   UNL A   1      42.942  31.251  27.936  1.00  0.00    -0.203 F 
ATOM     90  C   UNL A   1      44.488  32.696  26.949  1.00  0.00     0.198 A 
ATOM     91  C   UNL A   1      46.731  32.809  27.778  1.00  0.00     0.198 A 
ATOM     92  F   UNL A   1      47.427  31.376  29.510  1.00  0.00    -0.203 F 
ATOM     93  F   UNL A   1      43.533  33.134  26.114  1.00  0.00    -0.200 F 
ATOM     94  C   UNL A   1      45.752  33.256  26.905  1.00  0.00     0.200 A 
ATOM     95  F   UNL A   1      47.945  33.379  27.771  1.00  0.00    -0.200 F 
ATOM     96  F   UNL A   1      46.024  34.238  26.034  1.00  0.00    -0.200 F 
ENDBRANCH  63  86
ENDBRANCH  37  38
ENDBRANCH  29  32
ENDBRANCH  27  28
ENDBRANCH  26  27
ENDBRANCH  25  26
ENDBRANCH   1  25
TORSDOF 15
ENDMDL
MODEL 2
REMARK VINA RESULT:     -12.4      2.259      3.451
REMARK SMILES Cc1ccc(C)c(/C=C2\SC(=S)N(CC(=O)NCCCCCCNC(=O)c3ccc(-c4c5nc(c(-c6c(F)c(F)c(F)c(F)c6F)c6ccc([nH]6)c(-c6c(F)c(F)c(F)c(F)c6F)c6nc(c(-c7c(F)c(F)c(F)c(F)c7F)c7ccc4[nH]7)C=C6)C=C5)cc3)C2=O)c1
REMARK SMILES IDX 20 1 19 2 18 3 17 4 15 5 16 6 14 8 13 9 8 10 9 11 10 12
REMARK SMILES IDX 90 13 11 14 91 15 12 16 7 17 1 18 2 19 3 20 92 21 4 22 5 23
REMARK SMILES IDX 6 24 21 25 22 26 23 27 24 28 25 29 26 31 27 32 28 33 89 34
REMARK SMILES IDX 29 35 88 36 30 37 31 38 32 39 82 40 33 41 87 42 81 43 83 44
REMARK SMILES IDX 34 45 86 46 80 47 79 48 35 50 67 51 47 52 66 53 48 54 51 55
REMARK SMILES IDX 65 56 84 57 49 58 50 59 64 61 85 62 52 63 36 64 37 65 45 66
REMARK SMILES IDX 38 67 39 68 43 69 46 70 40 71 41 72 44 73 42 74 68 75 69 76
REMARK SMILES IDX 77 77 70 78 71 79 75 80 78 81 72 82 73 83 76 84 74 85 53 86
REMARK SMILES IDX 54 87 62 88 55 89 56 90 60 91 63 92 57 93 58 94 61 95 59 96
REMARK H PARENT 17 7 24 30 83 49 51 60
REMARK Flexibility Score: inf
ROOT
ATOM      1  C   UNL A   1      33.468  29.719  27.243  1.00  0.00     0.002 C 
ENDROOT
BRANCH   1   2
ATOM      2  C   UNL A   1      32.211  30.510  26.876  1.00  0.00     0.021 C 
BRANCH   2   3
ATOM      3  C   UNL A   1      31.516  30.011  25.615  1.00  0.00     0.116 C 
BRANCH   3   4
ATOM      4  N   UNL A   1      32.449  29.795  24.530  1.00  0.00    -0.355 N 
ATOM      5  C   UNL A   1      32.688  28.702  23.754  1.00  0.00     0.240 C 
ATOM      6  O   UNL A   1      33.329  28.893  22.714  1.00  0.00    -0.273 OA
ATOM      7  H   UNL A   1      33.009  30.575  24.316  1.00  0.00     0.163 HD
BRANCH   5   8
ATOM      8  C   UNL A   1      32.047  27.334  24.024  1.00  0.00     0.227 C 
BRANCH   8   9
ATOM      9  N   UNL A   1      32.944  26.191  23.884  1.00  0.00    -0.283 N 
ATOM     10  C   UNL A   1      35.273  24.062  25.615  1.00  0.00     0.029 C 
ATOM     11  C   UNL A   1      34.532  24.655  24.673  1.00  0.00     0.081 C 
ATOM     12  S   UNL A   1      34.266  24.142  23.059  1.00  0.00    -0.054 SA
ATOM     13  C   UNL A   1      33.731  25.863  24.969  1.00  0.00     0.266 C 
ATOM     14  C   UNL A   1      33.170  25.477  22.726  1.00  0.00     0.148 C 
ATOM     15  O   UNL A   1      33.758  26.452  26.046  1.00  0.00    -0.268 OA
ATOM     16  S   UNL A   1      32.540  25.736  21.203  1.00  0.00    -0.052 S 
BRANCH  10  17
ATOM     17  C   UNL A   1      35.943  22.770  25.456  1.00  0.00    -0.021 A 
ATOM     18  C   UNL A   1      35.029  19.140  24.786  1.00  0.00     0.044 C 
ATOM     19  C   UNL A   1      35.833  20.389  24.987  1.00  0.00    -0.051 A 
ATOM     20  C   UNL A   1      37.230  20.325  25.031  1.00  0.00     0.004 A 
ATOM     21  C   UNL A   1      35.199  21.626  25.151  1.00  0.00     0.011 A 
ATOM     22  C   UNL A   1      37.974  21.457  25.363  1.00  0.00     0.004 A 
ATOM     23  C   UNL A   1      37.331  22.672  25.638  1.00  0.00    -0.044 A 
ATOM     24  C   UNL A   1      38.129  23.843  26.134  1.00  0.00     0.045 C 
ENDBRANCH  10  17
ENDBRANCH   8   9
ENDBRANCH   5   8
ENDBRANCH   3   4
ENDBRANCH   2   3
ENDBRANCH   1   2
BRANCH   1  25
ATOM     25  C   UNL A   1      34.756  30.529  27.460  1.00  0.00     0.002 C 
BRANCH  25  26
ATOM     26  C   UNL A   1      34.649  32.044  27.707  1.00  0.00     0.021 C 
BRANCH  26  27
ATOM     27  C   UNL A   1      35.850  32.749  28.338  1.00  0.00     0.116 C 
BRANCH  27  28
ATOM     28  N   UNL A   1      35.693  32.985  29.781  1.00  0.00    -0.352 N 
ATOM     29  C   UNL A   1      35.998  32.221  30.894  1.00  0.00     0.251 C 
ATOM     30  H   UNL A   1      35.293  33.858  29.998  1.00  0.00     0.163 HD
ATOM     31  O   UNL A   1      35.434  32.456  31.962  1.00  0.00    -0.269 OA
BRANCH  29  32
ATOM     32  C   UNL A   1      37.010  31.144  30.832  1.00  0.00     0.039 A 
ATOM     33  C   UNL A   1      36.698  29.801  30.602  1.00  0.00     0.014 A 
ATOM     34  C   UNL A   1      38.331  31.491  31.049  1.00  0.00     0.014 A 
ATOM     35  C   UNL A   1      37.730  28.856  30.623  1.00  0.00     0.010 A 
ATOM     36  C   UNL A   1      39.351  30.638  30.768  1.00  0.00     0.010 A 
ATOM     37  C   UNL A   1      39.060  29.294  30.731  1.00  0.00    -0.014 A 
BRANCH  37  38
ATOM     38  C   UNL A   1      40.220  28.420  30.675  1.00  0.00     0.031 A 
ATOM     39  C   UNL A   1      40.810  28.205  32.006  1.00  0.00     0.074 A 
ATOM     40  C   UNL A   1      40.569  27.707  29.577  1.00  0.00     0.049 A 
ATOM     41  N   UNL A   1      41.917  28.708  32.430  1.00  0.00    -0.248 NA
ATOM     42  C   UNL A   1      40.004  27.550  33.047  1.00  0.00     0.031 C 
ATOM     43  C   UNL A   1      39.910  27.678  28.266  1.00  0.00     0.029 A 
ATOM     44  N   UNL A   1      41.567  26.786  29.423  1.00  0.00    -0.354 N 
ATOM     45  C   UNL A   1      42.060  28.242  33.727  1.00  0.00     0.074 A 
ATOM     46  C   UNL A   1      40.767  27.753  34.123  1.00  0.00     0.031 C 
ATOM     47  C   UNL A   1      40.436  26.687  27.508  1.00  0.00     0.029 A 
ATOM     48  C   UNL A   1      41.529  26.056  28.225  1.00  0.00     0.049 A 
ATOM     49  H   UNL A   1      42.264  26.645  30.103  1.00  0.00     0.167 HD
ATOM     50  C   UNL A   1      43.304  28.013  34.226  1.00  0.00     0.037 A 
ATOM     51  C   UNL A   1      42.340  25.009  27.892  1.00  0.00     0.037 A 
ATOM     52  C   UNL A   1      44.304  28.629  33.383  1.00  0.00     0.049 A 
ATOM     53  C   UNL A   1      43.572  25.225  28.693  1.00  0.00     0.074 A 
ATOM     54  C   UNL A   1      44.640  29.920  33.030  1.00  0.00     0.029 A 
ATOM     55  N   UNL A   1      44.859  27.806  32.434  1.00  0.00    -0.354 N 
ATOM     56  N   UNL A   1      44.405  26.201  28.463  1.00  0.00    -0.248 NA
ATOM     57  C   UNL A   1      43.723  24.574  29.991  1.00  0.00     0.031 C 
ATOM     58  C   UNL A   1      45.110  29.845  31.683  1.00  0.00     0.029 A 
ATOM     59  C   UNL A   1      45.094  28.509  31.282  1.00  0.00     0.049 A 
ATOM     60  H   UNL A   1      45.058  26.850  32.562  1.00  0.00     0.167 HD
ATOM     61  C   UNL A   1      44.850  26.577  29.718  1.00  0.00     0.074 A 
ATOM     62  C   UNL A   1      44.554  25.439  30.580  1.00  0.00     0.031 C 
ATOM     63  C   UNL A   1      45.128  27.887  29.978  1.00  0.00     0.037 A 
BRANCH  50  64
ATOM     64  C   UNL A   1      43.651  26.872  35.158  1.00  0.00     0.064 A 
ATOM     65  C   UNL A   1      44.362  27.167  36.339  1.00  0.00     0.173 A 
ATOM     66  C   UNL A   1      43.602  25.503  34.809  1.00  0.00     0.173 A 
ATOM     67  F   UNL A   1      44.488  28.433  36.761  1.00  0.00    -0.203 F 
ATOM     68  C   UNL A   1      45.045  26.181  37.057  1.00  0.00     0.198 A 
ATOM     69  C   UNL A   1      44.239  24.517  35.559  1.00  0.00     0.198 A 
ATOM     70  F   UNL A   1      43.044  25.064  33.678  1.00  0.00    -0.203 F 
ATOM     71  F   UNL A   1      45.819  26.532  38.093  1.00  0.00    -0.200 F 
ATOM     72  C   UNL A   1      44.989  24.859  36.661  1.00  0.00     0.200 A 
ATOM     73  F   UNL A   1      44.188  23.243  35.144  1.00  0.00    -0.200 F 
ATOM     74  F   UNL A   1      45.696  23.922  37.307  1.00  0.00    -0.200 F 
ENDBRANCH  50  64
BRANCH  51  75
ATOM     75  C   UNL A   1      42.172  23.780  27.047  1.00  0.00     0.064 A 
ATOM     76  C   UNL A   1      43.079  23.528  25.991  1.00  0.00     0.173 A 
ATOM     77  C   UNL A   1      41.334  22.701  27.370  1.00  0.00     0.173 A 
ATOM     78  F   UNL A   1      43.887  24.497  25.535  1.00  0.00    -0.203 F 
ATOM     79  C   UNL A   1      43.235  22.262  25.413  1.00  0.00     0.198 A 
ATOM     80  C   UNL A   1      41.497  21.427  26.802  1.00  0.00     0.198 A 
ATOM     81  F   UNL A   1      40.351  22.833  28.264  1.00  0.00    -0.203 F 
ATOM     82  F   UNL A   1      44.165  22.069  24.468  1.00  0.00    -0.200 F 
ATOM     83  C   UNL A   1      42.470  21.200  25.851  1.00  0.00     0.200 A 
ATOM     84  F   UNL A   1      40.727  20.411  27.216  1.00  0.00    -0.200 F 
ATOM     85  F   UNL A   1      42.674  19.968  25.361  1.00  0.00    -0.200 F 
ENDBRANCH  51  75
BRANCH  63  86
ATOM     86  C   UNL A   1      45.303  28.778  28.780  1.00  0.00     0.064 A 
ATOM     87  C   UNL A   1      44.272  29.526  28.187  1.00  0.00     0.173 A 
ATOM     88  C   UNL A   1      46.587  28.917  28.244  1.00  0.00     0.173 A 
ATOM     89  F   UNL A   1      43.036  29.522  28.697  1.00  0.00    -0.203 F 
ATOM     90  C   UNL A   1      44.505  30.326  27.071  1.00  0.00     0.198 A 
ATOM     91  C   UNL A   1      46.827  29.747  27.153  1.00  0.00     0.198 A 
ATOM     92  F   UNL A   1      47.620  28.265  28.799  1.00  0.00    -0.203 F 
ATOM     93  F   UNL A   1      43.495  31.004  26.505  1.00  0.00    -0.200 F 
ATOM     94  C   UNL A   1      45.785  30.439  26.557  1.00  0.00     0.200 A 
ATOM     95  F   UNL A   1      48.076  29.888  26.687  1.00  0.00    -0.200 F 
ATOM     96  F   UNL A   1      46.018  31.228  25.499  1.00  0.00    -0.200 F 
ENDBRANCH  63  86
ENDBRANCH  37  38
ENDBRANCH  29  32
ENDBRANCH  27  28
ENDBRANCH  26  27
ENDBRANCH  25  26
ENDBRANCH   1  25
TORSDOF 15
ENDMDL
MODEL 3
REMARK VINA RESULT:     -12.4      3.028      9.080
REMARK SMILES Cc1ccc(C)c(/C=C2\SC(=S)N(CC(=O)NCCCCCCNC(=O)c3ccc(-c4c5nc(c(-c6c(F)c(F)c(F)c(F)c6F)c6ccc([nH]6)c(-c6c(F)c(F)c(F)c(F)c6F)c6nc(c(-c7c(F)c(F)c(F)c(F)c7F)c7ccc4[nH]7)C=C6)C=C5)cc3)C2=O)c1
REMARK SMILES IDX 20 1 19 2 18 3 17 4 15 5 16 6 14 8 13 9 8 10 9 11 10 12
REMARK SMILES IDX 90 13 11 14 91 15 12 16 7 17 1 18 2 19 3 20 92 21 4 22 5 23
REMARK SMILES IDX 6 24 21 25 22 26 23 27 24 28 25 29 26 31 27 32 28 33 89 34
REMARK SMILES IDX 29 35 88 36 30 37 31 38 32 39 82 40 33 41 87 42 81 43 83 44
REMARK SMILES IDX 34 45 86 46 80 47 79 48 35 50 67 51 47 52 66 53 48 54 51 55
REMARK SMILES IDX 65 56 84 57 49 58 50 59 64 61 85 62 52 63 36 64 37 65 45 66
REMARK SMILES IDX 38 67 39 68 43 69 46 70 40 71 41 72 44 73 42 74 68 75 69 76
REMARK SMILES IDX 77 77 70 78 71 79 75 80 78 81 72 82 73 83 76 84 74 85 53 86
REMARK SMILES IDX 54 87 62 88 55 89 56 90 60 91 63 92 57 93 58 94 61 95 59 96
REMARK H PARENT 17 7 24 30 83 49 51 60
REMARK Flexibility Score: inf
ROOT
ATOM      1  C   UNL A   1      37.430  22.223  25.208  1.00  0.00     0.002 C 
ENDROOT
BRANCH   1   2
ATOM      2  C   UNL A   1      37.118  20.804  24.733  1.00  0.00     0.021 C 
BRANCH   2   3
ATOM      3  C   UNL A   1      35.667  20.389  24.945  1.00  0.00     0.116 C 
BRANCH   3   4
ATOM      4  N   UNL A   1      35.138  20.885  26.198  1.00  0.00    -0.355 N 
ATOM      5  C   UNL A   1      34.059  21.668  26.472  1.00  0.00     0.240 C 
ATOM      6  O   UNL A   1      33.675  21.688  27.647  1.00  0.00    -0.273 OA
ATOM      7  H   UNL A   1      35.649  20.606  26.992  1.00  0.00     0.163 HD
BRANCH   5   8
ATOM      8  C   UNL A   1      33.225  22.346  25.376  1.00  0.00     0.227 C 
BRANCH   8   9
ATOM      9  N   UNL A   1      32.733  23.680  25.708  1.00  0.00    -0.283 N 
ATOM     10  C   UNL A   1      33.530  27.189  25.673  1.00  0.00     0.029 C 
ATOM     11  C   UNL A   1      32.931  26.011  25.877  1.00  0.00     0.081 C 
ATOM     12  S   UNL A   1      31.330  25.717  26.417  1.00  0.00    -0.054 SA
ATOM     13  C   UNL A   1      33.607  24.736  25.551  1.00  0.00     0.266 C 
ATOM     14  C   UNL A   1      31.513  23.974  26.278  1.00  0.00     0.148 C 
ATOM     15  O   UNL A   1      34.771  24.660  25.168  1.00  0.00    -0.268 OA
ATOM     16  S   UNL A   1      30.315  22.924  26.775  1.00  0.00    -0.052 S 
BRANCH  10  17
ATOM     17  C   UNL A   1      32.868  28.490  25.794  1.00  0.00    -0.021 A 
ATOM     18  C   UNL A   1      30.141  30.483  24.049  1.00  0.00     0.044 C 
ATOM     19  C   UNL A   1      31.177  30.065  25.049  1.00  0.00    -0.051 A 
ATOM     20  C   UNL A   1      31.523  30.921  26.099  1.00  0.00     0.004 A 
ATOM     21  C   UNL A   1      31.820  28.828  24.932  1.00  0.00     0.011 A 
ATOM     22  C   UNL A   1      32.587  30.601  26.943  1.00  0.00     0.004 A 
ATOM     23  C   UNL A   1      33.306  29.413  26.758  1.00  0.00    -0.044 A 
ATOM     24  C   UNL A   1      34.536  29.148  27.577  1.00  0.00     0.045 C 
ENDBRANCH  10  17
ENDBRANCH   8   9
ENDBRANCH   5   8
ENDBRANCH   3   4
ENDBRANCH   2   3
ENDBRANCH   1   2
BRANCH   1  25
ATOM     25  C   UNL A   1      38.601  22.381  26.192  1.00  0.00     0.002 C 
BRANCH  25  26
ATOM     26  C   UNL A   1      39.725  21.330  26.184  1.00  0.00     0.021 C 
BRANCH  26  27
ATOM     27  C   UNL A   1      40.579  21.192  27.445  1.00  0.00     0.116 C 
BRANCH  27  28
ATOM     28  N   UNL A   1      42.023  21.230  27.177  1.00  0.00    -0.352 N 
ATOM     29  C   UNL A   1      42.894  22.265  26.880  1.00  0.00     0.251 C 
ATOM     30  H   UNL A   1      42.458  20.347  27.215  1.00  0.00     0.163 HD
ATOM     31  O   UNL A   1      43.963  22.015  26.325  1.00  0.00    -0.269 OA
BRANCH  29  32
ATOM     32  C   UNL A   1      42.576  23.663  27.242  1.00  0.00     0.039 A 
ATOM     33  C   UNL A   1      41.613  24.432  26.583  1.00  0.00     0.014 A 
ATOM     34  C   UNL A   1      43.301  24.242  28.267  1.00  0.00     0.014 A 
ATOM     35  C   UNL A   1      41.435  25.766  26.970  1.00  0.00     0.010 A 
ATOM     36  C   UNL A   1      42.922  25.416  28.838  1.00  0.00     0.010 A 
ATOM     37  C   UNL A   1      42.121  26.251  28.095  1.00  0.00    -0.014 A 
BRANCH  37  38
ATOM     38  C   UNL A   1      41.954  27.585  28.647  1.00  0.00     0.031 A 
ATOM     39  C   UNL A   1      43.033  28.493  28.226  1.00  0.00     0.074 A 
ATOM     40  C   UNL A   1      40.827  28.001  29.273  1.00  0.00     0.049 A 
ATOM     41  N   UNL A   1      43.993  28.920  28.972  1.00  0.00    -0.248 NA
ATOM     42  C   UNL A   1      43.198  28.791  26.796  1.00  0.00     0.031 C 
ATOM     43  C   UNL A   1      39.603  27.237  29.542  1.00  0.00     0.029 A 
ATOM     44  N   UNL A   1      40.506  29.243  29.747  1.00  0.00    -0.354 N 
ATOM     45  C   UNL A   1      44.762  29.731  28.153  1.00  0.00     0.074 A 
ATOM     46  C   UNL A   1      44.375  29.421  26.803  1.00  0.00     0.031 C 
ATOM     47  C   UNL A   1      38.632  28.066  29.996  1.00  0.00     0.029 A 
ATOM     48  C   UNL A   1      39.169  29.407  30.142  1.00  0.00     0.049 A 
ATOM     49  H   UNL A   1      41.166  29.970  29.808  1.00  0.00     0.167 HD
ATOM     50  C   UNL A   1      45.408  30.803  28.683  1.00  0.00     0.037 A 
ATOM     51  C   UNL A   1      38.583  30.574  30.537  1.00  0.00     0.037 A 
ATOM     52  C   UNL A   1      45.433  30.710  30.126  1.00  0.00     0.049 A 
ATOM     53  C   UNL A   1      39.707  31.400  31.049  1.00  0.00     0.074 A 
ATOM     54  C   UNL A   1      46.001  29.859  31.052  1.00  0.00     0.029 A 
ATOM     55  N   UNL A   1      44.422  31.376  30.774  1.00  0.00    -0.354 N 
ATOM     56  N   UNL A   1      40.348  31.120  32.149  1.00  0.00    -0.248 NA
ATOM     57  C   UNL A   1      40.375  32.352  30.167  1.00  0.00     0.031 C 
ATOM     58  C   UNL A   1      45.083  29.806  32.145  1.00  0.00     0.029 A 
ATOM     59  C   UNL A   1      44.018  30.664  31.872  1.00  0.00     0.049 A 
ATOM     60  H   UNL A   1      44.042  32.240  30.491  1.00  0.00     0.167 HD
ATOM     61  C   UNL A   1      41.657  31.481  31.885  1.00  0.00     0.074 A 
ATOM     62  C   UNL A   1      41.576  32.393  30.750  1.00  0.00     0.031 C 
ATOM     63  C   UNL A   1      42.684  30.761  32.421  1.00  0.00     0.037 A 
BRANCH  50  64
ATOM     64  C   UNL A   1      45.583  32.129  27.974  1.00  0.00     0.064 A 
ATOM     65  C   UNL A   1      44.428  32.818  27.552  1.00  0.00     0.173 A 
ATOM     66  C   UNL A   1      46.798  32.594  27.422  1.00  0.00     0.173 A 
ATOM     67  F   UNL A   1      43.216  32.456  27.999  1.00  0.00    -0.203 F 
ATOM     68  C   UNL A   1      44.479  33.826  26.586  1.00  0.00     0.198 A 
ATOM     69  C   UNL A   1      46.849  33.636  26.499  1.00  0.00     0.198 A 
ATOM     70  F   UNL A   1      47.972  31.997  27.650  1.00  0.00    -0.203 F 
ATOM     71  F   UNL A   1      43.341  34.355  26.118  1.00  0.00    -0.200 F 
ATOM     72  C   UNL A   1      45.689  34.228  26.055  1.00  0.00     0.200 A 
ATOM     73  F   UNL A   1      48.033  33.995  25.982  1.00  0.00    -0.200 F 
ATOM     74  F   UNL A   1      45.737  35.147  25.081  1.00  0.00    -0.200 F 
ENDBRANCH  50  64
BRANCH  51  75
ATOM     75  C   UNL A   1      37.191  31.131  30.450  1.00  0.00     0.064 A 
ATOM     76  C   UNL A   1      36.487  31.443  31.636  1.00  0.00     0.173 A 
ATOM     77  C   UNL A   1      36.603  31.620  29.273  1.00  0.00     0.173 A 
ATOM     78  F   UNL A   1      36.902  30.976  32.823  1.00  0.00    -0.203 F 
ATOM     79  C   UNL A   1      35.376  32.296  31.654  1.00  0.00     0.198 A 
ATOM     80  C   UNL A   1      35.497  32.485  29.289  1.00  0.00     0.198 A 
ATOM     81  F   UNL A   1      37.092  31.302  28.071  1.00  0.00    -0.203 F 
ATOM     82  F   UNL A   1      34.798  32.614  32.821  1.00  0.00    -0.200 F 
ATOM     83  C   UNL A   1      34.907  32.851  30.482  1.00  0.00     0.200 A 
ATOM     84  F   UNL A   1      35.034  32.995  28.139  1.00  0.00    -0.200 F 
ATOM     85  F   UNL A   1      33.898  33.734  30.503  1.00  0.00    -0.200 F 
ENDBRANCH  51  75
BRANCH  63  86
ATOM     86  C   UNL A   1      42.332  29.859  33.571  1.00  0.00     0.064 A 
ATOM     87  C   UNL A   1      41.916  28.524  33.437  1.00  0.00     0.173 A 
ATOM     88  C   UNL A   1      42.474  30.360  34.869  1.00  0.00     0.173 A 
ATOM     89  F   UNL A   1      41.846  27.941  32.236  1.00  0.00    -0.203 F 
ATOM     90  C   UNL A   1      41.596  27.748  34.549  1.00  0.00     0.198 A 
ATOM     91  C   UNL A   1      42.193  29.572  35.981  1.00  0.00     0.198 A 
ATOM     92  F   UNL A   1      42.915  31.613  35.060  1.00  0.00    -0.203 F 
ATOM     93  F   UNL A   1      41.170  26.486  34.389  1.00  0.00    -0.200 F 
ATOM     94  C   UNL A   1      41.740  28.272  35.822  1.00  0.00     0.200 A 
ATOM     95  F   UNL A   1      42.376  30.070  37.212  1.00  0.00    -0.200 F 
ATOM     96  F   UNL A   1      41.458  27.520  36.895  1.00  0.00    -0.200 F 
ENDBRANCH  63  86
ENDBRANCH  37  38
ENDBRANCH  29  32
ENDBRANCH  27  28
ENDBRANCH  26  27
ENDBRANCH  25  26
ENDBRANCH   1  25
TORSDOF 15
ENDMDL
