MODEL 1
REMARK VINA RESULT:     -13.3      0.000      0.000
REMARK SMILES COc1ccc([C@@H]2[NH2+][C@H](C(=O)NCCCCCCNC(=O)c3ccc(-c4c5nc(c(-c6c(F)c(F)c(F)c(F)c6F)c6ccc([nH]6)c(-c6c(F)c(F)c(F)c(F)c6F)c6nc(c(-c7c(F)c(F)c(F)c(F)c7F)c7ccc4[nH]7)C=C6)C=C5)cc3)CS2)cc1Cn1nc(C)c(Br)c1C
REMARK SMILES IDX 15 1 14 2 13 3 12 4 10 5 11 6 9 8 7 9 8 10 86 11 85 14 6 15
REMARK SMILES IDX 3 16 4 17 88 18 5 19 87 20 2 21 1 22 89 23 90 24 91 25 96 26
REMARK SMILES IDX 92 27 94 28 97 29 93 30 95 31 16 32 17 33 18 34 19 35 20 36
REMARK SMILES IDX 21 38 22 39 23 40 84 41 24 42 83 43 25 44 26 45 27 46 77 47
REMARK SMILES IDX 28 48 82 49 76 50 78 51 29 52 81 53 75 54 74 55 30 57 62 58
REMARK SMILES IDX 42 59 61 60 43 61 46 62 60 63 79 64 44 65 45 66 59 68 80 69
REMARK SMILES IDX 47 70 31 71 32 72 40 73 33 74 34 75 38 76 41 77 35 78 36 79
REMARK SMILES IDX 39 80 37 81 63 82 64 83 72 84 65 85 66 86 70 87 73 88 67 89
REMARK SMILES IDX 68 90 71 91 69 92 48 93 49 94 57 95 50 96 51 97 55 98 58 99
REMARK SMILES IDX 52 100 53 101 56 102 54 103
REMARK H PARENT 12 7 8 12 8 13 19 37 78 56 46 67
REMARK Flexibility Score: inf
ROOT
ATOM      1  C   UNL A   1      35.990  23.351  24.037  1.00  0.00     0.002 C 
ENDROOT
BRANCH   1   2
ATOM      2  C   UNL A   1      34.644  24.009  24.675  1.00  0.00     0.021 C 
BRANCH   2   3
ATOM      3  C   UNL A   1      33.404  24.543  23.895  1.00  0.00     0.116 C 
BRANCH   3   4
ATOM      4  N   UNL A   1      33.125  24.160  22.526  1.00  0.00    -0.351 N 
ATOM      5  C   UNL A   1      32.986  24.998  21.439  1.00  0.00     0.279 C 
ATOM      6  O   UNL A   1      33.181  24.477  20.330  1.00  0.00    -0.268 OA
ATOM      7  H   UNL A   1      33.025  23.196  22.353  1.00  0.00     0.163 HD
BRANCH   5   8
ATOM      8  C   UNL A   1      32.674  26.535  21.472  1.00  0.00     0.283 C 
ATOM      9  C   UNL A   1      31.151  28.025  22.669  1.00  0.00     0.274 C 
ATOM     10  N   UNL A   1      31.254  26.902  21.707  1.00  0.00    -0.321 N 
ATOM     11  S   UNL A   1      32.738  28.853  22.732  1.00  0.00    -0.088 SA
ATOM     12  H   UNL A   1      30.830  27.181  20.822  1.00  0.00     0.348 HD
ATOM     13  H   UNL A   1      30.767  26.094  22.095  1.00  0.00     0.348 HD
ATOM     14  C   UNL A   1      33.606  27.313  22.388  1.00  0.00     0.151 C 
BRANCH   9  15
ATOM     15  C   UNL A   1      30.644  27.435  23.979  1.00  0.00     0.021 A 
ATOM     16  C   UNL A   1      30.794  25.600  26.115  1.00  0.00     0.123 A 
ATOM     17  C   UNL A   1      30.037  25.350  24.950  1.00  0.00     0.047 A 
ATOM     18  C   UNL A   1      31.326  26.969  26.347  1.00  0.00     0.016 A 
ATOM     19  C   UNL A   1      29.980  26.223  23.887  1.00  0.00     0.015 A 
ATOM     20  C   UNL A   1      31.130  27.846  25.237  1.00  0.00     0.020 A 
BRANCH  16  21
ATOM     21  O   UNL A   1      30.610  24.474  26.870  1.00  0.00    -0.496 OA
ATOM     22  C   UNL A   1      30.117  23.102  26.892  1.00  0.00     0.278 C 
ENDBRANCH  16  21
BRANCH  18  23
ATOM     23  C   UNL A   1      32.178  27.826  27.463  1.00  0.00     0.184 C 
BRANCH  23  24
ATOM     24  N   UNL A   1      32.641  29.272  27.296  1.00  0.00    -0.264 N 
ATOM     25  N   UNL A   1      31.881  30.124  26.546  1.00  0.00    -0.177 NA
ATOM     26  C   UNL A   1      33.870  29.913  27.477  1.00  0.00     0.050 A 
ATOM     27  C   UNL A   1      32.285  31.354  26.898  1.00  0.00     0.074 A 
ATOM     28  C   UNL A   1      33.555  31.262  27.468  1.00  0.00     0.061 A 
ATOM     29  C   UNL A   1      35.211  29.312  27.589  1.00  0.00     0.067 C 
ATOM     30  C   UNL A   1      31.413  32.540  26.650  1.00  0.00     0.070 C 
ATOM     31  Br  UNL A   1      34.632  32.714  27.957  1.00  0.00    -0.047 Br
ENDBRANCH  23  24
ENDBRANCH  18  23
ENDBRANCH   9  15
ENDBRANCH   5   8
ENDBRANCH   3   4
ENDBRANCH   2   3
ENDBRANCH   1   2
BRANCH   1  32
ATOM     32  C   UNL A   1      37.088  22.055  24.134  1.00  0.00     0.002 C 
BRANCH  32  33
ATOM     33  C   UNL A   1      37.503  20.658  24.870  1.00  0.00     0.021 C 
BRANCH  33  34
ATOM     34  C   UNL A   1      38.778  19.876  25.274  1.00  0.00     0.116 C 
BRANCH  34  35
ATOM     35  N   UNL A   1      39.538  20.189  26.454  1.00  0.00    -0.352 N 
ATOM     36  C   UNL A   1      40.784  20.745  26.435  1.00  0.00     0.251 C 
ATOM     37  H   UNL A   1      39.134  19.990  27.330  1.00  0.00     0.163 HD
ATOM     38  O   UNL A   1      41.732  20.323  25.783  1.00  0.00    -0.269 OA
BRANCH  36  39
ATOM     39  C   UNL A   1      40.796  22.080  27.079  1.00  0.00     0.039 A 
ATOM     40  C   UNL A   1      41.825  22.307  27.998  1.00  0.00     0.014 A 
ATOM     41  C   UNL A   1      40.080  23.145  26.518  1.00  0.00     0.014 A 
ATOM     42  C   UNL A   1      42.213  23.611  28.279  1.00  0.00     0.010 A 
ATOM     43  C   UNL A   1      40.527  24.437  26.729  1.00  0.00     0.010 A 
ATOM     44  C   UNL A   1      41.601  24.673  27.600  1.00  0.00    -0.014 A 
BRANCH  44  45
ATOM     45  C   UNL A   1      42.056  26.062  27.787  1.00  0.00     0.031 A 
ATOM     46  C   UNL A   1      43.389  26.452  27.232  1.00  0.00     0.074 A 
ATOM     47  C   UNL A   1      41.314  26.899  28.535  1.00  0.00     0.049 A 
ATOM     48  N   UNL A   1      44.045  27.572  27.364  1.00  0.00    -0.248 NA
ATOM     49  C   UNL A   1      44.111  25.416  26.471  1.00  0.00     0.031 C 
ATOM     50  C   UNL A   1      40.042  26.559  29.178  1.00  0.00     0.029 A 
ATOM     51  N   UNL A   1      41.527  28.203  28.892  1.00  0.00    -0.354 N 
ATOM     52  C   UNL A   1      45.259  27.365  26.723  1.00  0.00     0.074 A 
ATOM     53  C   UNL A   1      45.286  25.992  26.279  1.00  0.00     0.031 C 
ATOM     54  C   UNL A   1      39.572  27.637  29.826  1.00  0.00     0.029 A 
ATOM     55  C   UNL A   1      40.525  28.730  29.672  1.00  0.00     0.049 A 
ATOM     56  H   UNL A   1      42.321  28.714  28.618  1.00  0.00     0.167 HD
ATOM     57  C   UNL A   1      46.244  28.263  26.500  1.00  0.00     0.037 A 
ATOM     58  C   UNL A   1      40.405  29.965  30.191  1.00  0.00     0.037 A 
ATOM     59  C   UNL A   1      46.161  29.632  26.928  1.00  0.00     0.049 A 
ATOM     60  C   UNL A   1      41.496  30.958  29.892  1.00  0.00     0.074 A 
ATOM     61  C   UNL A   1      47.050  30.664  26.710  1.00  0.00     0.029 A 
ATOM     62  N   UNL A   1      45.105  30.155  27.667  1.00  0.00    -0.354 N 
ATOM     63  N   UNL A   1      42.608  30.786  29.216  1.00  0.00    -0.248 NA
ATOM     64  C   UNL A   1      41.315  32.318  30.413  1.00  0.00     0.031 C 
ATOM     65  C   UNL A   1      46.556  31.802  27.356  1.00  0.00     0.029 A 
ATOM     66  C   UNL A   1      45.329  31.494  27.927  1.00  0.00     0.049 A 
ATOM     67  H   UNL A   1      44.315  29.645  27.961  1.00  0.00     0.167 HD
ATOM     68  C   UNL A   1      43.245  32.016  29.202  1.00  0.00     0.074 A 
ATOM     69  C   UNL A   1      42.383  32.932  29.926  1.00  0.00     0.031 C 
ATOM     70  C   UNL A   1      44.433  32.366  28.647  1.00  0.00     0.037 A 
BRANCH  57  71
ATOM     71  C   UNL A   1      47.462  27.788  25.761  1.00  0.00     0.064 A 
ATOM     72  C   UNL A   1      47.516  27.771  24.357  1.00  0.00     0.173 A 
ATOM     73  C   UNL A   1      48.589  27.336  26.462  1.00  0.00     0.173 A 
ATOM     74  F   UNL A   1      46.458  28.172  23.635  1.00  0.00    -0.203 F 
ATOM     75  C   UNL A   1      48.635  27.284  23.686  1.00  0.00     0.198 A 
ATOM     76  C   UNL A   1      49.722  26.884  25.787  1.00  0.00     0.198 A 
ATOM     77  F   UNL A   1      48.593  27.323  27.804  1.00  0.00    -0.203 F 
ATOM     78  F   UNL A   1      48.633  27.213  22.348  1.00  0.00    -0.200 F 
ATOM     79  C   UNL A   1      49.740  26.849  24.401  1.00  0.00     0.200 A 
ATOM     80  F   UNL A   1      50.792  26.471  26.479  1.00  0.00    -0.200 F 
ATOM     81  F   UNL A   1      50.817  26.384  23.754  1.00  0.00    -0.200 F 
ENDBRANCH  57  71
BRANCH  58  82
ATOM     82  C   UNL A   1      39.202  30.333  30.985  1.00  0.00     0.064 A 
ATOM     83  C   UNL A   1      39.217  30.269  32.387  1.00  0.00     0.173 A 
ATOM     84  C   UNL A   1      38.021  30.774  30.370  1.00  0.00     0.173 A 
ATOM     85  F   UNL A   1      40.318  29.845  33.025  1.00  0.00    -0.203 F 
ATOM     86  C   UNL A   1      38.091  30.606  33.138  1.00  0.00     0.198 A 
ATOM     87  C   UNL A   1      36.906  31.139  31.123  1.00  0.00     0.198 A 
ATOM     88  F   UNL A   1      37.956  30.870  29.033  1.00  0.00    -0.203 F 
ATOM     89  F   UNL A   1      38.122  30.493  34.473  1.00  0.00    -0.200 F 
ATOM     90  C   UNL A   1      36.939  31.046  32.506  1.00  0.00     0.200 A 
ATOM     91  F   UNL A   1      35.801  31.584  30.510  1.00  0.00    -0.200 F 
ATOM     92  F   UNL A   1      35.860  31.377  33.229  1.00  0.00    -0.200 F 
ENDBRANCH  58  82
BRANCH  70  93
ATOM     93  C   UNL A   1      44.841  33.801  28.775  1.00  0.00     0.064 A 
ATOM     94  C   UNL A   1      44.438  34.767  27.842  1.00  0.00     0.173 A 
ATOM     95  C   UNL A   1      45.601  34.222  29.877  1.00  0.00     0.173 A 
ATOM     96  F   UNL A   1      43.722  34.409  26.765  1.00  0.00    -0.203 F 
ATOM     97  C   UNL A   1      44.808  36.099  27.992  1.00  0.00     0.198 A 
ATOM     98  C   UNL A   1      45.936  35.560  30.044  1.00  0.00     0.198 A 
ATOM     99  F   UNL A   1      45.999  33.335  30.803  1.00  0.00    -0.203 F 
ATOM    100  F   UNL A   1      44.459  36.998  27.061  1.00  0.00    -0.200 F 
ATOM    101  C   UNL A   1      45.548  36.496  29.097  1.00  0.00     0.200 A 
ATOM    102  F   UNL A   1      46.633  35.945  31.121  1.00  0.00    -0.200 F 
ATOM    103  F   UNL A   1      45.891  37.782  29.246  1.00  0.00    -0.200 F 
ENDBRANCH  70  93
ENDBRANCH  44  45
ENDBRANCH  36  39
ENDBRANCH  34  35
ENDBRANCH  33  34
ENDBRANCH  32  33
ENDBRANCH   1  32
TORSDOF 17
ENDMDL
MODEL 2
REMARK VINA RESULT:     -13.2      5.214     11.044
REMARK SMILES COc1ccc([C@@H]2[NH2+][C@H](C(=O)NCCCCCCNC(=O)c3ccc(-c4c5nc(c(-c6c(F)c(F)c(F)c(F)c6F)c6ccc([nH]6)c(-c6c(F)c(F)c(F)c(F)c6F)c6nc(c(-c7c(F)c(F)c(F)c(F)c7F)c7ccc4[nH]7)C=C6)C=C5)cc3)CS2)cc1Cn1nc(C)c(Br)c1C
REMARK SMILES IDX 15 1 14 2 13 3 12 4 10 5 11 6 9 8 7 9 8 10 86 11 85 14 6 15
REMARK SMILES IDX 3 16 4 17 88 18 5 19 87 20 2 21 1 22 89 23 90 24 91 25 96 26
REMARK SMILES IDX 92 27 94 28 97 29 93 30 95 31 16 32 17 33 18 34 19 35 20 36
REMARK SMILES IDX 21 38 22 39 23 40 84 41 24 42 83 43 25 44 26 45 27 46 77 47
REMARK SMILES IDX 28 48 82 49 76 50 78 51 29 52 81 53 75 54 74 55 30 57 62 58
REMARK SMILES IDX 42 59 61 60 43 61 46 62 60 63 79 64 44 65 45 66 59 68 80 69
REMARK SMILES IDX 47 70 31 71 32 72 40 73 33 74 34 75 38 76 41 77 35 78 36 79
REMARK SMILES IDX 39 80 37 81 63 82 64 83 72 84 65 85 66 86 70 87 73 88 67 89
REMARK SMILES IDX 68 90 71 91 69 92 48 93 49 94 57 95 50 96 51 97 55 98 58 99
REMARK SMILES IDX 52 100 53 101 56 102 54 103
REMARK H PARENT 12 7 8 12 8 13 19 37 78 56 46 67
REMARK Flexibility Score: inf
ROOT
ATOM      1  C   UNL A   1      33.284  34.519  28.800  1.00  0.00     0.002 C 
ENDROOT
BRANCH   1   2
ATOM      2  C   UNL A   1      34.164  33.152  28.898  1.00  0.00     0.021 C 
BRANCH   2   3
ATOM      3  C   UNL A   1      34.361  32.085  27.778  1.00  0.00     0.116 C 
BRANCH   3   4
ATOM      4  N   UNL A   1      34.177  30.669  28.014  1.00  0.00    -0.351 N 
ATOM      5  C   UNL A   1      33.780  29.717  27.098  1.00  0.00     0.279 C 
ATOM      6  O   UNL A   1      34.095  28.547  27.367  1.00  0.00    -0.268 OA
ATOM      7  H   UNL A   1      34.356  30.350  28.929  1.00  0.00     0.163 HD
BRANCH   5   8
ATOM      8  C   UNL A   1      33.039  29.972  25.739  1.00  0.00     0.283 C 
ATOM      9  C   UNL A   1      32.271  28.635  23.844  1.00  0.00     0.274 C 
ATOM     10  N   UNL A   1      33.452  29.105  24.605  1.00  0.00    -0.321 N 
ATOM     11  S   UNL A   1      30.896  29.718  24.222  1.00  0.00    -0.088 SA
ATOM     12  H   UNL A   1      34.061  29.636  23.983  1.00  0.00     0.348 HD
ATOM     13  H   UNL A   1      33.946  28.293  24.977  1.00  0.00     0.348 HD
ATOM     14  C   UNL A   1      31.526  30.013  25.883  1.00  0.00     0.151 C 
BRANCH   9  15
ATOM     15  C   UNL A   1      32.086  27.162  24.187  1.00  0.00     0.021 A 
ATOM     16  C   UNL A   1      32.197  24.418  23.546  1.00  0.00     0.123 A 
ATOM     17  C   UNL A   1      31.033  25.195  23.361  1.00  0.00     0.047 A 
ATOM     18  C   UNL A   1      33.322  24.985  24.335  1.00  0.00     0.016 A 
ATOM     19  C   UNL A   1      30.975  26.542  23.639  1.00  0.00     0.015 A 
ATOM     20  C   UNL A   1      33.135  26.358  24.679  1.00  0.00     0.020 A 
BRANCH  16  21
ATOM     21  O   UNL A   1      31.831  23.175  23.105  1.00  0.00    -0.496 OA
ATOM     22  C   UNL A   1      32.294  21.885  22.606  1.00  0.00     0.278 C 
ENDBRANCH  16  21
BRANCH  18  23
ATOM     23  C   UNL A   1      34.813  24.572  24.895  1.00  0.00     0.184 C 
BRANCH  23  24
ATOM     24  N   UNL A   1      35.317  23.142  25.084  1.00  0.00    -0.264 N 
ATOM     25  N   UNL A   1      34.416  22.160  25.378  1.00  0.00    -0.177 NA
ATOM     26  C   UNL A   1      36.578  22.596  25.343  1.00  0.00     0.050 A 
ATOM     27  C   UNL A   1      35.046  21.010  25.092  1.00  0.00     0.074 A 
ATOM     28  C   UNL A   1      36.422  21.244  25.088  1.00  0.00     0.061 A 
ATOM     29  C   UNL A   1      37.789  23.275  25.837  1.00  0.00     0.067 C 
ATOM     30  C   UNL A   1      34.270  19.759  24.849  1.00  0.00     0.070 C 
ATOM     31  Br  UNL A   1      37.744  19.928  24.922  1.00  0.00    -0.047 Br
ENDBRANCH  23  24
ENDBRANCH  18  23
ENDBRANCH   9  15
ENDBRANCH   5   8
ENDBRANCH   3   4
ENDBRANCH   2   3
ENDBRANCH   1   2
BRANCH   1  32
ATOM     32  C   UNL A   1      33.313  36.210  28.982  1.00  0.00     0.002 C 
BRANCH  32  33
ATOM     33  C   UNL A   1      33.235  37.484  29.999  1.00  0.00     0.021 C 
BRANCH  33  34
ATOM     34  C   UNL A   1      33.224  37.775  31.522  1.00  0.00     0.116 C 
BRANCH  34  35
ATOM     35  N   UNL A   1      33.587  36.786  32.501  1.00  0.00    -0.352 N 
ATOM     36  C   UNL A   1      33.073  35.522  32.537  1.00  0.00     0.251 C 
ATOM     37  H   UNL A   1      34.246  37.036  33.189  1.00  0.00     0.163 HD
ATOM     38  O   UNL A   1      31.879  35.247  32.517  1.00  0.00    -0.269 OA
BRANCH  36  39
ATOM     39  C   UNL A   1      34.126  34.500  32.328  1.00  0.00     0.039 A 
ATOM     40  C   UNL A   1      35.329  34.961  31.784  1.00  0.00     0.014 A 
ATOM     41  C   UNL A   1      34.057  33.266  32.987  1.00  0.00     0.014 A 
ATOM     42  C   UNL A   1      36.494  34.234  31.992  1.00  0.00     0.010 A 
ATOM     43  C   UNL A   1      35.232  32.592  33.271  1.00  0.00     0.010 A 
ATOM     44  C   UNL A   1      36.454  33.080  32.784  1.00  0.00    -0.014 A 
BRANCH  44  45
ATOM     45  C   UNL A   1      37.683  32.341  33.119  1.00  0.00     0.031 A 
ATOM     46  C   UNL A   1      38.396  32.688  34.388  1.00  0.00     0.074 A 
ATOM     47  C   UNL A   1      38.180  31.458  32.233  1.00  0.00     0.049 A 
ATOM     48  N   UNL A   1      39.542  32.259  34.838  1.00  0.00    -0.248 NA
ATOM     49  C   UNL A   1      37.756  33.706  35.241  1.00  0.00     0.031 C 
ATOM     50  C   UNL A   1      37.581  31.131  30.937  1.00  0.00     0.029 A 
ATOM     51  N   UNL A   1      39.309  30.685  32.280  1.00  0.00    -0.354 N 
ATOM     52  C   UNL A   1      39.767  32.969  36.009  1.00  0.00     0.074 A 
ATOM     53  C   UNL A   1      38.687  33.915  36.157  1.00  0.00     0.031 C 
ATOM     54  C   UNL A   1      38.331  30.202  30.324  1.00  0.00     0.029 A 
ATOM     55  C   UNL A   1      39.479  29.893  31.169  1.00  0.00     0.049 A 
ATOM     56  H   UNL A   1      39.938  30.695  33.036  1.00  0.00     0.167 HD
ATOM     57  C   UNL A   1      40.775  32.811  36.896  1.00  0.00     0.037 A 
ATOM     58  C   UNL A   1      40.460  29.018  30.885  1.00  0.00     0.037 A 
ATOM     59  C   UNL A   1      41.813  31.831  36.728  1.00  0.00     0.049 A 
ATOM     60  C   UNL A   1      41.547  28.830  31.908  1.00  0.00     0.074 A 
ATOM     61  C   UNL A   1      42.853  31.515  37.579  1.00  0.00     0.029 A 
ATOM     62  N   UNL A   1      41.928  31.000  35.619  1.00  0.00    -0.354 N 
ATOM     63  N   UNL A   1      41.716  29.444  33.057  1.00  0.00    -0.248 NA
ATOM     64  C   UNL A   1      42.572  27.824  31.609  1.00  0.00     0.031 C 
ATOM     65  C   UNL A   1      43.625  30.524  36.964  1.00  0.00     0.029 A 
ATOM     66  C   UNL A   1      43.033  30.181  35.757  1.00  0.00     0.049 A 
ATOM     67  H   UNL A   1      41.313  30.996  34.850  1.00  0.00     0.167 HD
ATOM     68  C   UNL A   1      42.844  28.881  33.632  1.00  0.00     0.074 A 
ATOM     69  C   UNL A   1      43.309  27.861  32.709  1.00  0.00     0.031 C 
ATOM     70  C   UNL A   1      43.448  29.174  34.811  1.00  0.00     0.037 A 
BRANCH  57  71
ATOM     71  C   UNL A   1      40.783  33.702  38.105  1.00  0.00     0.064 A 
ATOM     72  C   UNL A   1      39.980  33.434  39.227  1.00  0.00     0.173 A 
ATOM     73  C   UNL A   1      41.595  34.843  38.144  1.00  0.00     0.173 A 
ATOM     74  F   UNL A   1      39.166  32.366  39.236  1.00  0.00    -0.203 F 
ATOM     75  C   UNL A   1      39.962  34.294  40.322  1.00  0.00     0.198 A 
ATOM     76  C   UNL A   1      41.603  35.682  39.257  1.00  0.00     0.198 A 
ATOM     77  F   UNL A   1      42.378  35.154  37.099  1.00  0.00    -0.203 F 
ATOM     78  F   UNL A   1      39.136  34.052  41.348  1.00  0.00    -0.200 F 
ATOM     79  C   UNL A   1      40.780  35.413  40.339  1.00  0.00     0.200 A 
ATOM     80  F   UNL A   1      42.400  36.760  39.275  1.00  0.00    -0.200 F 
ATOM     81  F   UNL A   1      40.764  36.238  41.394  1.00  0.00    -0.200 F 
ENDBRANCH  57  71
BRANCH  58  82
ATOM     82  C   UNL A   1      40.423  28.232  29.623  1.00  0.00     0.064 A 
ATOM     83  C   UNL A   1      39.661  27.057  29.527  1.00  0.00     0.173 A 
ATOM     84  C   UNL A   1      41.127  28.641  28.481  1.00  0.00     0.173 A 
ATOM     85  F   UNL A   1      38.975  26.617  30.593  1.00  0.00    -0.203 F 
ATOM     86  C   UNL A   1      39.626  26.311  28.350  1.00  0.00     0.198 A 
ATOM     87  C   UNL A   1      41.068  27.910  27.294  1.00  0.00     0.198 A 
ATOM     88  F   UNL A   1      41.860  29.764  28.510  1.00  0.00    -0.203 F 
ATOM     89  F   UNL A   1      38.924  25.171  28.303  1.00  0.00    -0.200 F 
ATOM     90  C   UNL A   1      40.325  26.741  27.233  1.00  0.00     0.200 A 
ATOM     91  F   UNL A   1      41.728  28.340  26.211  1.00  0.00    -0.200 F 
ATOM     92  F   UNL A   1      40.286  26.028  26.099  1.00  0.00    -0.200 F 
ENDBRANCH  58  82
BRANCH  70  93
ATOM     93  C   UNL A   1      44.650  28.356  35.176  1.00  0.00     0.064 A 
ATOM     94  C   UNL A   1      45.951  28.787  34.881  1.00  0.00     0.173 A 
ATOM     95  C   UNL A   1      44.495  27.150  35.877  1.00  0.00     0.173 A 
ATOM     96  F   UNL A   1      46.146  29.927  34.200  1.00  0.00    -0.203 F 
ATOM     97  C   UNL A   1      47.053  28.024  35.249  1.00  0.00     0.198 A 
ATOM     98  C   UNL A   1      45.600  26.410  36.277  1.00  0.00     0.198 A 
ATOM     99  F   UNL A   1      43.269  26.703  36.193  1.00  0.00    -0.203 F 
ATOM    100  F   UNL A   1      48.286  28.427  34.910  1.00  0.00    -0.200 F 
ATOM    101  C   UNL A   1      46.879  26.843  35.954  1.00  0.00     0.200 A 
ATOM    102  F   UNL A   1      45.431  25.280  36.975  1.00  0.00    -0.200 F 
ATOM    103  F   UNL A   1      47.944  26.117  36.319  1.00  0.00    -0.200 F 
ENDBRANCH  70  93
ENDBRANCH  44  45
ENDBRANCH  36  39
ENDBRANCH  34  35
ENDBRANCH  33  34
ENDBRANCH  32  33
ENDBRANCH   1  32
TORSDOF 17
ENDMDL
MODEL 3
REMARK VINA RESULT:     -13.1      4.388     10.044
REMARK SMILES COc1ccc([C@@H]2[NH2+][C@H](C(=O)NCCCCCCNC(=O)c3ccc(-c4c5nc(c(-c6c(F)c(F)c(F)c(F)c6F)c6ccc([nH]6)c(-c6c(F)c(F)c(F)c(F)c6F)c6nc(c(-c7c(F)c(F)c(F)c(F)c7F)c7ccc4[nH]7)C=C6)C=C5)cc3)CS2)cc1Cn1nc(C)c(Br)c1C
REMARK SMILES IDX 15 1 14 2 13 3 12 4 10 5 11 6 9 8 7 9 8 10 86 11 85 14 6 15
REMARK SMILES IDX 3 16 4 17 88 18 5 19 87 20 2 21 1 22 89 23 90 24 91 25 96 26
REMARK SMILES IDX 92 27 94 28 97 29 93 30 95 31 16 32 17 33 18 34 19 35 20 36
REMARK SMILES IDX 21 38 22 39 23 40 84 41 24 42 83 43 25 44 26 45 27 46 77 47
REMARK SMILES IDX 28 48 82 49 76 50 78 51 29 52 81 53 75 54 74 55 30 57 62 58
REMARK SMILES IDX 42 59 61 60 43 61 46 62 60 63 79 64 44 65 45 66 59 68 80 69
REMARK SMILES IDX 47 70 31 71 32 72 40 73 33 74 34 75 38 76 41 77 35 78 36 79
REMARK SMILES IDX 39 80 37 81 63 82 64 83 72 84 65 85 66 86 70 87 73 88 67 89
REMARK SMILES IDX 68 90 71 91 69 92 48 93 49 94 57 95 50 96 51 97 55 98 58 99
REMARK SMILES IDX 52 100 53 101 56 102 54 103
REMARK H PARENT 12 7 8 12 8 13 19 37 78 56 46 67
REMARK Flexibility Score: inf
ROOT
ATOM      1  C   UNL A   1      28.854  31.220  23.528  1.00  0.00     0.002 C 
ENDROOT
BRANCH   1   2
ATOM      2  C   UNL A   1      28.570  30.004  22.482  1.00  0.00     0.021 C 
BRANCH   2   3
ATOM      3  C   UNL A   1      29.369  28.671  22.359  1.00  0.00     0.116 C 
BRANCH   3   4
ATOM      4  N   UNL A   1      30.787  28.641  22.065  1.00  0.00    -0.351 N 
ATOM      5  C   UNL A   1      31.812  28.335  22.937  1.00  0.00     0.279 C 
ATOM      6  O   UNL A   1      32.868  27.950  22.411  1.00  0.00    -0.268 OA
ATOM      7  H   UNL A   1      31.048  28.865  21.143  1.00  0.00     0.163 HD
BRANCH   5   8
ATOM      8  C   UNL A   1      31.751  28.361  24.504  1.00  0.00     0.283 C 
ATOM      9  C   UNL A   1      31.198  26.796  26.297  1.00  0.00     0.274 C 
ATOM     10  N   UNL A   1      30.680  27.538  25.124  1.00  0.00    -0.321 N 
ATOM     11  S   UNL A   1      32.707  27.594  26.841  1.00  0.00    -0.088 SA
ATOM     12  H   UNL A   1      29.920  28.148  25.423  1.00  0.00     0.348 HD
ATOM     13  H   UNL A   1      30.345  26.865  24.434  1.00  0.00     0.348 HD
ATOM     14  C   UNL A   1      33.099  28.100  25.158  1.00  0.00     0.151 C 
BRANCH   9  15
ATOM     15  C   UNL A   1      31.318  25.337  25.877  1.00  0.00     0.021 A 
ATOM     16  C   UNL A   1      32.440  23.273  24.316  1.00  0.00     0.123 A 
ATOM     17  C   UNL A   1      31.274  23.969  23.931  1.00  0.00     0.047 A 
ATOM     18  C   UNL A   1      32.957  23.447  25.699  1.00  0.00     0.016 A 
ATOM     19  C   UNL A   1      30.734  24.999  24.668  1.00  0.00     0.015 A 
ATOM     20  C   UNL A   1      32.271  24.460  26.435  1.00  0.00     0.020 A 
BRANCH  16  21
ATOM     21  O   UNL A   1      32.643  22.388  23.293  1.00  0.00    -0.496 OA
ATOM     22  C   UNL A   1      32.153  21.194  22.613  1.00  0.00     0.278 C 
ENDBRANCH  16  21
BRANCH  18  23
ATOM     23  C   UNL A   1      34.161  22.904  26.681  1.00  0.00     0.184 C 
BRANCH  23  24
ATOM     24  N   UNL A   1      35.629  22.770  26.281  1.00  0.00    -0.264 N 
ATOM     25  N   UNL A   1      36.376  23.903  26.129  1.00  0.00    -0.177 NA
ATOM     26  C   UNL A   1      36.377  21.738  25.705  1.00  0.00     0.050 A 
ATOM     27  C   UNL A   1      37.652  23.491  26.182  1.00  0.00     0.074 A 
ATOM     28  C   UNL A   1      37.693  22.126  25.892  1.00  0.00     0.061 A 
ATOM     29  C   UNL A   1      35.894  20.537  25.001  1.00  0.00     0.067 C 
ATOM     30  C   UNL A   1      38.748  24.452  26.503  1.00  0.00     0.070 C 
ATOM     31  Br  UNL A   1      39.251  21.114  25.660  1.00  0.00    -0.047 Br
ENDBRANCH  23  24
ENDBRANCH  18  23
ENDBRANCH   9  15
ENDBRANCH   5   8
ENDBRANCH   3   4
ENDBRANCH   2   3
ENDBRANCH   1   2
BRANCH   1  32
ATOM     32  C   UNL A   1      29.973  31.878  24.628  1.00  0.00     0.002 C 
BRANCH  32  33
ATOM     33  C   UNL A   1      30.652  31.799  26.110  1.00  0.00     0.021 C 
BRANCH  33  34
ATOM     34  C   UNL A   1      31.913  31.217  26.797  1.00  0.00     0.116 C 
BRANCH  34  35
ATOM     35  N   UNL A   1      33.211  31.826  26.677  1.00  0.00    -0.352 N 
ATOM     36  C   UNL A   1      33.925  32.313  27.733  1.00  0.00     0.251 C 
ATOM     37  H   UNL A   1      33.608  31.896  25.779  1.00  0.00     0.163 HD
ATOM     38  O   UNL A   1      33.496  33.096  28.572  1.00  0.00    -0.269 OA
BRANCH  36  39
ATOM     39  C   UNL A   1      35.201  31.580  27.912  1.00  0.00     0.039 A 
ATOM     40  C   UNL A   1      36.339  32.370  28.108  1.00  0.00     0.014 A 
ATOM     41  C   UNL A   1      35.198  30.221  28.253  1.00  0.00     0.014 A 
ATOM     42  C   UNL A   1      37.445  31.824  28.746  1.00  0.00     0.010 A 
ATOM     43  C   UNL A   1      36.264  29.708  28.968  1.00  0.00     0.010 A 
ATOM     44  C   UNL A   1      37.386  30.510  29.227  1.00  0.00    -0.014 A 
BRANCH  44  45
ATOM     45  C   UNL A   1      38.495  29.930  30.004  1.00  0.00     0.031 A 
ATOM     46  C   UNL A   1      38.684  30.382  31.417  1.00  0.00     0.074 A 
ATOM     47  C   UNL A   1      39.358  29.098  29.393  1.00  0.00     0.049 A 
ATOM     48  N   UNL A   1      39.643  30.102  32.255  1.00  0.00    -0.248 NA
ATOM     49  C   UNL A   1      37.683  31.331  31.940  1.00  0.00     0.031 C 
ATOM     50  C   UNL A   1      39.283  28.679  27.991  1.00  0.00     0.029 A 
ATOM     51  N   UNL A   1      40.477  28.467  29.866  1.00  0.00    -0.354 N 
ATOM     52  C   UNL A   1      39.372  30.854  33.390  1.00  0.00     0.074 A 
ATOM     53  C   UNL A   1      38.213  31.665  33.106  1.00  0.00     0.031 C 
ATOM     54  C   UNL A   1      40.293  27.836  27.726  1.00  0.00     0.029 A 
ATOM     55  C   UNL A   1      41.104  27.682  28.928  1.00  0.00     0.049 A 
ATOM     56  H   UNL A   1      40.801  28.566  30.790  1.00  0.00     0.167 HD
ATOM     57  C   UNL A   1      40.021  30.833  34.575  1.00  0.00     0.037 A 
ATOM     58  C   UNL A   1      42.210  26.926  29.047  1.00  0.00     0.037 A 
ATOM     59  C   UNL A   1      41.151  29.982  34.828  1.00  0.00     0.049 A 
ATOM     60  C   UNL A   1      42.890  26.887  30.389  1.00  0.00     0.074 A 
ATOM     61  C   UNL A   1      41.861  29.808  35.999  1.00  0.00     0.029 A 
ATOM     62  N   UNL A   1      41.731  29.152  33.875  1.00  0.00    -0.354 N 
ATOM     63  N   UNL A   1      42.585  27.537  31.488  1.00  0.00    -0.248 NA
ATOM     64  C   UNL A   1      44.056  26.007  30.515  1.00  0.00     0.031 C 
ATOM     65  C   UNL A   1      42.899  28.907  35.743  1.00  0.00     0.029 A 
ATOM     66  C   UNL A   1      42.801  28.474  34.428  1.00  0.00     0.049 A 
ATOM     67  H   UNL A   1      41.424  29.061  32.943  1.00  0.00     0.167 HD
ATOM     68  C   UNL A   1      43.498  27.124  32.445  1.00  0.00     0.074 A 
ATOM     69  C   UNL A   1      44.359  26.152  31.797  1.00  0.00     0.031 C 
ATOM     70  C   UNL A   1      43.622  27.508  33.741  1.00  0.00     0.037 A 
BRANCH  57  71
ATOM     71  C   UNL A   1      39.515  31.739  35.661  1.00  0.00     0.064 A 
ATOM     72  C   UNL A   1      40.030  33.034  35.843  1.00  0.00     0.173 A 
ATOM     73  C   UNL A   1      38.509  31.309  36.536  1.00  0.00     0.173 A 
ATOM     74  F   UNL A   1      41.010  33.490  35.047  1.00  0.00    -0.203 F 
ATOM     75  C   UNL A   1      39.584  33.846  36.882  1.00  0.00     0.198 A 
ATOM     76  C   UNL A   1      38.039  32.138  37.553  1.00  0.00     0.198 A 
ATOM     77  F   UNL A   1      37.984  30.080  36.415  1.00  0.00    -0.203 F 
ATOM     78  F   UNL A   1      40.141  35.049  37.077  1.00  0.00    -0.200 F 
ATOM     79  C   UNL A   1      38.583  33.400  37.732  1.00  0.00     0.200 A 
ATOM     80  F   UNL A   1      37.065  31.709  38.368  1.00  0.00    -0.200 F 
ATOM     81  F   UNL A   1      38.153  34.184  38.730  1.00  0.00    -0.200 F 
ENDBRANCH  57  71
BRANCH  58  82
ATOM     82  C   UNL A   1      42.696  26.119  27.895  1.00  0.00     0.064 A 
ATOM     83  C   UNL A   1      42.231  24.812  27.684  1.00  0.00     0.173 A 
ATOM     84  C   UNL A   1      43.616  26.636  26.971  1.00  0.00     0.173 A 
ATOM     85  F   UNL A   1      41.356  24.267  28.542  1.00  0.00    -0.203 F 
ATOM     86  C   UNL A   1      42.685  24.048  26.610  1.00  0.00     0.198 A 
ATOM     87  C   UNL A   1      44.048  25.881  25.881  1.00  0.00     0.198 A 
ATOM     88  F   UNL A   1      44.083  27.885  27.116  1.00  0.00    -0.203 F 
ATOM     89  F   UNL A   1      42.255  22.787  26.459  1.00  0.00    -0.200 F 
ATOM     90  C   UNL A   1      43.590  24.584  25.707  1.00  0.00     0.200 A 
ATOM     91  F   UNL A   1      44.906  26.411  24.999  1.00  0.00    -0.200 F 
ATOM     92  F   UNL A   1      44.021  23.851  24.672  1.00  0.00    -0.200 F 
ENDBRANCH  58  82
BRANCH  70  93
ATOM     93  C   UNL A   1      44.704  26.846  34.540  1.00  0.00     0.064 A 
ATOM     94  C   UNL A   1      44.467  25.671  35.267  1.00  0.00     0.173 A 
ATOM     95  C   UNL A   1      46.006  27.369  34.532  1.00  0.00     0.173 A 
ATOM     96  F   UNL A   1      43.235  25.142  35.314  1.00  0.00    -0.203 F 
ATOM     97  C   UNL A   1      45.491  25.059  35.982  1.00  0.00     0.198 A 
ATOM     98  C   UNL A   1      47.034  26.734  35.217  1.00  0.00     0.198 A 
ATOM     99  F   UNL A   1      46.283  28.486  33.840  1.00  0.00    -0.203 F 
ATOM    100  F   UNL A   1      45.233  23.967  36.715  1.00  0.00    -0.200 F 
ATOM    101  C   UNL A   1      46.774  25.585  35.950  1.00  0.00     0.200 A 
ATOM    102  F   UNL A   1      48.277  27.231  35.168  1.00  0.00    -0.200 F 
ATOM    103  F   UNL A   1      47.761  24.986  36.629  1.00  0.00    -0.200 F 
ENDBRANCH  70  93
ENDBRANCH  44  45
ENDBRANCH  36  39
ENDBRANCH  34  35
ENDBRANCH  33  34
ENDBRANCH  32  33
ENDBRANCH   1  32
TORSDOF 17
ENDMDL
