MODEL 1
REMARK VINA RESULT:     -12.5      0.000      0.000
REMARK SMILES C[C@]1(O)CC[C@H]2[C@H]3CCC4=C/C(=N/OCC(=O)N[C@@H](CO)C(=O)NCCCCCCNC(=O)c5ccc(-c6c7nc(c(-c8c(F)c(F)c(F)c(F)c8F)c8ccc([nH]8)c(-c8c(F)c(F)c(F)c(F)c8F)c8nc(c(-c9c(F)c(F)c(F)c(F)c9F)c9ccc6[nH]9)C=C8)C=C7)cc5)CC[C@@]4(C)[C@@H]3CC[C@]21C
REMARK SMILES IDX 26 1 25 2 24 3 22 4 23 5 19 7 18 8 16 9 17 10 15 12 14 13
REMARK SMILES IDX 13 14 100 15 99 16 98 17 10 18 101 19 97 20 11 21 9 22 7 23
REMARK SMILES IDX 102 24 12 25 8 26 6 27 103 28 104 29 5 30 2 31 105 32 4 33
REMARK SMILES IDX 1 34 3 35 20 37 21 38 27 40 28 41 29 42 30 43 31 44 32 45
REMARK SMILES IDX 33 47 34 48 35 49 96 50 36 51 95 52 37 53 38 54 39 55 89 56
REMARK SMILES IDX 40 57 94 58 88 59 90 60 41 61 93 62 87 63 86 64 42 66 74 67
REMARK SMILES IDX 54 68 73 69 55 70 58 71 72 72 91 73 56 74 57 75 71 77 92 78
REMARK SMILES IDX 59 79 43 80 44 81 52 82 45 83 46 84 50 85 53 86 47 87 48 88
REMARK SMILES IDX 51 89 49 90 75 91 76 92 84 93 77 94 78 95 82 96 85 97 79 98
REMARK SMILES IDX 80 99 83 100 81 101 60 102 61 103 69 104 62 105 63 106
REMARK SMILES IDX 67 107 70 108 64 109 65 110 68 111 66 112
REMARK H PARENT 24 6 18 11 3 36 21 39 31 46 90 65 58 76
REMARK Flexibility Score: inf
ROOT
ATOM      1  C   UNL A   1      44.031  23.089  29.470  1.00  0.00     0.021 C 
ENDROOT
BRANCH   1   2
ATOM      2  C   UNL A   1      42.609  22.844  28.985  1.00  0.00     0.116 C 
BRANCH   2   3
ATOM      3  N   UNL A   1      42.470  21.501  28.488  1.00  0.00    -0.354 N 
ATOM      4  C   UNL A   1      41.615  21.088  27.517  1.00  0.00     0.244 C 
ATOM      5  O   UNL A   1      41.146  19.950  27.624  1.00  0.00    -0.273 OA
ATOM      6  H   UNL A   1      43.052  20.814  28.889  1.00  0.00     0.163 HD
BRANCH   4   7
ATOM      7  C   UNL A   1      41.234  21.978  26.305  1.00  0.00     0.197 C 
BRANCH   7   8
ATOM      8  N   UNL A   1      40.143  22.938  26.456  1.00  0.00    -0.339 N 
ATOM      9  C   UNL A   1      38.821  22.835  26.078  1.00  0.00     0.261 C 
ATOM     10  O   UNL A   1      38.149  23.867  26.159  1.00  0.00    -0.271 OA
ATOM     11  H   UNL A   1      40.389  23.785  26.895  1.00  0.00     0.164 HD
BRANCH   9  12
ATOM     12  C   UNL A   1      38.158  21.476  25.671  1.00  0.00     0.363 C 
BRANCH  12  13
ATOM     13  O   UNL A   1      36.820  21.359  25.160  1.00  0.00    -0.385 OA
BRANCH  13  14
ATOM     14  N   UNL A   1      35.753  21.428  26.126  1.00  0.00    -0.091 NA
ATOM     15  C   UNL A   1      34.371  23.937  26.227  1.00  0.00     0.016 C 
ATOM     16  C   UNL A   1      33.287  23.477  25.195  1.00  0.00    -0.008 C 
ATOM     17  C   UNL A   1      33.753  22.657  23.914  1.00  0.00     0.018 C 
ATOM     18  C   UNL A   1      32.518  22.513  26.075  1.00  0.00    -0.062 C 
ATOM     19  C   UNL A   1      32.598  24.774  24.671  1.00  0.00     0.002 C 
ATOM     20  C   UNL A   1      34.262  21.231  24.170  1.00  0.00     0.061 C 
ATOM     21  C   UNL A   1      33.226  21.392  26.422  1.00  0.00     0.027 C 
ATOM     22  C   UNL A   1      31.249  23.049  26.717  1.00  0.00     0.032 C 
ATOM     23  C   UNL A   1      31.775  25.427  25.795  1.00  0.00    -0.003 C 
ATOM     24  C   UNL A   1      33.680  25.668  24.038  1.00  0.00     0.005 C 
ATOM     25  C   UNL A   1      34.553  21.233  25.633  1.00  0.00     0.080 C 
ATOM     26  C   UNL A   1      30.669  24.406  26.155  1.00  0.00     0.008 C 
ATOM     27  C   UNL A   1      31.418  26.923  25.519  1.00  0.00     0.001 C 
ATOM     28  C   UNL A   1      33.364  27.125  23.889  1.00  0.00     0.010 C 
ATOM     29  C   UNL A   1      32.671  27.767  25.116  1.00  0.00    -0.001 C 
ATOM     30  C   UNL A   1      30.448  27.264  24.387  1.00  0.00     0.007 C 
ATOM     31  C   UNL A   1      32.095  29.136  24.643  1.00  0.00     0.068 C 
ATOM     32  C   UNL A   1      33.641  27.917  26.300  1.00  0.00     0.015 C 
ATOM     33  C   UNL A   1      30.731  28.748  24.027  1.00  0.00     0.036 C 
ATOM     34  C   UNL A   1      31.967  30.221  25.714  1.00  0.00     0.042 C 
BRANCH  31  35
ATOM     35  O   UNL A   1      32.956  29.703  23.645  1.00  0.00    -0.390 OA
ATOM     36  H   UNL A   1      33.698  30.156  24.078  1.00  0.00     0.211 HD
ENDBRANCH  31  35
ENDBRANCH  13  14
ENDBRANCH  12  13
ENDBRANCH   9  12
ENDBRANCH   7   8
BRANCH   7  37
ATOM     37  C   UNL A   1      42.378  22.513  25.418  1.00  0.00     0.191 C 
BRANCH  37  38
ATOM     38  O   UNL A   1      43.605  21.800  25.509  1.00  0.00    -0.394 OA
ATOM     39  H   UNL A   1      43.925  21.823  26.425  1.00  0.00     0.210 HD
ENDBRANCH  37  38
ENDBRANCH   7  37
ENDBRANCH   4   7
ENDBRANCH   2   3
ENDBRANCH   1   2
BRANCH   1  40
ATOM     40  C   UNL A   1      45.059  23.345  28.369  1.00  0.00     0.002 C 
BRANCH  40  41
ATOM     41  C   UNL A   1      45.465  24.806  28.158  1.00  0.00     0.002 C 
BRANCH  41  42
ATOM     42  C   UNL A   1      46.264  25.096  26.887  1.00  0.00     0.021 C 
BRANCH  42  43
ATOM     43  C   UNL A   1      45.774  26.284  26.074  1.00  0.00     0.116 C 
BRANCH  43  44
ATOM     44  N   UNL A   1      44.806  25.914  25.060  1.00  0.00    -0.352 N 
ATOM     45  C   UNL A   1      43.435  26.013  25.123  1.00  0.00     0.251 C 
ATOM     46  H   UNL A   1      45.174  25.546  24.224  1.00  0.00     0.163 HD
ATOM     47  O   UNL A   1      42.725  25.545  24.251  1.00  0.00    -0.269 OA
BRANCH  45  48
ATOM     48  C   UNL A   1      42.836  26.678  26.300  1.00  0.00     0.039 A 
ATOM     49  C   UNL A   1      42.058  25.924  27.181  1.00  0.00     0.014 A 
ATOM     50  C   UNL A   1      43.094  28.028  26.555  1.00  0.00     0.014 A 
ATOM     51  C   UNL A   1      41.582  26.513  28.353  1.00  0.00     0.010 A 
ATOM     52  C   UNL A   1      42.686  28.588  27.759  1.00  0.00     0.010 A 
ATOM     53  C   UNL A   1      41.918  27.840  28.666  1.00  0.00    -0.014 A 
BRANCH  53  54
ATOM     54  C   UNL A   1      41.444  28.496  29.911  1.00  0.00     0.031 A 
ATOM     55  C   UNL A   1      40.238  29.393  29.852  1.00  0.00     0.074 A 
ATOM     56  C   UNL A   1      42.126  28.346  31.063  1.00  0.00     0.049 A 
ATOM     57  N   UNL A   1      39.747  30.186  30.770  1.00  0.00    -0.248 NA
ATOM     58  C   UNL A   1      39.503  29.426  28.576  1.00  0.00     0.031 C 
ATOM     59  C   UNL A   1      43.317  27.515  31.244  1.00  0.00     0.029 A 
ATOM     60  N   UNL A   1      41.922  28.907  32.300  1.00  0.00    -0.354 N 
ATOM     61  C   UNL A   1      38.660  30.816  30.179  1.00  0.00     0.074 A 
ATOM     62  C   UNL A   1      38.597  30.364  28.808  1.00  0.00     0.031 C 
ATOM     63  C   UNL A   1      43.733  27.613  32.518  1.00  0.00     0.029 A 
ATOM     64  C   UNL A   1      42.869  28.549  33.231  1.00  0.00     0.049 A 
ATOM     65  H   UNL A   1      41.170  29.508  32.501  1.00  0.00     0.167 HD
ATOM     66  C   UNL A   1      37.774  31.672  30.739  1.00  0.00     0.037 A 
ATOM     67  C   UNL A   1      43.028  28.951  34.507  1.00  0.00     0.037 A 
ATOM     68  C   UNL A   1      37.824  32.102  32.111  1.00  0.00     0.049 A 
ATOM     69  C   UNL A   1      42.053  29.944  35.090  1.00  0.00     0.074 A 
ATOM     70  C   UNL A   1      36.969  32.959  32.779  1.00  0.00     0.029 A 
ATOM     71  N   UNL A   1      38.784  31.697  33.027  1.00  0.00    -0.354 N 
ATOM     72  N   UNL A   1      41.010  30.507  34.532  1.00  0.00    -0.248 NA
ATOM     73  C   UNL A   1      42.277  30.355  36.484  1.00  0.00     0.031 C 
ATOM     74  C   UNL A   1      37.431  33.101  34.090  1.00  0.00     0.029 A 
ATOM     75  C   UNL A   1      38.541  32.290  34.254  1.00  0.00     0.049 A 
ATOM     76  H   UNL A   1      39.527  31.079  32.833  1.00  0.00     0.167 HD
ATOM     77  C   UNL A   1      40.426  31.292  35.518  1.00  0.00     0.074 A 
ATOM     78  C   UNL A   1      41.228  31.132  36.710  1.00  0.00     0.031 C 
ATOM     79  C   UNL A   1      39.322  32.074  35.443  1.00  0.00     0.037 A 
BRANCH  66  80
ATOM     80  C   UNL A   1      36.659  32.187  29.878  1.00  0.00     0.064 A 
ATOM     81  C   UNL A   1      35.593  31.360  29.492  1.00  0.00     0.173 A 
ATOM     82  C   UNL A   1      36.623  33.532  29.480  1.00  0.00     0.173 A 
ATOM     83  F   UNL A   1      35.586  30.063  29.835  1.00  0.00    -0.203 F 
ATOM     84  C   UNL A   1      34.541  31.855  28.726  1.00  0.00     0.198 A 
ATOM     85  C   UNL A   1      35.555  34.032  28.740  1.00  0.00     0.198 A 
ATOM     86  F   UNL A   1      37.616  34.367  29.824  1.00  0.00    -0.203 F 
ATOM     87  F   UNL A   1      33.555  31.036  28.336  1.00  0.00    -0.200 F 
ATOM     88  C   UNL A   1      34.518  33.193  28.359  1.00  0.00     0.200 A 
ATOM     89  F   UNL A   1      35.526  35.328  28.400  1.00  0.00    -0.200 F 
ATOM     90  F   UNL A   1      33.497  33.672  27.636  1.00  0.00    -0.200 F 
ENDBRANCH  66  80
BRANCH  67  91
ATOM     91  C   UNL A   1      44.148  28.426  35.335  1.00  0.00     0.064 A 
ATOM     92  C   UNL A   1      44.004  27.240  36.070  1.00  0.00     0.173 A 
ATOM     93  C   UNL A   1      45.359  29.123  35.461  1.00  0.00     0.173 A 
ATOM     94  F   UNL A   1      42.858  26.544  36.001  1.00  0.00    -0.203 F 
ATOM     95  C   UNL A   1      45.005  26.796  36.932  1.00  0.00     0.198 A 
ATOM     96  C   UNL A   1      46.375  28.661  36.296  1.00  0.00     0.198 A 
ATOM     97  F   UNL A   1      45.555  30.260  34.777  1.00  0.00    -0.203 F 
ATOM     98  F   UNL A   1      44.808  25.701  37.679  1.00  0.00    -0.200 F 
ATOM     99  C   UNL A   1      46.191  27.506  37.043  1.00  0.00     0.200 A 
ATOM    100  F   UNL A   1      47.525  29.341  36.389  1.00  0.00    -0.200 F 
ATOM    101  F   UNL A   1      47.148  27.088  37.882  1.00  0.00    -0.200 F 
ENDBRANCH  67  91
BRANCH  79 102
ATOM    102  C   UNL A   1      38.857  32.748  36.702  1.00  0.00     0.064 A 
ATOM    103  C   UNL A   1      38.024  32.103  37.627  1.00  0.00     0.173 A 
ATOM    104  C   UNL A   1      39.313  34.039  37.013  1.00  0.00     0.173 A 
ATOM    105  F   UNL A   1      37.552  30.875  37.369  1.00  0.00    -0.203 F 
ATOM    106  C   UNL A   1      37.649  32.734  38.810  1.00  0.00     0.198 A 
ATOM    107  C   UNL A   1      38.962  34.653  38.211  1.00  0.00     0.198 A 
ATOM    108  F   UNL A   1      40.118  34.696  36.164  1.00  0.00    -0.203 F 
ATOM    109  F   UNL A   1      36.819  32.117  39.662  1.00  0.00    -0.200 F 
ATOM    110  C   UNL A   1      38.127  34.003  39.106  1.00  0.00     0.200 A 
ATOM    111  F   UNL A   1      39.439  35.871  38.502  1.00  0.00    -0.200 F 
ATOM    112  F   UNL A   1      37.778  34.601  40.253  1.00  0.00    -0.200 F 
ENDBRANCH  79 102
ENDBRANCH  53  54
ENDBRANCH  45  48
ENDBRANCH  43  44
ENDBRANCH  42  43
ENDBRANCH  41  42
ENDBRANCH  40  41
ENDBRANCH   1  40
TORSDOF 20
ENDMDL
MODEL 2
REMARK VINA RESULT:     -12.5      3.788      9.942
REMARK SMILES C[C@]1(O)CC[C@H]2[C@H]3CCC4=C/C(=N/OCC(=O)N[C@@H](CO)C(=O)NCCCCCCNC(=O)c5ccc(-c6c7nc(c(-c8c(F)c(F)c(F)c(F)c8F)c8ccc([nH]8)c(-c8c(F)c(F)c(F)c(F)c8F)c8nc(c(-c9c(F)c(F)c(F)c(F)c9F)c9ccc6[nH]9)C=C8)C=C7)cc5)CC[C@@]4(C)[C@@H]3CC[C@]21C
REMARK SMILES IDX 26 1 25 2 24 3 22 4 23 5 19 7 18 8 16 9 17 10 15 12 14 13
REMARK SMILES IDX 13 14 100 15 99 16 98 17 10 18 101 19 97 20 11 21 9 22 7 23
REMARK SMILES IDX 102 24 12 25 8 26 6 27 103 28 104 29 5 30 2 31 105 32 4 33
REMARK SMILES IDX 1 34 3 35 20 37 21 38 27 40 28 41 29 42 30 43 31 44 32 45
REMARK SMILES IDX 33 47 34 48 35 49 96 50 36 51 95 52 37 53 38 54 39 55 89 56
REMARK SMILES IDX 40 57 94 58 88 59 90 60 41 61 93 62 87 63 86 64 42 66 74 67
REMARK SMILES IDX 54 68 73 69 55 70 58 71 72 72 91 73 56 74 57 75 71 77 92 78
REMARK SMILES IDX 59 79 43 80 44 81 52 82 45 83 46 84 50 85 53 86 47 87 48 88
REMARK SMILES IDX 51 89 49 90 75 91 76 92 84 93 77 94 78 95 82 96 85 97 79 98
REMARK SMILES IDX 80 99 83 100 81 101 60 102 61 103 69 104 62 105 63 106
REMARK SMILES IDX 67 107 70 108 64 109 65 110 68 111 66 112
REMARK H PARENT 24 6 18 11 3 36 21 39 31 46 90 65 58 76
REMARK Flexibility Score: inf
ROOT
ATOM      1  C   UNL A   1      34.467  31.679  27.851  1.00  0.00     0.021 C 
ENDROOT
BRANCH   1   2
ATOM      2  C   UNL A   1      33.118  31.280  27.268  1.00  0.00     0.116 C 
BRANCH   2   3
ATOM      3  N   UNL A   1      32.797  29.922  27.623  1.00  0.00    -0.354 N 
ATOM      4  C   UNL A   1      32.134  29.025  26.849  1.00  0.00     0.244 C 
ATOM      5  O   UNL A   1      31.401  28.214  27.426  1.00  0.00    -0.273 OA
ATOM      6  H   UNL A   1      33.087  29.613  28.513  1.00  0.00     0.163 HD
BRANCH   4   7
ATOM      7  C   UNL A   1      32.279  28.984  25.306  1.00  0.00     0.197 C 
BRANCH   7   8
ATOM      8  N   UNL A   1      31.171  29.467  24.486  1.00  0.00    -0.339 N 
ATOM      9  C   UNL A   1      30.257  28.759  23.734  1.00  0.00     0.261 C 
ATOM     10  O   UNL A   1      29.533  29.423  22.987  1.00  0.00    -0.271 OA
ATOM     11  H   UNL A   1      31.059  30.445  24.467  1.00  0.00     0.164 HD
BRANCH   9  12
ATOM     12  C   UNL A   1      30.054  27.213  23.881  1.00  0.00     0.363 C 
BRANCH  12  13
ATOM     13  O   UNL A   1      31.086  26.243  23.645  1.00  0.00    -0.385 OA
BRANCH  13  14
ATOM     14  N   UNL A   1      32.021  26.020  24.719  1.00  0.00    -0.091 NA
ATOM     15  C   UNL A   1      32.609  23.268  25.262  1.00  0.00     0.016 C 
ATOM     16  C   UNL A   1      33.847  23.257  24.302  1.00  0.00    -0.008 C 
ATOM     17  C   UNL A   1      33.725  23.982  22.892  1.00  0.00     0.018 C 
ATOM     18  C   UNL A   1      34.800  24.086  25.139  1.00  0.00    -0.062 C 
ATOM     19  C   UNL A   1      34.166  21.758  24.011  1.00  0.00     0.002 C 
ATOM     20  C   UNL A   1      33.634  25.514  22.923  1.00  0.00     0.061 C 
ATOM     21  C   UNL A   1      34.424  25.397  25.274  1.00  0.00     0.027 C 
ATOM     22  C   UNL A   1      35.814  23.316  25.970  1.00  0.00     0.032 C 
ATOM     23  C   UNL A   1      34.687  21.071  25.285  1.00  0.00    -0.003 C 
ATOM     24  C   UNL A   1      32.918  21.118  23.377  1.00  0.00     0.005 C 
ATOM     25  C   UNL A   1      33.256  25.802  24.337  1.00  0.00     0.080 C 
ATOM     26  C   UNL A   1      36.014  21.786  25.636  1.00  0.00     0.008 C 
ATOM     27  C   UNL A   1      34.615  19.511  25.227  1.00  0.00     0.001 C 
ATOM     28  C   UNL A   1      32.809  19.625  23.436  1.00  0.00     0.010 C 
ATOM     29  C   UNL A   1      33.202  18.999  24.796  1.00  0.00    -0.001 C 
ATOM     30  C   UNL A   1      35.520  18.756  24.252  1.00  0.00     0.007 C 
ATOM     31  C   UNL A   1      33.389  17.471  24.552  1.00  0.00     0.068 C 
ATOM     32  C   UNL A   1      32.153  19.295  25.880  1.00  0.00     0.015 C 
ATOM     33  C   UNL A   1      34.845  17.373  24.042  1.00  0.00     0.036 C 
ATOM     34  C   UNL A   1      33.126  16.557  25.750  1.00  0.00     0.042 C 
BRANCH  31  35
ATOM     35  O   UNL A   1      32.471  17.028  23.542  1.00  0.00    -0.390 OA
ATOM     36  H   UNL A   1      32.763  16.170  23.194  1.00  0.00     0.211 HD
ENDBRANCH  31  35
ENDBRANCH  13  14
ENDBRANCH  12  13
ENDBRANCH   9  12
ENDBRANCH   7   8
BRANCH   7  37
ATOM     37  C   UNL A   1      33.657  29.326  24.704  1.00  0.00     0.191 C 
BRANCH  37  38
ATOM     38  O   UNL A   1      33.665  29.585  23.305  1.00  0.00    -0.394 OA
ATOM     39  H   UNL A   1      34.478  29.227  22.914  1.00  0.00     0.210 HD
ENDBRANCH  37  38
ENDBRANCH   7  37
ENDBRANCH   4   7
ENDBRANCH   2   3
ENDBRANCH   1   2
BRANCH   1  40
ATOM     40  C   UNL A   1      34.403  32.473  29.155  1.00  0.00     0.002 C 
BRANCH  40  41
ATOM     41  C   UNL A   1      34.601  33.985  29.029  1.00  0.00     0.002 C 
BRANCH  41  42
ATOM     42  C   UNL A   1      33.322  34.823  29.027  1.00  0.00     0.021 C 
BRANCH  42  43
ATOM     43  C   UNL A   1      33.449  36.195  29.674  1.00  0.00     0.116 C 
BRANCH  43  44
ATOM     44  N   UNL A   1      32.441  36.437  30.688  1.00  0.00    -0.352 N 
ATOM     45  C   UNL A   1      32.402  35.950  31.974  1.00  0.00     0.251 C 
ATOM     46  H   UNL A   1      31.692  37.019  30.424  1.00  0.00     0.163 HD
ATOM     47  O   UNL A   1      31.430  36.124  32.688  1.00  0.00    -0.269 OA
BRANCH  45  48
ATOM     48  C   UNL A   1      33.563  35.179  32.465  1.00  0.00     0.039 A 
ATOM     49  C   UNL A   1      33.372  33.858  32.880  1.00  0.00     0.014 A 
ATOM     50  C   UNL A   1      34.841  35.745  32.458  1.00  0.00     0.014 A 
ATOM     51  C   UNL A   1      34.478  33.085  33.238  1.00  0.00     0.010 A 
ATOM     52  C   UNL A   1      35.945  34.949  32.739  1.00  0.00     0.010 A 
ATOM     53  C   UNL A   1      35.775  33.614  33.141  1.00  0.00    -0.014 A 
BRANCH  53  54
ATOM     54  C   UNL A   1      36.975  32.817  33.497  1.00  0.00     0.031 A 
ATOM     55  C   UNL A   1      37.693  33.110  34.785  1.00  0.00     0.074 A 
ATOM     56  C   UNL A   1      37.458  31.892  32.644  1.00  0.00     0.049 A 
ATOM     57  N   UNL A   1      38.840  32.654  35.220  1.00  0.00    -0.248 NA
ATOM     58  C   UNL A   1      37.045  34.070  35.696  1.00  0.00     0.031 C 
ATOM     59  C   UNL A   1      36.861  31.528  31.358  1.00  0.00     0.029 A 
ATOM     60  N   UNL A   1      38.578  31.101  32.725  1.00  0.00    -0.354 N 
ATOM     61  C   UNL A   1      39.054  33.280  36.441  1.00  0.00     0.074 A 
ATOM     62  C   UNL A   1      37.953  34.193  36.653  1.00  0.00     0.031 C 
ATOM     63  C   UNL A   1      37.613  30.579  30.776  1.00  0.00     0.029 A 
ATOM     64  C   UNL A   1      38.771  30.303  31.622  1.00  0.00     0.049 A 
ATOM     65  H   UNL A   1      39.184  31.105  33.500  1.00  0.00     0.167 HD
ATOM     66  C   UNL A   1      40.063  33.088  37.322  1.00  0.00     0.037 A 
ATOM     67  C   UNL A   1      39.781  29.463  31.324  1.00  0.00     0.037 A 
ATOM     68  C   UNL A   1      41.145  32.163  37.121  1.00  0.00     0.049 A 
ATOM     69  C   UNL A   1      40.917  29.306  32.304  1.00  0.00     0.074 A 
ATOM     70  C   UNL A   1      42.211  31.885  37.956  1.00  0.00     0.029 A 
ATOM     71  N   UNL A   1      41.290  31.355  36.002  1.00  0.00    -0.354 N 
ATOM     72  N   UNL A   1      41.092  29.877  33.470  1.00  0.00    -0.248 NA
ATOM     73  C   UNL A   1      41.997  28.382  31.926  1.00  0.00     0.031 C 
ATOM     74  C   UNL A   1      43.022  30.937  37.328  1.00  0.00     0.029 A 
ATOM     75  C   UNL A   1      42.432  30.582  36.126  1.00  0.00     0.049 A 
ATOM     76  H   UNL A   1      40.673  31.335  35.234  1.00  0.00     0.167 HD
ATOM     77  C   UNL A   1      42.266  29.344  33.985  1.00  0.00     0.074 A 
ATOM     78  C   UNL A   1      42.762  28.402  33.007  1.00  0.00     0.031 C 
ATOM     79  C   UNL A   1      42.879  29.610  35.164  1.00  0.00     0.037 A 
BRANCH  66  80
ATOM     80  C   UNL A   1      40.037  33.878  38.598  1.00  0.00     0.064 A 
ATOM     81  C   UNL A   1      40.755  35.077  38.728  1.00  0.00     0.173 A 
ATOM     82  C   UNL A   1      39.245  33.466  39.680  1.00  0.00     0.173 A 
ATOM     83  F   UNL A   1      41.538  35.508  37.728  1.00  0.00    -0.203 F 
ATOM     84  C   UNL A   1      40.694  35.825  39.900  1.00  0.00     0.198 A 
ATOM     85  C   UNL A   1      39.162  34.233  40.839  1.00  0.00     0.198 A 
ATOM     86  F   UNL A   1      38.536  32.330  39.606  1.00  0.00    -0.203 F 
ATOM     87  F   UNL A   1      41.420  36.946  40.017  1.00  0.00    -0.200 F 
ATOM     88  C   UNL A   1      39.889  35.408  40.951  1.00  0.00     0.200 A 
ATOM     89  F   UNL A   1      38.371  33.837  41.846  1.00  0.00    -0.200 F 
ATOM     90  F   UNL A   1      39.819  36.138  42.072  1.00  0.00    -0.200 F 
ENDBRANCH  66  80
BRANCH  67  91
ATOM     91  C   UNL A   1      39.780  28.697  30.047  1.00  0.00     0.064 A 
ATOM     92  C   UNL A   1      39.256  27.397  29.989  1.00  0.00     0.173 A 
ATOM     93  C   UNL A   1      40.356  29.216  28.878  1.00  0.00     0.173 A 
ATOM     94  F   UNL A   1      38.711  26.845  31.084  1.00  0.00    -0.203 F 
ATOM     95  C   UNL A   1      39.347  26.632  28.828  1.00  0.00     0.198 A 
ATOM     96  C   UNL A   1      40.416  28.463  27.707  1.00  0.00     0.198 A 
ATOM     97  F   UNL A   1      40.867  30.456  28.874  1.00  0.00    -0.203 F 
ATOM     98  F   UNL A   1      38.906  25.366  28.826  1.00  0.00    -0.200 F 
ATOM     99  C   UNL A   1      39.926  27.166  27.687  1.00  0.00     0.200 A 
ATOM    100  F   UNL A   1      40.961  28.989  26.602  1.00  0.00    -0.200 F 
ATOM    101  F   UNL A   1      40.027  26.426  26.575  1.00  0.00    -0.200 F 
ENDBRANCH  67  91
BRANCH  79 102
ATOM    102  C   UNL A   1      44.102  28.812  35.511  1.00  0.00     0.064 A 
ATOM    103  C   UNL A   1      45.392  29.240  35.171  1.00  0.00     0.173 A 
ATOM    104  C   UNL A   1      43.975  27.629  36.258  1.00  0.00     0.173 A 
ATOM    105  F   UNL A   1      45.564  30.356  34.447  1.00  0.00    -0.203 F 
ATOM    106  C   UNL A   1      46.512  28.505  35.551  1.00  0.00     0.198 A 
ATOM    107  C   UNL A   1      45.098  26.914  36.663  1.00  0.00     0.198 A 
ATOM    108  F   UNL A   1      42.763  27.180  36.615  1.00  0.00    -0.203 F 
ATOM    109  F   UNL A   1      47.734  28.910  35.180  1.00  0.00    -0.200 F 
ATOM    110  C   UNL A   1      46.364  27.349  36.305  1.00  0.00     0.200 A 
ATOM    111  F   UNL A   1      44.953  25.808  37.407  1.00  0.00    -0.200 F 
ATOM    112  F   UNL A   1      47.444  26.652  36.683  1.00  0.00    -0.200 F 
ENDBRANCH  79 102
ENDBRANCH  53  54
ENDBRANCH  45  48
ENDBRANCH  43  44
ENDBRANCH  42  43
ENDBRANCH  41  42
ENDBRANCH  40  41
ENDBRANCH   1  40
TORSDOF 20
ENDMDL
MODEL 3
REMARK VINA RESULT:     -11.9      5.576     12.645
REMARK SMILES C[C@]1(O)CC[C@H]2[C@H]3CCC4=C/C(=N/OCC(=O)N[C@@H](CO)C(=O)NCCCCCCNC(=O)c5ccc(-c6c7nc(c(-c8c(F)c(F)c(F)c(F)c8F)c8ccc([nH]8)c(-c8c(F)c(F)c(F)c(F)c8F)c8nc(c(-c9c(F)c(F)c(F)c(F)c9F)c9ccc6[nH]9)C=C8)C=C7)cc5)CC[C@@]4(C)[C@@H]3CC[C@]21C
REMARK SMILES IDX 26 1 25 2 24 3 22 4 23 5 19 7 18 8 16 9 17 10 15 12 14 13
REMARK SMILES IDX 13 14 100 15 99 16 98 17 10 18 101 19 97 20 11 21 9 22 7 23
REMARK SMILES IDX 102 24 12 25 8 26 6 27 103 28 104 29 5 30 2 31 105 32 4 33
REMARK SMILES IDX 1 34 3 35 20 37 21 38 27 40 28 41 29 42 30 43 31 44 32 45
REMARK SMILES IDX 33 47 34 48 35 49 96 50 36 51 95 52 37 53 38 54 39 55 89 56
REMARK SMILES IDX 40 57 94 58 88 59 90 60 41 61 93 62 87 63 86 64 42 66 74 67
REMARK SMILES IDX 54 68 73 69 55 70 58 71 72 72 91 73 56 74 57 75 71 77 92 78
REMARK SMILES IDX 59 79 43 80 44 81 52 82 45 83 46 84 50 85 53 86 47 87 48 88
REMARK SMILES IDX 51 89 49 90 75 91 76 92 84 93 77 94 78 95 82 96 85 97 79 98
REMARK SMILES IDX 80 99 83 100 81 101 60 102 61 103 69 104 62 105 63 106
REMARK SMILES IDX 67 107 70 108 64 109 65 110 68 111 66 112
REMARK H PARENT 24 6 18 11 3 36 21 39 31 46 90 65 58 76
REMARK Flexibility Score: inf
ROOT
ATOM      1  C   UNL A   1      34.518  33.729  33.298  1.00  0.00     0.021 C 
ENDROOT
BRANCH   1   2
ATOM      2  C   UNL A   1      34.551  34.847  32.265  1.00  0.00     0.116 C 
BRANCH   2   3
ATOM      3  N   UNL A   1      33.219  35.309  31.978  1.00  0.00    -0.354 N 
ATOM      4  C   UNL A   1      32.813  35.939  30.845  1.00  0.00     0.244 C 
ATOM      5  O   UNL A   1      31.929  36.795  30.960  1.00  0.00    -0.273 OA
ATOM      6  H   UNL A   1      32.534  35.153  32.669  1.00  0.00     0.163 HD
BRANCH   4   7
ATOM      7  C   UNL A   1      33.405  35.611  29.449  1.00  0.00     0.197 C 
BRANCH   7   8
ATOM      8  N   UNL A   1      33.061  34.336  28.825  1.00  0.00    -0.339 N 
ATOM      9  C   UNL A   1      33.886  33.351  28.323  1.00  0.00     0.261 C 
ATOM     10  O   UNL A   1      33.334  32.452  27.682  1.00  0.00    -0.271 OA
ATOM     11  H   UNL A   1      32.097  34.152  28.751  1.00  0.00     0.164 HD
BRANCH   9  12
ATOM     12  C   UNL A   1      35.421  33.292  28.628  1.00  0.00     0.363 C 
BRANCH  12  13
ATOM     13  O   UNL A   1      36.287  32.238  28.178  1.00  0.00    -0.385 OA
BRANCH  13  14
ATOM     14  N   UNL A   1      36.140  30.960  28.827  1.00  0.00    -0.091 NA
ATOM     15  C   UNL A   1      38.229  29.075  28.279  1.00  0.00     0.016 C 
ATOM     16  C   UNL A   1      39.065  29.513  29.529  1.00  0.00    -0.008 C 
ATOM     17  C   UNL A   1      39.194  31.064  29.855  1.00  0.00     0.018 C 
ATOM     18  C   UNL A   1      38.198  28.909  30.615  1.00  0.00    -0.062 C 
ATOM     19  C   UNL A   1      40.512  28.980  29.299  1.00  0.00     0.002 C 
ATOM     20  C   UNL A   1      37.916  31.765  30.338  1.00  0.00     0.061 C 
ATOM     21  C   UNL A   1      36.970  29.504  30.741  1.00  0.00     0.027 C 
ATOM     22  C   UNL A   1      38.642  27.562  31.163  1.00  0.00     0.032 C 
ATOM     23  C   UNL A   1      40.528  27.443  29.371  1.00  0.00    -0.003 C 
ATOM     24  C   UNL A   1      41.043  29.586  27.988  1.00  0.00     0.005 C 
ATOM     25  C   UNL A   1      36.837  30.819  29.928  1.00  0.00     0.080 C 
ATOM     26  C   UNL A   1      40.107  27.085  30.817  1.00  0.00     0.008 C 
ATOM     27  C   UNL A   1      41.801  26.801  28.731  1.00  0.00     0.001 C 
ATOM     28  C   UNL A   1      42.190  28.888  27.325  1.00  0.00     0.010 C 
ATOM     29  C   UNL A   1      42.078  27.344  27.291  1.00  0.00    -0.001 C 
ATOM     30  C   UNL A   1      43.160  27.010  29.399  1.00  0.00     0.007 C 
ATOM     31  C   UNL A   1      43.490  26.797  26.924  1.00  0.00     0.068 C 
ATOM     32  C   UNL A   1      40.993  26.876  26.306  1.00  0.00     0.015 C 
ATOM     33  C   UNL A   1      44.215  26.753  28.288  1.00  0.00     0.036 C 
ATOM     34  C   UNL A   1      43.526  25.450  26.198  1.00  0.00     0.042 C 
BRANCH  31  35
ATOM     35  O   UNL A   1      44.145  27.712  26.034  1.00  0.00    -0.390 OA
ATOM     36  H   UNL A   1      43.688  28.568  26.057  1.00  0.00     0.211 HD
ENDBRANCH  31  35
ENDBRANCH  13  14
ENDBRANCH  12  13
ENDBRANCH   9  12
ENDBRANCH   7   8
BRANCH   7  37
ATOM     37  C   UNL A   1      33.517  36.762  28.428  1.00  0.00     0.191 C 
BRANCH  37  38
ATOM     38  O   UNL A   1      34.735  36.811  27.694  1.00  0.00    -0.394 OA
ATOM     39  H   UNL A   1      35.346  36.140  28.037  1.00  0.00     0.210 HD
ENDBRANCH  37  38
ENDBRANCH   7  37
ENDBRANCH   4   7
ENDBRANCH   2   3
ENDBRANCH   1   2
BRANCH   1  40
ATOM     40  C   UNL A   1      35.395  33.955  34.529  1.00  0.00     0.002 C 
BRANCH  40  41
ATOM     41  C   UNL A   1      36.784  33.314  34.487  1.00  0.00     0.002 C 
BRANCH  41  42
ATOM     42  C   UNL A   1      37.949  34.230  34.864  1.00  0.00     0.021 C 
BRANCH  42  43
ATOM     43  C   UNL A   1      38.683  33.849  36.141  1.00  0.00     0.116 C 
BRANCH  43  44
ATOM     44  N   UNL A   1      38.133  32.667  36.777  1.00  0.00    -0.352 N 
ATOM     45  C   UNL A   1      38.402  31.349  36.490  1.00  0.00     0.251 C 
ATOM     46  H   UNL A   1      37.488  32.828  37.503  1.00  0.00     0.163 HD
ATOM     47  O   UNL A   1      37.774  30.447  37.014  1.00  0.00    -0.269 OA
BRANCH  45  48
ATOM     48  C   UNL A   1      39.459  31.050  35.500  1.00  0.00     0.039 A 
ATOM     49  C   UNL A   1      40.792  31.283  35.844  1.00  0.00     0.014 A 
ATOM     50  C   UNL A   1      39.129  30.490  34.263  1.00  0.00     0.014 A 
ATOM     51  C   UNL A   1      41.805  30.900  34.962  1.00  0.00     0.010 A 
ATOM     52  C   UNL A   1      40.141  30.039  33.424  1.00  0.00     0.010 A 
ATOM     53  C   UNL A   1      41.488  30.247  33.760  1.00  0.00    -0.014 A 
BRANCH  53  54
ATOM     54  C   UNL A   1      42.538  29.811  32.805  1.00  0.00     0.031 A 
ATOM     55  C   UNL A   1      43.294  28.540  33.078  1.00  0.00     0.074 A 
ATOM     56  C   UNL A   1      42.859  30.580  31.746  1.00  0.00     0.049 A 
ATOM     57  N   UNL A   1      44.347  28.053  32.474  1.00  0.00    -0.248 NA
ATOM     58  C   UNL A   1      42.815  27.718  34.203  1.00  0.00     0.031 C 
ATOM     59  C   UNL A   1      42.210  31.841  31.383  1.00  0.00     0.029 A 
ATOM     60  N   UNL A   1      43.830  30.420  30.788  1.00  0.00    -0.354 N 
ATOM     61  C   UNL A   1      44.662  26.884  33.153  1.00  0.00     0.074 A 
ATOM     62  C   UNL A   1      43.730  26.762  34.251  1.00  0.00     0.031 C 
ATOM     63  C   UNL A   1      42.794  32.334  30.278  1.00  0.00     0.029 A 
ATOM     64  C   UNL A   1      43.888  31.452  29.882  1.00  0.00     0.049 A 
ATOM     65  H   UNL A   1      44.429  29.639  30.754  1.00  0.00     0.167 HD
ATOM     66  C   UNL A   1      45.625  25.976  32.868  1.00  0.00     0.037 A 
ATOM     67  C   UNL A   1      44.743  31.668  28.864  1.00  0.00     0.037 A 
ATOM     68  C   UNL A   1      46.536  26.087  31.761  1.00  0.00     0.049 A 
ATOM     69  C   UNL A   1      45.836  30.662  28.600  1.00  0.00     0.074 A 
ATOM     70  C   UNL A   1      47.541  25.217  31.378  1.00  0.00     0.029 A 
ATOM     71  N   UNL A   1      46.545  27.135  30.852  1.00  0.00    -0.354 N 
ATOM     72  N   UNL A   1      46.103  29.543  29.227  1.00  0.00    -0.248 NA
ATOM     73  C   UNL A   1      46.746  30.950  27.481  1.00  0.00     0.031 C 
ATOM     74  C   UNL A   1      48.182  25.755  30.260  1.00  0.00     0.029 A 
ATOM     75  C   UNL A   1      47.541  26.933  29.912  1.00  0.00     0.049 A 
ATOM     76  H   UNL A   1      45.934  27.908  30.873  1.00  0.00     0.167 HD
ATOM     77  C   UNL A   1      47.171  28.970  28.549  1.00  0.00     0.074 A 
ATOM     78  C   UNL A   1      47.503  29.862  27.460  1.00  0.00     0.031 C 
ATOM     79  C   UNL A   1      47.819  27.808  28.804  1.00  0.00     0.037 A 
BRANCH  66  80
ATOM     80  C   UNL A   1      45.731  24.768  33.752  1.00  0.00     0.064 A 
ATOM     81  C   UNL A   1      44.895  23.655  33.571  1.00  0.00     0.173 A 
ATOM     82  C   UNL A   1      46.712  24.697  34.752  1.00  0.00     0.173 A 
ATOM     83  F   UNL A   1      43.932  23.679  32.637  1.00  0.00    -0.203 F 
ATOM     84  C   UNL A   1      45.026  22.523  34.369  1.00  0.00     0.198 A 
ATOM     85  C   UNL A   1      46.860  23.550  35.529  1.00  0.00     0.198 A 
ATOM     86  F   UNL A   1      47.539  25.731  34.965  1.00  0.00    -0.203 F 
ATOM     87  F   UNL A   1      44.190  21.488  34.204  1.00  0.00    -0.200 F 
ATOM     88  C   UNL A   1      46.015  22.467  35.340  1.00  0.00     0.200 A 
ATOM     89  F   UNL A   1      47.827  23.492  36.455  1.00  0.00    -0.200 F 
ATOM     90  F   UNL A   1      46.151  21.369  36.096  1.00  0.00    -0.200 F 
ENDBRANCH  66  80
BRANCH  67  91
ATOM     91  C   UNL A   1      44.615  32.879  28.007  1.00  0.00     0.064 A 
ATOM     92  C   UNL A   1      44.991  34.142  28.488  1.00  0.00     0.173 A 
ATOM     93  C   UNL A   1      44.059  32.814  26.722  1.00  0.00     0.173 A 
ATOM     94  F   UNL A   1      45.511  34.264  29.719  1.00  0.00    -0.203 F 
ATOM     95  C   UNL A   1      44.775  35.295  27.735  1.00  0.00     0.198 A 
ATOM     96  C   UNL A   1      43.876  33.963  25.955  1.00  0.00     0.198 A 
ATOM     97  F   UNL A   1      43.687  31.631  26.209  1.00  0.00    -0.203 F 
ATOM     98  F   UNL A   1      45.074  36.496  28.251  1.00  0.00    -0.200 F 
ATOM     99  C   UNL A   1      44.219  35.205  26.469  1.00  0.00     0.200 A 
ATOM    100  F   UNL A   1      43.353  33.870  24.725  1.00  0.00    -0.200 F 
ATOM    101  F   UNL A   1      43.998  36.314  25.750  1.00  0.00    -0.200 F 
ENDBRANCH  67  91
BRANCH  79 102
ATOM    102  C   UNL A   1      48.891  27.380  27.843  1.00  0.00     0.064 A 
ATOM    103  C   UNL A   1      48.602  26.652  26.681  1.00  0.00     0.173 A 
ATOM    104  C   UNL A   1      50.222  27.769  28.064  1.00  0.00     0.173 A 
ATOM    105  F   UNL A   1      47.348  26.246  26.433  1.00  0.00    -0.203 F 
ATOM    106  C   UNL A   1      49.609  26.312  25.783  1.00  0.00     0.198 A 
ATOM    107  C   UNL A   1      51.221  27.455  27.147  1.00  0.00     0.198 A 
ATOM    108  F   UNL A   1      50.550  28.473  29.157  1.00  0.00    -0.203 F 
ATOM    109  F   UNL A   1      49.319  25.580  24.698  1.00  0.00    -0.200 F 
ATOM    110  C   UNL A   1      50.915  26.723  26.011  1.00  0.00     0.200 A 
ATOM    111  F   UNL A   1      52.478  27.869  27.361  1.00  0.00    -0.200 F 
ATOM    112  F   UNL A   1      51.880  26.409  25.136  1.00  0.00    -0.200 F 
ENDBRANCH  79 102
ENDBRANCH  53  54
ENDBRANCH  45  48
ENDBRANCH  43  44
ENDBRANCH  42  43
ENDBRANCH  41  42
ENDBRANCH  40  41
ENDBRANCH   1  40
TORSDOF 20
ENDMDL
