MODEL 1
REMARK VINA RESULT:     -11.8      0.000      0.000
REMARK SMILES O=C(Cc1ccccc1Nc1c(Cl)cccc1C(F)(F)F)NCCCCCCNC(=O)c1ccc(-c2c3nc(c(-c4c(F)c(F)c(F)c(F)c4F)c4ccc([nH]4)c(-c4c(F)c(F)c(F)c(F)c4F)c4nc(c(-c5c(F)c(F)c(F)c(F)c5F)c5ccc2[nH]5)C=C4)C=C3)cc1
REMARK SMILES IDX 24 1 23 2 22 3 1 4 2 5 3 7 4 8 5 9 9 10 6 11 8 12 7 13 10 14
REMARK SMILES IDX 11 16 12 17 17 18 13 19 14 20 16 21 15 22 18 23 19 24 20 25
REMARK SMILES IDX 21 26 25 27 26 28 27 29 28 30 29 31 30 32 31 34 32 35 33 36
REMARK SMILES IDX 94 37 34 38 93 39 35 40 36 41 37 42 87 43 38 44 92 45 86 46
REMARK SMILES IDX 88 47 39 48 91 49 85 50 84 51 40 53 72 54 52 55 71 56 53 57
REMARK SMILES IDX 56 58 70 59 89 60 54 61 55 62 69 64 90 65 57 66 41 67 42 68
REMARK SMILES IDX 50 69 43 70 44 71 48 72 51 73 45 74 46 75 49 76 47 77 73 78
REMARK SMILES IDX 74 79 82 80 75 81 76 82 80 83 83 84 77 85 78 86 81 87 79 88
REMARK SMILES IDX 58 89 59 90 67 91 60 92 61 93 65 94 68 95 62 96 63 97 66 98
REMARK SMILES IDX 64 99
REMARK H PARENT 22 6 10 15 29 33 88 52 56 63
REMARK Flexibility Score: inf
ROOT
ATOM      1  C   UNL A   1      34.506  31.782  27.802  1.00  0.00     0.021 C 
ENDROOT
BRANCH   1   2
ATOM      2  C   UNL A   1      34.982  30.330  27.892  1.00  0.00     0.116 C 
BRANCH   2   3
ATOM      3  N   UNL A   1      33.862  29.414  27.890  1.00  0.00    -0.356 N 
ATOM      4  O   UNL A   1      34.129  28.570  25.768  1.00  0.00    -0.275 OA
ATOM      5  C   UNL A   1      33.503  28.620  26.822  1.00  0.00     0.224 C 
ATOM      6  H   UNL A   1      33.319  29.353  28.709  1.00  0.00     0.163 HD
BRANCH   5   7
ATOM      7  C   UNL A   1      32.205  27.848  27.032  1.00  0.00     0.137 C 
BRANCH   7   8
ATOM      8  C   UNL A   1      31.493  27.538  25.731  1.00  0.00    -0.015 A 
ATOM      9  C   UNL A   1      31.093  28.616  24.915  1.00  0.00     0.006 A 
ATOM     10  C   UNL A   1      31.182  26.218  25.343  1.00  0.00     0.042 A 
ATOM     11  C   UNL A   1      30.352  28.403  23.758  1.00  0.00     0.000 A 
ATOM     12  C   UNL A   1      30.428  26.031  24.174  1.00  0.00     0.026 A 
ATOM     13  C   UNL A   1      30.009  27.109  23.393  1.00  0.00     0.002 A 
BRANCH  10  14
ATOM     14  N   UNL A   1      31.680  25.118  26.073  1.00  0.00    -0.354 N 
ATOM     15  H   UNL A   1      31.657  25.228  27.050  1.00  0.00     0.167 HD
BRANCH  14  16
ATOM     16  C   UNL A   1      32.204  23.880  25.628  1.00  0.00     0.070 A 
ATOM     17  C   UNL A   1      31.439  22.709  25.853  1.00  0.00     0.065 A 
ATOM     18  C   UNL A   1      33.409  23.754  24.903  1.00  0.00     0.080 A 
ATOM     19  Cl  UNL A   1      29.976  22.775  26.780  1.00  0.00    -0.082 Cl
ATOM     20  C   UNL A   1      31.818  21.468  25.334  1.00  0.00     0.023 A 
ATOM     21  C   UNL A   1      33.760  22.493  24.363  1.00  0.00     0.015 A 
ATOM     22  C   UNL A   1      32.972  21.364  24.571  1.00  0.00     0.002 A 
BRANCH  18  23
ATOM     23  C   UNL A   1      34.399  24.878  24.692  1.00  0.00     0.418 C 
ATOM     24  F   UNL A   1      34.674  25.533  25.864  1.00  0.00    -0.166 F 
ATOM     25  F   UNL A   1      35.612  24.433  24.254  1.00  0.00    -0.166 F 
ATOM     26  F   UNL A   1      34.007  25.861  23.838  1.00  0.00    -0.166 F 
ENDBRANCH  18  23
ENDBRANCH  14  16
ENDBRANCH  10  14
ENDBRANCH   7   8
ENDBRANCH   5   7
ENDBRANCH   2   3
ENDBRANCH   1   2
BRANCH   1  27
ATOM     27  C   UNL A   1      34.613  32.585  29.108  1.00  0.00     0.002 C 
BRANCH  27  28
ATOM     28  C   UNL A   1      34.693  34.107  28.948  1.00  0.00     0.002 C 
BRANCH  28  29
ATOM     29  C   UNL A   1      33.350  34.836  28.934  1.00  0.00     0.021 C 
BRANCH  29  30
ATOM     30  C   UNL A   1      33.351  36.212  29.594  1.00  0.00     0.116 C 
BRANCH  30  31
ATOM     31  N   UNL A   1      32.422  36.303  30.711  1.00  0.00    -0.352 N 
ATOM     32  C   UNL A   1      32.508  35.747  31.962  1.00  0.00     0.251 C 
ATOM     33  H   UNL A   1      31.616  36.843  30.543  1.00  0.00     0.163 HD
ATOM     34  O   UNL A   1      31.550  35.815  32.732  1.00  0.00    -0.269 OA
BRANCH  32  35
ATOM     35  C   UNL A   1      33.736  35.039  32.384  1.00  0.00     0.039 A 
ATOM     36  C   UNL A   1      33.632  33.724  32.848  1.00  0.00     0.014 A 
ATOM     37  C   UNL A   1      34.985  35.667  32.345  1.00  0.00     0.014 A 
ATOM     38  C   UNL A   1      34.782  33.022  33.214  1.00  0.00     0.010 A 
ATOM     39  C   UNL A   1      36.137  34.942  32.641  1.00  0.00     0.010 A 
ATOM     40  C   UNL A   1      36.049  33.615  33.085  1.00  0.00    -0.014 A 
BRANCH  40  41
ATOM     41  C   UNL A   1      37.286  32.866  33.428  1.00  0.00     0.031 A 
ATOM     42  C   UNL A   1      38.025  33.167  34.703  1.00  0.00     0.074 A 
ATOM     43  C   UNL A   1      37.772  31.947  32.570  1.00  0.00     0.049 A 
ATOM     44  N   UNL A   1      39.149  32.666  35.149  1.00  0.00    -0.248 NA
ATOM     45  C   UNL A   1      37.434  34.187  35.583  1.00  0.00     0.031 C 
ATOM     46  C   UNL A   1      37.176  31.594  31.281  1.00  0.00     0.029 A 
ATOM     47  N   UNL A   1      38.887  31.149  32.649  1.00  0.00    -0.354 N 
ATOM     48  C   UNL A   1      39.399  33.310  36.354  1.00  0.00     0.074 A 
ATOM     49  C   UNL A   1      38.345  34.284  36.539  1.00  0.00     0.031 C 
ATOM     50  C   UNL A   1      37.919  30.639  30.700  1.00  0.00     0.029 A 
ATOM     51  C   UNL A   1      39.062  30.336  31.555  1.00  0.00     0.049 A 
ATOM     52  H   UNL A   1      39.502  31.157  33.418  1.00  0.00     0.167 HD
ATOM     53  C   UNL A   1      40.398  33.089  37.243  1.00  0.00     0.037 A 
ATOM     54  C   UNL A   1      40.039  29.453  31.273  1.00  0.00     0.037 A 
ATOM     55  C   UNL A   1      41.440  32.112  37.066  1.00  0.00     0.049 A 
ATOM     56  C   UNL A   1      41.145  29.236  32.272  1.00  0.00     0.074 A 
ATOM     57  C   UNL A   1      42.484  31.796  37.917  1.00  0.00     0.029 A 
ATOM     58  N   UNL A   1      41.566  31.287  35.957  1.00  0.00    -0.354 N 
ATOM     59  N   UNL A   1      41.338  29.811  33.433  1.00  0.00    -0.248 NA
ATOM     60  C   UNL A   1      42.161  28.233  31.925  1.00  0.00     0.031 C 
ATOM     61  C   UNL A   1      43.264  30.808  37.308  1.00  0.00     0.029 A 
ATOM     62  C   UNL A   1      42.676  30.469  36.100  1.00  0.00     0.049 A 
ATOM     63  H   UNL A   1      40.958  31.283  35.183  1.00  0.00     0.167 HD
ATOM     64  C   UNL A   1      42.473  29.217  33.970  1.00  0.00     0.074 A 
ATOM     65  C   UNL A   1      42.916  28.225  33.014  1.00  0.00     0.031 C 
ATOM     66  C   UNL A   1      43.092  29.471  35.148  1.00  0.00     0.037 A 
BRANCH  53  67
ATOM     67  C   UNL A   1      40.403  33.913  38.498  1.00  0.00     0.064 A 
ATOM     68  C   UNL A   1      39.713  33.498  39.649  1.00  0.00     0.173 A 
ATOM     69  C   UNL A   1      41.131  35.110  38.569  1.00  0.00     0.173 A 
ATOM     70  F   UNL A   1      38.990  32.367  39.630  1.00  0.00    -0.203 F 
ATOM     71  C   UNL A   1      39.727  34.263  40.811  1.00  0.00     0.198 A 
ATOM     72  C   UNL A   1      41.170  35.857  39.745  1.00  0.00     0.198 A 
ATOM     73  F   UNL A   1      41.814  35.551  37.503  1.00  0.00    -0.203 F 
ATOM     74  F   UNL A   1      39.020  33.871  41.879  1.00  0.00    -0.200 F 
ATOM     75  C   UNL A   1      40.462  35.437  40.861  1.00  0.00     0.200 A 
ATOM     76  F   UNL A   1      41.893  36.985  39.796  1.00  0.00    -0.200 F 
ATOM     77  F   UNL A   1      40.483  36.169  41.984  1.00  0.00    -0.200 F 
ENDBRANCH  53  67
BRANCH  54  78
ATOM     78  C   UNL A   1      40.010  28.689  29.997  1.00  0.00     0.064 A 
ATOM     79  C   UNL A   1      39.428  27.415  29.931  1.00  0.00     0.173 A 
ATOM     80  C   UNL A   1      40.589  29.201  28.827  1.00  0.00     0.173 A 
ATOM     81  F   UNL A   1      38.879  26.873  31.028  1.00  0.00    -0.203 F 
ATOM     82  C   UNL A   1      39.455  26.670  28.754  1.00  0.00     0.198 A 
ATOM     83  C   UNL A   1      40.588  28.469  27.642  1.00  0.00     0.198 A 
ATOM     84  F   UNL A   1      41.154  30.418  28.833  1.00  0.00    -0.203 F 
ATOM     85  F   UNL A   1      38.945  25.431  28.736  1.00  0.00    -0.200 F 
ATOM     86  C   UNL A   1      40.032  27.199  27.609  1.00  0.00     0.200 A 
ATOM     87  F   UNL A   1      41.132  28.990  26.534  1.00  0.00    -0.200 F 
ATOM     88  F   UNL A   1      40.061  26.481  26.478  1.00  0.00    -0.200 F 
ENDBRANCH  54  78
BRANCH  66  89
ATOM     89  C   UNL A   1      44.285  28.626  35.494  1.00  0.00     0.064 A 
ATOM     90  C   UNL A   1      45.582  28.970  35.086  1.00  0.00     0.173 A 
ATOM     91  C   UNL A   1      44.128  27.466  36.269  1.00  0.00     0.173 A 
ATOM     92  F   UNL A   1      45.784  30.062  34.330  1.00  0.00    -0.203 F 
ATOM     93  C   UNL A   1      46.672  28.167  35.409  1.00  0.00     0.198 A 
ATOM     94  C   UNL A   1      45.223  26.683  36.619  1.00  0.00     0.198 A 
ATOM     95  F   UNL A   1      42.910  27.096  36.693  1.00  0.00    -0.203 F 
ATOM     96  F   UNL A   1      47.893  28.485  34.959  1.00  0.00    -0.200 F 
ATOM     97  C   UNL A   1      46.492  27.028  36.181  1.00  0.00     0.200 A 
ATOM     98  F   UNL A   1      45.050  25.592  37.378  1.00  0.00    -0.200 F 
ATOM     99  F   UNL A   1      47.544  26.258  36.495  1.00  0.00    -0.200 F 
ENDBRANCH  66  89
ENDBRANCH  40  41
ENDBRANCH  32  35
ENDBRANCH  30  31
ENDBRANCH  29  30
ENDBRANCH  28  29
ENDBRANCH  27  28
ENDBRANCH   1  27
TORSDOF 17
ENDMDL
MODEL 2
REMARK VINA RESULT:     -11.6      1.996      7.565
REMARK SMILES O=C(Cc1ccccc1Nc1c(Cl)cccc1C(F)(F)F)NCCCCCCNC(=O)c1ccc(-c2c3nc(c(-c4c(F)c(F)c(F)c(F)c4F)c4ccc([nH]4)c(-c4c(F)c(F)c(F)c(F)c4F)c4nc(c(-c5c(F)c(F)c(F)c(F)c5F)c5ccc2[nH]5)C=C4)C=C3)cc1
REMARK SMILES IDX 24 1 23 2 22 3 1 4 2 5 3 7 4 8 5 9 9 10 6 11 8 12 7 13 10 14
REMARK SMILES IDX 11 16 12 17 17 18 13 19 14 20 16 21 15 22 18 23 19 24 20 25
REMARK SMILES IDX 21 26 25 27 26 28 27 29 28 30 29 31 30 32 31 34 32 35 33 36
REMARK SMILES IDX 94 37 34 38 93 39 35 40 36 41 37 42 87 43 38 44 92 45 86 46
REMARK SMILES IDX 88 47 39 48 91 49 85 50 84 51 40 53 72 54 52 55 71 56 53 57
REMARK SMILES IDX 56 58 70 59 89 60 54 61 55 62 69 64 90 65 57 66 41 67 42 68
REMARK SMILES IDX 50 69 43 70 44 71 48 72 51 73 45 74 46 75 49 76 47 77 73 78
REMARK SMILES IDX 74 79 82 80 75 81 76 82 80 83 83 84 77 85 78 86 81 87 79 88
REMARK SMILES IDX 58 89 59 90 67 91 60 92 61 93 65 94 68 95 62 96 63 97 66 98
REMARK SMILES IDX 64 99
REMARK H PARENT 22 6 10 15 29 33 88 52 56 63
REMARK Flexibility Score: inf
ROOT
ATOM      1  C   UNL A   1      32.821  28.645  26.729  1.00  0.00     0.021 C 
ENDROOT
BRANCH   1   2
ATOM      2  C   UNL A   1      31.690  27.779  27.291  1.00  0.00     0.116 C 
BRANCH   2   3
ATOM      3  N   UNL A   1      31.003  27.069  26.235  1.00  0.00    -0.356 N 
ATOM      4  O   UNL A   1      31.434  24.924  26.941  1.00  0.00    -0.275 OA
ATOM      5  C   UNL A   1      30.946  25.697  26.123  1.00  0.00     0.224 C 
ATOM      6  H   UNL A   1      30.543  27.604  25.547  1.00  0.00     0.163 HD
BRANCH   5   7
ATOM      7  C   UNL A   1      30.276  25.206  24.844  1.00  0.00     0.137 C 
BRANCH   7   8
ATOM      8  C   UNL A   1      31.206  25.238  23.649  1.00  0.00    -0.015 A 
ATOM      9  C   UNL A   1      31.009  26.241  22.677  1.00  0.00     0.006 A 
ATOM     10  C   UNL A   1      32.218  24.274  23.461  1.00  0.00     0.042 A 
ATOM     11  C   UNL A   1      31.765  26.266  21.510  1.00  0.00     0.000 A 
ATOM     12  C   UNL A   1      32.963  24.318  22.272  1.00  0.00     0.026 A 
ATOM     13  C   UNL A   1      32.736  25.296  21.302  1.00  0.00     0.002 A 
BRANCH  10  14
ATOM     14  N   UNL A   1      32.519  23.340  24.474  1.00  0.00    -0.354 N 
ATOM     15  H   UNL A   1      31.769  23.128  25.074  1.00  0.00     0.167 HD
BRANCH  14  16
ATOM     16  C   UNL A   1      33.724  22.656  24.767  1.00  0.00     0.070 A 
ATOM     17  C   UNL A   1      34.805  23.402  25.299  1.00  0.00     0.065 A 
ATOM     18  C   UNL A   1      33.886  21.260  24.635  1.00  0.00     0.080 A 
ATOM     19  Cl  UNL A   1      34.702  25.126  25.441  1.00  0.00    -0.082 Cl
ATOM     20  C   UNL A   1      35.981  22.788  25.737  1.00  0.00     0.023 A 
ATOM     21  C   UNL A   1      35.074  20.655  25.111  1.00  0.00     0.015 A 
ATOM     22  C   UNL A   1      36.108  21.408  25.661  1.00  0.00     0.002 A 
BRANCH  18  23
ATOM     23  C   UNL A   1      32.882  20.344  23.969  1.00  0.00     0.418 C 
ATOM     24  F   UNL A   1      33.403  19.094  23.760  1.00  0.00    -0.166 F 
ATOM     25  F   UNL A   1      31.777  20.131  24.739  1.00  0.00    -0.166 F 
ATOM     26  F   UNL A   1      32.440  20.737  22.744  1.00  0.00    -0.166 F 
ENDBRANCH  18  23
ENDBRANCH  14  16
ENDBRANCH  10  14
ENDBRANCH   7   8
ENDBRANCH   5   7
ENDBRANCH   2   3
ENDBRANCH   1   2
BRANCH   1  27
ATOM     27  C   UNL A   1      32.699  30.148  27.025  1.00  0.00     0.002 C 
BRANCH  27  28
ATOM     28  C   UNL A   1      31.554  30.875  26.313  1.00  0.00     0.002 C 
BRANCH  28  29
ATOM     29  C   UNL A   1      31.394  32.354  26.668  1.00  0.00     0.021 C 
BRANCH  29  30
ATOM     30  C   UNL A   1      32.641  33.022  27.242  1.00  0.00     0.116 C 
BRANCH  30  31
ATOM     31  N   UNL A   1      32.395  34.383  27.694  1.00  0.00    -0.352 N 
ATOM     32  C   UNL A   1      32.993  35.084  28.710  1.00  0.00     0.251 C 
ATOM     33  H   UNL A   1      31.698  34.871  27.198  1.00  0.00     0.163 HD
ATOM     34  O   UNL A   1      32.551  36.184  29.042  1.00  0.00    -0.269 OA
BRANCH  32  35
ATOM     35  C   UNL A   1      34.154  34.516  29.430  1.00  0.00     0.039 A 
ATOM     36  C   UNL A   1      33.937  33.852  30.641  1.00  0.00     0.014 A 
ATOM     37  C   UNL A   1      35.453  34.647  28.931  1.00  0.00     0.014 A 
ATOM     38  C   UNL A   1      35.011  33.272  31.320  1.00  0.00     0.010 A 
ATOM     39  C   UNL A   1      36.512  34.006  29.569  1.00  0.00     0.010 A 
ATOM     40  C   UNL A   1      36.305  33.317  30.774  1.00  0.00    -0.014 A 
BRANCH  40  41
ATOM     41  C   UNL A   1      37.451  32.666  31.461  1.00  0.00     0.031 A 
ATOM     42  C   UNL A   1      38.169  31.516  30.810  1.00  0.00     0.074 A 
ATOM     43  C   UNL A   1      37.817  33.078  32.690  1.00  0.00     0.049 A 
ATOM     44  N   UNL A   1      39.150  30.782  31.271  1.00  0.00    -0.248 NA
ATOM     45  C   UNL A   1      37.706  31.121  29.470  1.00  0.00     0.031 C 
ATOM     46  C   UNL A   1      37.175  34.153  33.449  1.00  0.00     0.029 A 
ATOM     47  N   UNL A   1      38.814  32.635  33.524  1.00  0.00    -0.354 N 
ATOM     48  C   UNL A   1      39.416  29.841  30.285  1.00  0.00     0.074 A 
ATOM     49  C   UNL A   1      38.453  30.055  29.227  1.00  0.00     0.031 C 
ATOM     50  C   UNL A   1      37.804  34.297  34.626  1.00  0.00     0.029 A 
ATOM     51  C   UNL A   1      38.870  33.305  34.722  1.00  0.00     0.049 A 
ATOM     52  H   UNL A   1      39.432  31.906  33.285  1.00  0.00     0.167 HD
ATOM     53  C   UNL A   1      40.395  28.905  30.247  1.00  0.00     0.037 A 
ATOM     54  C   UNL A   1      39.686  33.133  35.781  1.00  0.00     0.037 A 
ATOM     55  C   UNL A   1      41.362  28.700  31.294  1.00  0.00     0.049 A 
ATOM     56  C   UNL A   1      40.756  32.075  35.718  1.00  0.00     0.074 A 
ATOM     57  C   UNL A   1      42.405  27.793  31.341  1.00  0.00     0.029 A 
ATOM     58  N   UNL A   1      41.404  29.419  32.479  1.00  0.00    -0.354 N 
ATOM     59  N   UNL A   1      41.033  31.231  34.755  1.00  0.00    -0.248 NA
ATOM     60  C   UNL A   1      41.639  31.959  36.887  1.00  0.00     0.031 C 
ATOM     61  C   UNL A   1      43.056  27.936  32.572  1.00  0.00     0.029 A 
ATOM     62  C   UNL A   1      42.451  28.969  33.269  1.00  0.00     0.049 A 
ATOM     63  H   UNL A   1      40.782  30.141  32.725  1.00  0.00     0.167 HD
ATOM     64  C   UNL A   1      42.140  30.510  35.186  1.00  0.00     0.074 A 
ATOM     65  C   UNL A   1      42.493  31.027  36.490  1.00  0.00     0.031 C 
ATOM     66  C   UNL A   1      42.803  29.509  34.557  1.00  0.00     0.037 A 
BRANCH  53  67
ATOM     67  C   UNL A   1      40.477  28.037  29.024  1.00  0.00     0.064 A 
ATOM     68  C   UNL A   1      39.742  26.845  28.923  1.00  0.00     0.173 A 
ATOM     69  C   UNL A   1      41.267  28.414  27.927  1.00  0.00     0.173 A 
ATOM     70  F   UNL A   1      38.981  26.433  29.948  1.00  0.00    -0.203 F 
ATOM     71  C   UNL A   1      39.818  26.049  27.784  1.00  0.00     0.198 A 
ATOM     72  C   UNL A   1      41.314  27.631  26.775  1.00  0.00     0.198 A 
ATOM     73  F   UNL A   1      41.984  29.546  27.967  1.00  0.00    -0.203 F 
ATOM     74  F   UNL A   1      39.145  24.891  27.731  1.00  0.00    -0.200 F 
ATOM     75  C   UNL A   1      40.596  26.447  26.708  1.00  0.00     0.200 A 
ATOM     76  F   UNL A   1      42.057  28.024  25.731  1.00  0.00    -0.200 F 
ATOM     77  F   UNL A   1      40.661  25.684  25.607  1.00  0.00    -0.200 F 
ENDBRANCH  53  67
BRANCH  54  78
ATOM     78  C   UNL A   1      39.539  33.992  36.985  1.00  0.00     0.064 A 
ATOM     79  C   UNL A   1      40.160  35.246  37.058  1.00  0.00     0.173 A 
ATOM     80  C   UNL A   1      38.801  33.566  38.100  1.00  0.00     0.173 A 
ATOM     81  F   UNL A   1      40.893  35.690  36.026  1.00  0.00    -0.203 F 
ATOM     82  C   UNL A   1      40.078  36.027  38.209  1.00  0.00     0.198 A 
ATOM     83  C   UNL A   1      38.692  34.361  39.238  1.00  0.00     0.198 A 
ATOM     84  F   UNL A   1      38.181  32.377  38.080  1.00  0.00    -0.203 F 
ATOM     85  F   UNL A   1      40.731  37.195  38.272  1.00  0.00    -0.200 F 
ATOM     86  C   UNL A   1      39.341  35.585  39.297  1.00  0.00     0.200 A 
ATOM     87  F   UNL A   1      37.966  33.937  40.282  1.00  0.00    -0.200 F 
ATOM     88  F   UNL A   1      39.264  36.334  40.405  1.00  0.00    -0.200 F 
ENDBRANCH  54  78
BRANCH  66  89
ATOM     89  C   UNL A   1      44.010  28.944  35.248  1.00  0.00     0.064 A 
ATOM     90  C   UNL A   1      45.301  29.436  35.006  1.00  0.00     0.173 A 
ATOM     91  C   UNL A   1      43.868  27.910  36.187  1.00  0.00     0.173 A 
ATOM     92  F   UNL A   1      45.493  30.414  34.106  1.00  0.00    -0.203 F 
ATOM     93  C   UNL A   1      46.409  28.891  35.650  1.00  0.00     0.198 A 
ATOM     94  C   UNL A   1      44.973  27.390  36.854  1.00  0.00     0.198 A 
ATOM     95  F   UNL A   1      42.655  27.408  36.462  1.00  0.00    -0.203 F 
ATOM     96  F   UNL A   1      47.637  29.339  35.360  1.00  0.00    -0.200 F 
ATOM     97  C   UNL A   1      46.243  27.874  36.578  1.00  0.00     0.200 A 
ATOM     98  F   UNL A   1      44.810  26.417  37.762  1.00  0.00    -0.200 F 
ATOM     99  F   UNL A   1      47.310  27.353  37.201  1.00  0.00    -0.200 F 
ENDBRANCH  66  89
ENDBRANCH  40  41
ENDBRANCH  32  35
ENDBRANCH  30  31
ENDBRANCH  29  30
ENDBRANCH  28  29
ENDBRANCH  27  28
ENDBRANCH   1  27
TORSDOF 17
ENDMDL
MODEL 3
REMARK VINA RESULT:     -11.5      1.304      2.191
REMARK SMILES O=C(Cc1ccccc1Nc1c(Cl)cccc1C(F)(F)F)NCCCCCCNC(=O)c1ccc(-c2c3nc(c(-c4c(F)c(F)c(F)c(F)c4F)c4ccc([nH]4)c(-c4c(F)c(F)c(F)c(F)c4F)c4nc(c(-c5c(F)c(F)c(F)c(F)c5F)c5ccc2[nH]5)C=C4)C=C3)cc1
REMARK SMILES IDX 24 1 23 2 22 3 1 4 2 5 3 7 4 8 5 9 9 10 6 11 8 12 7 13 10 14
REMARK SMILES IDX 11 16 12 17 17 18 13 19 14 20 16 21 15 22 18 23 19 24 20 25
REMARK SMILES IDX 21 26 25 27 26 28 27 29 28 30 29 31 30 32 31 34 32 35 33 36
REMARK SMILES IDX 94 37 34 38 93 39 35 40 36 41 37 42 87 43 38 44 92 45 86 46
REMARK SMILES IDX 88 47 39 48 91 49 85 50 84 51 40 53 72 54 52 55 71 56 53 57
REMARK SMILES IDX 56 58 70 59 89 60 54 61 55 62 69 64 90 65 57 66 41 67 42 68
REMARK SMILES IDX 50 69 43 70 44 71 48 72 51 73 45 74 46 75 49 76 47 77 73 78
REMARK SMILES IDX 74 79 82 80 75 81 76 82 80 83 83 84 77 85 78 86 81 87 79 88
REMARK SMILES IDX 58 89 59 90 67 91 60 92 61 93 65 94 68 95 62 96 63 97 66 98
REMARK SMILES IDX 64 99
REMARK H PARENT 22 6 10 15 29 33 88 52 56 63
REMARK Flexibility Score: inf
ROOT
ATOM      1  C   UNL A   1      34.721  31.417  28.750  1.00  0.00     0.021 C 
ENDROOT
BRANCH   1   2
ATOM      2  C   UNL A   1      34.152  31.298  27.334  1.00  0.00     0.116 C 
BRANCH   2   3
ATOM      3  N   UNL A   1      34.365  29.971  26.797  1.00  0.00    -0.356 N 
ATOM      4  O   UNL A   1      32.279  29.103  27.219  1.00  0.00    -0.275 OA
ATOM      5  C   UNL A   1      33.424  28.965  26.801  1.00  0.00     0.224 C 
ATOM      6  H   UNL A   1      35.245  29.774  26.400  1.00  0.00     0.163 HD
BRANCH   5   7
ATOM      7  C   UNL A   1      33.948  27.624  26.299  1.00  0.00     0.137 C 
BRANCH   7   8
ATOM      8  C   UNL A   1      33.784  27.456  24.803  1.00  0.00    -0.015 A 
ATOM      9  C   UNL A   1      33.702  28.617  24.006  1.00  0.00     0.006 A 
ATOM     10  C   UNL A   1      33.664  26.187  24.200  1.00  0.00     0.042 A 
ATOM     11  C   UNL A   1      33.454  28.533  22.640  1.00  0.00     0.000 A 
ATOM     12  C   UNL A   1      33.408  26.130  22.820  1.00  0.00     0.026 A 
ATOM     13  C   UNL A   1      33.296  27.287  22.049  1.00  0.00     0.002 A 
BRANCH  10  14
ATOM     14  N   UNL A   1      33.868  25.011  24.951  1.00  0.00    -0.354 N 
ATOM     15  H   UNL A   1      34.574  25.076  25.633  1.00  0.00     0.167 HD
BRANCH  14  16
ATOM     16  C   UNL A   1      33.223  23.752  24.885  1.00  0.00     0.070 A 
ATOM     17  C   UNL A   1      33.907  22.681  24.257  1.00  0.00     0.065 A 
ATOM     18  C   UNL A   1      31.971  23.480  25.477  1.00  0.00     0.080 A 
ATOM     19  Cl  UNL A   1      35.424  22.949  23.461  1.00  0.00    -0.082 Cl
ATOM     20  C   UNL A   1      33.403  21.378  24.263  1.00  0.00     0.023 A 
ATOM     21  C   UNL A   1      31.492  22.147  25.496  1.00  0.00     0.015 A 
ATOM     22  C   UNL A   1      32.201  21.107  24.900  1.00  0.00     0.002 A 
BRANCH  18  23
ATOM     23  C   UNL A   1      31.061  24.533  26.070  1.00  0.00     0.418 C 
ATOM     24  F   UNL A   1      30.489  25.309  25.095  1.00  0.00    -0.166 F 
ATOM     25  F   UNL A   1      30.005  23.994  26.743  1.00  0.00    -0.166 F 
ATOM     26  F   UNL A   1      31.652  25.425  26.910  1.00  0.00    -0.166 F 
ENDBRANCH  18  23
ENDBRANCH  14  16
ENDBRANCH  10  14
ENDBRANCH   7   8
ENDBRANCH   5   7
ENDBRANCH   2   3
ENDBRANCH   1   2
BRANCH   1  27
ATOM     27  C   UNL A   1      34.430  32.750  29.458  1.00  0.00     0.002 C 
BRANCH  27  28
ATOM     28  C   UNL A   1      34.326  33.977  28.547  1.00  0.00     0.002 C 
BRANCH  28  29
ATOM     29  C   UNL A   1      33.096  34.858  28.772  1.00  0.00     0.021 C 
BRANCH  29  30
ATOM     30  C   UNL A   1      33.342  36.119  29.594  1.00  0.00     0.116 C 
BRANCH  30  31
ATOM     31  N   UNL A   1      32.431  36.246  30.722  1.00  0.00    -0.352 N 
ATOM     32  C   UNL A   1      32.531  35.722  31.985  1.00  0.00     0.251 C 
ATOM     33  H   UNL A   1      31.625  36.786  30.552  1.00  0.00     0.163 HD
ATOM     34  O   UNL A   1      31.586  35.816  32.768  1.00  0.00    -0.269 OA
BRANCH  32  35
ATOM     35  C   UNL A   1      33.762  35.017  32.408  1.00  0.00     0.039 A 
ATOM     36  C   UNL A   1      33.653  33.726  32.932  1.00  0.00     0.014 A 
ATOM     37  C   UNL A   1      35.017  35.626  32.310  1.00  0.00     0.014 A 
ATOM     38  C   UNL A   1      34.804  33.025  33.300  1.00  0.00     0.010 A 
ATOM     39  C   UNL A   1      36.167  34.900  32.608  1.00  0.00     0.010 A 
ATOM     40  C   UNL A   1      36.074  33.595  33.113  1.00  0.00    -0.014 A 
BRANCH  40  41
ATOM     41  C   UNL A   1      37.311  32.845  33.458  1.00  0.00     0.031 A 
ATOM     42  C   UNL A   1      38.052  33.152  34.730  1.00  0.00     0.074 A 
ATOM     43  C   UNL A   1      37.793  31.921  32.605  1.00  0.00     0.049 A 
ATOM     44  N   UNL A   1      39.176  32.651  35.177  1.00  0.00    -0.248 NA
ATOM     45  C   UNL A   1      37.465  34.178  35.606  1.00  0.00     0.031 C 
ATOM     46  C   UNL A   1      37.194  31.562  31.318  1.00  0.00     0.029 A 
ATOM     47  N   UNL A   1      38.907  31.121  32.686  1.00  0.00    -0.354 N 
ATOM     48  C   UNL A   1      39.430  33.301  36.378  1.00  0.00     0.074 A 
ATOM     49  C   UNL A   1      38.378  34.278  36.560  1.00  0.00     0.031 C 
ATOM     50  C   UNL A   1      37.935  30.602  30.741  1.00  0.00     0.029 A 
ATOM     51  C   UNL A   1      39.079  30.302  31.596  1.00  0.00     0.049 A 
ATOM     52  H   UNL A   1      39.523  31.133  33.454  1.00  0.00     0.167 HD
ATOM     53  C   UNL A   1      40.429  33.084  37.267  1.00  0.00     0.037 A 
ATOM     54  C   UNL A   1      40.054  29.416  31.317  1.00  0.00     0.037 A 
ATOM     55  C   UNL A   1      41.469  32.103  37.093  1.00  0.00     0.049 A 
ATOM     56  C   UNL A   1      41.161  29.202  32.315  1.00  0.00     0.074 A 
ATOM     57  C   UNL A   1      42.514  31.791  37.944  1.00  0.00     0.029 A 
ATOM     58  N   UNL A   1      41.592  31.272  35.989  1.00  0.00    -0.354 N 
ATOM     59  N   UNL A   1      41.357  29.784  33.473  1.00  0.00    -0.248 NA
ATOM     60  C   UNL A   1      42.175  28.196  31.972  1.00  0.00     0.031 C 
ATOM     61  C   UNL A   1      43.292  30.797  37.339  1.00  0.00     0.029 A 
ATOM     62  C   UNL A   1      42.701  30.453  36.134  1.00  0.00     0.049 A 
ATOM     63  H   UNL A   1      40.983  31.265  35.215  1.00  0.00     0.167 HD
ATOM     64  C   UNL A   1      42.492  29.190  34.011  1.00  0.00     0.074 A 
ATOM     65  C   UNL A   1      42.931  28.192  33.060  1.00  0.00     0.031 C 
ATOM     66  C   UNL A   1      43.114  29.449  35.187  1.00  0.00     0.037 A 
BRANCH  53  67
ATOM     67  C   UNL A   1      40.438  33.914  38.518  1.00  0.00     0.064 A 
ATOM     68  C   UNL A   1      41.170  35.110  38.596  1.00  0.00     0.173 A 
ATOM     69  C   UNL A   1      39.682  33.536  39.637  1.00  0.00     0.173 A 
ATOM     70  F   UNL A   1      41.920  35.511  37.558  1.00  0.00    -0.203 F 
ATOM     71  C   UNL A   1      41.168  35.879  39.756  1.00  0.00     0.198 A 
ATOM     72  C   UNL A   1      39.656  34.325  40.785  1.00  0.00     0.198 A 
ATOM     73  F   UNL A   1      38.959  32.407  39.615  1.00  0.00    -0.203 F 
ATOM     74  F   UNL A   1      41.914  36.990  39.823  1.00  0.00    -0.200 F 
ATOM     75  C   UNL A   1      40.405  35.491  40.846  1.00  0.00     0.200 A 
ATOM     76  F   UNL A   1      38.907  33.955  41.833  1.00  0.00    -0.200 F 
ATOM     77  F   UNL A   1      40.397  36.237  41.960  1.00  0.00    -0.200 F 
ENDBRANCH  53  67
BRANCH  54  78
ATOM     78  C   UNL A   1      40.021  28.645  30.045  1.00  0.00     0.064 A 
ATOM     79  C   UNL A   1      39.412  27.384  29.980  1.00  0.00     0.173 A 
ATOM     80  C   UNL A   1      40.624  29.137  28.878  1.00  0.00     0.173 A 
ATOM     81  F   UNL A   1      38.839  26.861  31.074  1.00  0.00    -0.203 F 
ATOM     82  C   UNL A   1      39.435  26.632  28.808  1.00  0.00     0.198 A 
ATOM     83  C   UNL A   1      40.618  28.398  27.698  1.00  0.00     0.198 A 
ATOM     84  F   UNL A   1      41.215  30.341  28.884  1.00  0.00    -0.203 F 
ATOM     85  F   UNL A   1      38.897  25.404  28.792  1.00  0.00    -0.200 F 
ATOM     86  C   UNL A   1      40.035  27.140  27.666  1.00  0.00     0.200 A 
ATOM     87  F   UNL A   1      41.186  28.900  26.592  1.00  0.00    -0.200 F 
ATOM     88  F   UNL A   1      40.060  26.416  26.540  1.00  0.00    -0.200 F 
ENDBRANCH  54  78
BRANCH  66  89
ATOM     89  C   UNL A   1      44.305  28.604  35.535  1.00  0.00     0.064 A 
ATOM     90  C   UNL A   1      44.181  27.409  36.259  1.00  0.00     0.173 A 
ATOM     91  C   UNL A   1      45.589  28.986  35.115  1.00  0.00     0.173 A 
ATOM     92  F   UNL A   1      42.977  27.007  36.696  1.00  0.00    -0.203 F 
ATOM     93  C   UNL A   1      45.300  26.646  36.580  1.00  0.00     0.198 A 
ATOM     94  C   UNL A   1      46.702  28.204  35.408  1.00  0.00     0.198 A 
ATOM     95  F   UNL A   1      45.763  30.116  34.413  1.00  0.00    -0.203 F 
ATOM     96  F   UNL A   1      45.163  25.538  37.320  1.00  0.00    -0.200 F 
ATOM     97  C   UNL A   1      46.558  27.040  36.148  1.00  0.00     0.200 A 
ATOM     98  F   UNL A   1      47.915  28.578  34.978  1.00  0.00    -0.200 F 
ATOM     99  F   UNL A   1      47.634  26.302  36.455  1.00  0.00    -0.200 F 
ENDBRANCH  66  89
ENDBRANCH  40  41
ENDBRANCH  32  35
ENDBRANCH  30  31
ENDBRANCH  29  30
ENDBRANCH  28  29
ENDBRANCH  27  28
ENDBRANCH   1  27
TORSDOF 17
ENDMDL
