MODEL 1
REMARK VINA RESULT:     -11.7      0.000      0.000
REMARK SMILES CCC[NH2+]CC(=O)N1[C@@H](C(=O)NCCCCCCNC(=O)c2ccc(-c3c4nc(c(-c5c(F)c(F)c(F)c(F)c5F)c5ccc([nH]5)c(-c5c(F)c(F)c(F)c(F)c5F)c5nc(c(-c6c(F)c(F)c(F)c(F)c6F)c6ccc3[nH]6)C=C5)C=C4)cc2)CC[C@@H]2CCCC[C@@H]21
REMARK SMILES IDX 14 1 13 2 12 3 10 4 11 5 9 7 8 8 92 9 85 10 87 11 91 12
REMARK SMILES IDX 86 13 88 14 90 15 89 16 6 17 7 18 5 19 4 20 3 23 2 24 1 25
REMARK SMILES IDX 15 26 16 27 17 28 18 29 19 30 20 31 21 33 22 34 23 35 84 36
REMARK SMILES IDX 24 37 83 38 25 39 26 40 27 41 77 42 28 43 82 44 76 45 78 46
REMARK SMILES IDX 29 47 81 48 75 49 74 50 30 52 62 53 42 54 61 55 43 56 46 57
REMARK SMILES IDX 60 58 79 59 44 60 45 61 59 63 80 64 47 65 31 66 32 67 40 68
REMARK SMILES IDX 33 69 34 70 38 71 41 72 35 73 36 74 39 75 37 76 63 77 64 78
REMARK SMILES IDX 72 79 65 80 66 81 70 82 73 83 67 84 68 85 71 86 69 87 48 88
REMARK SMILES IDX 49 89 57 90 50 91 51 92 55 93 58 94 52 95 53 96 56 97 54 98
REMARK H PARENT 12 6 4 21 4 22 19 32 78 51 46 62
REMARK Flexibility Score: inf
ROOT
ATOM      1  C   UNL A   1      31.662  28.279  27.295  1.00  0.00     0.021 C 
ENDROOT
BRANCH   1   2
ATOM      2  C   UNL A   1      32.049  27.092  26.415  1.00  0.00     0.116 C 
BRANCH   2   3
ATOM      3  N   UNL A   1      31.457  25.908  27.005  1.00  0.00    -0.354 N 
ATOM      4  C   UNL A   1      31.576  24.607  26.643  1.00  0.00     0.242 C 
ATOM      5  O   UNL A   1      30.597  23.871  26.802  1.00  0.00    -0.273 OA
ATOM      6  H   UNL A   1      30.882  26.074  27.787  1.00  0.00     0.163 HD
BRANCH   4   7
ATOM      7  C   UNL A   1      32.819  24.081  25.938  1.00  0.00     0.175 C 
ATOM      8  N   UNL A   1      32.657  23.383  24.648  1.00  0.00    -0.323 N 
ATOM      9  C   UNL A   1      33.836  22.617  24.178  1.00  0.00     0.089 C 
ATOM     10  C   UNL A   1      33.409  23.151  27.023  1.00  0.00     0.036 C 
ATOM     11  C   UNL A   1      34.409  21.694  25.259  1.00  0.00     0.012 C 
ATOM     12  C   UNL A   1      34.897  23.549  23.533  1.00  0.00     0.025 C 
ATOM     13  C   UNL A   1      34.655  22.428  26.579  1.00  0.00     0.008 C 
ATOM     14  C   UNL A   1      35.686  21.037  24.741  1.00  0.00     0.006 C 
ATOM     15  C   UNL A   1      36.362  23.391  23.963  1.00  0.00     0.002 C 
ATOM     16  C   UNL A   1      36.806  22.045  24.535  1.00  0.00     0.000 C 
BRANCH   8  17
ATOM     17  C   UNL A   1      31.694  23.663  23.671  1.00  0.00     0.278 C 
ATOM     18  O   UNL A   1      31.068  22.723  23.161  1.00  0.00    -0.268 OA
BRANCH  17  19
ATOM     19  C   UNL A   1      31.529  25.080  23.074  1.00  0.00     0.362 C 
BRANCH  19  20
ATOM     20  N   UNL A   1      32.033  25.295  21.701  1.00  0.00    -0.338 N 
ATOM     21  H   UNL A   1      32.432  24.424  21.352  1.00  0.00     0.346 HD
ATOM     22  H   UNL A   1      31.256  25.592  21.112  1.00  0.00     0.346 HD
BRANCH  20  23
ATOM     23  C   UNL A   1      33.062  26.337  21.682  1.00  0.00     0.260 C 
BRANCH  23  24
ATOM     24  C   UNL A   1      33.505  26.938  23.030  1.00  0.00     0.058 C 
ATOM     25  C   UNL A   1      33.540  28.449  23.199  1.00  0.00     0.010 C 
ENDBRANCH  23  24
ENDBRANCH  20  23
ENDBRANCH  19  20
ENDBRANCH  17  19
ENDBRANCH   8  17
ENDBRANCH   4   7
ENDBRANCH   2   3
ENDBRANCH   1   2
BRANCH   1  26
ATOM     26  C   UNL A   1      32.537  29.522  27.050  1.00  0.00     0.002 C 
BRANCH  26  27
ATOM     27  C   UNL A   1      31.902  30.569  26.131  1.00  0.00     0.002 C 
BRANCH  27  28
ATOM     28  C   UNL A   1      31.555  31.879  26.836  1.00  0.00     0.021 C 
BRANCH  28  29
ATOM     29  C   UNL A   1      32.769  32.644  27.341  1.00  0.00     0.116 C 
BRANCH  29  30
ATOM     30  N   UNL A   1      32.463  34.035  27.622  1.00  0.00    -0.352 N 
ATOM     31  C   UNL A   1      33.017  34.850  28.580  1.00  0.00     0.251 C 
ATOM     32  H   UNL A   1      31.770  34.446  27.056  1.00  0.00     0.163 HD
ATOM     33  O   UNL A   1      32.546  35.946  28.823  1.00  0.00    -0.269 OA
BRANCH  31  34
ATOM     34  C   UNL A   1      34.185  34.351  29.333  1.00  0.00     0.039 A 
ATOM     35  C   UNL A   1      33.969  33.655  30.522  1.00  0.00     0.014 A 
ATOM     36  C   UNL A   1      35.481  34.534  28.839  1.00  0.00     0.014 A 
ATOM     37  C   UNL A   1      35.055  33.098  31.197  1.00  0.00     0.010 A 
ATOM     38  C   UNL A   1      36.551  33.913  29.471  1.00  0.00     0.010 A 
ATOM     39  C   UNL A   1      36.351  33.196  30.660  1.00  0.00    -0.014 A 
BRANCH  39  40
ATOM     40  C   UNL A   1      37.507  32.560  31.338  1.00  0.00     0.031 A 
ATOM     41  C   UNL A   1      38.216  31.405  30.686  1.00  0.00     0.074 A 
ATOM     42  C   UNL A   1      37.879  32.985  32.561  1.00  0.00     0.049 A 
ATOM     43  N   UNL A   1      39.205  30.679  31.142  1.00  0.00    -0.248 NA
ATOM     44  C   UNL A   1      37.734  30.990  29.358  1.00  0.00     0.031 C 
ATOM     45  C   UNL A   1      37.233  34.059  33.317  1.00  0.00     0.029 A 
ATOM     46  N   UNL A   1      38.882  32.553  33.393  1.00  0.00    -0.354 N 
ATOM     47  C   UNL A   1      39.446  29.715  30.171  1.00  0.00     0.074 A 
ATOM     48  C   UNL A   1      38.475  29.917  29.119  1.00  0.00     0.031 C 
ATOM     49  C   UNL A   1      37.866  34.215  34.491  1.00  0.00     0.029 A 
ATOM     50  C   UNL A   1      38.935  33.226  34.590  1.00  0.00     0.049 A 
ATOM     51  H   UNL A   1      39.506  31.830  33.153  1.00  0.00     0.167 HD
ATOM     52  C   UNL A   1      40.406  28.762  30.152  1.00  0.00     0.037 A 
ATOM     53  C   UNL A   1      39.745  33.052  35.652  1.00  0.00     0.037 A 
ATOM     54  C   UNL A   1      41.398  28.595  31.181  1.00  0.00     0.049 A 
ATOM     55  C   UNL A   1      40.809  31.987  35.593  1.00  0.00     0.074 A 
ATOM     56  C   UNL A   1      42.470  27.718  31.207  1.00  0.00     0.029 A 
ATOM     57  N   UNL A   1      41.440  29.315  32.364  1.00  0.00    -0.354 N 
ATOM     58  N   UNL A   1      41.088  31.147  34.627  1.00  0.00    -0.248 NA
ATOM     59  C   UNL A   1      41.678  31.852  36.771  1.00  0.00     0.031 C 
ATOM     60  C   UNL A   1      43.122  27.865  32.434  1.00  0.00     0.029 A 
ATOM     61  C   UNL A   1      42.498  28.878  33.144  1.00  0.00     0.049 A 
ATOM     62  H   UNL A   1      40.811  30.030  32.613  1.00  0.00     0.167 HD
ATOM     63  C   UNL A   1      42.182  30.412  35.064  1.00  0.00     0.074 A 
ATOM     64  C   UNL A   1      42.527  30.916  36.376  1.00  0.00     0.031 C 
ATOM     65  C   UNL A   1      42.840  29.406  34.439  1.00  0.00     0.037 A 
BRANCH  52  66
ATOM     66  C   UNL A   1      40.445  27.817  28.988  1.00  0.00     0.064 A 
ATOM     67  C   UNL A   1      39.679  26.642  28.963  1.00  0.00     0.173 A 
ATOM     68  C   UNL A   1      41.190  28.140  27.842  1.00  0.00     0.173 A 
ATOM     69  F   UNL A   1      38.959  26.282  30.036  1.00  0.00    -0.203 F 
ATOM     70  C   UNL A   1      39.666  25.821  27.838  1.00  0.00     0.198 A 
ATOM     71  C   UNL A   1      41.150  27.332  26.710  1.00  0.00     0.198 A 
ATOM     72  F   UNL A   1      41.936  29.255  27.814  1.00  0.00    -0.203 F 
ATOM     73  F   UNL A   1      38.950  24.689  27.847  1.00  0.00    -0.200 F 
ATOM     74  C   UNL A   1      40.391  26.173  26.709  1.00  0.00     0.200 A 
ATOM     75  F   UNL A   1      41.840  27.683  25.615  1.00  0.00    -0.200 F 
ATOM     76  F   UNL A   1      40.356  25.394  25.619  1.00  0.00    -0.200 F 
ENDBRANCH  52  66
BRANCH  53  77
ATOM     77  C   UNL A   1      39.589  33.897  36.867  1.00  0.00     0.064 A 
ATOM     78  C   UNL A   1      38.806  33.471  37.950  1.00  0.00     0.173 A 
ATOM     79  C   UNL A   1      40.174  35.170  36.949  1.00  0.00     0.173 A 
ATOM     80  F   UNL A   1      38.208  32.272  37.913  1.00  0.00    -0.203 F 
ATOM     81  C   UNL A   1      38.578  34.302  39.046  1.00  0.00     0.198 A 
ATOM     82  C   UNL A   1      39.975  35.985  38.062  1.00  0.00     0.198 A 
ATOM     83  F   UNL A   1      40.938  35.625  35.945  1.00  0.00    -0.203 F 
ATOM     84  F   UNL A   1      37.764  33.898  40.031  1.00  0.00    -0.200 F 
ATOM     85  C   UNL A   1      39.164  35.557  39.102  1.00  0.00     0.200 A 
ATOM     86  F   UNL A   1      40.556  37.191  38.119  1.00  0.00    -0.200 F 
ATOM     87  F   UNL A   1      38.936  36.359  40.150  1.00  0.00    -0.200 F 
ENDBRANCH  53  77
BRANCH  65  88
ATOM     88  C   UNL A   1      44.030  28.816  35.140  1.00  0.00     0.064 A 
ATOM     89  C   UNL A   1      43.912  27.707  35.990  1.00  0.00     0.173 A 
ATOM     90  C   UNL A   1      45.312  29.345  34.923  1.00  0.00     0.173 A 
ATOM     91  F   UNL A   1      42.708  27.173  36.241  1.00  0.00    -0.203 F 
ATOM     92  C   UNL A   1      45.031  27.168  36.621  1.00  0.00     0.198 A 
ATOM     93  C   UNL A   1      46.432  28.782  35.528  1.00  0.00     0.198 A 
ATOM     94  F   UNL A   1      45.481  30.399  34.112  1.00  0.00    -0.203 F 
ATOM     95  F   UNL A   1      44.887  26.142  37.471  1.00  0.00    -0.200 F 
ATOM     96  C   UNL A   1      46.289  27.699  36.383  1.00  0.00     0.200 A 
ATOM     97  F   UNL A   1      47.649  29.286  35.282  1.00  0.00    -0.200 F 
ATOM     98  F   UNL A   1      47.365  27.173  36.984  1.00  0.00    -0.200 F 
ENDBRANCH  65  88
ENDBRANCH  39  40
ENDBRANCH  31  34
ENDBRANCH  29  30
ENDBRANCH  28  29
ENDBRANCH  27  28
ENDBRANCH  26  27
ENDBRANCH   1  26
TORSDOF 18
ENDMDL
MODEL 2
REMARK VINA RESULT:     -11.7      0.704      1.338
REMARK SMILES CCC[NH2+]CC(=O)N1[C@@H](C(=O)NCCCCCCNC(=O)c2ccc(-c3c4nc(c(-c5c(F)c(F)c(F)c(F)c5F)c5ccc([nH]5)c(-c5c(F)c(F)c(F)c(F)c5F)c5nc(c(-c6c(F)c(F)c(F)c(F)c6F)c6ccc3[nH]6)C=C5)C=C4)cc2)CC[C@@H]2CCCC[C@@H]21
REMARK SMILES IDX 14 1 13 2 12 3 10 4 11 5 9 7 8 8 92 9 85 10 87 11 91 12
REMARK SMILES IDX 86 13 88 14 90 15 89 16 6 17 7 18 5 19 4 20 3 23 2 24 1 25
REMARK SMILES IDX 15 26 16 27 17 28 18 29 19 30 20 31 21 33 22 34 23 35 84 36
REMARK SMILES IDX 24 37 83 38 25 39 26 40 27 41 77 42 28 43 82 44 76 45 78 46
REMARK SMILES IDX 29 47 81 48 75 49 74 50 30 52 62 53 42 54 61 55 43 56 46 57
REMARK SMILES IDX 60 58 79 59 44 60 45 61 59 63 80 64 47 65 31 66 32 67 40 68
REMARK SMILES IDX 33 69 34 70 38 71 41 72 35 73 36 74 39 75 37 76 63 77 64 78
REMARK SMILES IDX 72 79 65 80 66 81 70 82 73 83 67 84 68 85 71 86 69 87 48 88
REMARK SMILES IDX 49 89 57 90 50 91 51 92 55 93 58 94 52 95 53 96 56 97 54 98
REMARK H PARENT 12 6 4 21 4 22 19 32 78 51 46 62
REMARK Flexibility Score: inf
ROOT
ATOM      1  C   UNL A   1      31.919  28.513  27.333  1.00  0.00     0.021 C 
ENDROOT
BRANCH   1   2
ATOM      2  C   UNL A   1      32.445  27.372  26.464  1.00  0.00     0.116 C 
BRANCH   2   3
ATOM      3  N   UNL A   1      31.615  26.213  26.727  1.00  0.00    -0.354 N 
ATOM      4  C   UNL A   1      31.753  24.934  26.301  1.00  0.00     0.242 C 
ATOM      5  O   UNL A   1      30.726  24.286  26.076  1.00  0.00    -0.273 OA
ATOM      6  H   UNL A   1      30.832  26.382  27.300  1.00  0.00     0.163 HD
BRANCH   4   7
ATOM      7  C   UNL A   1      33.117  24.339  25.976  1.00  0.00     0.175 C 
ATOM      8  N   UNL A   1      33.396  23.933  24.585  1.00  0.00    -0.323 N 
ATOM      9  C   UNL A   1      34.589  23.074  24.394  1.00  0.00     0.089 C 
ATOM     10  C   UNL A   1      33.158  23.135  26.945  1.00  0.00     0.036 C 
ATOM     11  C   UNL A   1      34.617  21.880  25.354  1.00  0.00     0.012 C 
ATOM     12  C   UNL A   1      35.897  23.909  24.405  1.00  0.00     0.025 C 
ATOM     13  C   UNL A   1      34.407  22.301  26.810  1.00  0.00     0.008 C 
ATOM     14  C   UNL A   1      35.929  21.118  25.179  1.00  0.00     0.006 C 
ATOM     15  C   UNL A   1      37.065  23.421  25.273  1.00  0.00     0.002 C 
ATOM     16  C   UNL A   1      37.130  21.935  25.628  1.00  0.00     0.000 C 
BRANCH   8  17
ATOM     17  C   UNL A   1      32.911  24.553  23.428  1.00  0.00     0.278 C 
ATOM     18  O   UNL A   1      32.363  23.857  22.561  1.00  0.00    -0.268 OA
BRANCH  17  19
ATOM     19  C   UNL A   1      33.210  26.037  23.114  1.00  0.00     0.362 C 
BRANCH  19  20
ATOM     20  N   UNL A   1      32.551  26.621  21.927  1.00  0.00    -0.338 N 
ATOM     21  H   UNL A   1      33.145  27.355  21.542  1.00  0.00     0.346 HD
ATOM     22  H   UNL A   1      32.409  25.882  21.237  1.00  0.00     0.346 HD
BRANCH  20  23
ATOM     23  C   UNL A   1      31.250  27.190  22.280  1.00  0.00     0.260 C 
BRANCH  23  24
ATOM     24  C   UNL A   1      31.231  28.465  23.145  1.00  0.00     0.058 C 
ATOM     25  C   UNL A   1      29.920  29.205  23.358  1.00  0.00     0.010 C 
ENDBRANCH  23  24
ENDBRANCH  20  23
ENDBRANCH  19  20
ENDBRANCH  17  19
ENDBRANCH   8  17
ENDBRANCH   4   7
ENDBRANCH   2   3
ENDBRANCH   1   2
BRANCH   1  26
ATOM     26  C   UNL A   1      32.589  29.865  27.025  1.00  0.00     0.002 C 
BRANCH  26  27
ATOM     27  C   UNL A   1      31.766  30.783  26.118  1.00  0.00     0.002 C 
BRANCH  27  28
ATOM     28  C   UNL A   1      31.446  32.141  26.743  1.00  0.00     0.021 C 
BRANCH  28  29
ATOM     29  C   UNL A   1      32.668  32.870  27.282  1.00  0.00     0.116 C 
BRANCH  29  30
ATOM     30  N   UNL A   1      32.379  34.255  27.609  1.00  0.00    -0.352 N 
ATOM     31  C   UNL A   1      32.956  35.037  28.580  1.00  0.00     0.251 C 
ATOM     32  H   UNL A   1      31.680  34.688  27.068  1.00  0.00     0.163 HD
ATOM     33  O   UNL A   1      32.500  36.129  28.864  1.00  0.00    -0.269 OA
BRANCH  31  34
ATOM     34  C   UNL A   1      34.134  34.506  29.297  1.00  0.00     0.039 A 
ATOM     35  C   UNL A   1      33.938  33.838  30.506  1.00  0.00     0.014 A 
ATOM     36  C   UNL A   1      35.415  34.632  28.751  1.00  0.00     0.014 A 
ATOM     37  C   UNL A   1      35.027  33.252  31.149  1.00  0.00     0.010 A 
ATOM     38  C   UNL A   1      36.485  33.981  29.354  1.00  0.00     0.010 A 
ATOM     39  C   UNL A   1      36.305  33.292  30.562  1.00  0.00    -0.014 A 
BRANCH  39  40
ATOM     40  C   UNL A   1      37.462  32.623  31.206  1.00  0.00     0.031 A 
ATOM     41  C   UNL A   1      38.124  31.454  30.531  1.00  0.00     0.074 A 
ATOM     42  C   UNL A   1      37.876  33.032  32.421  1.00  0.00     0.049 A 
ATOM     43  N   UNL A   1      39.106  30.701  30.957  1.00  0.00    -0.248 NA
ATOM     44  C   UNL A   1      37.597  31.058  29.214  1.00  0.00     0.031 C 
ATOM     45  C   UNL A   1      37.277  34.119  33.198  1.00  0.00     0.029 A 
ATOM     46  N   UNL A   1      38.890  32.571  33.224  1.00  0.00    -0.354 N 
ATOM     47  C   UNL A   1      39.297  29.737  29.976  1.00  0.00     0.074 A 
ATOM     48  C   UNL A   1      38.304  29.968  28.952  1.00  0.00     0.031 C 
ATOM     49  C   UNL A   1      37.945  34.253  34.356  1.00  0.00     0.029 A 
ATOM     50  C   UNL A   1      38.991  33.237  34.422  1.00  0.00     0.049 A 
ATOM     51  H   UNL A   1      39.488  31.834  32.965  1.00  0.00     0.167 HD
ATOM     52  C   UNL A   1      40.231  28.759  29.929  1.00  0.00     0.037 A 
ATOM     53  C   UNL A   1      39.824  33.038  35.462  1.00  0.00     0.037 A 
ATOM     54  C   UNL A   1      41.246  28.562  30.930  1.00  0.00     0.049 A 
ATOM     55  C   UNL A   1      40.858  31.946  35.371  1.00  0.00     0.074 A 
ATOM     56  C   UNL A   1      42.295  27.659  30.925  1.00  0.00     0.029 A 
ATOM     57  N   UNL A   1      41.336  29.275  32.115  1.00  0.00    -0.354 N 
ATOM     58  N   UNL A   1      41.091  31.104  34.394  1.00  0.00    -0.248 NA
ATOM     59  C   UNL A   1      41.753  31.783  36.525  1.00  0.00     0.031 C 
ATOM     60  C   UNL A   1      42.983  27.783  32.134  1.00  0.00     0.029 A 
ATOM     61  C   UNL A   1      42.404  28.808  32.865  1.00  0.00     0.049 A 
ATOM     62  H   UNL A   1      40.732  30.005  32.384  1.00  0.00     0.167 HD
ATOM     63  C   UNL A   1      42.176  30.339  34.799  1.00  0.00     0.074 A 
ATOM     64  C   UNL A   1      42.569  30.828  36.103  1.00  0.00     0.031 C 
ATOM     65  C   UNL A   1      42.793  29.320  34.152  1.00  0.00     0.037 A 
BRANCH  52  66
ATOM     66  C   UNL A   1      40.216  27.820  28.759  1.00  0.00     0.064 A 
ATOM     67  C   UNL A   1      40.922  28.097  27.580  1.00  0.00     0.173 A 
ATOM     68  C   UNL A   1      39.559  26.583  28.856  1.00  0.00     0.173 A 
ATOM     69  F   UNL A   1      41.557  29.270  27.431  1.00  0.00    -0.203 F 
ATOM     70  C   UNL A   1      40.963  27.175  26.537  1.00  0.00     0.198 A 
ATOM     71  C   UNL A   1      39.628  25.652  27.824  1.00  0.00     0.198 A 
ATOM     72  F   UNL A   1      38.873  26.267  29.965  1.00  0.00    -0.203 F 
ATOM     73  F   UNL A   1      41.620  27.472  25.407  1.00  0.00    -0.200 F 
ATOM     74  C   UNL A   1      40.327  25.949  26.664  1.00  0.00     0.200 A 
ATOM     75  F   UNL A   1      39.024  24.462  27.957  1.00  0.00    -0.200 F 
ATOM     76  F   UNL A   1      40.389  25.053  25.670  1.00  0.00    -0.200 F 
ENDBRANCH  52  66
BRANCH  53  77
ATOM     77  C   UNL A   1      39.721  33.880  36.684  1.00  0.00     0.064 A 
ATOM     78  C   UNL A   1      38.910  33.496  37.762  1.00  0.00     0.173 A 
ATOM     79  C   UNL A   1      40.387  35.112  36.778  1.00  0.00     0.173 A 
ATOM     80  F   UNL A   1      38.235  32.338  37.714  1.00  0.00    -0.203 F 
ATOM     81  C   UNL A   1      38.734  34.331  38.866  1.00  0.00     0.198 A 
ATOM     82  C   UNL A   1      40.239  35.927  37.898  1.00  0.00     0.198 A 
ATOM     83  F   UNL A   1      41.180  35.525  35.779  1.00  0.00    -0.203 F 
ATOM     84  F   UNL A   1      37.894  33.972  39.846  1.00  0.00    -0.200 F 
ATOM     85  C   UNL A   1      39.401  35.544  38.934  1.00  0.00     0.200 A 
ATOM     86  F   UNL A   1      40.897  37.093  37.966  1.00  0.00    -0.200 F 
ATOM     87  F   UNL A   1      39.223  36.350  39.988  1.00  0.00    -0.200 F 
ENDBRANCH  53  77
BRANCH  65  88
ATOM     88  C   UNL A   1      43.985  28.697  34.820  1.00  0.00     0.064 A 
ATOM     89  C   UNL A   1      43.862  27.581  35.660  1.00  0.00     0.173 A 
ATOM     90  C   UNL A   1      45.273  29.201  34.579  1.00  0.00     0.173 A 
ATOM     91  F   UNL A   1      42.652  27.071  35.933  1.00  0.00    -0.203 F 
ATOM     92  C   UNL A   1      44.983  27.012  36.260  1.00  0.00     0.198 A 
ATOM     93  C   UNL A   1      46.393  28.607  35.152  1.00  0.00     0.198 A 
ATOM     94  F   UNL A   1      45.446  30.260  33.776  1.00  0.00    -0.203 F 
ATOM     95  F   UNL A   1      44.837  25.979  37.101  1.00  0.00    -0.200 F 
ATOM     96  C   UNL A   1      46.246  27.518  35.998  1.00  0.00     0.200 A 
ATOM     97  F   UNL A   1      47.615  29.088  34.883  1.00  0.00    -0.200 F 
ATOM     98  F   UNL A   1      47.324  26.962  36.568  1.00  0.00    -0.200 F 
ENDBRANCH  65  88
ENDBRANCH  39  40
ENDBRANCH  31  34
ENDBRANCH  29  30
ENDBRANCH  28  29
ENDBRANCH  27  28
ENDBRANCH  26  27
ENDBRANCH   1  26
TORSDOF 18
ENDMDL
MODEL 3
REMARK VINA RESULT:     -11.6      0.821      7.327
REMARK SMILES CCC[NH2+]CC(=O)N1[C@@H](C(=O)NCCCCCCNC(=O)c2ccc(-c3c4nc(c(-c5c(F)c(F)c(F)c(F)c5F)c5ccc([nH]5)c(-c5c(F)c(F)c(F)c(F)c5F)c5nc(c(-c6c(F)c(F)c(F)c(F)c6F)c6ccc3[nH]6)C=C5)C=C4)cc2)CC[C@@H]2CCCC[C@@H]21
REMARK SMILES IDX 14 1 13 2 12 3 10 4 11 5 9 7 8 8 92 9 85 10 87 11 91 12
REMARK SMILES IDX 86 13 88 14 90 15 89 16 6 17 7 18 5 19 4 20 3 23 2 24 1 25
REMARK SMILES IDX 15 26 16 27 17 28 18 29 19 30 20 31 21 33 22 34 23 35 84 36
REMARK SMILES IDX 24 37 83 38 25 39 26 40 27 41 77 42 28 43 82 44 76 45 78 46
REMARK SMILES IDX 29 47 81 48 75 49 74 50 30 52 62 53 42 54 61 55 43 56 46 57
REMARK SMILES IDX 60 58 79 59 44 60 45 61 59 63 80 64 47 65 31 66 32 67 40 68
REMARK SMILES IDX 33 69 34 70 38 71 41 72 35 73 36 74 39 75 37 76 63 77 64 78
REMARK SMILES IDX 72 79 65 80 66 81 70 82 73 83 67 84 68 85 71 86 69 87 48 88
REMARK SMILES IDX 49 89 57 90 50 91 51 92 55 93 58 94 52 95 53 96 56 97 54 98
REMARK H PARENT 12 6 4 21 4 22 19 32 78 51 46 62
REMARK Flexibility Score: inf
ROOT
ATOM      1  C   UNL A   1      31.781  28.528  27.399  1.00  0.00     0.021 C 
ENDROOT
BRANCH   1   2
ATOM      2  C   UNL A   1      32.237  27.336  26.558  1.00  0.00     0.116 C 
BRANCH   2   3
ATOM      3  N   UNL A   1      31.455  26.191  26.977  1.00  0.00    -0.354 N 
ATOM      4  C   UNL A   1      31.580  24.885  26.636  1.00  0.00     0.242 C 
ATOM      5  O   UNL A   1      30.550  24.209  26.549  1.00  0.00    -0.273 OA
ATOM      6  H   UNL A   1      30.721  26.392  27.601  1.00  0.00     0.163 HD
BRANCH   4   7
ATOM      7  C   UNL A   1      32.922  24.284  26.239  1.00  0.00     0.175 C 
ATOM      8  N   UNL A   1      33.178  24.008  24.812  1.00  0.00    -0.323 N 
ATOM      9  C   UNL A   1      34.342  23.137  24.524  1.00  0.00     0.089 C 
ATOM     10  C   UNL A   1      32.935  22.990  27.085  1.00  0.00     0.036 C 
ATOM     11  C   UNL A   1      34.341  21.855  25.363  1.00  0.00     0.012 C 
ATOM     12  C   UNL A   1      35.676  23.928  24.603  1.00  0.00     0.025 C 
ATOM     13  C   UNL A   1      34.156  22.137  26.855  1.00  0.00     0.008 C 
ATOM     14  C   UNL A   1      35.628  21.075  25.100  1.00  0.00     0.006 C 
ATOM     15  C   UNL A   1      36.834  23.322  25.406  1.00  0.00     0.002 C 
ATOM     16  C   UNL A   1      36.857  21.808  25.613  1.00  0.00     0.000 C 
BRANCH   8  17
ATOM     17  C   UNL A   1      32.702  24.753  23.727  1.00  0.00     0.278 C 
ATOM     18  O   UNL A   1      31.811  24.270  23.014  1.00  0.00    -0.268 OA
BRANCH  17  19
ATOM     19  C   UNL A   1      33.387  26.065  23.278  1.00  0.00     0.362 C 
BRANCH  19  20
ATOM     20  N   UNL A   1      32.646  26.920  22.327  1.00  0.00    -0.338 N 
ATOM     21  H   UNL A   1      33.202  27.038  21.481  1.00  0.00     0.346 HD
ATOM     22  H   UNL A   1      31.757  26.470  22.109  1.00  0.00     0.346 HD
BRANCH  20  23
ATOM     23  C   UNL A   1      32.376  28.235  22.912  1.00  0.00     0.260 C 
BRANCH  23  24
ATOM     24  C   UNL A   1      30.913  28.596  23.232  1.00  0.00     0.058 C 
ATOM     25  C   UNL A   1      29.952  27.502  23.670  1.00  0.00     0.010 C 
ENDBRANCH  23  24
ENDBRANCH  20  23
ENDBRANCH  19  20
ENDBRANCH  17  19
ENDBRANCH   8  17
ENDBRANCH   4   7
ENDBRANCH   2   3
ENDBRANCH   1   2
BRANCH   1  26
ATOM     26  C   UNL A   1      32.486  29.842  27.015  1.00  0.00     0.002 C 
BRANCH  26  27
ATOM     27  C   UNL A   1      31.654  30.765  26.121  1.00  0.00     0.002 C 
BRANCH  27  28
ATOM     28  C   UNL A   1      31.405  32.147  26.724  1.00  0.00     0.021 C 
BRANCH  28  29
ATOM     29  C   UNL A   1      32.663  32.820  27.254  1.00  0.00     0.116 C 
BRANCH  29  30
ATOM     30  N   UNL A   1      32.424  34.199  27.642  1.00  0.00    -0.352 N 
ATOM     31  C   UNL A   1      33.027  34.915  28.648  1.00  0.00     0.251 C 
ATOM     32  H   UNL A   1      31.745  34.681  27.118  1.00  0.00     0.163 HD
ATOM     33  O   UNL A   1      32.611  36.010  28.979  1.00  0.00    -0.269 OA
BRANCH  31  34
ATOM     34  C   UNL A   1      34.180  34.308  29.344  1.00  0.00     0.039 A 
ATOM     35  C   UNL A   1      33.940  33.464  30.429  1.00  0.00     0.014 A 
ATOM     36  C   UNL A   1      35.484  34.541  28.896  1.00  0.00     0.014 A 
ATOM     37  C   UNL A   1      35.012  32.812  31.039  1.00  0.00     0.010 A 
ATOM     38  C   UNL A   1      36.540  33.831  29.455  1.00  0.00     0.010 A 
ATOM     39  C   UNL A   1      36.316  32.966  30.537  1.00  0.00    -0.014 A 
BRANCH  39  40
ATOM     40  C   UNL A   1      37.457  32.234  31.140  1.00  0.00     0.031 A 
ATOM     41  C   UNL A   1      37.953  32.613  32.508  1.00  0.00     0.074 A 
ATOM     42  C   UNL A   1      38.079  31.271  30.432  1.00  0.00     0.049 A 
ATOM     43  N   UNL A   1      38.969  32.135  33.179  1.00  0.00    -0.248 NA
ATOM     44  C   UNL A   1      37.230  33.689  33.205  1.00  0.00     0.031 C 
ATOM     45  C   UNL A   1      37.724  30.853  29.074  1.00  0.00     0.029 A 
ATOM     46  N   UNL A   1      39.153  30.477  30.750  1.00  0.00    -0.354 N 
ATOM     47  C   UNL A   1      39.019  32.865  34.361  1.00  0.00     0.074 A 
ATOM     48  C   UNL A   1      37.960  33.847  34.300  1.00  0.00     0.031 C 
ATOM     49  C   UNL A   1      38.551  29.870  28.684  1.00  0.00     0.029 A 
ATOM     50  C   UNL A   1      39.521  29.615  29.745  1.00  0.00     0.049 A 
ATOM     51  H   UNL A   1      39.616  30.520  31.618  1.00  0.00     0.167 HD
ATOM     52  C   UNL A   1      39.862  32.713  35.408  1.00  0.00     0.037 A 
ATOM     53  C   UNL A   1      40.535  28.732  29.682  1.00  0.00     0.037 A 
ATOM     54  C   UNL A   1      40.885  31.704  35.482  1.00  0.00     0.049 A 
ATOM     55  C   UNL A   1      41.449  28.582  30.871  1.00  0.00     0.074 A 
ATOM     56  C   UNL A   1      41.727  31.409  36.541  1.00  0.00     0.029 A 
ATOM     57  N   UNL A   1      41.208  30.829  34.457  1.00  0.00    -0.354 N 
ATOM     58  N   UNL A   1      41.423  29.211  32.021  1.00  0.00    -0.248 NA
ATOM     59  C   UNL A   1      42.529  27.591  30.756  1.00  0.00     0.031 C 
ATOM     60  C   UNL A   1      42.601  30.398  36.134  1.00  0.00     0.029 A 
ATOM     61  C   UNL A   1      42.261  30.017  34.846  1.00  0.00     0.049 A 
ATOM     62  H   UNL A   1      40.757  30.790  33.583  1.00  0.00     0.167 HD
ATOM     63  C   UNL A   1      42.455  28.669  32.775  1.00  0.00     0.074 A 
ATOM     64  C   UNL A   1      43.076  27.648  31.961  1.00  0.00     0.031 C 
ATOM     65  C   UNL A   1      42.855  28.990  34.030  1.00  0.00     0.037 A 
BRANCH  52  66
ATOM     66  C   UNL A   1      39.723  33.650  36.571  1.00  0.00     0.064 A 
ATOM     67  C   UNL A   1      40.336  34.912  36.580  1.00  0.00     0.173 A 
ATOM     68  C   UNL A   1      38.891  33.316  37.651  1.00  0.00     0.173 A 
ATOM     69  F   UNL A   1      41.150  35.275  35.578  1.00  0.00    -0.203 F 
ATOM     70  C   UNL A   1      40.128  35.801  37.632  1.00  0.00     0.198 A 
ATOM     71  C   UNL A   1      38.663  34.219  38.686  1.00  0.00     0.198 A 
ATOM     72  F   UNL A   1      38.279  32.123  37.689  1.00  0.00    -0.203 F 
ATOM     73  F   UNL A   1      40.746  36.989  37.634  1.00  0.00    -0.200 F 
ATOM     74  C   UNL A   1      39.283  35.459  38.677  1.00  0.00     0.200 A 
ATOM     75  F   UNL A   1      37.833  33.891  39.687  1.00  0.00    -0.200 F 
ATOM     76  F   UNL A   1      39.065  36.325  39.675  1.00  0.00    -0.200 F 
ENDBRANCH  52  66
BRANCH  53  77
ATOM     77  C   UNL A   1      40.754  27.919  28.455  1.00  0.00     0.064 A 
ATOM     78  C   UNL A   1      41.535  28.403  27.395  1.00  0.00     0.173 A 
ATOM     79  C   UNL A   1      40.143  26.666  28.293  1.00  0.00     0.173 A 
ATOM     80  F   UNL A   1      42.124  29.604  27.491  1.00  0.00    -0.203 F 
ATOM     81  C   UNL A   1      41.660  27.686  26.206  1.00  0.00     0.198 A 
ATOM     82  C   UNL A   1      40.300  25.935  27.117  1.00  0.00     0.198 A 
ATOM     83  F   UNL A   1      39.391  26.152  29.277  1.00  0.00    -0.203 F 
ATOM     84  F   UNL A   1      42.350  28.208  25.182  1.00  0.00    -0.200 F 
ATOM     85  C   UNL A   1      41.044  26.452  26.068  1.00  0.00     0.200 A 
ATOM     86  F   UNL A   1      39.715  24.735  26.995  1.00  0.00    -0.200 F 
ATOM     87  F   UNL A   1      41.155  25.770  24.921  1.00  0.00    -0.200 F 
ENDBRANCH  53  77
BRANCH  65  88
ATOM     88  C   UNL A   1      43.986  28.198  34.620  1.00  0.00     0.064 A 
ATOM     89  C   UNL A   1      43.766  26.997  35.309  1.00  0.00     0.173 A 
ATOM     90  C   UNL A   1      45.312  28.628  34.454  1.00  0.00     0.173 A 
ATOM     91  F   UNL A   1      42.517  26.550  35.506  1.00  0.00    -0.203 F 
ATOM     92  C   UNL A   1      44.831  26.272  35.838  1.00  0.00     0.198 A 
ATOM     93  C   UNL A   1      46.375  27.882  34.953  1.00  0.00     0.198 A 
ATOM     94  F   UNL A   1      45.577  29.765  33.794  1.00  0.00    -0.203 F 
ATOM     95  F   UNL A   1      44.594  25.155  36.540  1.00  0.00    -0.200 F 
ATOM     96  C   UNL A   1      46.133  26.709  35.652  1.00  0.00     0.200 A 
ATOM     97  F   UNL A   1      47.634  28.298  34.756  1.00  0.00    -0.200 F 
ATOM     98  F   UNL A   1      47.157  26.004  36.153  1.00  0.00    -0.200 F 
ENDBRANCH  65  88
ENDBRANCH  39  40
ENDBRANCH  31  34
ENDBRANCH  29  30
ENDBRANCH  28  29
ENDBRANCH  27  28
ENDBRANCH  26  27
ENDBRANCH   1  26
TORSDOF 18
ENDMDL
