MODEL 1
REMARK VINA RESULT:     -12.0      0.000      0.000
REMARK SMILES C=C[C@@H]1[C@@H](O)C[C@H]2[C@]3(CC[C@]4(C)[C@@H]([C@H](C)CCC=C(C)C)CC[C@]24C)C[C@]13CCC(=O)NCCCCCCNC(=O)c1ccc(-c2c3nc(c(-c4c(F)c(F)c(F)c(F)c4F)c4ccc([nH]4)c(-c4c(F)c(F)c(F)c(F)c4F)c4nc(c(-c5c(F)c(F)c(F)c(F)c5F)c5ccc2[nH]5)C=C4)C=C3)cc1
REMARK SMILES IDX 33 1 32 2 30 3 31 4 29 6 28 7 27 8 3 9 4 10 6 11 8 12 26 13
REMARK SMILES IDX 7 14 9 15 24 16 10 17 11 18 23 19 25 20 13 21 12 22 22 23
REMARK SMILES IDX 2 24 1 25 5 26 14 28 15 29 16 30 17 31 18 32 19 33 20 34
REMARK SMILES IDX 21 35 34 36 35 37 36 38 37 39 38 40 39 41 40 42 41 44 42 45
REMARK SMILES IDX 43 46 104 47 44 48 103 49 45 50 46 51 47 52 97 53 48 54
REMARK SMILES IDX 102 55 96 56 98 57 49 58 101 59 95 60 94 61 50 63 82 64
REMARK SMILES IDX 62 65 81 66 63 67 66 68 80 69 99 70 64 71 65 72 79 74 100 75
REMARK SMILES IDX 67 76 51 77 52 78 60 79 53 80 54 81 58 82 61 83 55 84 56 85
REMARK SMILES IDX 59 86 57 87 83 88 84 89 92 90 85 91 86 92 90 93 93 94 87 95
REMARK SMILES IDX 88 96 91 97 89 98 68 99 69 100 77 101 70 102 71 103 75 104
REMARK SMILES IDX 78 105 72 106 73 107 76 108 74 109
REMARK H PARENT 32 5 5 27 39 43 98 62 66 73
REMARK Flexibility Score: inf
ROOT
ATOM      1  C   UNL A   1      39.868  22.289  26.475  1.00  0.00     0.116 C 
ENDROOT
BRANCH   1   2
ATOM      2  N   UNL A   1      38.966  21.341  25.849  1.00  0.00    -0.356 N 
ATOM      3  C   UNL A   1      37.762  21.463  25.235  1.00  0.00     0.220 C 
ATOM      4  O   UNL A   1      37.314  20.433  24.716  1.00  0.00    -0.275 OA
ATOM      5  H   UNL A   1      39.296  20.414  25.875  1.00  0.00     0.163 HD
BRANCH   3   6
ATOM      6  C   UNL A   1      36.998  22.771  25.067  1.00  0.00     0.100 C 
BRANCH   6   7
ATOM      7  C   UNL A   1      35.898  23.137  26.063  1.00  0.00     0.018 C 
BRANCH   7   8
ATOM      8  C   UNL A   1      34.440  23.126  25.570  1.00  0.00    -0.014 C 
ATOM      9  C   UNL A   1      33.561  21.956  26.165  1.00  0.00     0.047 C 
ATOM     10  C   UNL A   1      32.036  22.232  26.284  1.00  0.00     0.122 C 
ATOM     11  C   UNL A   1      31.518  23.272  25.314  1.00  0.00     0.037 C 
ATOM     12  C   UNL A   1      33.740  24.509  25.316  1.00  0.00    -0.019 C 
ATOM     13  C   UNL A   1      34.214  23.684  24.180  1.00  0.00     0.016 C 
ATOM     14  C   UNL A   1      32.226  24.618  25.561  1.00  0.00     0.005 C 
ATOM     15  C   UNL A   1      34.477  25.827  25.427  1.00  0.00     0.008 C 
ATOM     16  C   UNL A   1      31.519  25.827  24.820  1.00  0.00    -0.023 C 
ATOM     17  C   UNL A   1      33.800  26.851  24.525  1.00  0.00     0.008 C 
ATOM     18  C   UNL A   1      32.361  27.162  24.940  1.00  0.00    -0.024 C 
ATOM     19  C   UNL A   1      30.239  26.199  25.609  1.00  0.00     0.008 C 
ATOM     20  C   UNL A   1      31.149  25.466  23.362  1.00  0.00     0.012 C 
ATOM     21  C   UNL A   1      32.173  27.518  26.452  1.00  0.00    -0.002 C 
ATOM     22  C   UNL A   1      31.822  28.277  24.016  1.00  0.00     0.012 C 
ATOM     23  C   UNL A   1      30.672  27.196  26.692  1.00  0.00     0.005 C 
BRANCH   9  24
ATOM     24  C   UNL A   1      33.811  20.550  25.621  1.00  0.00    -0.028 C 
ATOM     25  C   UNL A   1      33.575  20.058  24.394  1.00  0.00     0.004 C 
ENDBRANCH   9  24
BRANCH  10  26
ATOM     26  O   UNL A   1      31.702  22.645  27.617  1.00  0.00    -0.392 OA
ATOM     27  H   UNL A   1      30.741  22.597  27.739  1.00  0.00     0.210 HD
ENDBRANCH  10  26
BRANCH  21  28
ATOM     28  C   UNL A   1      32.631  28.847  27.124  1.00  0.00    -0.010 C 
ATOM     29  C   UNL A   1      31.806  30.103  26.845  1.00  0.00     0.008 C 
BRANCH  28  30
ATOM     30  C   UNL A   1      34.159  29.132  27.262  1.00  0.00     0.008 C 
BRANCH  30  31
ATOM     31  C   UNL A   1      34.852  30.512  27.249  1.00  0.00     0.027 C 
BRANCH  31  32
ATOM     32  C   UNL A   1      35.158  31.211  28.542  1.00  0.00    -0.028 C 
ATOM     33  C   UNL A   1      34.584  32.360  28.963  1.00  0.00    -0.080 C 
ATOM     34  C   UNL A   1      34.756  32.834  30.381  1.00  0.00     0.039 C 
ATOM     35  C   UNL A   1      33.698  33.226  28.109  1.00  0.00     0.039 C 
ENDBRANCH  31  32
ENDBRANCH  30  31
ENDBRANCH  28  30
ENDBRANCH  21  28
ENDBRANCH   7   8
ENDBRANCH   6   7
ENDBRANCH   3   6
ENDBRANCH   1   2
BRANCH   1  36
ATOM     36  C   UNL A   1      41.340  21.940  26.203  1.00  0.00     0.021 C 
BRANCH  36  37
ATOM     37  C   UNL A   1      42.106  21.353  27.378  1.00  0.00     0.002 C 
BRANCH  37  38
ATOM     38  C   UNL A   1      41.851  19.860  27.620  1.00  0.00     0.002 C 
BRANCH  38  39
ATOM     39  C   UNL A   1      42.734  18.869  26.849  1.00  0.00     0.021 C 
BRANCH  39  40
ATOM     40  C   UNL A   1      42.659  18.945  25.325  1.00  0.00     0.116 C 
BRANCH  40  41
ATOM     41  N   UNL A   1      43.918  18.579  24.694  1.00  0.00    -0.352 N 
ATOM     42  C   UNL A   1      44.963  19.365  24.296  1.00  0.00     0.251 C 
ATOM     43  H   UNL A   1      44.036  17.616  24.527  1.00  0.00     0.163 HD
ATOM     44  O   UNL A   1      45.846  18.901  23.568  1.00  0.00    -0.269 OA
BRANCH  42  45
ATOM     45  C   UNL A   1      45.038  20.769  24.729  1.00  0.00     0.039 A 
ATOM     46  C   UNL A   1      45.581  21.066  25.981  1.00  0.00     0.014 A 
ATOM     47  C   UNL A   1      44.550  21.788  23.907  1.00  0.00     0.014 A 
ATOM     48  C   UNL A   1      45.687  22.397  26.386  1.00  0.00     0.010 A 
ATOM     49  C   UNL A   1      44.721  23.116  24.282  1.00  0.00     0.010 A 
ATOM     50  C   UNL A   1      45.286  23.432  25.527  1.00  0.00    -0.014 A 
BRANCH  50  51
ATOM     51  C   UNL A   1      45.444  24.855  25.911  1.00  0.00     0.031 A 
ATOM     52  C   UNL A   1      46.795  25.507  25.832  1.00  0.00     0.074 A 
ATOM     53  C   UNL A   1      44.386  25.531  26.397  1.00  0.00     0.049 A 
ATOM     54  N   UNL A   1      47.160  26.706  26.207  1.00  0.00    -0.248 NA
ATOM     55  C   UNL A   1      47.890  24.690  25.286  1.00  0.00     0.031 C 
ATOM     56  C   UNL A   1      43.036  24.987  26.556  1.00  0.00     0.029 A 
ATOM     57  N   UNL A   1      44.283  26.818  26.862  1.00  0.00    -0.354 N 
ATOM     58  C   UNL A   1      48.523  26.781  25.956  1.00  0.00     0.074 A 
ATOM     59  C   UNL A   1      48.933  25.489  25.451  1.00  0.00     0.031 C 
ATOM     60  C   UNL A   1      42.237  25.938  27.065  1.00  0.00     0.029 A 
ATOM     61  C   UNL A   1      43.025  27.141  27.311  1.00  0.00     0.049 A 
ATOM     62  H   UNL A   1      45.038  27.449  26.873  1.00  0.00     0.167 HD
ATOM     63  C   UNL A   1      49.352  27.840  26.116  1.00  0.00     0.037 A 
ATOM     64  C   UNL A   1      42.567  28.276  27.872  1.00  0.00     0.037 A 
ATOM     65  C   UNL A   1      48.927  29.126  26.603  1.00  0.00     0.049 A 
ATOM     66  C   UNL A   1      43.513  29.431  28.056  1.00  0.00     0.074 A 
ATOM     67  C   UNL A   1      49.671  30.282  26.748  1.00  0.00     0.029 A 
ATOM     68  N   UNL A   1      47.641  29.421  27.034  1.00  0.00    -0.354 N 
ATOM     69  N   UNL A   1      44.786  29.516  27.751  1.00  0.00    -0.248 NA
ATOM     70  C   UNL A   1      42.959  30.652  28.657  1.00  0.00     0.031 C 
ATOM     71  C   UNL A   1      48.854  31.260  27.321  1.00  0.00     0.029 A 
ATOM     72  C   UNL A   1      47.580  30.735  27.471  1.00  0.00     0.049 A 
ATOM     73  H   UNL A   1      46.885  28.792  27.029  1.00  0.00     0.167 HD
ATOM     74  C   UNL A   1      45.176  30.804  28.091  1.00  0.00     0.074 A 
ATOM     75  C   UNL A   1      44.001  31.470  28.614  1.00  0.00     0.031 C 
ATOM     76  C   UNL A   1      46.396  31.384  27.977  1.00  0.00     0.037 A 
BRANCH  63  77
ATOM     77  C   UNL A   1      50.800  27.652  25.763  1.00  0.00     0.064 A 
ATOM     78  C   UNL A   1      51.282  27.886  24.466  1.00  0.00     0.173 A 
ATOM     79  C   UNL A   1      51.725  27.265  26.745  1.00  0.00     0.173 A 
ATOM     80  F   UNL A   1      50.439  28.246  23.487  1.00  0.00    -0.203 F 
ATOM     81  C   UNL A   1      52.628  27.707  24.157  1.00  0.00     0.198 A 
ATOM     82  C   UNL A   1      53.077  27.122  26.441  1.00  0.00     0.198 A 
ATOM     83  F   UNL A   1      51.322  27.034  28.003  1.00  0.00    -0.203 F 
ATOM     84  F   UNL A   1      53.054  27.883  22.899  1.00  0.00    -0.200 F 
ATOM     85  C   UNL A   1      53.525  27.335  25.146  1.00  0.00     0.200 A 
ATOM     86  F   UNL A   1      53.945  26.777  27.401  1.00  0.00    -0.200 F 
ATOM     87  F   UNL A   1      54.822  27.172  24.849  1.00  0.00    -0.200 F 
ENDBRANCH  63  77
BRANCH  64  88
ATOM     88  C   UNL A   1      41.142  28.378  28.285  1.00  0.00     0.064 A 
ATOM     89  C   UNL A   1      40.179  28.922  27.424  1.00  0.00     0.173 A 
ATOM     90  C   UNL A   1      40.713  27.938  29.546  1.00  0.00     0.173 A 
ATOM     91  F   UNL A   1      40.542  29.371  26.213  1.00  0.00    -0.203 F 
ATOM     92  C   UNL A   1      38.848  29.044  27.816  1.00  0.00     0.198 A 
ATOM     93  C   UNL A   1      39.375  28.032  29.925  1.00  0.00     0.198 A 
ATOM     94  F   UNL A   1      41.591  27.403  30.406  1.00  0.00    -0.203 F 
ATOM     95  F   UNL A   1      37.959  29.614  26.991  1.00  0.00    -0.200 F 
ATOM     96  C   UNL A   1      38.446  28.595  29.065  1.00  0.00     0.200 A 
ATOM     97  F   UNL A   1      38.988  27.578  31.125  1.00  0.00    -0.200 F 
ATOM     98  F   UNL A   1      37.165  28.708  29.440  1.00  0.00    -0.200 F 
ENDBRANCH  64  88
BRANCH  76  99
ATOM     99  C   UNL A   1      46.517  32.825  28.383  1.00  0.00     0.064 A 
ATOM    100  C   UNL A   1      46.913  33.199  29.675  1.00  0.00     0.173 A 
ATOM    101  C   UNL A   1      46.284  33.844  27.446  1.00  0.00     0.173 A 
ATOM    102  F   UNL A   1      47.133  32.265  30.612  1.00  0.00    -0.203 F 
ATOM    103  C   UNL A   1      47.050  34.542  30.020  1.00  0.00     0.198 A 
ATOM    104  C   UNL A   1      46.455  35.183  27.784  1.00  0.00     0.198 A 
ATOM    105  F   UNL A   1      45.910  33.539  26.194  1.00  0.00    -0.203 F 
ATOM    106  F   UNL A   1      47.384  34.878  31.274  1.00  0.00    -0.200 F 
ATOM    107  C   UNL A   1      46.831  35.531  29.073  1.00  0.00     0.200 A 
ATOM    108  F   UNL A   1      46.262  36.135  26.862  1.00  0.00    -0.200 F 
ATOM    109  F   UNL A   1      46.977  36.821  29.403  1.00  0.00    -0.200 F 
ENDBRANCH  76  99
ENDBRANCH  50  51
ENDBRANCH  42  45
ENDBRANCH  40  41
ENDBRANCH  39  40
ENDBRANCH  38  39
ENDBRANCH  37  38
ENDBRANCH  36  37
ENDBRANCH   1  36
TORSDOF 21
ENDMDL
MODEL 2
REMARK VINA RESULT:     -11.9      1.319      2.012
REMARK SMILES C=C[C@@H]1[C@@H](O)C[C@H]2[C@]3(CC[C@]4(C)[C@@H]([C@H](C)CCC=C(C)C)CC[C@]24C)C[C@]13CCC(=O)NCCCCCCNC(=O)c1ccc(-c2c3nc(c(-c4c(F)c(F)c(F)c(F)c4F)c4ccc([nH]4)c(-c4c(F)c(F)c(F)c(F)c4F)c4nc(c(-c5c(F)c(F)c(F)c(F)c5F)c5ccc2[nH]5)C=C4)C=C3)cc1
REMARK SMILES IDX 33 1 32 2 30 3 31 4 29 6 28 7 27 8 3 9 4 10 6 11 8 12 26 13
REMARK SMILES IDX 7 14 9 15 24 16 10 17 11 18 23 19 25 20 13 21 12 22 22 23
REMARK SMILES IDX 2 24 1 25 5 26 14 28 15 29 16 30 17 31 18 32 19 33 20 34
REMARK SMILES IDX 21 35 34 36 35 37 36 38 37 39 38 40 39 41 40 42 41 44 42 45
REMARK SMILES IDX 43 46 104 47 44 48 103 49 45 50 46 51 47 52 97 53 48 54
REMARK SMILES IDX 102 55 96 56 98 57 49 58 101 59 95 60 94 61 50 63 82 64
REMARK SMILES IDX 62 65 81 66 63 67 66 68 80 69 99 70 64 71 65 72 79 74 100 75
REMARK SMILES IDX 67 76 51 77 52 78 60 79 53 80 54 81 58 82 61 83 55 84 56 85
REMARK SMILES IDX 59 86 57 87 83 88 84 89 92 90 85 91 86 92 90 93 93 94 87 95
REMARK SMILES IDX 88 96 91 97 89 98 68 99 69 100 77 101 70 102 71 103 75 104
REMARK SMILES IDX 78 105 72 106 73 107 76 108 74 109
REMARK H PARENT 32 5 5 27 39 43 98 62 66 73
REMARK Flexibility Score: inf
ROOT
ATOM      1  C   UNL A   1      39.705  21.607  26.506  1.00  0.00     0.116 C 
ENDROOT
BRANCH   1   2
ATOM      2  N   UNL A   1      38.982  22.734  25.948  1.00  0.00    -0.356 N 
ATOM      3  C   UNL A   1      37.667  22.974  25.709  1.00  0.00     0.220 C 
ATOM      4  O   UNL A   1      37.391  24.111  25.307  1.00  0.00    -0.275 OA
ATOM      5  H   UNL A   1      39.566  23.482  25.688  1.00  0.00     0.163 HD
BRANCH   3   6
ATOM      6  C   UNL A   1      36.537  21.990  25.988  1.00  0.00     0.100 C 
BRANCH   6   7
ATOM      7  C   UNL A   1      35.190  22.511  26.490  1.00  0.00     0.018 C 
BRANCH   7   8
ATOM      8  C   UNL A   1      33.997  22.495  25.517  1.00  0.00    -0.014 C 
ATOM      9  C   UNL A   1      32.907  21.398  25.842  1.00  0.00     0.047 C 
ATOM     10  C   UNL A   1      31.453  21.720  25.397  1.00  0.00     0.122 C 
ATOM     11  C   UNL A   1      31.361  22.689  24.237  1.00  0.00     0.037 C 
ATOM     12  C   UNL A   1      33.503  23.868  24.939  1.00  0.00    -0.019 C 
ATOM     13  C   UNL A   1      34.300  22.941  24.101  1.00  0.00     0.016 C 
ATOM     14  C   UNL A   1      32.006  24.033  24.626  1.00  0.00     0.005 C 
ATOM     15  C   UNL A   1      34.221  25.173  25.211  1.00  0.00     0.008 C 
ATOM     16  C   UNL A   1      31.667  25.194  23.602  1.00  0.00    -0.023 C 
ATOM     17  C   UNL A   1      33.956  26.135  24.061  1.00  0.00     0.008 C 
ATOM     18  C   UNL A   1      32.480  26.514  23.919  1.00  0.00    -0.024 C 
ATOM     19  C   UNL A   1      30.213  25.660  23.861  1.00  0.00     0.008 C 
ATOM     20  C   UNL A   1      31.811  24.723  22.136  1.00  0.00     0.012 C 
ATOM     21  C   UNL A   1      31.795  26.997  25.239  1.00  0.00    -0.002 C 
ATOM     22  C   UNL A   1      32.357  27.562  22.790  1.00  0.00     0.012 C 
ATOM     23  C   UNL A   1      30.290  26.733  24.957  1.00  0.00     0.005 C 
BRANCH   9  24
ATOM     24  C   UNL A   1      33.258  19.947  25.519  1.00  0.00    -0.028 C 
ATOM     25  C   UNL A   1      34.056  19.459  24.556  1.00  0.00     0.004 C 
ENDBRANCH   9  24
BRANCH  10  26
ATOM     26  O   UNL A   1      30.696  22.249  26.495  1.00  0.00    -0.392 OA
ATOM     27  H   UNL A   1      30.347  23.122  26.256  1.00  0.00     0.210 HD
ENDBRANCH  10  26
BRANCH  21  28
ATOM     28  C   UNL A   1      32.056  28.365  25.937  1.00  0.00    -0.010 C 
ATOM     29  C   UNL A   1      31.621  28.512  27.395  1.00  0.00     0.008 C 
BRANCH  28  30
ATOM     30  C   UNL A   1      31.885  29.676  25.108  1.00  0.00     0.008 C 
BRANCH  30  31
ATOM     31  C   UNL A   1      30.556  30.343  24.688  1.00  0.00     0.027 C 
BRANCH  31  32
ATOM     32  C   UNL A   1      29.855  29.900  23.436  1.00  0.00    -0.028 C 
ATOM     33  C   UNL A   1      28.679  30.390  22.986  1.00  0.00    -0.080 C 
ATOM     34  C   UNL A   1      28.196  30.079  21.595  1.00  0.00     0.039 C 
ATOM     35  C   UNL A   1      27.787  31.310  23.776  1.00  0.00     0.039 C 
ENDBRANCH  31  32
ENDBRANCH  30  31
ENDBRANCH  28  30
ENDBRANCH  21  28
ENDBRANCH   7   8
ENDBRANCH   6   7
ENDBRANCH   3   6
ENDBRANCH   1   2
BRANCH   1  36
ATOM     36  C   UNL A   1      40.982  22.054  27.235  1.00  0.00     0.021 C 
BRANCH  36  37
ATOM     37  C   UNL A   1      42.187  21.142  27.073  1.00  0.00     0.002 C 
BRANCH  37  38
ATOM     38  C   UNL A   1      41.888  19.652  27.286  1.00  0.00     0.002 C 
BRANCH  38  39
ATOM     39  C   UNL A   1      42.448  18.674  26.242  1.00  0.00     0.021 C 
BRANCH  39  40
ATOM     40  C   UNL A   1      43.971  18.605  26.133  1.00  0.00     0.116 C 
BRANCH  40  41
ATOM     41  N   UNL A   1      44.423  18.603  24.750  1.00  0.00    -0.352 N 
ATOM     42  C   UNL A   1      44.691  19.647  23.910  1.00  0.00     0.251 C 
ATOM     43  H   UNL A   1      44.555  17.710  24.357  1.00  0.00     0.163 HD
ATOM     44  O   UNL A   1      44.839  19.449  22.701  1.00  0.00    -0.269 OA
BRANCH  42  45
ATOM     45  C   UNL A   1      44.800  21.015  24.444  1.00  0.00     0.039 A 
ATOM     46  C   UNL A   1      45.511  21.228  25.627  1.00  0.00     0.014 A 
ATOM     47  C   UNL A   1      44.178  22.080  23.787  1.00  0.00     0.014 A 
ATOM     48  C   UNL A   1      45.648  22.524  26.122  1.00  0.00     0.010 A 
ATOM     49  C   UNL A   1      44.375  23.378  24.243  1.00  0.00     0.010 A 
ATOM     50  C   UNL A   1      45.107  23.612  25.418  1.00  0.00    -0.014 A 
BRANCH  50  51
ATOM     51  C   UNL A   1      45.290  25.004  25.893  1.00  0.00     0.031 A 
ATOM     52  C   UNL A   1      46.651  25.639  25.846  1.00  0.00     0.074 A 
ATOM     53  C   UNL A   1      44.247  25.663  26.431  1.00  0.00     0.049 A 
ATOM     54  N   UNL A   1      47.037  26.805  26.295  1.00  0.00    -0.248 NA
ATOM     55  C   UNL A   1      47.729  24.842  25.238  1.00  0.00     0.031 C 
ATOM     56  C   UNL A   1      42.890  25.131  26.566  1.00  0.00     0.029 A 
ATOM     57  N   UNL A   1      44.167  26.918  26.980  1.00  0.00    -0.354 N 
ATOM     58  C   UNL A   1      48.400  26.875  26.039  1.00  0.00     0.074 A 
ATOM     59  C   UNL A   1      48.786  25.613  25.446  1.00  0.00     0.031 C 
ATOM     60  C   UNL A   1      42.109  26.058  27.142  1.00  0.00     0.029 A 
ATOM     61  C   UNL A   1      42.919  27.231  27.460  1.00  0.00     0.049 A 
ATOM     62  H   UNL A   1      44.933  27.536  27.026  1.00  0.00     0.167 HD
ATOM     63  C   UNL A   1      49.246  27.909  26.260  1.00  0.00     0.037 A 
ATOM     64  C   UNL A   1      42.483  28.333  28.097  1.00  0.00     0.037 A 
ATOM     65  C   UNL A   1      48.845  29.166  26.834  1.00  0.00     0.049 A 
ATOM     66  C   UNL A   1      43.449  29.459  28.349  1.00  0.00     0.074 A 
ATOM     67  C   UNL A   1      49.610  30.299  27.048  1.00  0.00     0.029 A 
ATOM     68  N   UNL A   1      47.568  29.452  27.294  1.00  0.00    -0.354 N 
ATOM     69  N   UNL A   1      44.720  29.544  28.040  1.00  0.00    -0.248 NA
ATOM     70  C   UNL A   1      42.918  30.647  29.033  1.00  0.00     0.031 C 
ATOM     71  C   UNL A   1      48.811  31.250  27.690  1.00  0.00     0.029 A 
ATOM     72  C   UNL A   1      47.531  30.736  27.817  1.00  0.00     0.049 A 
ATOM     73  H   UNL A   1      46.802  28.836  27.254  1.00  0.00     0.167 HD
ATOM     74  C   UNL A   1      45.133  30.801  28.460  1.00  0.00     0.074 A 
ATOM     75  C   UNL A   1      43.973  31.449  29.035  1.00  0.00     0.031 C 
ATOM     76  C   UNL A   1      46.361  31.368  28.374  1.00  0.00     0.037 A 
BRANCH  63  77
ATOM     77  C   UNL A   1      50.689  27.722  25.884  1.00  0.00     0.064 A 
ATOM     78  C   UNL A   1      51.143  27.923  24.571  1.00  0.00     0.173 A 
ATOM     79  C   UNL A   1      51.637  27.370  26.857  1.00  0.00     0.173 A 
ATOM     80  F   UNL A   1      50.277  28.249  23.599  1.00  0.00    -0.203 F 
ATOM     81  C   UNL A   1      52.484  27.746  24.240  1.00  0.00     0.198 A 
ATOM     82  C   UNL A   1      52.983  27.229  26.530  1.00  0.00     0.198 A 
ATOM     83  F   UNL A   1      51.261  27.172  28.129  1.00  0.00    -0.203 F 
ATOM     84  F   UNL A   1      52.884  27.890  22.969  1.00  0.00    -0.200 F 
ATOM     85  C   UNL A   1      53.404  27.408  25.221  1.00  0.00     0.200 A 
ATOM     86  F   UNL A   1      53.873  26.918  27.482  1.00  0.00    -0.200 F 
ATOM     87  F   UNL A   1      54.696  27.247  24.903  1.00  0.00    -0.200 F 
ENDBRANCH  63  77
BRANCH  64  88
ATOM     88  C   UNL A   1      41.063  28.429  28.528  1.00  0.00     0.064 A 
ATOM     89  C   UNL A   1      40.080  28.937  27.666  1.00  0.00     0.173 A 
ATOM     90  C   UNL A   1      40.657  28.021  29.807  1.00  0.00     0.173 A 
ATOM     91  F   UNL A   1      40.420  29.356  26.438  1.00  0.00    -0.203 F 
ATOM     92  C   UNL A   1      38.754  29.054  28.074  1.00  0.00     0.198 A 
ATOM     93  C   UNL A   1      39.324  28.109  30.204  1.00  0.00     0.198 A 
ATOM     94  F   UNL A   1      41.554  27.522  30.670  1.00  0.00    -0.203 F 
ATOM     95  F   UNL A   1      37.846  29.589  27.247  1.00  0.00    -0.200 F 
ATOM     96  C   UNL A   1      38.375  28.636  29.341  1.00  0.00     0.200 A 
ATOM     97  F   UNL A   1      38.960  27.685  31.421  1.00  0.00    -0.200 F 
ATOM     98  F   UNL A   1      37.098  28.744  29.731  1.00  0.00    -0.200 F 
ENDBRANCH  64  88
BRANCH  76  99
ATOM     99  C   UNL A   1      46.508  32.777  28.872  1.00  0.00     0.064 A 
ATOM    100  C   UNL A   1      46.891  33.060  30.191  1.00  0.00     0.173 A 
ATOM    101  C   UNL A   1      46.315  33.859  27.998  1.00  0.00     0.173 A 
ATOM    102  F   UNL A   1      47.073  32.063  31.071  1.00  0.00    -0.203 F 
ATOM    103  C   UNL A   1      47.052  34.374  30.623  1.00  0.00     0.198 A 
ATOM    104  C   UNL A   1      46.511  35.169  28.423  1.00  0.00     0.198 A 
ATOM    105  F   UNL A   1      45.956  33.642  26.724  1.00  0.00    -0.203 F 
ATOM    106  F   UNL A   1      47.372  34.623  31.901  1.00  0.00    -0.200 F 
ATOM    107  C   UNL A   1      46.872  35.426  29.737  1.00  0.00     0.200 A 
ATOM    108  F   UNL A   1      46.355  36.182  27.560  1.00  0.00    -0.200 F 
ATOM    109  F   UNL A   1      47.042  36.689  30.150  1.00  0.00    -0.200 F 
ENDBRANCH  76  99
ENDBRANCH  50  51
ENDBRANCH  42  45
ENDBRANCH  40  41
ENDBRANCH  39  40
ENDBRANCH  38  39
ENDBRANCH  37  38
ENDBRANCH  36  37
ENDBRANCH   1  36
TORSDOF 21
ENDMDL
MODEL 3
REMARK VINA RESULT:     -11.3      0.954      6.883
REMARK SMILES C=C[C@@H]1[C@@H](O)C[C@H]2[C@]3(CC[C@]4(C)[C@@H]([C@H](C)CCC=C(C)C)CC[C@]24C)C[C@]13CCC(=O)NCCCCCCNC(=O)c1ccc(-c2c3nc(c(-c4c(F)c(F)c(F)c(F)c4F)c4ccc([nH]4)c(-c4c(F)c(F)c(F)c(F)c4F)c4nc(c(-c5c(F)c(F)c(F)c(F)c5F)c5ccc2[nH]5)C=C4)C=C3)cc1
REMARK SMILES IDX 33 1 32 2 30 3 31 4 29 6 28 7 27 8 3 9 4 10 6 11 8 12 26 13
REMARK SMILES IDX 7 14 9 15 24 16 10 17 11 18 23 19 25 20 13 21 12 22 22 23
REMARK SMILES IDX 2 24 1 25 5 26 14 28 15 29 16 30 17 31 18 32 19 33 20 34
REMARK SMILES IDX 21 35 34 36 35 37 36 38 37 39 38 40 39 41 40 42 41 44 42 45
REMARK SMILES IDX 43 46 104 47 44 48 103 49 45 50 46 51 47 52 97 53 48 54
REMARK SMILES IDX 102 55 96 56 98 57 49 58 101 59 95 60 94 61 50 63 82 64
REMARK SMILES IDX 62 65 81 66 63 67 66 68 80 69 99 70 64 71 65 72 79 74 100 75
REMARK SMILES IDX 67 76 51 77 52 78 60 79 53 80 54 81 58 82 61 83 55 84 56 85
REMARK SMILES IDX 59 86 57 87 83 88 84 89 92 90 85 91 86 92 90 93 93 94 87 95
REMARK SMILES IDX 88 96 91 97 89 98 68 99 69 100 77 101 70 102 71 103 75 104
REMARK SMILES IDX 78 105 72 106 73 107 76 108 74 109
REMARK H PARENT 32 5 5 27 39 43 98 62 66 73
REMARK Flexibility Score: inf
ROOT
ATOM      1  C   UNL A   1      38.929  21.901  25.992  1.00  0.00     0.116 C 
ENDROOT
BRANCH   1   2
ATOM      2  N   UNL A   1      37.712  22.538  26.457  1.00  0.00    -0.356 N 
ATOM      3  C   UNL A   1      36.684  23.163  25.827  1.00  0.00     0.220 C 
ATOM      4  O   UNL A   1      35.739  23.507  26.548  1.00  0.00    -0.275 OA
ATOM      5  H   UNL A   1      37.608  22.513  27.436  1.00  0.00     0.163 HD
BRANCH   3   6
ATOM      6  C   UNL A   1      36.584  23.372  24.321  1.00  0.00     0.100 C 
BRANCH   6   7
ATOM      7  C   UNL A   1      35.667  22.471  23.492  1.00  0.00     0.018 C 
BRANCH   7   8
ATOM      8  C   UNL A   1      34.173  22.425  23.858  1.00  0.00    -0.014 C 
ATOM      9  C   UNL A   1      33.800  21.332  24.936  1.00  0.00     0.047 C 
ATOM     10  C   UNL A   1      32.562  21.635  25.824  1.00  0.00     0.122 C 
ATOM     11  C   UNL A   1      31.559  22.574  25.188  1.00  0.00     0.037 C 
ATOM     12  C   UNL A   1      33.382  23.782  23.889  1.00  0.00    -0.019 C 
ATOM     13  C   UNL A   1      33.216  22.838  22.758  1.00  0.00     0.016 C 
ATOM     14  C   UNL A   1      32.227  23.931  24.893  1.00  0.00     0.005 C 
ATOM     15  C   UNL A   1      34.002  25.096  23.466  1.00  0.00     0.008 C 
ATOM     16  C   UNL A   1      31.179  25.064  24.535  1.00  0.00    -0.023 C 
ATOM     17  C   UNL A   1      32.903  26.028  22.974  1.00  0.00     0.008 C 
ATOM     18  C   UNL A   1      31.892  26.396  24.063  1.00  0.00    -0.024 C 
ATOM     19  C   UNL A   1      30.499  25.529  25.847  1.00  0.00     0.008 C 
ATOM     20  C   UNL A   1      30.107  24.558  23.542  1.00  0.00     0.012 C 
ATOM     21  C   UNL A   1      32.521  26.908  25.400  1.00  0.00    -0.002 C 
ATOM     22  C   UNL A   1      30.893  27.415  23.470  1.00  0.00     0.012 C 
ATOM     23  C   UNL A   1      31.395  26.628  26.433  1.00  0.00     0.005 C 
BRANCH   9  24
ATOM     24  C   UNL A   1      33.787  19.874  24.476  1.00  0.00    -0.028 C 
ATOM     25  C   UNL A   1      32.839  19.203  23.803  1.00  0.00     0.004 C 
ENDBRANCH   9  24
BRANCH  10  26
ATOM     26  O   UNL A   1      32.969  22.187  27.084  1.00  0.00    -0.392 OA
ATOM     27  H   UNL A   1      33.550  22.948  26.931  1.00  0.00     0.210 HD
ENDBRANCH  10  26
BRANCH  21  28
ATOM     28  C   UNL A   1      33.204  28.294  25.597  1.00  0.00    -0.010 C 
ATOM     29  C   UNL A   1      33.910  28.914  24.391  1.00  0.00     0.008 C 
BRANCH  28  30
ATOM     30  C   UNL A   1      33.921  28.593  26.951  1.00  0.00     0.008 C 
BRANCH  30  31
ATOM     31  C   UNL A   1      34.778  29.832  27.295  1.00  0.00     0.027 C 
BRANCH  31  32
ATOM     32  C   UNL A   1      34.114  31.128  27.660  1.00  0.00    -0.028 C 
ATOM     33  C   UNL A   1      34.757  32.253  28.041  1.00  0.00    -0.080 C 
ATOM     34  C   UNL A   1      34.028  33.568  28.123  1.00  0.00     0.039 C 
ATOM     35  C   UNL A   1      36.227  32.323  28.357  1.00  0.00     0.039 C 
ENDBRANCH  31  32
ENDBRANCH  30  31
ENDBRANCH  28  30
ENDBRANCH  21  28
ENDBRANCH   7   8
ENDBRANCH   6   7
ENDBRANCH   3   6
ENDBRANCH   1   2
BRANCH   1  36
ATOM     36  C   UNL A   1      40.183  22.597  26.544  1.00  0.00     0.021 C 
BRANCH  36  37
ATOM     37  C   UNL A   1      40.736  22.027  27.840  1.00  0.00     0.002 C 
BRANCH  37  38
ATOM     38  C   UNL A   1      42.142  21.424  27.720  1.00  0.00     0.002 C 
BRANCH  38  39
ATOM     39  C   UNL A   1      42.237  19.970  27.235  1.00  0.00     0.021 C 
BRANCH  39  40
ATOM     40  C   UNL A   1      41.964  19.736  25.750  1.00  0.00     0.116 C 
BRANCH  40  41
ATOM     41  N   UNL A   1      43.108  19.150  25.068  1.00  0.00    -0.352 N 
ATOM     42  C   UNL A   1      44.256  19.736  24.614  1.00  0.00     0.251 C 
ATOM     43  H   UNL A   1      43.045  18.181  24.907  1.00  0.00     0.163 HD
ATOM     44  O   UNL A   1      45.008  19.121  23.853  1.00  0.00    -0.269 OA
BRANCH  42  45
ATOM     45  C   UNL A   1      44.599  21.107  25.027  1.00  0.00     0.039 A 
ATOM     46  C   UNL A   1      44.125  22.183  24.272  1.00  0.00     0.014 A 
ATOM     47  C   UNL A   1      45.406  21.326  26.146  1.00  0.00     0.014 A 
ATOM     48  C   UNL A   1      44.417  23.486  24.674  1.00  0.00     0.010 A 
ATOM     49  C   UNL A   1      45.636  22.625  26.585  1.00  0.00     0.010 A 
ATOM     50  C   UNL A   1      45.148  23.716  25.850  1.00  0.00    -0.014 A 
BRANCH  50  51
ATOM     51  C   UNL A   1      45.419  25.093  26.330  1.00  0.00     0.031 A 
ATOM     52  C   UNL A   1      44.304  25.918  26.905  1.00  0.00     0.074 A 
ATOM     53  C   UNL A   1      46.650  25.616  26.179  1.00  0.00     0.049 A 
ATOM     54  N   UNL A   1      44.313  27.168  27.294  1.00  0.00    -0.248 NA
ATOM     55  C   UNL A   1      42.994  25.259  27.034  1.00  0.00     0.031 C 
ATOM     56  C   UNL A   1      47.798  24.921  25.596  1.00  0.00     0.029 A 
ATOM     57  N   UNL A   1      47.137  26.861  26.487  1.00  0.00    -0.354 N 
ATOM     58  C   UNL A   1      43.015  27.447  27.696  1.00  0.00     0.074 A 
ATOM     59  C   UNL A   1      42.230  26.256  27.454  1.00  0.00     0.031 C 
ATOM     60  C   UNL A   1      48.860  25.741  25.605  1.00  0.00     0.029 A 
ATOM     61  C   UNL A   1      48.458  27.034  26.150  1.00  0.00     0.049 A 
ATOM     62  H   UNL A   1      46.592  27.564  26.910  1.00  0.00     0.167 HD
ATOM     63  C   UNL A   1      42.528  28.588  28.239  1.00  0.00     0.037 A 
ATOM     64  C   UNL A   1      49.247  28.119  26.256  1.00  0.00     0.037 A 
ATOM     65  C   UNL A   1      43.325  29.760  28.492  1.00  0.00     0.049 A 
ATOM     66  C   UNL A   1      48.676  29.381  26.844  1.00  0.00     0.074 A 
ATOM     67  C   UNL A   1      42.945  30.948  29.091  1.00  0.00     0.029 A 
ATOM     68  N   UNL A   1      44.663  29.893  28.152  1.00  0.00    -0.354 N 
ATOM     69  N   UNL A   1      47.464  29.614  27.287  1.00  0.00    -0.248 NA
ATOM     70  C   UNL A   1      49.585  30.531  26.954  1.00  0.00     0.031 C 
ATOM     71  C   UNL A   1      44.036  31.821  29.060  1.00  0.00     0.029 A 
ATOM     72  C   UNL A   1      45.116  31.155  28.503  1.00  0.00     0.049 A 
ATOM     73  H   UNL A   1      45.209  29.195  27.725  1.00  0.00     0.167 HD
ATOM     74  C   UNL A   1      47.473  30.920  27.756  1.00  0.00     0.074 A 
ATOM     75  C   UNL A   1      48.815  31.426  27.555  1.00  0.00     0.031 C 
ATOM     76  C   UNL A   1      46.461  31.636  28.306  1.00  0.00     0.037 A 
BRANCH  63  77
ATOM     77  C   UNL A   1      41.068  28.626  28.592  1.00  0.00     0.064 A 
ATOM     78  C   UNL A   1      40.602  28.238  29.857  1.00  0.00     0.173 A 
ATOM     79  C   UNL A   1      40.125  29.089  27.662  1.00  0.00     0.173 A 
ATOM     80  F   UNL A   1      41.460  27.775  30.780  1.00  0.00    -0.203 F 
ATOM     81  C   UNL A   1      39.246  28.280  30.167  1.00  0.00     0.198 A 
ATOM     82  C   UNL A   1      38.772  29.164  27.987  1.00  0.00     0.198 A 
ATOM     83  F   UNL A   1      40.513  29.480  26.439  1.00  0.00    -0.203 F 
ATOM     84  F   UNL A   1      38.819  27.852  31.363  1.00  0.00    -0.200 F 
ATOM     85  C   UNL A   1      38.333  28.751  29.236  1.00  0.00     0.200 A 
ATOM     86  F   UNL A   1      37.894  29.635  27.091  1.00  0.00    -0.200 F 
ATOM     87  F   UNL A   1      37.029  28.800  29.539  1.00  0.00    -0.200 F 
ENDBRANCH  63  77
BRANCH  64  88
ATOM     88  C   UNL A   1      50.664  28.054  25.809  1.00  0.00     0.064 A 
ATOM     89  C   UNL A   1      50.993  28.113  24.447  1.00  0.00     0.173 A 
ATOM     90  C   UNL A   1      51.716  27.928  26.727  1.00  0.00     0.173 A 
ATOM     91  F   UNL A   1      50.022  28.216  23.528  1.00  0.00    -0.203 F 
ATOM     92  C   UNL A   1      52.317  28.025  24.021  1.00  0.00     0.198 A 
ATOM     93  C   UNL A   1      53.042  27.873  26.302  1.00  0.00     0.198 A 
ATOM     94  F   UNL A   1      51.458  27.875  28.042  1.00  0.00    -0.203 F 
ATOM     95  F   UNL A   1      52.598  28.034  22.711  1.00  0.00    -0.200 F 
ATOM     96  C   UNL A   1      53.341  27.910  24.949  1.00  0.00     0.200 A 
ATOM     97  F   UNL A   1      54.029  27.782  27.203  1.00  0.00    -0.200 F 
ATOM     98  F   UNL A   1      54.614  27.831  24.539  1.00  0.00    -0.200 F 
ENDBRANCH  64  88
BRANCH  76  99
ATOM     99  C   UNL A   1      46.774  33.028  28.773  1.00  0.00     0.064 A 
ATOM    100  C   UNL A   1      47.251  33.286  30.067  1.00  0.00     0.173 A 
ATOM    101  C   UNL A   1      46.645  34.114  27.893  1.00  0.00     0.173 A 
ATOM    102  F   UNL A   1      47.378  32.285  30.952  1.00  0.00    -0.203 F 
ATOM    103  C   UNL A   1      47.566  34.582  30.468  1.00  0.00     0.198 A 
ATOM    104  C   UNL A   1      46.993  35.402  28.285  1.00  0.00     0.198 A 
ATOM    105  F   UNL A   1      46.200  33.920  26.642  1.00  0.00    -0.203 F 
ATOM    106  F   UNL A   1      47.975  34.811  31.723  1.00  0.00    -0.200 F 
ATOM    107  C   UNL A   1      47.447  35.636  29.575  1.00  0.00     0.200 A 
ATOM    108  F   UNL A   1      46.895  36.416  27.415  1.00  0.00    -0.200 F 
ATOM    109  F   UNL A   1      47.763  36.880  29.958  1.00  0.00    -0.200 F 
ENDBRANCH  76  99
ENDBRANCH  50  51
ENDBRANCH  42  45
ENDBRANCH  40  41
ENDBRANCH  39  40
ENDBRANCH  38  39
ENDBRANCH  37  38
ENDBRANCH  36  37
ENDBRANCH   1  36
TORSDOF 21
ENDMDL
