MODEL 1
REMARK VINA RESULT:     -10.4      0.000      0.000
REMARK SMILES C#CCN(CC(=O)NCCCCCCNC(=O)c1ccc(-c2c3nc(c(-c4c(F)c(F)c(F)c(F)c4F)c4ccc([nH]4)c(-c4c(F)c(F)c(F)c(F)c4F)c4nc(c(-c5c(F)c(F)c(F)c(F)c5F)c5ccc2[nH]5)C=C4)C=C3)cc1)C(=O)c1c[nH]c(=O)[nH]1
REMARK SMILES IDX 11 1 10 2 9 3 8 4 6 5 7 6 5 8 4 9 3 10 2 11 1 12 81 13 82 14
REMARK SMILES IDX 83 15 84 16 88 17 85 18 86 19 87 22 12 23 13 24 14 25 15 26
REMARK SMILES IDX 16 27 17 29 18 30 19 31 80 32 20 33 79 34 21 35 22 36 23 37
REMARK SMILES IDX 73 38 24 39 78 40 72 41 74 42 25 43 77 44 71 45 70 46 26 48
REMARK SMILES IDX 58 49 38 50 57 51 39 52 42 53 56 54 75 55 40 56 41 57 55 59
REMARK SMILES IDX 76 60 43 61 27 62 28 63 36 64 29 65 30 66 34 67 37 68 31 69
REMARK SMILES IDX 32 70 35 71 33 72 59 73 60 74 68 75 61 76 62 77 66 78 69 79
REMARK SMILES IDX 63 80 64 81 67 82 65 83 44 84 45 85 53 86 46 87 47 88 51 89
REMARK SMILES IDX 54 90 48 91 49 92 52 93 50 94
REMARK H PARENT 8 7 88 20 85 21 15 28 74 47 42 58
REMARK Flexibility Score: inf
ROOT
ATOM      1  C   UNL A   1      34.065  32.350  27.912  1.00  0.00     0.002 C 
ENDROOT
BRANCH   1   2
ATOM      2  C   UNL A   1      35.151  31.285  28.094  1.00  0.00     0.021 C 
BRANCH   2   3
ATOM      3  C   UNL A   1      34.881  29.983  27.341  1.00  0.00     0.116 C 
BRANCH   3   4
ATOM      4  N   UNL A   1      33.529  29.504  27.514  1.00  0.00    -0.355 N 
ATOM      5  C   UNL A   1      32.953  28.339  27.109  1.00  0.00     0.239 C 
ATOM      6  O   UNL A   1      31.868  28.048  27.621  1.00  0.00    -0.273 OA
ATOM      7  H   UNL A   1      32.932  30.115  28.002  1.00  0.00     0.163 HD
BRANCH   5   8
ATOM      8  C   UNL A   1      33.652  27.354  26.154  1.00  0.00     0.220 C 
BRANCH   8   9
ATOM      9  N   UNL A   1      33.170  27.333  24.769  1.00  0.00    -0.317 N 
BRANCH   9  10
ATOM     10  C   UNL A   1      32.585  26.088  24.268  1.00  0.00     0.210 C 
BRANCH  10  11
ATOM     11  C   UNL A   1      33.643  25.023  24.028  1.00  0.00    -0.085 C 
ATOM     12  C   UNL A   1      34.550  24.109  23.822  1.00  0.00     0.006 C 
ENDBRANCH  10  11
ENDBRANCH   9  10
BRANCH   9  13
ATOM     13  C   UNL A   1      33.127  28.450  23.941  1.00  0.00     0.273 C 
ATOM     14  O   UNL A   1      34.137  28.967  23.464  1.00  0.00    -0.267 OA
BRANCH  13  15
ATOM     15  C   UNL A   1      31.808  29.024  23.572  1.00  0.00     0.125 A 
ATOM     16  C   UNL A   1      30.903  29.642  24.345  1.00  0.00     0.119 A 
ATOM     17  N   UNL A   1      31.381  29.100  22.264  1.00  0.00    -0.302 N 
ATOM     18  N   UNL A   1      29.870  30.076  23.552  1.00  0.00    -0.312 N 
ATOM     19  C   UNL A   1      30.148  29.756  22.217  1.00  0.00     0.323 A 
ATOM     20  H   UNL A   1      31.868  28.746  21.485  1.00  0.00     0.172 HD
ATOM     21  H   UNL A   1      29.062  30.539  23.871  1.00  0.00     0.171 HD
ATOM     22  O   UNL A   1      29.471  30.007  21.238  1.00  0.00    -0.248 OA
ENDBRANCH  13  15
ENDBRANCH   9  13
ENDBRANCH   8   9
ENDBRANCH   5   8
ENDBRANCH   3   4
ENDBRANCH   2   3
ENDBRANCH   1   2
BRANCH   1  23
ATOM     23  C   UNL A   1      34.096  33.488  28.938  1.00  0.00     0.002 C 
BRANCH  23  24
ATOM     24  C   UNL A   1      33.007  34.549  28.758  1.00  0.00     0.021 C 
BRANCH  24  25
ATOM     25  C   UNL A   1      33.369  35.918  29.321  1.00  0.00     0.116 C 
BRANCH  25  26
ATOM     26  N   UNL A   1      32.534  36.271  30.458  1.00  0.00    -0.352 N 
ATOM     27  C   UNL A   1      32.610  35.846  31.761  1.00  0.00     0.251 C 
ATOM     28  H   UNL A   1      31.808  36.907  30.265  1.00  0.00     0.163 HD
ATOM     29  O   UNL A   1      31.686  36.066  32.537  1.00  0.00    -0.269 OA
BRANCH  27  30
ATOM     30  C   UNL A   1      33.803  35.108  32.225  1.00  0.00     0.039 A 
ATOM     31  C   UNL A   1      33.646  33.813  32.724  1.00  0.00     0.014 A 
ATOM     32  C   UNL A   1      35.071  35.696  32.178  1.00  0.00     0.014 A 
ATOM     33  C   UNL A   1      34.770  33.087  33.125  1.00  0.00     0.010 A 
ATOM     34  C   UNL A   1      36.195  34.943  32.502  1.00  0.00     0.010 A 
ATOM     35  C   UNL A   1      36.056  33.632  32.985  1.00  0.00    -0.014 A 
BRANCH  35  36
ATOM     36  C   UNL A   1      37.268  32.854  33.351  1.00  0.00     0.031 A 
ATOM     37  C   UNL A   1      37.998  33.155  34.631  1.00  0.00     0.074 A 
ATOM     38  C   UNL A   1      37.740  31.917  32.507  1.00  0.00     0.049 A 
ATOM     39  N   UNL A   1      39.114  32.644  35.088  1.00  0.00    -0.248 NA
ATOM     40  C   UNL A   1      37.411  34.186  35.504  1.00  0.00     0.031 C 
ATOM     41  C   UNL A   1      37.140  31.558  31.220  1.00  0.00     0.029 A 
ATOM     42  N   UNL A   1      38.839  31.099  32.599  1.00  0.00    -0.354 N 
ATOM     43  C   UNL A   1      39.361  33.293  36.292  1.00  0.00     0.074 A 
ATOM     44  C   UNL A   1      38.317  34.278  36.465  1.00  0.00     0.031 C 
ATOM     45  C   UNL A   1      37.867  30.581  30.653  1.00  0.00     0.029 A 
ATOM     46  C   UNL A   1      39.007  30.276  31.512  1.00  0.00     0.049 A 
ATOM     47  H   UNL A   1      39.450  31.103  33.371  1.00  0.00     0.167 HD
ATOM     48  C   UNL A   1      40.356  33.068  37.183  1.00  0.00     0.037 A 
ATOM     49  C   UNL A   1      39.980  29.387  31.233  1.00  0.00     0.037 A 
ATOM     50  C   UNL A   1      41.385  32.075  37.014  1.00  0.00     0.049 A 
ATOM     51  C   UNL A   1      41.094  29.185  32.228  1.00  0.00     0.074 A 
ATOM     52  C   UNL A   1      42.414  31.745  37.878  1.00  0.00     0.029 A 
ATOM     53  N   UNL A   1      41.515  31.255  35.903  1.00  0.00    -0.354 N 
ATOM     54  N   UNL A   1      41.283  29.761  33.389  1.00  0.00    -0.248 NA
ATOM     55  C   UNL A   1      42.127  28.202  31.874  1.00  0.00     0.031 C 
ATOM     56  C   UNL A   1      43.200  30.764  37.267  1.00  0.00     0.029 A 
ATOM     57  C   UNL A   1      42.623  30.434  36.052  1.00  0.00     0.049 A 
ATOM     58  H   UNL A   1      40.912  31.255  35.125  1.00  0.00     0.167 HD
ATOM     59  C   UNL A   1      42.429  29.184  33.921  1.00  0.00     0.074 A 
ATOM     60  C   UNL A   1      42.884  28.201  32.962  1.00  0.00     0.031 C 
ATOM     61  C   UNL A   1      43.050  29.444  35.098  1.00  0.00     0.037 A 
BRANCH  48  62
ATOM     62  C   UNL A   1      40.379  33.903  38.431  1.00  0.00     0.064 A 
ATOM     63  C   UNL A   1      41.115  35.095  38.506  1.00  0.00     0.173 A 
ATOM     64  C   UNL A   1      39.605  33.541  39.545  1.00  0.00     0.173 A 
ATOM     65  F   UNL A   1      41.880  35.481  37.473  1.00  0.00    -0.203 F 
ATOM     66  C   UNL A   1      41.094  35.882  39.654  1.00  0.00     0.198 A 
ATOM     67  C   UNL A   1      39.560  34.347  40.680  1.00  0.00     0.198 A 
ATOM     68  F   UNL A   1      38.878  32.414  39.527  1.00  0.00    -0.203 F 
ATOM     69  F   UNL A   1      41.839  36.993  39.716  1.00  0.00    -0.200 F 
ATOM     70  C   UNL A   1      40.309  35.513  40.735  1.00  0.00     0.200 A 
ATOM     71  F   UNL A   1      38.787  33.998  41.717  1.00  0.00    -0.200 F 
ATOM     72  F   UNL A   1      40.275  36.280  41.833  1.00  0.00    -0.200 F 
ENDBRANCH  48  62
BRANCH  49  73
ATOM     73  C   UNL A   1      39.953  28.613  29.961  1.00  0.00     0.064 A 
ATOM     74  C   UNL A   1      39.384  27.332  29.906  1.00  0.00     0.173 A 
ATOM     75  C   UNL A   1      40.534  29.116  28.788  1.00  0.00     0.173 A 
ATOM     76  F   UNL A   1      38.831  26.799  31.005  1.00  0.00    -0.203 F 
ATOM     77  C   UNL A   1      39.433  26.570  28.741  1.00  0.00     0.198 A 
ATOM     78  C   UNL A   1      40.550  28.368  27.612  1.00  0.00     0.198 A 
ATOM     79  F   UNL A   1      41.088  30.338  28.780  1.00  0.00    -0.203 F 
ATOM     80  F   UNL A   1      38.944  25.323  28.738  1.00  0.00    -0.200 F 
ATOM     81  C   UNL A   1      40.014  27.090  27.594  1.00  0.00     0.200 A 
ATOM     82  F   UNL A   1      41.096  28.881  26.501  1.00  0.00    -0.200 F 
ATOM     83  F   UNL A   1      40.067  26.355  26.475  1.00  0.00    -0.200 F 
ENDBRANCH  49  73
BRANCH  61  84
ATOM     84  C   UNL A   1      44.254  28.615  35.443  1.00  0.00     0.064 A 
ATOM     85  C   UNL A   1      44.149  27.410  36.152  1.00  0.00     0.173 A 
ATOM     86  C   UNL A   1      45.532  29.016  35.019  1.00  0.00     0.173 A 
ATOM     87  F   UNL A   1      42.953  26.989  36.592  1.00  0.00    -0.203 F 
ATOM     88  C   UNL A   1      45.279  26.653  36.450  1.00  0.00     0.198 A 
ATOM     89  C   UNL A   1      46.654  28.239  35.286  1.00  0.00     0.198 A 
ATOM     90  F   UNL A   1      45.689  30.156  34.330  1.00  0.00    -0.203 F 
ATOM     91  F   UNL A   1      45.160  25.533  37.177  1.00  0.00    -0.200 F 
ATOM     92  C   UNL A   1      46.528  27.063  36.009  1.00  0.00     0.200 A 
ATOM     93  F   UNL A   1      47.857  28.628  34.843  1.00  0.00    -0.200 F 
ATOM     94  F   UNL A   1      47.613  26.328  36.288  1.00  0.00    -0.200 F 
ENDBRANCH  61  84
ENDBRANCH  35  36
ENDBRANCH  27  30
ENDBRANCH  25  26
ENDBRANCH  24  25
ENDBRANCH  23  24
ENDBRANCH   1  23
TORSDOF 18
ENDMDL
MODEL 2
REMARK VINA RESULT:     -10.3      2.009      7.931
REMARK SMILES C#CCN(CC(=O)NCCCCCCNC(=O)c1ccc(-c2c3nc(c(-c4c(F)c(F)c(F)c(F)c4F)c4ccc([nH]4)c(-c4c(F)c(F)c(F)c(F)c4F)c4nc(c(-c5c(F)c(F)c(F)c(F)c5F)c5ccc2[nH]5)C=C4)C=C3)cc1)C(=O)c1c[nH]c(=O)[nH]1
REMARK SMILES IDX 11 1 10 2 9 3 8 4 6 5 7 6 5 8 4 9 3 10 2 11 1 12 81 13 82 14
REMARK SMILES IDX 83 15 84 16 88 17 85 18 86 19 87 22 12 23 13 24 14 25 15 26
REMARK SMILES IDX 16 27 17 29 18 30 19 31 80 32 20 33 79 34 21 35 22 36 23 37
REMARK SMILES IDX 73 38 24 39 78 40 72 41 74 42 25 43 77 44 71 45 70 46 26 48
REMARK SMILES IDX 58 49 38 50 57 51 39 52 42 53 56 54 75 55 40 56 41 57 55 59
REMARK SMILES IDX 76 60 43 61 27 62 28 63 36 64 29 65 30 66 34 67 37 68 31 69
REMARK SMILES IDX 32 70 35 71 33 72 59 73 60 74 68 75 61 76 62 77 66 78 69 79
REMARK SMILES IDX 63 80 64 81 67 82 65 83 44 84 45 85 53 86 46 87 47 88 51 89
REMARK SMILES IDX 54 90 48 91 49 92 52 93 50 94
REMARK H PARENT 8 7 88 20 85 21 15 28 74 47 42 58
REMARK Flexibility Score: inf
ROOT
ATOM      1  C   UNL A   1      32.516  30.003  26.838  1.00  0.00     0.002 C 
ENDROOT
BRANCH   1   2
ATOM      2  C   UNL A   1      33.615  29.390  25.963  1.00  0.00     0.021 C 
BRANCH   2   3
ATOM      3  C   UNL A   1      33.310  27.971  25.483  1.00  0.00     0.116 C 
BRANCH   3   4
ATOM      4  N   UNL A   1      33.462  27.816  24.055  1.00  0.00    -0.355 N 
ATOM      5  C   UNL A   1      33.684  26.697  23.313  1.00  0.00     0.239 C 
ATOM      6  O   UNL A   1      33.496  26.790  22.097  1.00  0.00    -0.273 OA
ATOM      7  H   UNL A   1      33.394  28.651  23.538  1.00  0.00     0.163 HD
BRANCH   5   8
ATOM      8  C   UNL A   1      34.031  25.336  23.944  1.00  0.00     0.220 C 
BRANCH   8   9
ATOM      9  N   UNL A   1      33.222  24.191  23.513  1.00  0.00    -0.317 N 
BRANCH   9  10
ATOM     10  C   UNL A   1      33.901  23.102  22.810  1.00  0.00     0.210 C 
BRANCH  10  11
ATOM     11  C   UNL A   1      35.381  23.043  23.151  1.00  0.00    -0.085 C 
ATOM     12  C   UNL A   1      36.651  22.993  23.444  1.00  0.00     0.006 C 
ENDBRANCH  10  11
ENDBRANCH   9  10
BRANCH   9  13
ATOM     13  C   UNL A   1      31.879  24.021  23.831  1.00  0.00     0.273 C 
ATOM     14  O   UNL A   1      30.968  24.293  23.049  1.00  0.00    -0.267 OA
BRANCH  13  15
ATOM     15  C   UNL A   1      31.517  23.444  25.151  1.00  0.00     0.125 A 
ATOM     16  C   UNL A   1      32.300  22.843  26.060  1.00  0.00     0.119 A 
ATOM     17  N   UNL A   1      30.256  23.577  25.689  1.00  0.00    -0.302 N 
ATOM     18  N   UNL A   1      31.541  22.545  27.164  1.00  0.00    -0.312 N 
ATOM     19  C   UNL A   1      30.235  23.009  26.966  1.00  0.00     0.323 A 
ATOM     20  H   UNL A   1      29.489  24.005  25.243  1.00  0.00     0.172 HD
ATOM     21  H   UNL A   1      31.864  22.078  27.969  1.00  0.00     0.171 HD
ATOM     22  O   UNL A   1      29.298  22.941  27.739  1.00  0.00    -0.248 OA
ENDBRANCH  13  15
ENDBRANCH   9  13
ENDBRANCH   8   9
ENDBRANCH   5   8
ENDBRANCH   3   4
ENDBRANCH   2   3
ENDBRANCH   1   2
BRANCH   1  23
ATOM     23  C   UNL A   1      31.469  30.826  26.079  1.00  0.00     0.002 C 
BRANCH  23  24
ATOM     24  C   UNL A   1      31.312  32.271  26.559  1.00  0.00     0.021 C 
BRANCH  24  25
ATOM     25  C   UNL A   1      32.539  32.830  27.269  1.00  0.00     0.116 C 
BRANCH  25  26
ATOM     26  N   UNL A   1      32.366  34.228  27.627  1.00  0.00    -0.352 N 
ATOM     27  C   UNL A   1      32.966  34.953  28.625  1.00  0.00     0.251 C 
ATOM     28  H   UNL A   1      31.723  34.727  27.072  1.00  0.00     0.163 HD
ATOM     29  O   UNL A   1      32.532  36.059  28.931  1.00  0.00    -0.269 OA
BRANCH  27  30
ATOM     30  C   UNL A   1      34.129  34.392  29.344  1.00  0.00     0.039 A 
ATOM     31  C   UNL A   1      33.915  33.678  30.525  1.00  0.00     0.014 A 
ATOM     32  C   UNL A   1      35.427  34.580  28.860  1.00  0.00     0.014 A 
ATOM     33  C   UNL A   1      35.000  33.105  31.192  1.00  0.00     0.010 A 
ATOM     34  C   UNL A   1      36.495  33.941  29.481  1.00  0.00     0.010 A 
ATOM     35  C   UNL A   1      36.294  33.202  30.657  1.00  0.00    -0.014 A 
BRANCH  35  36
ATOM     36  C   UNL A   1      37.453  32.549  31.319  1.00  0.00     0.031 A 
ATOM     37  C   UNL A   1      38.157  31.402  30.649  1.00  0.00     0.074 A 
ATOM     38  C   UNL A   1      37.836  32.954  32.546  1.00  0.00     0.049 A 
ATOM     39  N   UNL A   1      39.133  30.653  31.096  1.00  0.00    -0.248 NA
ATOM     40  C   UNL A   1      37.684  31.029  29.305  1.00  0.00     0.031 C 
ATOM     41  C   UNL A   1      37.211  34.033  33.315  1.00  0.00     0.029 A 
ATOM     42  N   UNL A   1      38.838  32.500  33.368  1.00  0.00    -0.354 N 
ATOM     43  C   UNL A   1      39.384  29.722  30.096  1.00  0.00     0.074 A 
ATOM     44  C   UNL A   1      38.420  29.958  29.045  1.00  0.00     0.031 C 
ATOM     45  C   UNL A   1      37.856  34.169  34.485  1.00  0.00     0.029 A 
ATOM     46  C   UNL A   1      38.907  33.160  34.571  1.00  0.00     0.049 A 
ATOM     47  H   UNL A   1      39.448  31.768  33.119  1.00  0.00     0.167 HD
ATOM     48  C   UNL A   1      40.351  28.774  30.048  1.00  0.00     0.037 A 
ATOM     49  C   UNL A   1      39.717  32.963  35.629  1.00  0.00     0.037 A 
ATOM     50  C   UNL A   1      41.319  28.553  31.089  1.00  0.00     0.049 A 
ATOM     51  C   UNL A   1      40.759  31.876  35.561  1.00  0.00     0.074 A 
ATOM     52  C   UNL A   1      42.361  27.643  31.118  1.00  0.00     0.029 A 
ATOM     53  N   UNL A   1      41.362  29.249  32.289  1.00  0.00    -0.354 N 
ATOM     54  N   UNL A   1      41.026  31.044  34.584  1.00  0.00    -0.248 NA
ATOM     55  C   UNL A   1      41.617  31.707  36.742  1.00  0.00     0.031 C 
ATOM     56  C   UNL A   1      43.001  27.749  32.357  1.00  0.00     0.029 A 
ATOM     57  C   UNL A   1      42.401  28.772  33.073  1.00  0.00     0.049 A 
ATOM     58  H   UNL A   1      40.747  29.974  32.545  1.00  0.00     0.167 HD
ATOM     59  C   UNL A   1      42.104  30.282  35.015  1.00  0.00     0.074 A 
ATOM     60  C   UNL A   1      42.452  30.762  36.335  1.00  0.00     0.031 C 
ATOM     61  C   UNL A   1      42.749  29.275  34.376  1.00  0.00     0.037 A 
BRANCH  48  62
ATOM     62  C   UNL A   1      40.419  27.906  28.825  1.00  0.00     0.064 A 
ATOM     63  C   UNL A   1      41.218  28.249  27.723  1.00  0.00     0.173 A 
ATOM     64  C   UNL A   1      39.728  26.685  28.777  1.00  0.00     0.173 A 
ATOM     65  F   UNL A   1      41.891  29.410  27.713  1.00  0.00    -0.203 F 
ATOM     66  C   UNL A   1      41.307  27.415  26.612  1.00  0.00     0.198 A 
ATOM     67  C   UNL A   1      39.845  25.837  27.678  1.00  0.00     0.198 A 
ATOM     68  F   UNL A   1      38.954  26.305  29.804  1.00  0.00    -0.203 F 
ATOM     69  F   UNL A   1      42.043  27.785  25.556  1.00  0.00    -0.200 F 
ATOM     70  C   UNL A   1      40.629  26.205  26.595  1.00  0.00     0.200 A 
ATOM     71  F   UNL A   1      39.202  24.661  27.670  1.00  0.00    -0.200 F 
ATOM     72  F   UNL A   1      40.729  25.395  25.533  1.00  0.00    -0.200 F 
ENDBRANCH  48  62
BRANCH  49  73
ATOM     73  C   UNL A   1      39.587  33.810  36.846  1.00  0.00     0.064 A 
ATOM     74  C   UNL A   1      38.806  33.396  37.935  1.00  0.00     0.173 A 
ATOM     75  C   UNL A   1      40.204  35.068  36.931  1.00  0.00     0.173 A 
ATOM     76  F   UNL A   1      38.181  32.210  37.898  1.00  0.00    -0.203 F 
ATOM     77  C   UNL A   1      38.612  34.222  39.040  1.00  0.00     0.198 A 
ATOM     78  C   UNL A   1      40.040  35.878  38.053  1.00  0.00     0.198 A 
ATOM     79  F   UNL A   1      40.968  35.512  35.922  1.00  0.00    -0.203 F 
ATOM     80  F   UNL A   1      37.803  33.830  40.034  1.00  0.00    -0.200 F 
ATOM     81  C   UNL A   1      39.232  35.462  39.099  1.00  0.00     0.200 A 
ATOM     82  F   UNL A   1      40.655  37.066  38.113  1.00  0.00    -0.200 F 
ATOM     83  F   UNL A   1      39.041  36.259  40.159  1.00  0.00    -0.200 F 
ENDBRANCH  49  73
BRANCH  61  84
ATOM     84  C   UNL A   1      43.933  28.662  35.069  1.00  0.00     0.064 A 
ATOM     85  C   UNL A   1      45.226  29.189  34.936  1.00  0.00     0.173 A 
ATOM     86  C   UNL A   1      43.761  27.552  35.912  1.00  0.00     0.173 A 
ATOM     87  F   UNL A   1      45.447  30.240  34.132  1.00  0.00    -0.203 F 
ATOM     88  C   UNL A   1      46.306  28.610  35.598  1.00  0.00     0.198 A 
ATOM     89  C   UNL A   1      44.836  26.999  36.600  1.00  0.00     0.198 A 
ATOM     90  F   UNL A   1      42.544  27.014  36.081  1.00  0.00    -0.203 F 
ATOM     91  F   UNL A   1      47.541  29.097  35.412  1.00  0.00    -0.200 F 
ATOM     92  C   UNL A   1      46.109  27.522  36.435  1.00  0.00     0.200 A 
ATOM     93  F   UNL A   1      44.639  25.960  37.423  1.00  0.00    -0.200 F 
ATOM     94  F   UNL A   1      47.149  26.973  37.078  1.00  0.00    -0.200 F 
ENDBRANCH  61  84
ENDBRANCH  35  36
ENDBRANCH  27  30
ENDBRANCH  25  26
ENDBRANCH  24  25
ENDBRANCH  23  24
ENDBRANCH   1  23
TORSDOF 18
ENDMDL
MODEL 3
REMARK VINA RESULT:     -10.3      1.600      7.613
REMARK SMILES C#CCN(CC(=O)NCCCCCCNC(=O)c1ccc(-c2c3nc(c(-c4c(F)c(F)c(F)c(F)c4F)c4ccc([nH]4)c(-c4c(F)c(F)c(F)c(F)c4F)c4nc(c(-c5c(F)c(F)c(F)c(F)c5F)c5ccc2[nH]5)C=C4)C=C3)cc1)C(=O)c1c[nH]c(=O)[nH]1
REMARK SMILES IDX 11 1 10 2 9 3 8 4 6 5 7 6 5 8 4 9 3 10 2 11 1 12 81 13 82 14
REMARK SMILES IDX 83 15 84 16 88 17 85 18 86 19 87 22 12 23 13 24 14 25 15 26
REMARK SMILES IDX 16 27 17 29 18 30 19 31 80 32 20 33 79 34 21 35 22 36 23 37
REMARK SMILES IDX 73 38 24 39 78 40 72 41 74 42 25 43 77 44 71 45 70 46 26 48
REMARK SMILES IDX 58 49 38 50 57 51 39 52 42 53 56 54 75 55 40 56 41 57 55 59
REMARK SMILES IDX 76 60 43 61 27 62 28 63 36 64 29 65 30 66 34 67 37 68 31 69
REMARK SMILES IDX 32 70 35 71 33 72 59 73 60 74 68 75 61 76 62 77 66 78 69 79
REMARK SMILES IDX 63 80 64 81 67 82 65 83 44 84 45 85 53 86 46 87 47 88 51 89
REMARK SMILES IDX 54 90 48 91 49 92 52 93 50 94
REMARK H PARENT 8 7 88 20 85 21 15 28 74 47 42 58
REMARK Flexibility Score: inf
ROOT
ATOM      1  C   UNL A   1      32.066  29.821  27.229  1.00  0.00     0.002 C 
ENDROOT
BRANCH   1   2
ATOM      2  C   UNL A   1      33.573  29.547  27.196  1.00  0.00     0.021 C 
BRANCH   2   3
ATOM      3  C   UNL A   1      33.989  28.467  26.199  1.00  0.00     0.116 C 
BRANCH   3   4
ATOM      4  N   UNL A   1      34.145  28.972  24.855  1.00  0.00    -0.355 N 
ATOM      5  C   UNL A   1      33.966  28.350  23.657  1.00  0.00     0.239 C 
ATOM      6  O   UNL A   1      33.891  29.073  22.660  1.00  0.00    -0.273 OA
ATOM      7  H   UNL A   1      34.424  29.914  24.796  1.00  0.00     0.163 HD
BRANCH   5   8
ATOM      8  C   UNL A   1      33.740  26.831  23.535  1.00  0.00     0.220 C 
BRANCH   8   9
ATOM      9  N   UNL A   1      32.346  26.382  23.458  1.00  0.00    -0.317 N 
BRANCH   9  10
ATOM     10  C   UNL A   1      31.771  25.735  24.637  1.00  0.00     0.210 C 
BRANCH  10  11
ATOM     11  C   UNL A   1      32.824  24.999  25.450  1.00  0.00    -0.085 C 
ATOM     12  C   UNL A   1      33.727  24.368  26.146  1.00  0.00     0.006 C 
ENDBRANCH  10  11
ENDBRANCH   9  10
BRANCH   9  13
ATOM     13  C   UNL A   1      31.504  26.635  22.379  1.00  0.00     0.273 C 
ATOM     14  O   UNL A   1      31.530  25.973  21.342  1.00  0.00    -0.267 OA
BRANCH  13  15
ATOM     15  C   UNL A   1      30.494  27.718  22.491  1.00  0.00     0.125 A 
ATOM     16  C   UNL A   1      29.335  27.733  23.166  1.00  0.00     0.119 A 
ATOM     17  N   UNL A   1      30.706  28.975  21.969  1.00  0.00    -0.302 N 
ATOM     18  N   UNL A   1      28.773  28.980  23.046  1.00  0.00    -0.312 N 
ATOM     19  C   UNL A   1      29.626  29.800  22.297  1.00  0.00     0.323 A 
ATOM     20  H   UNL A   1      31.494  29.249  21.447  1.00  0.00     0.172 HD
ATOM     21  H   UNL A   1      27.906  29.254  23.424  1.00  0.00     0.171 HD
ATOM     22  O   UNL A   1      29.466  30.972  22.010  1.00  0.00    -0.248 OA
ENDBRANCH  13  15
ENDBRANCH   9  13
ENDBRANCH   8   9
ENDBRANCH   5   8
ENDBRANCH   3   4
ENDBRANCH   2   3
ENDBRANCH   1   2
BRANCH   1  23
ATOM     23  C   UNL A   1      31.566  30.818  26.178  1.00  0.00     0.002 C 
BRANCH  23  24
ATOM     24  C   UNL A   1      31.385  32.251  26.682  1.00  0.00     0.021 C 
BRANCH  24  25
ATOM     25  C   UNL A   1      32.649  32.875  27.260  1.00  0.00     0.116 C 
BRANCH  25  26
ATOM     26  N   UNL A   1      32.443  34.264  27.635  1.00  0.00    -0.352 N 
ATOM     27  C   UNL A   1      33.019  34.988  28.649  1.00  0.00     0.251 C 
ATOM     28  H   UNL A   1      31.796  34.757  27.081  1.00  0.00     0.163 HD
ATOM     29  O   UNL A   1      32.559  36.080  28.966  1.00  0.00    -0.269 OA
BRANCH  27  30
ATOM     30  C   UNL A   1      34.186  34.441  29.370  1.00  0.00     0.039 A 
ATOM     31  C   UNL A   1      33.984  33.785  30.587  1.00  0.00     0.014 A 
ATOM     32  C   UNL A   1      35.478  34.586  28.855  1.00  0.00     0.014 A 
ATOM     33  C   UNL A   1      35.073  33.225  31.259  1.00  0.00     0.010 A 
ATOM     34  C   UNL A   1      36.548  33.958  29.484  1.00  0.00     0.010 A 
ATOM     35  C   UNL A   1      36.358  33.277  30.697  1.00  0.00    -0.014 A 
BRANCH  35  36
ATOM     36  C   UNL A   1      37.519  32.636  31.367  1.00  0.00     0.031 A 
ATOM     37  C   UNL A   1      38.241  31.498  30.699  1.00  0.00     0.074 A 
ATOM     38  C   UNL A   1      37.888  33.043  32.597  1.00  0.00     0.049 A 
ATOM     39  N   UNL A   1      39.223  30.760  31.153  1.00  0.00    -0.248 NA
ATOM     40  C   UNL A   1      37.784  31.123  29.351  1.00  0.00     0.031 C 
ATOM     41  C   UNL A   1      37.245  34.113  33.363  1.00  0.00     0.029 A 
ATOM     42  N   UNL A   1      38.889  32.598  33.426  1.00  0.00    -0.354 N 
ATOM     43  C   UNL A   1      39.492  29.834  30.152  1.00  0.00     0.074 A 
ATOM     44  C   UNL A   1      38.533  30.061  29.095  1.00  0.00     0.031 C 
ATOM     45  C   UNL A   1      37.879  34.254  34.539  1.00  0.00     0.029 A 
ATOM     46  C   UNL A   1      38.941  33.257  34.630  1.00  0.00     0.049 A 
ATOM     47  H   UNL A   1      39.510  31.875  33.180  1.00  0.00     0.167 HD
ATOM     48  C   UNL A   1      40.470  28.897  30.111  1.00  0.00     0.037 A 
ATOM     49  C   UNL A   1      39.745  33.068  35.694  1.00  0.00     0.037 A 
ATOM     50  C   UNL A   1      41.433  28.685  31.159  1.00  0.00     0.049 A 
ATOM     51  C   UNL A   1      40.800  31.993  35.632  1.00  0.00     0.074 A 
ATOM     52  C   UNL A   1      42.485  27.787  31.194  1.00  0.00     0.029 A 
ATOM     53  N   UNL A   1      41.459  29.380  32.360  1.00  0.00    -0.354 N 
ATOM     54  N   UNL A   1      41.084  31.166  34.656  1.00  0.00    -0.248 NA
ATOM     55  C   UNL A   1      41.651  31.831  36.819  1.00  0.00     0.031 C 
ATOM     56  C   UNL A   1      43.114  27.899  32.437  1.00  0.00     0.029 A 
ATOM     57  C   UNL A   1      42.497  28.913  33.151  1.00  0.00     0.049 A 
ATOM     58  H   UNL A   1      40.834  30.097  32.612  1.00  0.00     0.167 HD
ATOM     59  C   UNL A   1      42.168  30.416  35.093  1.00  0.00     0.074 A 
ATOM     60  C   UNL A   1      42.500  30.897  36.418  1.00  0.00     0.031 C 
ATOM     61  C   UNL A   1      42.829  29.418  34.458  1.00  0.00     0.037 A 
BRANCH  48  62
ATOM     62  C   UNL A   1      40.558  28.033  28.886  1.00  0.00     0.064 A 
ATOM     63  C   UNL A   1      39.839  26.832  28.780  1.00  0.00     0.173 A 
ATOM     64  C   UNL A   1      41.319  28.438  27.779  1.00  0.00     0.173 A 
ATOM     65  F   UNL A   1      39.104  26.393  29.813  1.00  0.00    -0.203 F 
ATOM     66  C   UNL A   1      39.895  26.061  27.622  1.00  0.00     0.198 A 
ATOM     67  C   UNL A   1      41.347  27.682  26.610  1.00  0.00     0.198 A 
ATOM     68  F   UNL A   1      42.023  29.580  27.824  1.00  0.00    -0.203 F 
ATOM     69  F   UNL A   1      39.233  24.898  27.562  1.00  0.00    -0.200 F 
ATOM     70  C   UNL A   1      40.640  26.491  26.535  1.00  0.00     0.200 A 
ATOM     71  F   UNL A   1      42.055  28.108  25.555  1.00  0.00    -0.200 F 
ATOM     72  F   UNL A   1      40.680  25.757  25.415  1.00  0.00    -0.200 F 
ENDBRANCH  48  62
BRANCH  49  73
ATOM     73  C   UNL A   1      39.597  33.911  36.912  1.00  0.00     0.064 A 
ATOM     74  C   UNL A   1      38.840  33.470  38.008  1.00  0.00     0.173 A 
ATOM     75  C   UNL A   1      40.169  35.189  36.991  1.00  0.00     0.173 A 
ATOM     76  F   UNL A   1      38.257  32.263  37.977  1.00  0.00    -0.203 F 
ATOM     77  C   UNL A   1      38.627  34.290  39.114  1.00  0.00     0.198 A 
ATOM     78  C   UNL A   1      39.986  35.994  38.113  1.00  0.00     0.198 A 
ATOM     79  F   UNL A   1      40.908  35.659  35.975  1.00  0.00    -0.203 F 
ATOM     80  F   UNL A   1      37.840  33.870  40.115  1.00  0.00    -0.200 F 
ATOM     81  C   UNL A   1      39.203  35.550  39.167  1.00  0.00     0.200 A 
ATOM     82  F   UNL A   1      40.559  37.204  38.168  1.00  0.00    -0.200 F 
ATOM     83  F   UNL A   1      38.993  36.341  40.228  1.00  0.00    -0.200 F 
ENDBRANCH  49  73
BRANCH  61  84
ATOM     84  C   UNL A   1      44.015  28.817  35.158  1.00  0.00     0.064 A 
ATOM     85  C   UNL A   1      43.892  27.709  36.010  1.00  0.00     0.173 A 
ATOM     86  C   UNL A   1      45.302  29.335  34.937  1.00  0.00     0.173 A 
ATOM     87  F   UNL A   1      42.684  27.184  36.265  1.00  0.00    -0.203 F 
ATOM     88  C   UNL A   1      45.009  27.162  36.638  1.00  0.00     0.198 A 
ATOM     89  C   UNL A   1      46.419  28.762  35.538  1.00  0.00     0.198 A 
ATOM     90  F   UNL A   1      45.477  30.388  34.125  1.00  0.00    -0.203 F 
ATOM     91  F   UNL A   1      44.860  26.139  37.491  1.00  0.00    -0.200 F 
ATOM     92  C   UNL A   1      46.271  27.683  36.394  1.00  0.00     0.200 A 
ATOM     93  F   UNL A   1      47.639  29.256  35.286  1.00  0.00    -0.200 F 
ATOM     94  F   UNL A   1      47.344  27.148  36.992  1.00  0.00    -0.200 F 
ENDBRANCH  61  84
ENDBRANCH  35  36
ENDBRANCH  27  30
ENDBRANCH  25  26
ENDBRANCH  24  25
ENDBRANCH  23  24
ENDBRANCH   1  23
TORSDOF 18
ENDMDL
