MODEL 1
REMARK VINA RESULT:     -11.8      0.000      0.000
REMARK SMILES O=C(CC1=c2ccccc2=NC1)NCCCCCCNC(=O)c1ccc(-c2c3nc(c(-c4c(F)c(F)c(F)c(F)c4F)c4ccc([nH]4)c(-c4c(F)c(F)c(F)c(F)c4F)c4nc(c(-c5c(F)c(F)c(F)c(F)c5F)c5ccc2[nH]5)C=C4)C=C3)cc1
REMARK SMILES IDX 17 1 16 2 15 3 14 4 13 5 1 6 2 7 3 9 4 10 5 11 12 12 6 13
REMARK SMILES IDX 10 14 11 15 7 16 9 17 8 18 18 19 19 20 20 21 21 22 22 24
REMARK SMILES IDX 23 25 24 26 85 27 25 28 84 29 26 30 27 31 28 32 78 33 29 34
REMARK SMILES IDX 83 35 77 36 79 37 30 38 82 39 76 40 75 41 31 43 63 44 43 45
REMARK SMILES IDX 62 46 44 47 47 48 61 49 80 50 45 51 46 52 60 54 81 55 48 56
REMARK SMILES IDX 32 57 33 58 41 59 34 60 35 61 39 62 42 63 36 64 37 65 40 66
REMARK SMILES IDX 38 67 64 68 65 69 73 70 66 71 67 72 71 73 74 74 68 75 69 76
REMARK SMILES IDX 72 77 70 78 49 79 50 80 58 81 51 82 52 83 56 84 59 85 53 86
REMARK SMILES IDX 54 87 57 88 55 89
REMARK H PARENT 13 8 20 23 79 42 47 53
REMARK Flexibility Score: inf
ROOT
ATOM      1  C   UNL A   1      31.682  30.782  25.943  1.00  0.00     0.002 C 
ENDROOT
BRANCH   1   2
ATOM      2  C   UNL A   1      31.831  29.442  26.668  1.00  0.00     0.002 C 
BRANCH   2   3
ATOM      3  C   UNL A   1      33.241  29.099  27.163  1.00  0.00     0.021 C 
BRANCH   3   4
ATOM      4  C   UNL A   1      33.976  28.042  26.345  1.00  0.00     0.116 C 
BRANCH   4   5
ATOM      5  N   UNL A   1      33.341  27.806  25.066  1.00  0.00    -0.356 N 
ATOM      6  O   UNL A   1      32.892  25.574  25.397  1.00  0.00    -0.275 OA
ATOM      7  C   UNL A   1      32.803  26.587  24.710  1.00  0.00     0.224 C 
ATOM      8  H   UNL A   1      33.292  28.548  24.422  1.00  0.00     0.163 HD
BRANCH   7   9
ATOM      9  C   UNL A   1      32.077  26.603  23.369  1.00  0.00     0.133 C 
BRANCH   9  10
ATOM     10  C   UNL A   1      30.628  26.981  23.445  1.00  0.00    -0.030 C 
ATOM     11  C   UNL A   1      29.981  28.072  23.038  1.00  0.00     0.001 A 
ATOM     12  C   UNL A   1      29.666  26.001  24.052  1.00  0.00     0.175 C 
ATOM     13  C   UNL A   1      30.340  29.313  22.426  1.00  0.00     0.010 A 
ATOM     14  C   UNL A   1      28.574  27.748  23.338  1.00  0.00     0.065 A 
ATOM     15  N   UNL A   1      28.325  26.607  23.903  1.00  0.00    -0.280 NA
ATOM     16  C   UNL A   1      29.368  30.177  22.089  1.00  0.00     0.001 A 
ATOM     17  C   UNL A   1      27.562  28.750  22.941  1.00  0.00     0.028 A 
ATOM     18  C   UNL A   1      27.970  29.883  22.342  1.00  0.00     0.002 A 
ENDBRANCH   9  10
ENDBRANCH   7   9
ENDBRANCH   4   5
ENDBRANCH   3   4
ENDBRANCH   2   3
ENDBRANCH   1   2
BRANCH   1  19
ATOM     19  C   UNL A   1      31.389  31.990  26.833  1.00  0.00     0.021 C 
BRANCH  19  20
ATOM     20  C   UNL A   1      32.606  32.802  27.262  1.00  0.00     0.116 C 
BRANCH  20  21
ATOM     21  N   UNL A   1      32.292  34.178  27.612  1.00  0.00    -0.352 N 
ATOM     22  C   UNL A   1      32.911  35.007  28.520  1.00  0.00     0.251 C 
ATOM     23  H   UNL A   1      31.527  34.572  27.133  1.00  0.00     0.163 HD
ATOM     24  O   UNL A   1      32.446  36.116  28.763  1.00  0.00    -0.269 OA
BRANCH  22  25
ATOM     25  C   UNL A   1      34.119  34.542  29.239  1.00  0.00     0.039 A 
ATOM     26  C   UNL A   1      35.390  34.684  28.677  1.00  0.00     0.014 A 
ATOM     27  C   UNL A   1      33.972  33.931  30.488  1.00  0.00     0.014 A 
ATOM     28  C   UNL A   1      36.482  34.067  29.278  1.00  0.00     0.010 A 
ATOM     29  C   UNL A   1      35.087  33.382  31.131  1.00  0.00     0.010 A 
ATOM     30  C   UNL A   1      36.343  33.399  30.506  1.00  0.00    -0.014 A 
BRANCH  30  31
ATOM     31  C   UNL A   1      37.524  32.723  31.102  1.00  0.00     0.031 A 
ATOM     32  C   UNL A   1      37.990  33.064  32.492  1.00  0.00     0.074 A 
ATOM     33  C   UNL A   1      38.135  31.740  30.413  1.00  0.00     0.049 A 
ATOM     34  N   UNL A   1      38.957  32.525  33.194  1.00  0.00    -0.248 NA
ATOM     35  C   UNL A   1      37.284  34.151  33.187  1.00  0.00     0.031 C 
ATOM     36  C   UNL A   1      37.774  31.316  29.059  1.00  0.00     0.029 A 
ATOM     37  N   UNL A   1      39.161  30.900  30.763  1.00  0.00    -0.354 N 
ATOM     38  C   UNL A   1      38.981  33.212  34.401  1.00  0.00     0.074 A 
ATOM     39  C   UNL A   1      37.955  34.230  34.328  1.00  0.00     0.031 C 
ATOM     40  C   UNL A   1      38.520  30.255  28.719  1.00  0.00     0.029 A 
ATOM     41  C   UNL A   1      39.448  29.957  29.806  1.00  0.00     0.049 A 
ATOM     42  H   UNL A   1      39.645  30.964  31.618  1.00  0.00     0.167 HD
ATOM     43  C   UNL A   1      39.777  33.002  35.477  1.00  0.00     0.037 A 
ATOM     44  C   UNL A   1      40.356  28.964  29.802  1.00  0.00     0.037 A 
ATOM     45  C   UNL A   1      40.780  31.973  35.560  1.00  0.00     0.049 A 
ATOM     46  C   UNL A   1      41.247  28.774  30.996  1.00  0.00     0.074 A 
ATOM     47  C   UNL A   1      41.615  31.668  36.622  1.00  0.00     0.029 A 
ATOM     48  N   UNL A   1      41.083  31.080  34.544  1.00  0.00    -0.354 N 
ATOM     49  N   UNL A   1      41.249  29.422  32.134  1.00  0.00    -0.248 NA
ATOM     50  C   UNL A   1      42.270  27.724  30.899  1.00  0.00     0.031 C 
ATOM     51  C   UNL A   1      42.449  30.614  36.234  1.00  0.00     0.029 A 
ATOM     52  C   UNL A   1      42.107  30.238  34.946  1.00  0.00     0.049 A 
ATOM     53  H   UNL A   1      40.637  31.050  33.667  1.00  0.00     0.167 HD
ATOM     54  C   UNL A   1      42.262  28.855  32.893  1.00  0.00     0.074 A 
ATOM     55  C   UNL A   1      42.843  27.796  32.094  1.00  0.00     0.031 C 
ATOM     56  C   UNL A   1      42.676  29.188  34.139  1.00  0.00     0.037 A 
BRANCH  43  57
ATOM     57  C   UNL A   1      39.601  33.902  36.665  1.00  0.00     0.064 A 
ATOM     58  C   UNL A   1      38.795  33.531  37.752  1.00  0.00     0.173 A 
ATOM     59  C   UNL A   1      40.303  35.113  36.751  1.00  0.00     0.173 A 
ATOM     60  F   UNL A   1      38.095  32.388  37.714  1.00  0.00    -0.203 F 
ATOM     61  C   UNL A   1      38.688  34.348  38.875  1.00  0.00     0.198 A 
ATOM     62  C   UNL A   1      40.213  35.915  37.886  1.00  0.00     0.198 A 
ATOM     63  F   UNL A   1      41.094  35.509  35.743  1.00  0.00    -0.203 F 
ATOM     64  F   UNL A   1      37.890  33.988  39.889  1.00  0.00    -0.200 F 
ATOM     65  C   UNL A   1      39.404  35.534  38.945  1.00  0.00     0.200 A 
ATOM     66  F   UNL A   1      40.915  37.055  37.957  1.00  0.00    -0.200 F 
ATOM     67  F   UNL A   1      39.311  36.310  40.034  1.00  0.00    -0.200 F 
ENDBRANCH  43  57
BRANCH  44  68
ATOM     68  C   UNL A   1      40.445  28.062  28.626  1.00  0.00     0.064 A 
ATOM     69  C   UNL A   1      41.222  28.409  27.512  1.00  0.00     0.173 A 
ATOM     70  C   UNL A   1      39.791  26.821  28.608  1.00  0.00     0.173 A 
ATOM     71  F   UNL A   1      41.849  29.594  27.477  1.00  0.00    -0.203 F 
ATOM     72  C   UNL A   1      41.342  27.548  26.424  1.00  0.00     0.198 A 
ATOM     73  C   UNL A   1      39.933  25.950  27.530  1.00  0.00     0.198 A 
ATOM     74  F   UNL A   1      39.038  26.444  29.651  1.00  0.00    -0.203 F 
ATOM     75  F   UNL A   1      42.072  27.912  25.362  1.00  0.00    -0.200 F 
ATOM     76  C   UNL A   1      40.706  26.315  26.438  1.00  0.00     0.200 A 
ATOM     77  F   UNL A   1      39.329  24.754  27.554  1.00  0.00    -0.200 F 
ATOM     78  F   UNL A   1      40.835  25.480  25.398  1.00  0.00    -0.200 F 
ENDBRANCH  44  68
BRANCH  56  79
ATOM     79  C   UNL A   1      43.808  28.402  34.727  1.00  0.00     0.064 A 
ATOM     80  C   UNL A   1      43.579  27.205  35.422  1.00  0.00     0.173 A 
ATOM     81  C   UNL A   1      45.136  28.807  34.531  1.00  0.00     0.173 A 
ATOM     82  F   UNL A   1      42.325  26.785  35.646  1.00  0.00    -0.203 F 
ATOM     83  C   UNL A   1      44.640  26.447  35.907  1.00  0.00     0.198 A 
ATOM     84  C   UNL A   1      46.196  28.035  34.997  1.00  0.00     0.198 A 
ATOM     85  F   UNL A   1      45.405  29.941  33.866  1.00  0.00    -0.203 F 
ATOM     86  F   UNL A   1      44.400  25.321  36.592  1.00  0.00    -0.200 F 
ATOM     87  C   UNL A   1      45.947  26.857  35.685  1.00  0.00     0.200 A 
ATOM     88  F   UNL A   1      47.458  28.426  34.772  1.00  0.00    -0.200 F 
ATOM     89  F   UNL A   1      46.968  26.118  36.140  1.00  0.00    -0.200 F 
ENDBRANCH  56  79
ENDBRANCH  30  31
ENDBRANCH  22  25
ENDBRANCH  20  21
ENDBRANCH  19  20
ENDBRANCH   1  19
TORSDOF 14
ENDMDL
MODEL 2
REMARK VINA RESULT:     -11.7      1.439      3.011
REMARK SMILES O=C(CC1=c2ccccc2=NC1)NCCCCCCNC(=O)c1ccc(-c2c3nc(c(-c4c(F)c(F)c(F)c(F)c4F)c4ccc([nH]4)c(-c4c(F)c(F)c(F)c(F)c4F)c4nc(c(-c5c(F)c(F)c(F)c(F)c5F)c5ccc2[nH]5)C=C4)C=C3)cc1
REMARK SMILES IDX 17 1 16 2 15 3 14 4 13 5 1 6 2 7 3 9 4 10 5 11 12 12 6 13
REMARK SMILES IDX 10 14 11 15 7 16 9 17 8 18 18 19 19 20 20 21 21 22 22 24
REMARK SMILES IDX 23 25 24 26 85 27 25 28 84 29 26 30 27 31 28 32 78 33 29 34
REMARK SMILES IDX 83 35 77 36 79 37 30 38 82 39 76 40 75 41 31 43 63 44 43 45
REMARK SMILES IDX 62 46 44 47 47 48 61 49 80 50 45 51 46 52 60 54 81 55 48 56
REMARK SMILES IDX 32 57 33 58 41 59 34 60 35 61 39 62 42 63 36 64 37 65 40 66
REMARK SMILES IDX 38 67 64 68 65 69 73 70 66 71 67 72 71 73 74 74 68 75 69 76
REMARK SMILES IDX 72 77 70 78 49 79 50 80 58 81 51 82 52 83 56 84 59 85 53 86
REMARK SMILES IDX 54 87 57 88 55 89
REMARK H PARENT 13 8 20 23 79 42 47 53
REMARK Flexibility Score: inf
ROOT
ATOM      1  C   UNL A   1      31.792  30.524  26.190  1.00  0.00     0.002 C 
ENDROOT
BRANCH   1   2
ATOM      2  C   UNL A   1      33.091  29.922  26.733  1.00  0.00     0.002 C 
BRANCH   2   3
ATOM      3  C   UNL A   1      32.998  28.481  27.252  1.00  0.00     0.021 C 
BRANCH   3   4
ATOM      4  C   UNL A   1      31.583  27.923  27.363  1.00  0.00     0.116 C 
BRANCH   4   5
ATOM      5  N   UNL A   1      31.471  26.602  26.784  1.00  0.00    -0.356 N 
ATOM      6  O   UNL A   1      31.176  27.287  24.609  1.00  0.00    -0.275 OA
ATOM      7  C   UNL A   1      31.321  26.387  25.431  1.00  0.00     0.224 C 
ATOM      8  H   UNL A   1      31.504  25.823  27.383  1.00  0.00     0.163 HD
BRANCH   7   9
ATOM      9  C   UNL A   1      31.350  24.915  25.034  1.00  0.00     0.133 C 
BRANCH   9  10
ATOM     10  C   UNL A   1      32.550  24.504  24.235  1.00  0.00    -0.030 C 
ATOM     11  C   UNL A   1      33.805  24.243  24.602  1.00  0.00     0.001 A 
ATOM     12  C   UNL A   1      32.389  24.309  22.755  1.00  0.00     0.175 C 
ATOM     13  C   UNL A   1      34.546  24.270  25.824  1.00  0.00     0.010 A 
ATOM     14  C   UNL A   1      34.431  23.814  23.338  1.00  0.00     0.065 A 
ATOM     15  N   UNL A   1      33.700  23.824  22.267  1.00  0.00    -0.280 NA
ATOM     16  C   UNL A   1      35.825  23.861  25.818  1.00  0.00     0.001 A 
ATOM     17  C   UNL A   1      35.844  23.382  23.411  1.00  0.00     0.028 A 
ATOM     18  C   UNL A   1      36.470  23.405  24.600  1.00  0.00     0.002 A 
ENDBRANCH   9  10
ENDBRANCH   7   9
ENDBRANCH   4   5
ENDBRANCH   3   4
ENDBRANCH   2   3
ENDBRANCH   1   2
BRANCH   1  19
ATOM     19  C   UNL A   1      31.489  31.957  26.631  1.00  0.00     0.021 C 
BRANCH  19  20
ATOM     20  C   UNL A   1      32.653  32.708  27.267  1.00  0.00     0.116 C 
BRANCH  20  21
ATOM     21  N   UNL A   1      32.324  34.074  27.645  1.00  0.00    -0.352 N 
ATOM     22  C   UNL A   1      32.935  34.891  28.568  1.00  0.00     0.251 C 
ATOM     23  H   UNL A   1      31.556  34.469  27.173  1.00  0.00     0.163 HD
ATOM     24  O   UNL A   1      32.459  35.991  28.833  1.00  0.00    -0.269 OA
BRANCH  22  25
ATOM     25  C   UNL A   1      34.149  34.425  29.278  1.00  0.00     0.039 A 
ATOM     26  C   UNL A   1      35.421  34.631  28.740  1.00  0.00     0.014 A 
ATOM     27  C   UNL A   1      34.006  33.747  30.492  1.00  0.00     0.014 A 
ATOM     28  C   UNL A   1      36.524  34.016  29.322  1.00  0.00     0.010 A 
ATOM     29  C   UNL A   1      35.129  33.198  31.121  1.00  0.00     0.010 A 
ATOM     30  C   UNL A   1      36.390  33.283  30.513  1.00  0.00    -0.014 A 
BRANCH  30  31
ATOM     31  C   UNL A   1      37.584  32.610  31.089  1.00  0.00     0.031 A 
ATOM     32  C   UNL A   1      38.064  32.943  32.476  1.00  0.00     0.074 A 
ATOM     33  C   UNL A   1      38.195  31.639  30.384  1.00  0.00     0.049 A 
ATOM     34  N   UNL A   1      39.043  32.406  33.162  1.00  0.00    -0.248 NA
ATOM     35  C   UNL A   1      37.358  34.018  33.190  1.00  0.00     0.031 C 
ATOM     36  C   UNL A   1      37.821  31.224  29.031  1.00  0.00     0.029 A 
ATOM     37  N   UNL A   1      39.232  30.803  30.714  1.00  0.00    -0.354 N 
ATOM     38  C   UNL A   1      39.077  33.082  34.375  1.00  0.00     0.074 A 
ATOM     39  C   UNL A   1      38.042  34.092  34.323  1.00  0.00     0.031 C 
ATOM     40  C   UNL A   1      38.570  30.172  28.672  1.00  0.00     0.029 A 
ATOM     41  C   UNL A   1      39.514  29.872  29.745  1.00  0.00     0.049 A 
ATOM     42  H   UNL A   1      39.725  30.864  31.564  1.00  0.00     0.167 HD
ATOM     43  C   UNL A   1      39.887  32.869  35.439  1.00  0.00     0.037 A 
ATOM     44  C   UNL A   1      40.430  28.886  29.721  1.00  0.00     0.037 A 
ATOM     45  C   UNL A   1      40.900  31.847  35.501  1.00  0.00     0.049 A 
ATOM     46  C   UNL A   1      41.337  28.693  30.902  1.00  0.00     0.074 A 
ATOM     47  C   UNL A   1      41.749  31.539  36.549  1.00  0.00     0.029 A 
ATOM     48  N   UNL A   1      41.197  30.966  34.473  1.00  0.00    -0.354 N 
ATOM     49  N   UNL A   1      41.347  29.330  32.047  1.00  0.00    -0.248 NA
ATOM     50  C   UNL A   1      42.367  27.651  30.784  1.00  0.00     0.031 C 
ATOM     51  C   UNL A   1      42.587  30.496  36.143  1.00  0.00     0.029 A 
ATOM     52  C   UNL A   1      42.233  30.128  34.855  1.00  0.00     0.049 A 
ATOM     53  H   UNL A   1      40.741  30.940  33.601  1.00  0.00     0.167 HD
ATOM     54  C   UNL A   1      42.373  28.764  32.789  1.00  0.00     0.074 A 
ATOM     55  C   UNL A   1      42.954  27.718  31.973  1.00  0.00     0.031 C 
ATOM     56  C   UNL A   1      42.800  29.090  34.033  1.00  0.00     0.037 A 
BRANCH  43  57
ATOM     57  C   UNL A   1      39.718  33.756  36.637  1.00  0.00     0.064 A 
ATOM     58  C   UNL A   1      40.329  35.017  36.708  1.00  0.00     0.173 A 
ATOM     59  C   UNL A   1      38.878  33.373  37.694  1.00  0.00     0.173 A 
ATOM     60  F   UNL A   1      41.150  35.425  35.728  1.00  0.00    -0.203 F 
ATOM     61  C   UNL A   1      40.115  35.856  37.799  1.00  0.00     0.198 A 
ATOM     62  C   UNL A   1      38.647  34.225  38.771  1.00  0.00     0.198 A 
ATOM     63  F   UNL A   1      38.263  32.181  37.671  1.00  0.00    -0.203 F 
ATOM     64  F   UNL A   1      40.731  37.044  37.859  1.00  0.00    -0.200 F 
ATOM     65  C   UNL A   1      39.268  35.463  38.824  1.00  0.00     0.200 A 
ATOM     66  F   UNL A   1      37.818  33.849  39.755  1.00  0.00    -0.200 F 
ATOM     67  F   UNL A   1      39.051  36.279  39.866  1.00  0.00    -0.200 F 
ENDBRANCH  43  57
BRANCH  44  68
ATOM     68  C   UNL A   1      40.512  27.995  28.536  1.00  0.00     0.064 A 
ATOM     69  C   UNL A   1      41.289  28.348  27.425  1.00  0.00     0.173 A 
ATOM     70  C   UNL A   1      39.850  26.759  28.506  1.00  0.00     0.173 A 
ATOM     71  F   UNL A   1      41.924  29.530  27.401  1.00  0.00    -0.203 F 
ATOM     72  C   UNL A   1      41.403  27.497  26.328  1.00  0.00     0.198 A 
ATOM     73  C   UNL A   1      39.985  25.897  27.420  1.00  0.00     0.198 A 
ATOM     74  F   UNL A   1      39.096  26.375  29.547  1.00  0.00    -0.203 F 
ATOM     75  F   UNL A   1      42.134  27.868  25.269  1.00  0.00    -0.200 F 
ATOM     76  C   UNL A   1      40.759  26.269  26.330  1.00  0.00     0.200 A 
ATOM     77  F   UNL A   1      39.375  24.705  27.433  1.00  0.00    -0.200 F 
ATOM     78  F   UNL A   1      40.883  25.443  25.282  1.00  0.00    -0.200 F 
ENDBRANCH  44  68
BRANCH  56  79
ATOM     79  C   UNL A   1      43.945  28.308  34.599  1.00  0.00     0.064 A 
ATOM     80  C   UNL A   1      45.266  28.766  34.487  1.00  0.00     0.173 A 
ATOM     81  C   UNL A   1      43.715  27.129  35.324  1.00  0.00     0.173 A 
ATOM     82  F   UNL A   1      45.537  29.880  33.792  1.00  0.00    -0.203 F 
ATOM     83  C   UNL A   1      46.317  28.066  35.073  1.00  0.00     0.198 A 
ATOM     84  C   UNL A   1      44.765  26.444  35.929  1.00  0.00     0.198 A 
ATOM     85  F   UNL A   1      42.467  26.656  35.464  1.00  0.00    -0.203 F 
ATOM     86  F   UNL A   1      47.574  28.506  34.932  1.00  0.00    -0.200 F 
ATOM     87  C   UNL A   1      46.064  26.912  35.801  1.00  0.00     0.200 A 
ATOM     88  F   UNL A   1      44.518  25.337  36.641  1.00  0.00    -0.200 F 
ATOM     89  F   UNL A   1      47.075  26.248  36.378  1.00  0.00    -0.200 F 
ENDBRANCH  56  79
ENDBRANCH  30  31
ENDBRANCH  22  25
ENDBRANCH  20  21
ENDBRANCH  19  20
ENDBRANCH   1  19
TORSDOF 14
ENDMDL
MODEL 3
REMARK VINA RESULT:     -11.7      1.828      8.002
REMARK SMILES O=C(CC1=c2ccccc2=NC1)NCCCCCCNC(=O)c1ccc(-c2c3nc(c(-c4c(F)c(F)c(F)c(F)c4F)c4ccc([nH]4)c(-c4c(F)c(F)c(F)c(F)c4F)c4nc(c(-c5c(F)c(F)c(F)c(F)c5F)c5ccc2[nH]5)C=C4)C=C3)cc1
REMARK SMILES IDX 17 1 16 2 15 3 14 4 13 5 1 6 2 7 3 9 4 10 5 11 12 12 6 13
REMARK SMILES IDX 10 14 11 15 7 16 9 17 8 18 18 19 19 20 20 21 21 22 22 24
REMARK SMILES IDX 23 25 24 26 85 27 25 28 84 29 26 30 27 31 28 32 78 33 29 34
REMARK SMILES IDX 83 35 77 36 79 37 30 38 82 39 76 40 75 41 31 43 63 44 43 45
REMARK SMILES IDX 62 46 44 47 47 48 61 49 80 50 45 51 46 52 60 54 81 55 48 56
REMARK SMILES IDX 32 57 33 58 41 59 34 60 35 61 39 62 42 63 36 64 37 65 40 66
REMARK SMILES IDX 38 67 64 68 65 69 73 70 66 71 67 72 71 73 74 74 68 75 69 76
REMARK SMILES IDX 72 77 70 78 49 79 50 80 58 81 51 82 52 83 56 84 59 85 53 86
REMARK SMILES IDX 54 87 57 88 55 89
REMARK H PARENT 13 8 20 23 79 42 47 53
REMARK Flexibility Score: inf
ROOT
ATOM      1  C   UNL A   1      34.592  33.444  29.382  1.00  0.00     0.002 C 
ENDROOT
BRANCH   1   2
ATOM      2  C   UNL A   1      35.608  32.974  28.337  1.00  0.00     0.002 C 
BRANCH   2   3
ATOM      3  C   UNL A   1      35.483  31.513  27.889  1.00  0.00     0.021 C 
BRANCH   3   4
ATOM      4  C   UNL A   1      34.054  31.013  27.700  1.00  0.00     0.116 C 
BRANCH   4   5
ATOM      5  N   UNL A   1      33.843  30.454  26.383  1.00  0.00    -0.356 N 
ATOM      6  O   UNL A   1      31.725  29.645  26.771  1.00  0.00    -0.275 OA
ATOM      7  C   UNL A   1      32.663  29.847  26.006  1.00  0.00     0.224 C 
ATOM      8  H   UNL A   1      34.574  30.508  25.727  1.00  0.00     0.163 HD
BRANCH   7   9
ATOM      9  C   UNL A   1      32.620  29.444  24.536  1.00  0.00     0.133 C 
BRANCH   9  10
ATOM     10  C   UNL A   1      31.303  28.895  24.074  1.00  0.00    -0.030 C 
ATOM     11  C   UNL A   1      30.143  29.496  23.812  1.00  0.00     0.001 A 
ATOM     12  C   UNL A   1      31.196  27.420  23.817  1.00  0.00     0.175 C 
ATOM     13  C   UNL A   1      29.636  30.831  23.882  1.00  0.00     0.010 A 
ATOM     14  C   UNL A   1      29.306  28.386  23.320  1.00  0.00     0.065 A 
ATOM     15  N   UNL A   1      29.830  27.200  23.293  1.00  0.00    -0.280 NA
ATOM     16  C   UNL A   1      28.387  31.075  23.455  1.00  0.00     0.001 A 
ATOM     17  C   UNL A   1      27.940  28.734  22.871  1.00  0.00     0.028 A 
ATOM     18  C   UNL A   1      27.541  30.015  22.937  1.00  0.00     0.002 A 
ENDBRANCH   9  10
ENDBRANCH   7   9
ENDBRANCH   4   5
ENDBRANCH   3   4
ENDBRANCH   2   3
ENDBRANCH   1   2
BRANCH   1  19
ATOM     19  C   UNL A   1      33.554  34.455  28.892  1.00  0.00     0.021 C 
BRANCH  19  20
ATOM     20  C   UNL A   1      33.657  35.850  29.498  1.00  0.00     0.116 C 
BRANCH  20  21
ATOM     21  N   UNL A   1      32.624  36.133  30.481  1.00  0.00    -0.352 N 
ATOM     22  C   UNL A   1      32.582  35.809  31.818  1.00  0.00     0.251 C 
ATOM     23  H   UNL A   1      31.842  36.627  30.142  1.00  0.00     0.163 HD
ATOM     24  O   UNL A   1      31.577  36.041  32.481  1.00  0.00    -0.269 OA
BRANCH  22  25
ATOM     25  C   UNL A   1      33.740  35.135  32.449  1.00  0.00     0.039 A 
ATOM     26  C   UNL A   1      34.992  35.752  32.499  1.00  0.00     0.014 A 
ATOM     27  C   UNL A   1      33.573  33.851  32.979  1.00  0.00     0.014 A 
ATOM     28  C   UNL A   1      36.102  35.025  32.916  1.00  0.00     0.010 A 
ATOM     29  C   UNL A   1      34.678  33.152  33.476  1.00  0.00     0.010 A 
ATOM     30  C   UNL A   1      35.961  33.713  33.400  1.00  0.00    -0.014 A 
BRANCH  30  31
ATOM     31  C   UNL A   1      37.173  32.956  33.806  1.00  0.00     0.031 A 
ATOM     32  C   UNL A   1      37.807  31.956  32.877  1.00  0.00     0.074 A 
ATOM     33  C   UNL A   1      37.750  33.226  34.993  1.00  0.00     0.049 A 
ATOM     34  N   UNL A   1      38.904  31.257  33.040  1.00  0.00    -0.248 NA
ATOM     35  C   UNL A   1      37.123  31.701  31.600  1.00  0.00     0.031 C 
ATOM     36  C   UNL A   1      37.232  34.177  35.979  1.00  0.00     0.029 A 
ATOM     37  N   UNL A   1      38.908  32.757  35.559  1.00  0.00    -0.354 N 
ATOM     38  C   UNL A   1      39.034  30.478  31.897  1.00  0.00     0.074 A 
ATOM     39  C   UNL A   1      37.888  30.762  31.061  1.00  0.00     0.031 C 
ATOM     40  C   UNL A   1      38.101  34.270  36.996  1.00  0.00     0.029 A 
ATOM     41  C   UNL A   1      39.208  33.347  36.762  1.00  0.00     0.049 A 
ATOM     42  H   UNL A   1      39.471  32.065  35.142  1.00  0.00     0.167 HD
ATOM     43  C   UNL A   1      40.026  29.616  31.571  1.00  0.00     0.037 A 
ATOM     44  C   UNL A   1      40.257  33.168  37.586  1.00  0.00     0.037 A 
ATOM     45  C   UNL A   1      41.180  29.352  32.391  1.00  0.00     0.049 A 
ATOM     46  C   UNL A   1      41.327  32.182  37.214  1.00  0.00     0.074 A 
ATOM     47  C   UNL A   1      42.251  28.516  32.128  1.00  0.00     0.029 A 
ATOM     48  N   UNL A   1      41.414  29.923  33.633  1.00  0.00    -0.354 N 
ATOM     49  N   UNL A   1      41.444  31.464  36.125  1.00  0.00    -0.248 NA
ATOM     50  C   UNL A   1      42.405  31.973  38.191  1.00  0.00     0.031 C 
ATOM     51  C   UNL A   1      43.115  28.551  33.227  1.00  0.00     0.029 A 
ATOM     52  C   UNL A   1      42.602  29.440  34.158  1.00  0.00     0.049 A 
ATOM     53  H   UNL A   1      40.824  30.575  34.076  1.00  0.00     0.167 HD
ATOM     54  C   UNL A   1      42.608  30.726  36.278  1.00  0.00     0.074 A 
ATOM     55  C   UNL A   1      43.175  31.097  37.558  1.00  0.00     0.031 C 
ATOM     56  C   UNL A   1      43.154  29.817  35.434  1.00  0.00     0.037 A 
BRANCH  43  57
ATOM     57  C   UNL A   1      39.919  28.887  30.264  1.00  0.00     0.064 A 
ATOM     58  C   UNL A   1      40.446  29.424  29.080  1.00  0.00     0.173 A 
ATOM     59  C   UNL A   1      39.350  27.606  30.208  1.00  0.00     0.173 A 
ATOM     60  F   UNL A   1      40.991  30.649  29.078  1.00  0.00    -0.203 F 
ATOM     61  C   UNL A   1      40.394  28.709  27.885  1.00  0.00     0.198 A 
ATOM     62  C   UNL A   1      39.322  26.885  29.017  1.00  0.00     0.198 A 
ATOM     63  F   UNL A   1      38.840  27.044  31.314  1.00  0.00    -0.203 F 
ATOM     64  F   UNL A   1      40.878  29.253  26.760  1.00  0.00    -0.200 F 
ATOM     65  C   UNL A   1      39.841  27.438  27.857  1.00  0.00     0.200 A 
ATOM     66  F   UNL A   1      38.798  25.651  28.994  1.00  0.00    -0.200 F 
ATOM     67  F   UNL A   1      39.806  26.746  26.709  1.00  0.00    -0.200 F 
ENDBRANCH  43  57
BRANCH  44  68
ATOM     68  C   UNL A   1      40.347  33.963  38.837  1.00  0.00     0.064 A 
ATOM     69  C   UNL A   1      39.739  33.514  40.017  1.00  0.00     0.173 A 
ATOM     70  C   UNL A   1      41.073  35.162  38.889  1.00  0.00     0.173 A 
ATOM     71  F   UNL A   1      39.018  32.383  40.011  1.00  0.00    -0.203 F 
ATOM     72  C   UNL A   1      39.855  34.235  41.204  1.00  0.00     0.198 A 
ATOM     73  C   UNL A   1      41.210  35.869  40.081  1.00  0.00     0.198 A 
ATOM     74  F   UNL A   1      41.674  35.631  37.785  1.00  0.00    -0.203 F 
ATOM     75  F   UNL A   1      39.246  33.797  42.313  1.00  0.00    -0.200 F 
ATOM     76  C   UNL A   1      40.598  35.406  41.237  1.00  0.00     0.200 A 
ATOM     77  F   UNL A   1      41.940  36.991  40.112  1.00  0.00    -0.200 F 
ATOM     78  F   UNL A   1      40.723  36.090  42.382  1.00  0.00    -0.200 F 
ENDBRANCH  44  68
BRANCH  56  79
ATOM     79  C   UNL A   1      44.432  29.159  35.856  1.00  0.00     0.064 A 
ATOM     80  C   UNL A   1      45.677  29.733  35.560  1.00  0.00     0.173 A 
ATOM     81  C   UNL A   1      44.411  27.987  36.625  1.00  0.00     0.173 A 
ATOM     82  F   UNL A   1      45.748  30.846  34.816  1.00  0.00    -0.203 F 
ATOM     83  C   UNL A   1      46.857  29.149  36.013  1.00  0.00     0.198 A 
ATOM     84  C   UNL A   1      45.591  27.419  37.096  1.00  0.00     0.198 A 
ATOM     85  F   UNL A   1      43.243  27.406  36.939  1.00  0.00    -0.203 F 
ATOM     86  F   UNL A   1      48.038  29.697  35.698  1.00  0.00    -0.200 F 
ATOM     87  C   UNL A   1      46.812  27.999  36.789  1.00  0.00     0.200 A 
ATOM     88  F   UNL A   1      45.545  26.316  37.855  1.00  0.00    -0.200 F 
ATOM     89  F   UNL A   1      47.948  27.448  37.237  1.00  0.00    -0.200 F 
ENDBRANCH  56  79
ENDBRANCH  30  31
ENDBRANCH  22  25
ENDBRANCH  20  21
ENDBRANCH  19  20
ENDBRANCH   1  19
TORSDOF 14
ENDMDL
