MODEL 1
REMARK VINA RESULT:     -12.4      0.000      0.000
REMARK SMILES CC(C)(C)[C@@H]1CC(C(=O)NCCCCCCNC(=O)c2ccc(-c3c4nc(c(-c5c(F)c(F)c(F)c(F)c5F)c5ccc([nH]5)c(-c5c(F)c(F)c(F)c(F)c5F)c5nc(c(-c6c(F)c(F)c(F)c(F)c6F)c6ccc3[nH]6)C=C5)C=C4)cc2)C[C@@H](C(C)(C)C)C1
REMARK SMILES IDX 14 1 13 2 12 3 11 4 10 5 8 6 9 7 7 9 5 10 6 11 89 12 84 13
REMARK SMILES IDX 83 14 2 15 1 16 3 17 4 18 85 19 86 20 87 21 88 22 15 23
REMARK SMILES IDX 16 24 17 25 18 26 19 28 20 29 21 30 82 31 22 32 81 33 23 34
REMARK SMILES IDX 24 35 25 36 75 37 26 38 80 39 74 40 76 41 27 42 79 43 73 44
REMARK SMILES IDX 72 45 28 47 60 48 40 49 59 50 41 51 44 52 58 53 77 54 42 55
REMARK SMILES IDX 43 56 57 58 78 59 45 60 29 61 30 62 38 63 31 64 32 65 36 66
REMARK SMILES IDX 39 67 33 68 34 69 37 70 35 71 61 72 62 73 70 74 63 75 64 76
REMARK SMILES IDX 68 77 71 78 65 79 66 80 69 81 67 82 46 83 47 84 55 85 48 86
REMARK SMILES IDX 49 87 53 88 56 89 50 90 51 91 54 92 52 93
REMARK H PARENT 10 8 17 27 76 46 44 57
REMARK Flexibility Score: inf
ROOT
ATOM      1  C   UNL A   1      31.631  30.753  26.265  1.00  0.00     0.002 C 
ENDROOT
BRANCH   1   2
ATOM      2  C   UNL A   1      32.523  29.948  27.214  1.00  0.00     0.002 C 
BRANCH   2   3
ATOM      3  C   UNL A   1      32.644  28.461  26.870  1.00  0.00     0.021 C 
BRANCH   3   4
ATOM      4  C   UNL A   1      31.306  27.798  26.556  1.00  0.00     0.116 C 
BRANCH   4   5
ATOM      5  N   UNL A   1      31.269  26.444  27.074  1.00  0.00    -0.356 N 
ATOM      6  C   UNL A   1      31.690  25.269  26.534  1.00  0.00     0.223 C 
ATOM      7  O   UNL A   1      31.444  24.231  27.152  1.00  0.00    -0.275 OA
ATOM      8  H   UNL A   1      30.869  26.361  27.971  1.00  0.00     0.163 HD
BRANCH   6   9
ATOM      9  C   UNL A   1      32.491  25.232  25.236  1.00  0.00     0.079 C 
ATOM     10  C   UNL A   1      34.577  24.146  24.102  1.00  0.00    -0.005 C 
ATOM     11  C   UNL A   1      33.862  24.564  25.405  1.00  0.00     0.017 C 
ATOM     12  C   UNL A   1      33.598  23.638  23.017  1.00  0.00     0.008 C 
ATOM     13  C   UNL A   1      32.340  24.508  22.783  1.00  0.00    -0.005 C 
ATOM     14  C   UNL A   1      31.616  24.666  24.121  1.00  0.00     0.017 C 
BRANCH  10  15
ATOM     15  C   UNL A   1      35.810  23.183  24.347  1.00  0.00    -0.035 C 
ATOM     16  C   UNL A   1      36.807  23.715  25.396  1.00  0.00     0.011 C 
ATOM     17  C   UNL A   1      36.572  22.980  23.019  1.00  0.00     0.011 C 
ATOM     18  C   UNL A   1      35.332  21.791  24.819  1.00  0.00     0.011 C 
ENDBRANCH  10  15
BRANCH  13  19
ATOM     19  C   UNL A   1      32.522  25.819  21.917  1.00  0.00    -0.035 C 
ATOM     20  C   UNL A   1      31.290  26.743  22.027  1.00  0.00     0.011 C 
ATOM     21  C   UNL A   1      33.761  26.665  22.247  1.00  0.00     0.011 C 
ATOM     22  C   UNL A   1      32.647  25.404  20.430  1.00  0.00     0.011 C 
ENDBRANCH  13  19
ENDBRANCH   6   9
ENDBRANCH   4   5
ENDBRANCH   3   4
ENDBRANCH   2   3
ENDBRANCH   1   2
BRANCH   1  23
ATOM     23  C   UNL A   1      31.447  32.222  26.650  1.00  0.00     0.021 C 
BRANCH  23  24
ATOM     24  C   UNL A   1      32.685  32.865  27.262  1.00  0.00     0.116 C 
BRANCH  24  25
ATOM     25  N   UNL A   1      32.450  34.251  27.629  1.00  0.00    -0.352 N 
ATOM     26  C   UNL A   1      33.007  34.980  28.647  1.00  0.00     0.251 C 
ATOM     27  H   UNL A   1      31.800  34.734  27.069  1.00  0.00     0.163 HD
ATOM     28  O   UNL A   1      32.541  36.075  28.956  1.00  0.00    -0.269 OA
BRANCH  26  29
ATOM     29  C   UNL A   1      34.163  34.435  29.383  1.00  0.00     0.039 A 
ATOM     30  C   UNL A   1      33.946  33.798  30.606  1.00  0.00     0.014 A 
ATOM     31  C   UNL A   1      35.456  34.551  28.864  1.00  0.00     0.014 A 
ATOM     32  C   UNL A   1      35.024  33.228  31.284  1.00  0.00     0.010 A 
ATOM     33  C   UNL A   1      36.514  33.913  29.500  1.00  0.00     0.010 A 
ATOM     34  C   UNL A   1      36.310  33.253  30.721  1.00  0.00    -0.014 A 
BRANCH  34  35
ATOM     35  C   UNL A   1      37.458  32.601  31.400  1.00  0.00     0.031 A 
ATOM     36  C   UNL A   1      38.169  31.452  30.742  1.00  0.00     0.074 A 
ATOM     37  C   UNL A   1      37.822  33.009  32.630  1.00  0.00     0.049 A 
ATOM     38  N   UNL A   1      39.158  30.722  31.191  1.00  0.00    -0.248 NA
ATOM     39  C   UNL A   1      37.686  31.052  29.411  1.00  0.00     0.031 C 
ATOM     40  C   UNL A   1      37.183  34.086  33.387  1.00  0.00     0.029 A 
ATOM     41  N   UNL A   1      38.816  32.561  33.463  1.00  0.00    -0.354 N 
ATOM     42  C   UNL A   1      39.407  29.775  30.207  1.00  0.00     0.074 A 
ATOM     43  C   UNL A   1      38.424  29.980  29.166  1.00  0.00     0.031 C 
ATOM     44  C   UNL A   1      37.822  34.239  34.557  1.00  0.00     0.029 A 
ATOM     45  C   UNL A   1      38.886  33.245  34.652  1.00  0.00     0.049 A 
ATOM     46  H   UNL A   1      39.422  31.820  33.230  1.00  0.00     0.167 HD
ATOM     47  C   UNL A   1      40.384  28.838  30.162  1.00  0.00     0.037 A 
ATOM     48  C   UNL A   1      39.714  33.081  35.702  1.00  0.00     0.037 A 
ATOM     49  C   UNL A   1      41.367  28.647  31.197  1.00  0.00     0.049 A 
ATOM     50  C   UNL A   1      40.766  32.006  35.644  1.00  0.00     0.074 A 
ATOM     51  C   UNL A   1      42.428  27.761  31.228  1.00  0.00     0.029 A 
ATOM     52  N   UNL A   1      41.399  29.352  32.392  1.00  0.00    -0.354 N 
ATOM     53  N   UNL A   1      41.039  31.165  34.677  1.00  0.00    -0.248 NA
ATOM     54  C   UNL A   1      41.627  31.864  36.826  1.00  0.00     0.031 C 
ATOM     55  C   UNL A   1      43.068  27.888  32.465  1.00  0.00     0.029 A 
ATOM     56  C   UNL A   1      42.445  28.899  33.181  1.00  0.00     0.049 A 
ATOM     57  H   UNL A   1      40.774  30.069  32.643  1.00  0.00     0.167 HD
ATOM     58  C   UNL A   1      42.124  30.418  35.117  1.00  0.00     0.074 A 
ATOM     59  C   UNL A   1      42.466  30.916  36.433  1.00  0.00     0.031 C 
ATOM     60  C   UNL A   1      42.780  29.411  34.486  1.00  0.00     0.037 A 
BRANCH  47  61
ATOM     61  C   UNL A   1      40.428  27.942  28.955  1.00  0.00     0.064 A 
ATOM     62  C   UNL A   1      41.193  28.264  27.823  1.00  0.00     0.173 A 
ATOM     63  C   UNL A   1      39.707  26.738  28.935  1.00  0.00     0.173 A 
ATOM     64  F   UNL A   1      41.894  29.408  27.784  1.00  0.00    -0.203 F 
ATOM     65  C   UNL A   1      41.199  27.438  26.701  1.00  0.00     0.198 A 
ATOM     66  C   UNL A   1      39.746  25.896  27.827  1.00  0.00     0.198 A 
ATOM     67  F   UNL A   1      38.965  26.375  29.992  1.00  0.00    -0.203 F 
ATOM     68  F   UNL A   1      41.884  27.802  25.608  1.00  0.00    -0.200 F 
ATOM     69  C   UNL A   1      40.481  26.252  26.706  1.00  0.00     0.200 A 
ATOM     70  F   UNL A   1      39.063  24.742  27.839  1.00  0.00    -0.200 F 
ATOM     71  F   UNL A   1      40.490  25.457  25.627  1.00  0.00    -0.200 F 
ENDBRANCH  47  61
BRANCH  48  72
ATOM     72  C   UNL A   1      39.604  33.978  36.883  1.00  0.00     0.064 A 
ATOM     73  C   UNL A   1      38.833  33.609  37.994  1.00  0.00     0.173 A 
ATOM     74  C   UNL A   1      40.256  35.219  36.927  1.00  0.00     0.173 A 
ATOM     75  F   UNL A   1      38.174  32.440  37.992  1.00  0.00    -0.203 F 
ATOM     76  C   UNL A   1      38.698  34.455  39.092  1.00  0.00     0.198 A 
ATOM     77  C   UNL A   1      40.146  36.051  38.039  1.00  0.00     0.198 A 
ATOM     78  F   UNL A   1      41.010  35.619  35.893  1.00  0.00    -0.203 F 
ATOM     79  F   UNL A   1      37.914  34.097  40.118  1.00  0.00    -0.200 F 
ATOM     80  C   UNL A   1      39.359  35.673  39.117  1.00  0.00     0.200 A 
ATOM     81  F   UNL A   1      40.800  37.220  38.065  1.00  0.00    -0.200 F 
ATOM     82  F   UNL A   1      39.233  36.485  40.174  1.00  0.00    -0.200 F 
ENDBRANCH  48  72
BRANCH  60  83
ATOM     83  C   UNL A   1      43.962  28.811  35.192  1.00  0.00     0.064 A 
ATOM     84  C   UNL A   1      43.821  27.759  36.111  1.00  0.00     0.173 A 
ATOM     85  C   UNL A   1      45.259  29.272  34.919  1.00  0.00     0.173 A 
ATOM     86  F   UNL A   1      42.602  27.291  36.419  1.00  0.00    -0.203 F 
ATOM     87  C   UNL A   1      44.931  27.214  36.750  1.00  0.00     0.198 A 
ATOM     88  C   UNL A   1      46.369  28.701  35.533  1.00  0.00     0.198 A 
ATOM     89  F   UNL A   1      45.451  30.272  34.044  1.00  0.00    -0.203 F 
ATOM     90  F   UNL A   1      44.768  26.248  37.664  1.00  0.00    -0.200 F 
ATOM     91  C   UNL A   1      46.204  27.679  36.454  1.00  0.00     0.200 A 
ATOM     92  F   UNL A   1      47.599  29.140  35.233  1.00  0.00    -0.200 F 
ATOM     93  F   UNL A   1      47.272  27.146  37.064  1.00  0.00    -0.200 F 
ENDBRANCH  60  83
ENDBRANCH  34  35
ENDBRANCH  26  29
ENDBRANCH  24  25
ENDBRANCH  23  24
ENDBRANCH   1  23
TORSDOF 15
ENDMDL
MODEL 2
REMARK VINA RESULT:     -12.2      0.198      2.066
REMARK SMILES CC(C)(C)[C@@H]1CC(C(=O)NCCCCCCNC(=O)c2ccc(-c3c4nc(c(-c5c(F)c(F)c(F)c(F)c5F)c5ccc([nH]5)c(-c5c(F)c(F)c(F)c(F)c5F)c5nc(c(-c6c(F)c(F)c(F)c(F)c6F)c6ccc3[nH]6)C=C5)C=C4)cc2)C[C@@H](C(C)(C)C)C1
REMARK SMILES IDX 14 1 13 2 12 3 11 4 10 5 8 6 9 7 7 9 5 10 6 11 89 12 84 13
REMARK SMILES IDX 83 14 2 15 1 16 3 17 4 18 85 19 86 20 87 21 88 22 15 23
REMARK SMILES IDX 16 24 17 25 18 26 19 28 20 29 21 30 82 31 22 32 81 33 23 34
REMARK SMILES IDX 24 35 25 36 75 37 26 38 80 39 74 40 76 41 27 42 79 43 73 44
REMARK SMILES IDX 72 45 28 47 60 48 40 49 59 50 41 51 44 52 58 53 77 54 42 55
REMARK SMILES IDX 43 56 57 58 78 59 45 60 29 61 30 62 38 63 31 64 32 65 36 66
REMARK SMILES IDX 39 67 33 68 34 69 37 70 35 71 61 72 62 73 70 74 63 75 64 76
REMARK SMILES IDX 68 77 71 78 65 79 66 80 69 81 67 82 46 83 47 84 55 85 48 86
REMARK SMILES IDX 49 87 53 88 56 89 50 90 51 91 54 92 52 93
REMARK H PARENT 10 8 17 27 76 46 44 57
REMARK Flexibility Score: inf
ROOT
ATOM      1  C   UNL A   1      31.599  30.679  26.071  1.00  0.00     0.002 C 
ENDROOT
BRANCH   1   2
ATOM      2  C   UNL A   1      32.520  29.846  26.967  1.00  0.00     0.002 C 
BRANCH   2   3
ATOM      3  C   UNL A   1      32.568  28.356  26.623  1.00  0.00     0.021 C 
BRANCH   3   4
ATOM      4  C   UNL A   1      31.189  27.720  26.474  1.00  0.00     0.116 C 
BRANCH   4   5
ATOM      5  N   UNL A   1      31.181  26.375  27.019  1.00  0.00    -0.356 N 
ATOM      6  C   UNL A   1      31.624  25.200  26.499  1.00  0.00     0.223 C 
ATOM      7  O   UNL A   1      31.401  24.169  27.137  1.00  0.00    -0.275 OA
ATOM      8  H   UNL A   1      30.785  26.301  27.918  1.00  0.00     0.163 HD
BRANCH   6   9
ATOM      9  C   UNL A   1      32.422  25.154  25.199  1.00  0.00     0.079 C 
ATOM     10  C   UNL A   1      34.485  24.033  24.057  1.00  0.00    -0.005 C 
ATOM     11  C   UNL A   1      33.780  24.458  25.363  1.00  0.00     0.017 C 
ATOM     12  C   UNL A   1      33.494  23.550  22.970  1.00  0.00     0.008 C 
ATOM     13  C   UNL A   1      32.253  24.446  22.744  1.00  0.00    -0.005 C 
ATOM     14  C   UNL A   1      31.534  24.611  24.084  1.00  0.00     0.017 C 
BRANCH  10  15
ATOM     15  C   UNL A   1      35.699  23.045  24.294  1.00  0.00    -0.035 C 
ATOM     16  C   UNL A   1      35.262  21.612  24.665  1.00  0.00     0.011 C 
ATOM     17  C   UNL A   1      36.584  23.588  25.438  1.00  0.00     0.011 C 
ATOM     18  C   UNL A   1      36.585  22.952  23.032  1.00  0.00     0.011 C 
ENDBRANCH  10  15
BRANCH  13  19
ATOM     19  C   UNL A   1      32.459  25.757  21.884  1.00  0.00    -0.035 C 
ATOM     20  C   UNL A   1      33.736  26.515  22.307  1.00  0.00     0.011 C 
ATOM     21  C   UNL A   1      32.532  25.548  20.363  1.00  0.00     0.011 C 
ATOM     22  C   UNL A   1      31.262  26.703  22.147  1.00  0.00     0.011 C 
ENDBRANCH  13  19
ENDBRANCH   6   9
ENDBRANCH   4   5
ENDBRANCH   3   4
ENDBRANCH   2   3
ENDBRANCH   1   2
BRANCH   1  23
ATOM     23  C   UNL A   1      31.408  32.129  26.521  1.00  0.00     0.021 C 
BRANCH  23  24
ATOM     24  C   UNL A   1      32.604  32.716  27.260  1.00  0.00     0.116 C 
BRANCH  24  25
ATOM     25  N   UNL A   1      32.413  34.121  27.572  1.00  0.00    -0.352 N 
ATOM     26  C   UNL A   1      33.000  34.875  28.554  1.00  0.00     0.251 C 
ATOM     27  H   UNL A   1      31.770  34.600  27.000  1.00  0.00     0.163 HD
ATOM     28  O   UNL A   1      32.568  35.994  28.824  1.00  0.00    -0.269 OA
BRANCH  26  29
ATOM     29  C   UNL A   1      34.149  34.327  29.301  1.00  0.00     0.039 A 
ATOM     30  C   UNL A   1      33.909  33.540  30.429  1.00  0.00     0.014 A 
ATOM     31  C   UNL A   1      35.458  34.588  28.884  1.00  0.00     0.014 A 
ATOM     32  C   UNL A   1      34.984  32.969  31.109  1.00  0.00     0.010 A 
ATOM     33  C   UNL A   1      36.522  33.954  29.515  1.00  0.00     0.010 A 
ATOM     34  C   UNL A   1      36.297  33.145  30.639  1.00  0.00    -0.014 A 
BRANCH  34  35
ATOM     35  C   UNL A   1      37.447  32.498  31.316  1.00  0.00     0.031 A 
ATOM     36  C   UNL A   1      38.188  31.379  30.639  1.00  0.00     0.074 A 
ATOM     37  C   UNL A   1      37.790  32.882  32.560  1.00  0.00     0.049 A 
ATOM     38  N   UNL A   1      39.185  30.656  31.083  1.00  0.00    -0.248 NA
ATOM     39  C   UNL A   1      37.728  31.002  29.293  1.00  0.00     0.031 C 
ATOM     40  C   UNL A   1      37.122  33.930  33.334  1.00  0.00     0.029 A 
ATOM     41  N   UNL A   1      38.782  32.433  33.394  1.00  0.00    -0.354 N 
ATOM     42  C   UNL A   1      39.462  29.738  30.080  1.00  0.00     0.074 A 
ATOM     43  C   UNL A   1      38.488  29.950  29.031  1.00  0.00     0.031 C 
ATOM     44  C   UNL A   1      37.745  34.066  34.516  1.00  0.00     0.029 A 
ATOM     45  C   UNL A   1      38.825  33.089  34.600  1.00  0.00     0.049 A 
ATOM     46  H   UNL A   1      39.404  31.709  33.151  1.00  0.00     0.167 HD
ATOM     47  C   UNL A   1      40.456  28.819  30.024  1.00  0.00     0.037 A 
ATOM     48  C   UNL A   1      39.643  32.915  35.655  1.00  0.00     0.037 A 
ATOM     49  C   UNL A   1      41.431  28.622  31.066  1.00  0.00     0.049 A 
ATOM     50  C   UNL A   1      40.716  31.861  35.584  1.00  0.00     0.074 A 
ATOM     51  C   UNL A   1      42.508  27.755  31.088  1.00  0.00     0.029 A 
ATOM     52  N   UNL A   1      41.436  29.298  32.278  1.00  0.00    -0.354 N 
ATOM     53  N   UNL A   1      41.016  31.048  34.601  1.00  0.00    -0.248 NA
ATOM     54  C   UNL A   1      41.565  31.706  36.773  1.00  0.00     0.031 C 
ATOM     55  C   UNL A   1      43.131  27.863  32.336  1.00  0.00     0.029 A 
ATOM     56  C   UNL A   1      42.481  28.845  33.068  1.00  0.00     0.049 A 
ATOM     57  H   UNL A   1      40.795  29.998  32.538  1.00  0.00     0.167 HD
ATOM     58  C   UNL A   1      42.109  30.310  35.036  1.00  0.00     0.074 A 
ATOM     59  C   UNL A   1      42.426  30.783  36.368  1.00  0.00     0.031 C 
ATOM     60  C   UNL A   1      42.790  29.331  34.389  1.00  0.00     0.037 A 
BRANCH  47  61
ATOM     61  C   UNL A   1      40.531  27.954  28.797  1.00  0.00     0.064 A 
ATOM     62  C   UNL A   1      39.845  26.732  28.712  1.00  0.00     0.173 A 
ATOM     63  C   UNL A   1      41.287  28.356  27.685  1.00  0.00     0.173 A 
ATOM     64  F   UNL A   1      39.114  26.293  29.748  1.00  0.00    -0.203 F 
ATOM     65  C   UNL A   1      39.948  25.927  27.579  1.00  0.00     0.198 A 
ATOM     66  C   UNL A   1      41.359  27.567  26.541  1.00  0.00     0.198 A 
ATOM     67  F   UNL A   1      41.958  29.518  27.708  1.00  0.00    -0.203 F 
ATOM     68  F   UNL A   1      39.338  24.734  27.549  1.00  0.00    -0.200 F 
ATOM     69  C   UNL A   1      40.700  26.348  26.493  1.00  0.00     0.200 A 
ATOM     70  F   UNL A   1      42.073  27.983  25.485  1.00  0.00    -0.200 F 
ATOM     71  F   UNL A   1      40.796  25.574  25.403  1.00  0.00    -0.200 F 
ENDBRANCH  47  61
BRANCH  48  72
ATOM     72  C   UNL A   1      39.503  33.781  36.856  1.00  0.00     0.064 A 
ATOM     73  C   UNL A   1      40.168  35.013  36.933  1.00  0.00     0.173 A 
ATOM     74  C   UNL A   1      38.714  33.397  37.950  1.00  0.00     0.173 A 
ATOM     75  F   UNL A   1      40.949  35.415  35.920  1.00  0.00    -0.203 F 
ATOM     76  C   UNL A   1      40.068  35.817  38.066  1.00  0.00     0.198 A 
ATOM     77  C   UNL A   1      38.589  34.217  39.070  1.00  0.00     0.198 A 
ATOM     78  F   UNL A   1      38.053  32.231  37.926  1.00  0.00    -0.203 F 
ATOM     79  F   UNL A   1      40.754  36.965  38.131  1.00  0.00    -0.200 F 
ATOM     80  C   UNL A   1      39.274  35.421  39.132  1.00  0.00     0.200 A 
ATOM     81  F   UNL A   1      37.808  33.838  40.091  1.00  0.00    -0.200 F 
ATOM     82  F   UNL A   1      39.175  36.196  40.219  1.00  0.00    -0.200 F 
ENDBRANCH  48  72
BRANCH  60  83
ATOM     83  C   UNL A   1      43.975  28.736  35.095  1.00  0.00     0.064 A 
ATOM     84  C   UNL A   1      45.268  29.262  34.948  1.00  0.00     0.173 A 
ATOM     85  C   UNL A   1      43.808  27.642  35.959  1.00  0.00     0.173 A 
ATOM     86  F   UNL A   1      45.485  30.297  34.122  1.00  0.00    -0.203 F 
ATOM     87  C   UNL A   1      46.351  28.698  35.616  1.00  0.00     0.198 A 
ATOM     88  C   UNL A   1      44.887  27.103  36.653  1.00  0.00     0.198 A 
ATOM     89  F   UNL A   1      42.592  27.103  36.142  1.00  0.00    -0.203 F 
ATOM     90  F   UNL A   1      47.584  29.182  35.418  1.00  0.00    -0.200 F 
ATOM     91  C   UNL A   1      46.158  27.625  36.474  1.00  0.00     0.200 A 
ATOM     92  F   UNL A   1      44.696  26.078  37.494  1.00  0.00    -0.200 F 
ATOM     93  F   UNL A   1      47.202  27.088  37.123  1.00  0.00    -0.200 F 
ENDBRANCH  60  83
ENDBRANCH  34  35
ENDBRANCH  26  29
ENDBRANCH  24  25
ENDBRANCH  23  24
ENDBRANCH   1  23
TORSDOF 15
ENDMDL
MODEL 3
REMARK VINA RESULT:     -11.9      4.215      8.285
REMARK SMILES CC(C)(C)[C@@H]1CC(C(=O)NCCCCCCNC(=O)c2ccc(-c3c4nc(c(-c5c(F)c(F)c(F)c(F)c5F)c5ccc([nH]5)c(-c5c(F)c(F)c(F)c(F)c5F)c5nc(c(-c6c(F)c(F)c(F)c(F)c6F)c6ccc3[nH]6)C=C5)C=C4)cc2)C[C@@H](C(C)(C)C)C1
REMARK SMILES IDX 14 1 13 2 12 3 11 4 10 5 8 6 9 7 7 9 5 10 6 11 89 12 84 13
REMARK SMILES IDX 83 14 2 15 1 16 3 17 4 18 85 19 86 20 87 21 88 22 15 23
REMARK SMILES IDX 16 24 17 25 18 26 19 28 20 29 21 30 82 31 22 32 81 33 23 34
REMARK SMILES IDX 24 35 25 36 75 37 26 38 80 39 74 40 76 41 27 42 79 43 73 44
REMARK SMILES IDX 72 45 28 47 60 48 40 49 59 50 41 51 44 52 58 53 77 54 42 55
REMARK SMILES IDX 43 56 57 58 78 59 45 60 29 61 30 62 38 63 31 64 32 65 36 66
REMARK SMILES IDX 39 67 33 68 34 69 37 70 35 71 61 72 62 73 70 74 63 75 64 76
REMARK SMILES IDX 68 77 71 78 65 79 66 80 69 81 67 82 46 83 47 84 55 85 48 86
REMARK SMILES IDX 49 87 53 88 56 89 50 90 51 91 54 92 52 93
REMARK H PARENT 10 8 17 27 76 46 44 57
REMARK Flexibility Score: inf
ROOT
ATOM      1  C   UNL A   1      35.046  22.913  24.112  1.00  0.00     0.002 C 
ENDROOT
BRANCH   1   2
ATOM      2  C   UNL A   1      33.680  23.416  23.637  1.00  0.00     0.002 C 
BRANCH   2   3
ATOM      3  C   UNL A   1      32.512  23.057  24.559  1.00  0.00     0.021 C 
BRANCH   3   4
ATOM      4  C   UNL A   1      31.152  23.489  24.017  1.00  0.00     0.116 C 
BRANCH   4   5
ATOM      5  N   UNL A   1      30.281  23.914  25.095  1.00  0.00    -0.356 N 
ATOM      6  C   UNL A   1      30.164  25.112  25.729  1.00  0.00     0.223 C 
ATOM      7  O   UNL A   1      29.404  25.178  26.697  1.00  0.00    -0.275 OA
ATOM      8  H   UNL A   1      29.670  23.216  25.426  1.00  0.00     0.163 HD
BRANCH   6   9
ATOM      9  C   UNL A   1      30.902  26.351  25.231  1.00  0.00     0.079 C 
ATOM     10  C   UNL A   1      30.575  28.588  23.925  1.00  0.00    -0.005 C 
ATOM     11  C   UNL A   1      30.090  27.149  24.201  1.00  0.00     0.017 C 
ATOM     12  C   UNL A   1      31.122  29.290  25.191  1.00  0.00     0.008 C 
ATOM     13  C   UNL A   1      32.102  28.459  26.053  1.00  0.00    -0.005 C 
ATOM     14  C   UNL A   1      31.411  27.148  26.429  1.00  0.00     0.017 C 
BRANCH  10  15
ATOM     15  C   UNL A   1      29.526  29.458  23.119  1.00  0.00    -0.035 C 
ATOM     16  C   UNL A   1      28.156  28.770  22.952  1.00  0.00     0.011 C 
ATOM     17  C   UNL A   1      30.086  29.760  21.711  1.00  0.00     0.011 C 
ATOM     18  C   UNL A   1      29.286  30.814  23.818  1.00  0.00     0.011 C 
ENDBRANCH  10  15
BRANCH  13  19
ATOM     19  C   UNL A   1      33.596  28.352  25.544  1.00  0.00    -0.035 C 
ATOM     20  C   UNL A   1      33.996  26.885  25.274  1.00  0.00     0.011 C 
ATOM     21  C   UNL A   1      33.924  29.157  24.277  1.00  0.00     0.011 C 
ATOM     22  C   UNL A   1      34.529  28.879  26.661  1.00  0.00     0.011 C 
ENDBRANCH  13  19
ENDBRANCH   6   9
ENDBRANCH   4   5
ENDBRANCH   3   4
ENDBRANCH   2   3
ENDBRANCH   1   2
BRANCH   1  23
ATOM     23  C   UNL A   1      35.972  24.000  24.661  1.00  0.00     0.021 C 
BRANCH  23  24
ATOM     24  C   UNL A   1      36.518  23.710  26.054  1.00  0.00     0.116 C 
BRANCH  24  25
ATOM     25  N   UNL A   1      37.544  22.683  26.031  1.00  0.00    -0.352 N 
ATOM     26  C   UNL A   1      38.888  22.800  26.270  1.00  0.00     0.251 C 
ATOM     27  H   UNL A   1      37.231  21.775  25.813  1.00  0.00     0.163 HD
ATOM     28  O   UNL A   1      39.652  21.876  25.999  1.00  0.00    -0.269 OA
BRANCH  26  29
ATOM     29  C   UNL A   1      39.418  24.053  26.842  1.00  0.00     0.039 A 
ATOM     30  C   UNL A   1      40.027  24.979  25.994  1.00  0.00     0.014 A 
ATOM     31  C   UNL A   1      39.308  24.312  28.212  1.00  0.00     0.014 A 
ATOM     32  C   UNL A   1      40.479  26.192  26.512  1.00  0.00     0.010 A 
ATOM     33  C   UNL A   1      39.686  25.553  28.711  1.00  0.00     0.010 A 
ATOM     34  C   UNL A   1      40.284  26.501  27.869  1.00  0.00    -0.014 A 
BRANCH  34  35
ATOM     35  C   UNL A   1      40.706  27.810  28.426  1.00  0.00     0.031 A 
ATOM     36  C   UNL A   1      42.150  28.054  28.764  1.00  0.00     0.074 A 
ATOM     37  C   UNL A   1      39.782  28.756  28.677  1.00  0.00     0.049 A 
ATOM     38  N   UNL A   1      42.709  29.109  29.302  1.00  0.00    -0.248 NA
ATOM     39  C   UNL A   1      43.088  26.955  28.486  1.00  0.00     0.031 C 
ATOM     40  C   UNL A   1      38.346  28.621  28.428  1.00  0.00     0.029 A 
ATOM     41  N   UNL A   1      39.912  30.017  29.202  1.00  0.00    -0.354 N 
ATOM     42  C   UNL A   1      44.055  28.797  29.435  1.00  0.00     0.074 A 
ATOM     43  C   UNL A   1      44.219  27.432  28.983  1.00  0.00     0.031 C 
ATOM     44  C   UNL A   1      37.732  29.766  28.768  1.00  0.00     0.029 A 
ATOM     45  C   UNL A   1      38.723  30.698  29.298  1.00  0.00     0.049 A 
ATOM     46  H   UNL A   1      40.775  30.398  29.483  1.00  0.00     0.167 HD
ATOM     47  C   UNL A   1      45.068  29.585  29.868  1.00  0.00     0.037 A 
ATOM     48  C   UNL A   1      38.464  31.933  29.766  1.00  0.00     0.037 A 
ATOM     49  C   UNL A   1      44.899  30.947  30.305  1.00  0.00     0.049 A 
ATOM     50  C   UNL A   1      39.601  32.776  30.278  1.00  0.00     0.074 A 
ATOM     51  C   UNL A   1      45.865  31.849  30.715  1.00  0.00     0.029 A 
ATOM     52  N   UNL A   1      43.678  31.599  30.398  1.00  0.00    -0.354 N 
ATOM     53  N   UNL A   1      40.881  32.497  30.331  1.00  0.00    -0.248 NA
ATOM     54  C   UNL A   1      39.254  34.107  30.793  1.00  0.00     0.031 C 
ATOM     55  C   UNL A   1      45.223  33.027  31.112  1.00  0.00     0.029 A 
ATOM     56  C   UNL A   1      43.862  32.883  30.888  1.00  0.00     0.049 A 
ATOM     57  H   UNL A   1      42.808  31.210  30.151  1.00  0.00     0.167 HD
ATOM     58  C   UNL A   1      41.496  33.629  30.849  1.00  0.00     0.074 A 
ATOM     59  C   UNL A   1      40.449  34.602  31.082  1.00  0.00     0.031 C 
ATOM     60  C   UNL A   1      42.811  33.844  31.107  1.00  0.00     0.037 A 
BRANCH  47  61
ATOM     61  C   UNL A   1      46.447  28.987  29.897  1.00  0.00     0.064 A 
ATOM     62  C   UNL A   1      46.949  28.343  31.039  1.00  0.00     0.173 A 
ATOM     63  C   UNL A   1      47.273  29.045  28.764  1.00  0.00     0.173 A 
ATOM     64  F   UNL A   1      46.206  28.267  32.154  1.00  0.00    -0.203 F 
ATOM     65  C   UNL A   1      48.241  27.820  31.060  1.00  0.00     0.198 A 
ATOM     66  C   UNL A   1      48.549  28.488  28.776  1.00  0.00     0.198 A 
ATOM     67  F   UNL A   1      46.843  29.641  27.642  1.00  0.00    -0.203 F 
ATOM     68  F   UNL A   1      48.720  27.270  32.184  1.00  0.00    -0.200 F 
ATOM     69  C   UNL A   1      49.037  27.887  29.927  1.00  0.00     0.200 A 
ATOM     70  F   UNL A   1      49.312  28.540  27.675  1.00  0.00    -0.200 F 
ATOM     71  F   UNL A   1      50.278  27.381  29.948  1.00  0.00    -0.200 F 
ENDBRANCH  47  61
BRANCH  48  72
ATOM     72  C   UNL A   1      37.074  32.462  29.741  1.00  0.00     0.064 A 
ATOM     73  C   UNL A   1      36.606  33.196  28.642  1.00  0.00     0.173 A 
ATOM     74  C   UNL A   1      36.190  32.255  30.809  1.00  0.00     0.173 A 
ATOM     75  F   UNL A   1      37.420  33.437  27.603  1.00  0.00    -0.203 F 
ATOM     76  C   UNL A   1      35.316  33.722  28.622  1.00  0.00     0.198 A 
ATOM     77  C   UNL A   1      34.889  32.755  30.776  1.00  0.00     0.198 A 
ATOM     78  F   UNL A   1      36.585  31.555  31.883  1.00  0.00    -0.203 F 
ATOM     79  F   UNL A   1      34.913  34.462  27.581  1.00  0.00    -0.200 F 
ATOM     80  C   UNL A   1      34.457  33.496  29.686  1.00  0.00     0.200 A 
ATOM     81  F   UNL A   1      34.057  32.521  31.799  1.00  0.00    -0.200 F 
ATOM     82  F   UNL A   1      33.216  33.999  29.666  1.00  0.00    -0.200 F 
ENDBRANCH  48  72
BRANCH  60  83
ATOM     83  C   UNL A   1      43.198  35.199  31.629  1.00  0.00     0.064 A 
ATOM     84  C   UNL A   1      43.169  35.501  32.999  1.00  0.00     0.173 A 
ATOM     85  C   UNL A   1      43.636  36.198  30.746  1.00  0.00     0.173 A 
ATOM     86  F   UNL A   1      42.744  34.586  33.883  1.00  0.00    -0.203 F 
ATOM     87  C   UNL A   1      43.537  36.761  33.461  1.00  0.00     0.198 A 
ATOM     88  C   UNL A   1      44.037  37.445  31.216  1.00  0.00     0.198 A 
ATOM     89  F   UNL A   1      43.689  35.960  29.426  1.00  0.00    -0.203 F 
ATOM     90  F   UNL A   1      43.450  37.045  34.768  1.00  0.00    -0.200 F 
ATOM     91  C   UNL A   1      43.979  37.729  32.571  1.00  0.00     0.200 A 
ATOM     92  F   UNL A   1      44.480  38.373  30.356  1.00  0.00    -0.200 F 
ATOM     93  F   UNL A   1      44.342  38.939  33.020  1.00  0.00    -0.200 F 
ENDBRANCH  60  83
ENDBRANCH  34  35
ENDBRANCH  26  29
ENDBRANCH  24  25
ENDBRANCH  23  24
ENDBRANCH   1  23
TORSDOF 15
ENDMDL
