MODEL 1
REMARK VINA RESULT:     -11.5      0.000      0.000
REMARK SMILES [NH3+][C@@]1(C(=O)NCCCCCCNC(=O)c2ccc(-c3c4nc(c(-c5c(F)c(F)c(F)c(F)c5F)c5ccc([nH]5)c(-c5c(F)c(F)c(F)c(F)c5F)c5nc(c(-c6c(F)c(F)c(F)c(F)c6F)c6ccc3[nH]6)C=C5)C=C4)cc2)CC[C@H](Sc2cccs2)C1
REMARK SMILES IDX 8 1 7 2 6 3 5 4 3 5 4 6 2 8 78 9 87 10 79 11 80 12 1 13
REMARK SMILES IDX 81 17 82 18 83 19 86 20 84 21 85 22 9 23 10 24 11 25 12 26
REMARK SMILES IDX 13 27 14 29 15 30 16 31 77 32 17 33 76 34 18 35 19 36 20 37
REMARK SMILES IDX 70 38 21 39 75 40 69 41 71 42 22 43 74 44 68 45 67 46 23 48
REMARK SMILES IDX 55 49 35 50 54 51 36 52 39 53 53 54 72 55 37 56 38 57 52 59
REMARK SMILES IDX 73 60 40 61 24 62 25 63 33 64 26 65 27 66 31 67 34 68 28 69
REMARK SMILES IDX 29 70 32 71 30 72 56 73 57 74 65 75 58 76 59 77 63 78 66 79
REMARK SMILES IDX 60 80 61 81 64 82 62 83 41 84 42 85 50 86 43 87 44 88 48 89
REMARK SMILES IDX 51 90 45 91 46 92 49 93 47 94
REMARK H PARENT 5 7 1 14 1 15 1 16 12 28 71 47 39 58
REMARK Flexibility Score: inf
ROOT
ATOM      1  C   UNL A   1      32.361  29.839  27.271  1.00  0.00     0.002 C 
ENDROOT
BRANCH   1   2
ATOM      2  C   UNL A   1      33.073  28.599  26.736  1.00  0.00     0.021 C 
BRANCH   2   3
ATOM      3  C   UNL A   1      32.277  27.775  25.733  1.00  0.00     0.116 C 
BRANCH   3   4
ATOM      4  N   UNL A   1      31.341  26.868  26.352  1.00  0.00    -0.351 N 
ATOM      5  C   UNL A   1      30.340  26.118  25.817  1.00  0.00     0.281 C 
ATOM      6  O   UNL A   1      29.730  25.385  26.609  1.00  0.00    -0.268 OA
ATOM      7  H   UNL A   1      31.445  26.777  27.326  1.00  0.00     0.163 HD
BRANCH   5   8
ATOM      8  C   UNL A   1      29.957  26.119  24.291  1.00  0.00     0.175 C 
ATOM      9  C   UNL A   1      30.889  26.999  23.445  1.00  0.00     0.080 C 
ATOM     10  C   UNL A   1      28.524  26.581  23.984  1.00  0.00     0.094 C 
ATOM     11  C   UNL A   1      30.072  28.211  23.007  1.00  0.00     0.022 C 
ATOM     12  C   UNL A   1      28.634  27.706  22.935  1.00  0.00     0.059 C 
BRANCH   8  13
ATOM     13  N   UNL A   1      30.105  24.718  23.808  1.00  0.00    -0.345 N 
ATOM     14  H   UNL A   1      31.026  24.599  23.386  1.00  0.00     0.345 HD
ATOM     15  H   UNL A   1      29.384  24.519  23.114  1.00  0.00     0.345 HD
ATOM     16  H   UNL A   1      30.006  24.074  24.594  1.00  0.00     0.345 HD
ENDBRANCH   8  13
BRANCH  12  17
ATOM     17  S   UNL A   1      27.240  28.859  23.171  1.00  0.00    -0.112 SA
BRANCH  17  18
ATOM     18  C   UNL A   1      27.804  30.486  22.851  1.00  0.00     0.060 A 
ATOM     19  C   UNL A   1      28.231  31.442  23.747  1.00  0.00     0.027 A 
ATOM     20  S   UNL A   1      28.010  31.020  21.230  1.00  0.00    -0.137 S 
ATOM     21  C   UNL A   1      28.713  32.621  23.101  1.00  0.00     0.013 A 
ATOM     22  C   UNL A   1      28.666  32.518  21.730  1.00  0.00     0.066 A 
ENDBRANCH  17  18
ENDBRANCH  12  17
ENDBRANCH   5   8
ENDBRANCH   3   4
ENDBRANCH   2   3
ENDBRANCH   1   2
BRANCH   1  23
ATOM     23  C   UNL A   1      31.551  30.645  26.249  1.00  0.00     0.002 C 
BRANCH  23  24
ATOM     24  C   UNL A   1      31.402  32.145  26.522  1.00  0.00     0.021 C 
BRANCH  24  25
ATOM     25  C   UNL A   1      32.687  32.901  26.846  1.00  0.00     0.116 C 
BRANCH  25  26
ATOM     26  N   UNL A   1      32.446  34.132  27.575  1.00  0.00    -0.352 N 
ATOM     27  C   UNL A   1      33.080  34.654  28.670  1.00  0.00     0.251 C 
ATOM     28  H   UNL A   1      31.707  34.681  27.225  1.00  0.00     0.163 HD
ATOM     29  O   UNL A   1      32.620  35.662  29.207  1.00  0.00    -0.269 OA
BRANCH  27  30
ATOM     30  C   UNL A   1      34.292  34.021  29.238  1.00  0.00     0.039 A 
ATOM     31  C   UNL A   1      34.120  32.966  30.139  1.00  0.00     0.014 A 
ATOM     32  C   UNL A   1      35.581  34.485  28.955  1.00  0.00     0.014 A 
ATOM     33  C   UNL A   1      35.230  32.355  30.727  1.00  0.00     0.010 A 
ATOM     34  C   UNL A   1      36.694  33.836  29.493  1.00  0.00     0.010 A 
ATOM     35  C   UNL A   1      36.529  32.772  30.394  1.00  0.00    -0.014 A 
BRANCH  35  36
ATOM     36  C   UNL A   1      37.709  32.104  31.001  1.00  0.00     0.031 A 
ATOM     37  C   UNL A   1      38.160  32.459  32.390  1.00  0.00     0.074 A 
ATOM     38  C   UNL A   1      38.389  31.185  30.288  1.00  0.00     0.049 A 
ATOM     39  N   UNL A   1      39.156  31.970  33.088  1.00  0.00    -0.248 NA
ATOM     40  C   UNL A   1      37.407  33.516  33.081  1.00  0.00     0.031 C 
ATOM     41  C   UNL A   1      38.081  30.788  28.913  1.00  0.00     0.029 A 
ATOM     42  N   UNL A   1      39.478  30.419  30.620  1.00  0.00    -0.354 N 
ATOM     43  C   UNL A   1      39.153  32.664  34.291  1.00  0.00     0.074 A 
ATOM     44  C   UNL A   1      38.088  33.641  34.211  1.00  0.00     0.031 C 
ATOM     45  C   UNL A   1      38.943  29.833  28.530  1.00  0.00     0.029 A 
ATOM     46  C   UNL A   1      39.877  29.568  29.620  1.00  0.00     0.049 A 
ATOM     47  H   UNL A   1      39.929  30.474  31.493  1.00  0.00     0.167 HD
ATOM     48  C   UNL A   1      39.951  32.488  35.371  1.00  0.00     0.037 A 
ATOM     49  C   UNL A   1      40.880  28.669  29.589  1.00  0.00     0.037 A 
ATOM     50  C   UNL A   1      40.996  31.500  35.460  1.00  0.00     0.049 A 
ATOM     51  C   UNL A   1      41.735  28.476  30.811  1.00  0.00     0.074 A 
ATOM     52  C   UNL A   1      41.822  31.210  36.531  1.00  0.00     0.029 A 
ATOM     53  N   UNL A   1      41.354  30.638  34.433  1.00  0.00    -0.354 N 
ATOM     54  N   UNL A   1      41.678  29.090  31.967  1.00  0.00    -0.248 NA
ATOM     55  C   UNL A   1      42.786  27.452  30.727  1.00  0.00     0.031 C 
ATOM     56  C   UNL A   1      42.707  30.197  36.141  1.00  0.00     0.029 A 
ATOM     57  C   UNL A   1      42.401  29.826  34.842  1.00  0.00     0.049 A 
ATOM     58  H   UNL A   1      40.929  30.609  33.546  1.00  0.00     0.167 HD
ATOM     59  C   UNL A   1      42.661  28.511  32.756  1.00  0.00     0.074 A 
ATOM     60  C   UNL A   1      43.291  27.484  31.952  1.00  0.00     0.031 C 
ATOM     61  C   UNL A   1      43.013  28.804  34.032  1.00  0.00     0.037 A 
BRANCH  48  62
ATOM     62  C   UNL A   1      39.724  33.385  36.554  1.00  0.00     0.064 A 
ATOM     63  C   UNL A   1      38.832  33.035  37.579  1.00  0.00     0.173 A 
ATOM     64  C   UNL A   1      40.435  34.587  36.685  1.00  0.00     0.173 A 
ATOM     65  F   UNL A   1      38.121  31.901  37.497  1.00  0.00    -0.203 F 
ATOM     66  C   UNL A   1      38.640  33.869  38.678  1.00  0.00     0.198 A 
ATOM     67  C   UNL A   1      40.261  35.405  37.799  1.00  0.00     0.198 A 
ATOM     68  F   UNL A   1      41.306  34.966  35.738  1.00  0.00    -0.203 F 
ATOM     69  F   UNL A   1      37.749  33.536  39.623  1.00  0.00    -0.200 F 
ATOM     70  C   UNL A   1      39.360  35.049  38.790  1.00  0.00     0.200 A 
ATOM     71  F   UNL A   1      40.966  36.539  37.912  1.00  0.00    -0.200 F 
ATOM     72  F   UNL A   1      39.178  35.847  39.852  1.00  0.00    -0.200 F 
ENDBRANCH  48  62
BRANCH  49  73
ATOM     73  C   UNL A   1      41.101  27.851  28.368  1.00  0.00     0.064 A 
ATOM     74  C   UNL A   1      40.454  26.619  28.201  1.00  0.00     0.173 A 
ATOM     75  C   UNL A   1      41.961  28.282  27.349  1.00  0.00     0.173 A 
ATOM     76  F   UNL A   1      39.637  26.157  29.159  1.00  0.00    -0.203 F 
ATOM     77  C   UNL A   1      40.675  25.839  27.069  1.00  0.00     0.198 A 
ATOM     78  C   UNL A   1      42.161  27.513  26.205  1.00  0.00     0.198 A 
ATOM     79  F   UNL A   1      42.599  29.457  27.459  1.00  0.00    -0.203 F 
ATOM     80  F   UNL A   1      40.077  24.645  26.953  1.00  0.00    -0.200 F 
ATOM     81  C   UNL A   1      41.523  26.289  26.069  1.00  0.00     0.200 A 
ATOM     82  F   UNL A   1      42.971  27.959  25.234  1.00  0.00    -0.200 F 
ATOM     83  F   UNL A   1      41.733  25.540  24.978  1.00  0.00    -0.200 F 
ENDBRANCH  49  73
BRANCH  61  84
ATOM     84  C   UNL A   1      44.105  27.979  34.647  1.00  0.00     0.064 A 
ATOM     85  C   UNL A   1      45.448  28.383  34.600  1.00  0.00     0.173 A 
ATOM     86  C   UNL A   1      43.803  26.780  35.309  1.00  0.00     0.173 A 
ATOM     87  F   UNL A   1      45.790  29.515  33.965  1.00  0.00    -0.203 F 
ATOM     88  C   UNL A   1      46.450  27.600  35.165  1.00  0.00     0.198 A 
ATOM     89  C   UNL A   1      44.804  26.013  35.898  1.00  0.00     0.198 A 
ATOM     90  F   UNL A   1      42.533  26.353  35.388  1.00  0.00    -0.203 F 
ATOM     91  F   UNL A   1      47.732  27.978  35.060  1.00  0.00    -0.200 F 
ATOM     92  C   UNL A   1      46.128  26.419  35.818  1.00  0.00     0.200 A 
ATOM     93  F   UNL A   1      44.489  24.879  36.537  1.00  0.00    -0.200 F 
ATOM     94  F   UNL A   1      47.094  25.666  36.360  1.00  0.00    -0.200 F 
ENDBRANCH  61  84
ENDBRANCH  35  36
ENDBRANCH  27  30
ENDBRANCH  25  26
ENDBRANCH  24  25
ENDBRANCH  23  24
ENDBRANCH   1  23
TORSDOF 16
ENDMDL
MODEL 2
REMARK VINA RESULT:     -11.5      0.906      7.543
REMARK SMILES [NH3+][C@@]1(C(=O)NCCCCCCNC(=O)c2ccc(-c3c4nc(c(-c5c(F)c(F)c(F)c(F)c5F)c5ccc([nH]5)c(-c5c(F)c(F)c(F)c(F)c5F)c5nc(c(-c6c(F)c(F)c(F)c(F)c6F)c6ccc3[nH]6)C=C5)C=C4)cc2)CC[C@H](Sc2cccs2)C1
REMARK SMILES IDX 8 1 7 2 6 3 5 4 3 5 4 6 2 8 78 9 87 10 79 11 80 12 1 13
REMARK SMILES IDX 81 17 82 18 83 19 86 20 84 21 85 22 9 23 10 24 11 25 12 26
REMARK SMILES IDX 13 27 14 29 15 30 16 31 77 32 17 33 76 34 18 35 19 36 20 37
REMARK SMILES IDX 70 38 21 39 75 40 69 41 71 42 22 43 74 44 68 45 67 46 23 48
REMARK SMILES IDX 55 49 35 50 54 51 36 52 39 53 53 54 72 55 37 56 38 57 52 59
REMARK SMILES IDX 73 60 40 61 24 62 25 63 33 64 26 65 27 66 31 67 34 68 28 69
REMARK SMILES IDX 29 70 32 71 30 72 56 73 57 74 65 75 58 76 59 77 63 78 66 79
REMARK SMILES IDX 60 80 61 81 64 82 62 83 41 84 42 85 50 86 43 87 44 88 48 89
REMARK SMILES IDX 51 90 45 91 46 92 49 93 47 94
REMARK H PARENT 5 7 1 14 1 15 1 16 12 28 71 47 39 58
REMARK Flexibility Score: inf
ROOT
ATOM      1  C   UNL A   1      32.301  29.949  26.581  1.00  0.00     0.002 C 
ENDROOT
BRANCH   1   2
ATOM      2  C   UNL A   1      31.713  28.735  27.295  1.00  0.00     0.021 C 
BRANCH   2   3
ATOM      3  C   UNL A   1      31.933  27.399  26.597  1.00  0.00     0.116 C 
BRANCH   3   4
ATOM      4  N   UNL A   1      30.913  26.423  26.895  1.00  0.00    -0.351 N 
ATOM      5  C   UNL A   1      30.057  25.750  26.079  1.00  0.00     0.281 C 
ATOM      6  O   UNL A   1      29.318  24.923  26.633  1.00  0.00    -0.268 OA
ATOM      7  H   UNL A   1      30.820  26.208  27.851  1.00  0.00     0.163 HD
BRANCH   5   8
ATOM      8  C   UNL A   1      29.989  25.947  24.519  1.00  0.00     0.175 C 
ATOM      9  C   UNL A   1      31.047  26.931  23.998  1.00  0.00     0.080 C 
ATOM     10  C   UNL A   1      28.635  26.440  23.988  1.00  0.00     0.094 C 
ATOM     11  C   UNL A   1      30.299  28.187  23.558  1.00  0.00     0.022 C 
ATOM     12  C   UNL A   1      28.920  27.691  23.133  1.00  0.00     0.059 C 
BRANCH   8  13
ATOM     13  N   UNL A   1      30.272  24.619  23.905  1.00  0.00    -0.345 N 
ATOM     14  H   UNL A   1      29.540  24.394  23.230  1.00  0.00     0.345 HD
ATOM     15  H   UNL A   1      30.294  23.905  24.633  1.00  0.00     0.345 HD
ATOM     16  H   UNL A   1      31.174  24.649  23.430  1.00  0.00     0.345 HD
ENDBRANCH   8  13
BRANCH  12  17
ATOM     17  S   UNL A   1      27.474  28.800  23.223  1.00  0.00    -0.112 SA
BRANCH  17  18
ATOM     18  C   UNL A   1      27.874  30.302  22.418  1.00  0.00     0.060 A 
ATOM     19  C   UNL A   1      27.975  30.555  21.066  1.00  0.00     0.027 A 
ATOM     20  S   UNL A   1      28.061  31.745  23.334  1.00  0.00    -0.137 S 
ATOM     21  C   UNL A   1      28.223  31.933  20.785  1.00  0.00     0.013 A 
ATOM     22  C   UNL A   1      28.275  32.696  21.930  1.00  0.00     0.066 A 
ENDBRANCH  17  18
ENDBRANCH  12  17
ENDBRANCH   5   8
ENDBRANCH   3   4
ENDBRANCH   2   3
ENDBRANCH   1   2
BRANCH   1  23
ATOM     23  C   UNL A   1      31.291  30.913  25.948  1.00  0.00     0.002 C 
BRANCH  23  24
ATOM     24  C   UNL A   1      31.263  32.340  26.506  1.00  0.00     0.021 C 
BRANCH  24  25
ATOM     25  C   UNL A   1      32.556  32.837  27.146  1.00  0.00     0.116 C 
BRANCH  25  26
ATOM     26  N   UNL A   1      32.459  34.206  27.616  1.00  0.00    -0.352 N 
ATOM     27  C   UNL A   1      33.118  34.844  28.633  1.00  0.00     0.251 C 
ATOM     28  H   UNL A   1      31.816  34.767  27.125  1.00  0.00     0.163 HD
ATOM     29  O   UNL A   1      32.782  35.988  28.943  1.00  0.00    -0.269 OA
BRANCH  27  30
ATOM     30  C   UNL A   1      34.211  34.183  29.382  1.00  0.00     0.039 A 
ATOM     31  C   UNL A   1      35.525  34.409  28.961  1.00  0.00     0.014 A 
ATOM     32  C   UNL A   1      33.965  33.301  30.439  1.00  0.00     0.014 A 
ATOM     33  C   UNL A   1      36.589  33.784  29.615  1.00  0.00     0.010 A 
ATOM     34  C   UNL A   1      35.032  32.724  31.133  1.00  0.00     0.010 A 
ATOM     35  C   UNL A   1      36.354  32.951  30.719  1.00  0.00    -0.014 A 
BRANCH  35  36
ATOM     36  C   UNL A   1      37.489  32.308  31.429  1.00  0.00     0.031 A 
ATOM     37  C   UNL A   1      38.240  31.169  30.798  1.00  0.00     0.074 A 
ATOM     38  C   UNL A   1      37.834  32.741  32.657  1.00  0.00     0.049 A 
ATOM     39  N   UNL A   1      39.267  30.497  31.260  1.00  0.00    -0.248 NA
ATOM     40  C   UNL A   1      37.766  30.709  29.484  1.00  0.00     0.031 C 
ATOM     41  C   UNL A   1      37.153  33.805  33.397  1.00  0.00     0.029 A 
ATOM     42  N   UNL A   1      38.841  32.341  33.499  1.00  0.00    -0.354 N 
ATOM     43  C   UNL A   1      39.553  29.534  30.301  1.00  0.00     0.074 A 
ATOM     44  C   UNL A   1      38.564  29.676  29.253  1.00  0.00     0.031 C 
ATOM     45  C   UNL A   1      37.779  33.992  34.570  1.00  0.00     0.029 A 
ATOM     46  C   UNL A   1      38.887  33.047  34.675  1.00  0.00     0.049 A 
ATOM     47  H   UNL A   1      39.470  31.617  33.280  1.00  0.00     0.167 HD
ATOM     48  C   UNL A   1      40.560  28.629  30.284  1.00  0.00     0.037 A 
ATOM     49  C   UNL A   1      39.733  32.948  35.719  1.00  0.00     0.037 A 
ATOM     50  C   UNL A   1      41.559  28.503  31.315  1.00  0.00     0.049 A 
ATOM     51  C   UNL A   1      40.859  31.952  35.663  1.00  0.00     0.074 A 
ATOM     52  C   UNL A   1      42.650  27.653  31.362  1.00  0.00     0.029 A 
ATOM     53  N   UNL A   1      41.587  29.254  32.481  1.00  0.00    -0.354 N 
ATOM     54  N   UNL A   1      41.159  31.095  34.719  1.00  0.00    -0.248 NA
ATOM     55  C   UNL A   1      41.771  31.922  36.815  1.00  0.00     0.031 C 
ATOM     56  C   UNL A   1      43.317  27.863  32.574  1.00  0.00     0.029 A 
ATOM     57  C   UNL A   1      42.668  28.875  33.261  1.00  0.00     0.049 A 
ATOM     58  H   UNL A   1      40.935  29.952  32.718  1.00  0.00     0.167 HD
ATOM     59  C   UNL A   1      42.309  30.444  35.147  1.00  0.00     0.074 A 
ATOM     60  C   UNL A   1      42.660  31.018  36.430  1.00  0.00     0.031 C 
ATOM     61  C   UNL A   1      43.008  29.459  34.533  1.00  0.00     0.037 A 
BRANCH  48  62
ATOM     62  C   UNL A   1      40.638  27.700  29.107  1.00  0.00     0.064 A 
ATOM     63  C   UNL A   1      39.821  26.563  29.014  1.00  0.00     0.173 A 
ATOM     64  C   UNL A   1      41.509  27.970  28.041  1.00  0.00     0.173 A 
ATOM     65  F   UNL A   1      38.979  26.254  30.010  1.00  0.00    -0.203 F 
ATOM     66  C   UNL A   1      39.894  25.716  27.911  1.00  0.00     0.198 A 
ATOM     67  C   UNL A   1      41.560  27.137  26.926  1.00  0.00     0.198 A 
ATOM     68  F   UNL A   1      42.307  29.048  28.075  1.00  0.00    -0.203 F 
ATOM     69  F   UNL A   1      39.136  24.611  27.865  1.00  0.00    -0.200 F 
ATOM     70  C   UNL A   1      40.758  26.007  26.865  1.00  0.00     0.200 A 
ATOM     71  F   UNL A   1      42.385  27.426  25.912  1.00  0.00    -0.200 F 
ATOM     72  F   UNL A   1      40.821  25.195  25.801  1.00  0.00    -0.200 F 
ENDBRANCH  48  62
BRANCH  49  73
ATOM     73  C   UNL A   1      39.573  33.851  36.888  1.00  0.00     0.064 A 
ATOM     74  C   UNL A   1      40.195  35.107  36.919  1.00  0.00     0.173 A 
ATOM     75  C   UNL A   1      38.798  33.478  37.994  1.00  0.00     0.173 A 
ATOM     76  F   UNL A   1      40.962  35.498  35.891  1.00  0.00    -0.203 F 
ATOM     77  C   UNL A   1      40.064  35.947  38.022  1.00  0.00     0.198 A 
ATOM     78  C   UNL A   1      38.647  34.330  39.086  1.00  0.00     0.198 A 
ATOM     79  F   UNL A   1      38.176  32.289  38.010  1.00  0.00    -0.203 F 
ATOM     80  F   UNL A   1      40.705  37.124  38.044  1.00  0.00    -0.200 F 
ATOM     81  C   UNL A   1      39.287  35.561  39.102  1.00  0.00     0.200 A 
ATOM     82  F   UNL A   1      37.881  33.959  40.122  1.00  0.00    -0.200 F 
ATOM     83  F   UNL A   1      39.158  36.371  40.162  1.00  0.00    -0.200 F 
ENDBRANCH  49  73
BRANCH  61  84
ATOM     84  C   UNL A   1      44.245  28.965  35.226  1.00  0.00     0.064 A 
ATOM     85  C   UNL A   1      44.202  27.894  36.132  1.00  0.00     0.173 A 
ATOM     86  C   UNL A   1      45.490  29.557  34.966  1.00  0.00     0.173 A 
ATOM     87  F   UNL A   1      43.033  27.305  36.425  1.00  0.00    -0.203 F 
ATOM     88  C   UNL A   1      45.356  27.456  36.775  1.00  0.00     0.198 A 
ATOM     89  C   UNL A   1      46.646  29.098  35.589  1.00  0.00     0.198 A 
ATOM     90  F   UNL A   1      45.585  30.580  34.103  1.00  0.00    -0.203 F 
ATOM     91  F   UNL A   1      45.283  26.468  37.677  1.00  0.00    -0.200 F 
ATOM     92  C   UNL A   1      46.577  28.054  36.500  1.00  0.00     0.200 A 
ATOM     93  F   UNL A   1      47.826  29.669  35.315  1.00  0.00    -0.200 F 
ATOM     94  F   UNL A   1      47.687  27.631  37.121  1.00  0.00    -0.200 F 
ENDBRANCH  61  84
ENDBRANCH  35  36
ENDBRANCH  27  30
ENDBRANCH  25  26
ENDBRANCH  24  25
ENDBRANCH  23  24
ENDBRANCH   1  23
TORSDOF 16
ENDMDL
MODEL 3
REMARK VINA RESULT:     -11.4      0.946      2.004
REMARK SMILES [NH3+][C@@]1(C(=O)NCCCCCCNC(=O)c2ccc(-c3c4nc(c(-c5c(F)c(F)c(F)c(F)c5F)c5ccc([nH]5)c(-c5c(F)c(F)c(F)c(F)c5F)c5nc(c(-c6c(F)c(F)c(F)c(F)c6F)c6ccc3[nH]6)C=C5)C=C4)cc2)CC[C@H](Sc2cccs2)C1
REMARK SMILES IDX 8 1 7 2 6 3 5 4 3 5 4 6 2 8 78 9 87 10 79 11 80 12 1 13
REMARK SMILES IDX 81 17 82 18 83 19 86 20 84 21 85 22 9 23 10 24 11 25 12 26
REMARK SMILES IDX 13 27 14 29 15 30 16 31 77 32 17 33 76 34 18 35 19 36 20 37
REMARK SMILES IDX 70 38 21 39 75 40 69 41 71 42 22 43 74 44 68 45 67 46 23 48
REMARK SMILES IDX 55 49 35 50 54 51 36 52 39 53 53 54 72 55 37 56 38 57 52 59
REMARK SMILES IDX 73 60 40 61 24 62 25 63 33 64 26 65 27 66 31 67 34 68 28 69
REMARK SMILES IDX 29 70 32 71 30 72 56 73 57 74 65 75 58 76 59 77 63 78 66 79
REMARK SMILES IDX 60 80 61 81 64 82 62 83 41 84 42 85 50 86 43 87 44 88 48 89
REMARK SMILES IDX 51 90 45 91 46 92 49 93 47 94
REMARK H PARENT 5 7 1 14 1 15 1 16 12 28 71 47 39 58
REMARK Flexibility Score: inf
ROOT
ATOM      1  C   UNL A   1      31.925  29.488  27.140  1.00  0.00     0.002 C 
ENDROOT
BRANCH   1   2
ATOM      2  C   UNL A   1      32.776  28.342  26.600  1.00  0.00     0.021 C 
BRANCH   2   3
ATOM      3  C   UNL A   1      32.016  27.277  25.821  1.00  0.00     0.116 C 
BRANCH   3   4
ATOM      4  N   UNL A   1      32.860  26.213  25.334  1.00  0.00    -0.351 N 
ATOM      5  C   UNL A   1      33.197  25.853  24.066  1.00  0.00     0.281 C 
ATOM      6  O   UNL A   1      33.997  24.911  23.965  1.00  0.00    -0.268 OA
ATOM      7  H   UNL A   1      33.259  25.653  26.037  1.00  0.00     0.163 HD
BRANCH   5   8
ATOM      8  C   UNL A   1      32.660  26.572  22.773  1.00  0.00     0.175 C 
ATOM      9  C   UNL A   1      33.205  27.999  22.616  1.00  0.00     0.080 C 
ATOM     10  C   UNL A   1      31.130  26.677  22.680  1.00  0.00     0.094 C 
ATOM     11  C   UNL A   1      32.036  28.946  22.868  1.00  0.00     0.022 C 
ATOM     12  C   UNL A   1      30.799  28.163  22.437  1.00  0.00     0.059 C 
BRANCH   8  13
ATOM     13  N   UNL A   1      33.140  25.778  21.607  1.00  0.00    -0.345 N 
ATOM     14  H   UNL A   1      32.349  25.542  21.007  1.00  0.00     0.345 HD
ATOM     15  H   UNL A   1      33.583  24.921  21.939  1.00  0.00     0.345 HD
ATOM     16  H   UNL A   1      33.817  26.327  21.077  1.00  0.00     0.345 HD
ENDBRANCH   8  13
BRANCH  12  17
ATOM     17  S   UNL A   1      29.174  28.527  23.181  1.00  0.00    -0.112 SA
BRANCH  17  18
ATOM     18  C   UNL A   1      28.781  30.205  22.867  1.00  0.00     0.060 A 
ATOM     19  C   UNL A   1      28.885  31.287  23.714  1.00  0.00     0.027 A 
ATOM     20  S   UNL A   1      28.315  30.697  21.287  1.00  0.00    -0.137 S 
ATOM     21  C   UNL A   1      28.566  32.520  23.068  1.00  0.00     0.013 A 
ATOM     22  C   UNL A   1      28.255  32.344  21.739  1.00  0.00     0.066 A 
ENDBRANCH  17  18
ENDBRANCH  12  17
ENDBRANCH   5   8
ENDBRANCH   3   4
ENDBRANCH   2   3
ENDBRANCH   1   2
BRANCH   1  23
ATOM     23  C   UNL A   1      31.408  30.490  26.101  1.00  0.00     0.002 C 
BRANCH  23  24
ATOM     24  C   UNL A   1      31.345  31.958  26.537  1.00  0.00     0.021 C 
BRANCH  24  25
ATOM     25  C   UNL A   1      32.674  32.605  26.914  1.00  0.00     0.116 C 
BRANCH  25  26
ATOM     26  N   UNL A   1      32.510  33.915  27.515  1.00  0.00    -0.352 N 
ATOM     27  C   UNL A   1      33.165  34.498  28.567  1.00  0.00     0.251 C 
ATOM     28  H   UNL A   1      31.815  34.476  27.100  1.00  0.00     0.163 HD
ATOM     29  O   UNL A   1      32.769  35.583  28.995  1.00  0.00    -0.269 OA
BRANCH  27  30
ATOM     30  C   UNL A   1      34.323  33.843  29.215  1.00  0.00     0.039 A 
ATOM     31  C   UNL A   1      35.605  34.277  28.861  1.00  0.00     0.014 A 
ATOM     32  C   UNL A   1      34.177  32.776  30.107  1.00  0.00     0.014 A 
ATOM     33  C   UNL A   1      36.732  33.671  29.420  1.00  0.00     0.010 A 
ATOM     34  C   UNL A   1      35.300  32.210  30.714  1.00  0.00     0.010 A 
ATOM     35  C   UNL A   1      36.589  32.644  30.367  1.00  0.00    -0.014 A 
BRANCH  35  36
ATOM     36  C   UNL A   1      37.789  32.019  30.981  1.00  0.00     0.031 A 
ATOM     37  C   UNL A   1      38.239  32.414  32.359  1.00  0.00     0.074 A 
ATOM     38  C   UNL A   1      38.487  31.102  30.284  1.00  0.00     0.049 A 
ATOM     39  N   UNL A   1      39.250  31.964  33.062  1.00  0.00    -0.248 NA
ATOM     40  C   UNL A   1      37.463  33.467  33.033  1.00  0.00     0.031 C 
ATOM     41  C   UNL A   1      38.181  30.667  28.920  1.00  0.00     0.029 A 
ATOM     42  N   UNL A   1      39.597  30.370  30.626  1.00  0.00    -0.354 N 
ATOM     43  C   UNL A   1      39.237  32.684  34.249  1.00  0.00     0.074 A 
ATOM     44  C   UNL A   1      38.148  33.633  34.156  1.00  0.00     0.031 C 
ATOM     45  C   UNL A   1      39.065  29.726  28.552  1.00  0.00     0.029 A 
ATOM     46  C   UNL A   1      40.011  29.507  29.642  1.00  0.00     0.049 A 
ATOM     47  H   UNL A   1      40.051  30.454  31.495  1.00  0.00     0.167 HD
ATOM     48  C   UNL A   1      40.045  32.551  35.329  1.00  0.00     0.037 A 
ATOM     49  C   UNL A   1      41.036  28.633  29.623  1.00  0.00     0.037 A 
ATOM     50  C   UNL A   1      41.114  31.590  35.432  1.00  0.00     0.049 A 
ATOM     51  C   UNL A   1      41.902  28.487  30.844  1.00  0.00     0.074 A 
ATOM     52  C   UNL A   1      41.953  31.343  36.504  1.00  0.00     0.029 A 
ATOM     53  N   UNL A   1      41.488  30.716  34.422  1.00  0.00    -0.354 N 
ATOM     54  N   UNL A   1      41.836  29.124  31.987  1.00  0.00    -0.248 NA
ATOM     55  C   UNL A   1      42.977  27.488  30.776  1.00  0.00     0.031 C 
ATOM     56  C   UNL A   1      42.860  30.345  36.130  1.00  0.00     0.029 A 
ATOM     57  C   UNL A   1      42.556  29.939  34.841  1.00  0.00     0.049 A 
ATOM     58  H   UNL A   1      41.058  30.657  33.538  1.00  0.00     0.167 HD
ATOM     59  C   UNL A   1      42.838  28.586  32.783  1.00  0.00     0.074 A 
ATOM     60  C   UNL A   1      43.488  27.558  31.996  1.00  0.00     0.031 C 
ATOM     61  C   UNL A   1      43.189  28.915  34.050  1.00  0.00     0.037 A 
BRANCH  48  62
ATOM     62  C   UNL A   1      39.802  33.466  36.493  1.00  0.00     0.064 A 
ATOM     63  C   UNL A   1      40.450  34.707  36.599  1.00  0.00     0.173 A 
ATOM     64  C   UNL A   1      38.883  33.119  37.494  1.00  0.00     0.173 A 
ATOM     65  F   UNL A   1      41.345  35.082  35.674  1.00  0.00    -0.203 F 
ATOM     66  C   UNL A   1      40.206  35.553  37.678  1.00  0.00     0.198 A 
ATOM     67  C   UNL A   1      38.620  33.980  38.558  1.00  0.00     0.198 A 
ATOM     68  F   UNL A   1      38.231  31.948  37.438  1.00  0.00    -0.203 F 
ATOM     69  F   UNL A   1      40.870  36.713  37.782  1.00  0.00    -0.200 F 
ATOM     70  C   UNL A   1      39.287  35.192  38.652  1.00  0.00     0.200 A 
ATOM     71  F   UNL A   1      37.723  33.636  39.491  1.00  0.00    -0.200 F 
ATOM     72  F   UNL A   1      39.049  36.011  39.686  1.00  0.00    -0.200 F 
ENDBRANCH  48  62
BRANCH  49  73
ATOM     73  C   UNL A   1      41.270  27.794  28.419  1.00  0.00     0.064 A 
ATOM     74  C   UNL A   1      42.162  28.206  27.418  1.00  0.00     0.173 A 
ATOM     75  C   UNL A   1      40.610  26.571  28.245  1.00  0.00     0.173 A 
ATOM     76  F   UNL A   1      42.801  29.379  27.534  1.00  0.00    -0.203 F 
ATOM     77  C   UNL A   1      42.369  27.434  26.278  1.00  0.00     0.198 A 
ATOM     78  C   UNL A   1      40.838  25.787  27.115  1.00  0.00     0.198 A 
ATOM     79  F   UNL A   1      39.753  26.130  29.177  1.00  0.00    -0.203 F 
ATOM     80  F   UNL A   1      43.194  27.871  25.317  1.00  0.00    -0.200 F 
ATOM     81  C   UNL A   1      41.711  26.222  26.130  1.00  0.00     0.200 A 
ATOM     82  F   UNL A   1      40.212  24.609  26.983  1.00  0.00    -0.200 F 
ATOM     83  F   UNL A   1      41.913  25.478  25.034  1.00  0.00    -0.200 F 
ENDBRANCH  49  73
BRANCH  61  84
ATOM     84  C   UNL A   1      44.304  28.130  34.676  1.00  0.00     0.064 A 
ATOM     85  C   UNL A   1      45.638  28.560  34.602  1.00  0.00     0.173 A 
ATOM     86  C   UNL A   1      44.034  26.944  35.374  1.00  0.00     0.173 A 
ATOM     87  F   UNL A   1      45.950  29.680  33.932  1.00  0.00    -0.203 F 
ATOM     88  C   UNL A   1      46.662  27.814  35.178  1.00  0.00     0.198 A 
ATOM     89  C   UNL A   1      45.057  26.216  35.973  1.00  0.00     0.198 A 
ATOM     90  F   UNL A   1      42.774  26.494  35.479  1.00  0.00    -0.203 F 
ATOM     91  F   UNL A   1      47.935  28.215  35.049  1.00  0.00    -0.200 F 
ATOM     92  C   UNL A   1      46.372  26.646  35.867  1.00  0.00     0.200 A 
ATOM     93  F   UNL A   1      44.773  25.094  36.647  1.00  0.00    -0.200 F 
ATOM     94  F   UNL A   1      47.359  25.929  36.420  1.00  0.00    -0.200 F 
ENDBRANCH  61  84
ENDBRANCH  35  36
ENDBRANCH  27  30
ENDBRANCH  25  26
ENDBRANCH  24  25
ENDBRANCH  23  24
ENDBRANCH   1  23
TORSDOF 16
ENDMDL
