MODEL 1
REMARK VINA RESULT:     -11.6      0.000      0.000
REMARK SMILES CCc1[nH]nc(-n2cccc2)c1C(=O)NCCCCCCNC(=O)c1ccc(-c2c3nc(c(-c4c(F)c(F)c(F)c(F)c4F)c4ccc([nH]4)c(-c4c(F)c(F)c(F)c(F)c4F)c4nc(c(-c5c(F)c(F)c(F)c(F)c5F)c5ccc2[nH]5)C=C4)C=C3)cc1
REMARK SMILES IDX 19 1 18 2 17 3 16 4 15 5 13 6 14 7 12 9 3 10 4 11 5 12 6 14
REMARK SMILES IDX 2 15 1 16 7 17 8 18 11 19 9 20 10 21 20 22 21 23 22 24 23 25
REMARK SMILES IDX 24 27 25 28 26 29 87 30 27 31 86 32 28 33 29 34 30 35 80 36
REMARK SMILES IDX 31 37 85 38 79 39 81 40 32 41 84 42 78 43 77 44 33 46 65 47
REMARK SMILES IDX 45 48 64 49 46 50 49 51 63 52 82 53 47 54 48 55 62 57 83 58
REMARK SMILES IDX 50 59 34 60 35 61 43 62 36 63 37 64 41 65 44 66 38 67 39 68
REMARK SMILES IDX 42 69 40 70 66 71 67 72 75 73 68 74 69 75 73 76 76 77 70 78
REMARK SMILES IDX 71 79 74 80 72 81 51 82 52 83 60 84 53 85 54 86 58 87 61 88
REMARK SMILES IDX 55 89 56 90 59 91 57 92
REMARK H PARENT 15 8 4 13 22 26 81 45 49 56
REMARK Flexibility Score: inf
ROOT
ATOM      1  C   UNL A   1      33.539  28.159  24.766  1.00  0.00     0.002 C 
ENDROOT
BRANCH   1   2
ATOM      2  C   UNL A   1      33.864  26.704  24.408  1.00  0.00     0.002 C 
BRANCH   2   3
ATOM      3  C   UNL A   1      33.840  25.676  25.539  1.00  0.00     0.021 C 
BRANCH   3   4
ATOM      4  C   UNL A   1      34.970  24.658  25.579  1.00  0.00     0.116 C 
BRANCH   4   5
ATOM      5  N   UNL A   1      35.597  24.352  24.327  1.00  0.00    -0.352 N 
ATOM      6  C   UNL A   1      35.759  23.142  23.694  1.00  0.00     0.256 C 
ATOM      7  O   UNL A   1      36.256  23.209  22.570  1.00  0.00    -0.269 OA
ATOM      8  H   UNL A   1      35.968  25.126  23.847  1.00  0.00     0.163 HD
BRANCH   6   9
ATOM      9  C   UNL A   1      35.394  21.844  24.283  1.00  0.00     0.105 A 
ATOM     10  C   UNL A   1      36.147  20.795  24.841  1.00  0.00     0.050 A 
ATOM     11  N   UNL A   1      35.230  19.900  25.336  1.00  0.00    -0.280 N 
ATOM     12  N   UNL A   1      33.971  20.327  25.307  1.00  0.00    -0.156 NA
ATOM     13  H   UNL A   1      35.484  19.014  25.683  1.00  0.00     0.190 HD
ATOM     14  C   UNL A   1      34.049  21.464  24.611  1.00  0.00     0.171 A 
BRANCH  10  15
ATOM     15  C   UNL A   1      37.611  20.530  25.029  1.00  0.00     0.053 C 
ATOM     16  C   UNL A   1      38.429  21.669  25.625  1.00  0.00     0.011 C 
ENDBRANCH  10  15
BRANCH  14  17
ATOM     17  N   UNL A   1      32.817  22.127  24.322  1.00  0.00    -0.307 N 
ATOM     18  C   UNL A   1      32.196  22.249  23.095  1.00  0.00     0.093 A 
ATOM     19  C   UNL A   1      31.993  22.726  25.260  1.00  0.00     0.093 A 
ATOM     20  C   UNL A   1      31.031  22.968  23.249  1.00  0.00     0.020 A 
ATOM     21  C   UNL A   1      30.922  23.304  24.616  1.00  0.00     0.020 A 
ENDBRANCH  14  17
ENDBRANCH   6   9
ENDBRANCH   4   5
ENDBRANCH   3   4
ENDBRANCH   2   3
ENDBRANCH   1   2
BRANCH   1  22
ATOM     22  C   UNL A   1      33.597  28.552  26.249  1.00  0.00     0.021 C 
BRANCH  22  23
ATOM     23  C   UNL A   1      35.001  28.695  26.827  1.00  0.00     0.116 C 
BRANCH  23  24
ATOM     24  N   UNL A   1      35.328  30.079  27.118  1.00  0.00    -0.352 N 
ATOM     25  C   UNL A   1      36.344  30.596  27.882  1.00  0.00     0.251 C 
ATOM     26  H   UNL A   1      34.734  30.745  26.705  1.00  0.00     0.163 HD
ATOM     27  O   UNL A   1      36.261  31.744  28.298  1.00  0.00    -0.269 OA
BRANCH  25  28
ATOM     28  C   UNL A   1      37.534  29.789  28.220  1.00  0.00     0.039 A 
ATOM     29  C   UNL A   1      38.577  29.731  27.285  1.00  0.00     0.014 A 
ATOM     30  C   UNL A   1      37.588  29.019  29.387  1.00  0.00     0.014 A 
ATOM     31  C   UNL A   1      39.693  28.944  27.543  1.00  0.00     0.010 A 
ATOM     32  C   UNL A   1      38.718  28.268  29.672  1.00  0.00     0.010 A 
ATOM     33  C   UNL A   1      39.767  28.235  28.749  1.00  0.00    -0.014 A 
BRANCH  33  34
ATOM     34  C   UNL A   1      41.025  27.547  29.099  1.00  0.00     0.031 A 
ATOM     35  C   UNL A   1      41.087  26.133  28.485  1.00  0.00     0.074 A 
ATOM     36  C   UNL A   1      41.894  28.264  29.876  1.00  0.00     0.049 A 
ATOM     37  N   UNL A   1      41.797  25.101  28.825  1.00  0.00    -0.248 NA
ATOM     38  C   UNL A   1      40.192  25.798  27.338  1.00  0.00     0.031 C 
ATOM     39  C   UNL A   1      41.659  29.656  30.324  1.00  0.00     0.029 A 
ATOM     40  N   UNL A   1      43.122  28.004  30.451  1.00  0.00    -0.354 N 
ATOM     41  C   UNL A   1      41.593  24.092  27.853  1.00  0.00     0.074 A 
ATOM     42  C   UNL A   1      40.516  24.540  27.027  1.00  0.00     0.031 C 
ATOM     43  C   UNL A   1      42.642  30.076  31.147  1.00  0.00     0.029 A 
ATOM     44  C   UNL A   1      43.617  29.020  31.318  1.00  0.00     0.049 A 
ATOM     45  H   UNL A   1      43.622  27.174  30.274  1.00  0.00     0.167 HD
ATOM     46  C   UNL A   1      42.422  23.013  27.719  1.00  0.00     0.037 A 
ATOM     47  C   UNL A   1      44.705  28.991  32.152  1.00  0.00     0.037 A 
ATOM     48  C   UNL A   1      43.417  23.049  28.734  1.00  0.00     0.049 A 
ATOM     49  C   UNL A   1      45.405  27.746  31.811  1.00  0.00     0.074 A 
ATOM     50  C   UNL A   1      43.352  22.809  30.080  1.00  0.00     0.029 A 
ATOM     51  N   UNL A   1      44.570  23.739  28.449  1.00  0.00    -0.354 N 
ATOM     52  N   UNL A   1      46.072  27.558  30.712  1.00  0.00    -0.248 NA
ATOM     53  C   UNL A   1      45.261  26.587  32.700  1.00  0.00     0.031 C 
ATOM     54  C   UNL A   1      44.207  23.789  30.618  1.00  0.00     0.029 A 
ATOM     55  C   UNL A   1      44.939  24.399  29.592  1.00  0.00     0.049 A 
ATOM     56  H   UNL A   1      45.043  23.757  27.585  1.00  0.00     0.167 HD
ATOM     57  C   UNL A   1      46.113  26.187  30.633  1.00  0.00     0.074 A 
ATOM     58  C   UNL A   1      45.913  25.684  31.974  1.00  0.00     0.031 C 
ATOM     59  C   UNL A   1      45.756  25.582  29.472  1.00  0.00     0.037 A 
BRANCH  46  60
ATOM     60  C   UNL A   1      42.612  21.988  26.634  1.00  0.00     0.064 A 
ATOM     61  C   UNL A   1      42.044  20.701  26.823  1.00  0.00     0.173 A 
ATOM     62  C   UNL A   1      43.603  22.086  25.650  1.00  0.00     0.173 A 
ATOM     63  F   UNL A   1      41.044  20.514  27.700  1.00  0.00    -0.203 F 
ATOM     64  C   UNL A   1      42.549  19.567  26.190  1.00  0.00     0.198 A 
ATOM     65  C   UNL A   1      44.073  20.950  24.980  1.00  0.00     0.198 A 
ATOM     66  F   UNL A   1      44.208  23.252  25.391  1.00  0.00    -0.203 F 
ATOM     67  F   UNL A   1      42.081  18.354  26.518  1.00  0.00    -0.200 F 
ATOM     68  C   UNL A   1      43.580  19.690  25.283  1.00  0.00     0.200 A 
ATOM     69  F   UNL A   1      45.068  21.072  24.089  1.00  0.00    -0.200 F 
ATOM     70  F   UNL A   1      44.123  18.598  24.728  1.00  0.00    -0.200 F 
ENDBRANCH  46  60
BRANCH  47  71
ATOM     71  C   UNL A   1      45.268  29.788  33.312  1.00  0.00     0.064 A 
ATOM     72  C   UNL A   1      46.413  30.593  33.287  1.00  0.00     0.173 A 
ATOM     73  C   UNL A   1      44.543  29.859  34.538  1.00  0.00     0.173 A 
ATOM     74  F   UNL A   1      47.282  30.532  32.275  1.00  0.00    -0.203 F 
ATOM     75  C   UNL A   1      46.718  31.494  34.327  1.00  0.00     0.198 A 
ATOM     76  C   UNL A   1      44.810  30.789  35.543  1.00  0.00     0.198 A 
ATOM     77  F   UNL A   1      43.527  29.028  34.804  1.00  0.00    -0.203 F 
ATOM     78  F   UNL A   1      47.818  32.256  34.245  1.00  0.00    -0.200 F 
ATOM     79  C   UNL A   1      45.889  31.628  35.427  1.00  0.00     0.200 A 
ATOM     80  F   UNL A   1      43.991  30.876  36.602  1.00  0.00    -0.200 F 
ATOM     81  F   UNL A   1      46.135  32.544  36.372  1.00  0.00    -0.200 F 
ENDBRANCH  47  71
BRANCH  59  82
ATOM     82  C   UNL A   1      45.924  26.458  28.242  1.00  0.00     0.064 A 
ATOM     83  C   UNL A   1      47.212  26.846  27.839  1.00  0.00     0.173 A 
ATOM     84  C   UNL A   1      44.860  27.032  27.525  1.00  0.00     0.173 A 
ATOM     85  F   UNL A   1      48.287  26.323  28.448  1.00  0.00    -0.203 F 
ATOM     86  C   UNL A   1      47.418  27.774  26.813  1.00  0.00     0.198 A 
ATOM     87  C   UNL A   1      45.061  27.956  26.495  1.00  0.00     0.198 A 
ATOM     88  F   UNL A   1      43.598  26.708  27.799  1.00  0.00    -0.203 F 
ATOM     89  F   UNL A   1      48.665  28.123  26.470  1.00  0.00    -0.200 F 
ATOM     90  C   UNL A   1      46.342  28.333  26.145  1.00  0.00     0.200 A 
ATOM     91  F   UNL A   1      44.008  28.473  25.842  1.00  0.00    -0.200 F 
ATOM     92  F   UNL A   1      46.540  29.216  25.156  1.00  0.00    -0.200 F 
ENDBRANCH  59  82
ENDBRANCH  33  34
ENDBRANCH  25  28
ENDBRANCH  23  24
ENDBRANCH  22  23
ENDBRANCH   1  22
TORSDOF 15
ENDMDL
MODEL 2
REMARK VINA RESULT:     -11.6      0.943      2.407
REMARK SMILES CCc1[nH]nc(-n2cccc2)c1C(=O)NCCCCCCNC(=O)c1ccc(-c2c3nc(c(-c4c(F)c(F)c(F)c(F)c4F)c4ccc([nH]4)c(-c4c(F)c(F)c(F)c(F)c4F)c4nc(c(-c5c(F)c(F)c(F)c(F)c5F)c5ccc2[nH]5)C=C4)C=C3)cc1
REMARK SMILES IDX 19 1 18 2 17 3 16 4 15 5 13 6 14 7 12 9 3 10 4 11 5 12 6 14
REMARK SMILES IDX 2 15 1 16 7 17 8 18 11 19 9 20 10 21 20 22 21 23 22 24 23 25
REMARK SMILES IDX 24 27 25 28 26 29 87 30 27 31 86 32 28 33 29 34 30 35 80 36
REMARK SMILES IDX 31 37 85 38 79 39 81 40 32 41 84 42 78 43 77 44 33 46 65 47
REMARK SMILES IDX 45 48 64 49 46 50 49 51 63 52 82 53 47 54 48 55 62 57 83 58
REMARK SMILES IDX 50 59 34 60 35 61 43 62 36 63 37 64 41 65 44 66 38 67 39 68
REMARK SMILES IDX 42 69 40 70 66 71 67 72 75 73 68 74 69 75 73 76 76 77 70 78
REMARK SMILES IDX 71 79 74 80 72 81 51 82 52 83 60 84 53 85 54 86 58 87 61 88
REMARK SMILES IDX 55 89 56 90 59 91 57 92
REMARK H PARENT 15 8 4 13 22 26 81 45 49 56
REMARK Flexibility Score: inf
ROOT
ATOM      1  C   UNL A   1      33.184  27.058  25.505  1.00  0.00     0.002 C 
ENDROOT
BRANCH   1   2
ATOM      2  C   UNL A   1      34.027  25.873  25.018  1.00  0.00     0.002 C 
BRANCH   2   3
ATOM      3  C   UNL A   1      33.814  25.398  23.580  1.00  0.00     0.021 C 
BRANCH   3   4
ATOM      4  C   UNL A   1      34.574  24.157  23.137  1.00  0.00     0.116 C 
BRANCH   4   5
ATOM      5  N   UNL A   1      33.784  23.003  22.824  1.00  0.00    -0.352 N 
ATOM      6  C   UNL A   1      33.064  22.175  23.653  1.00  0.00     0.256 C 
ATOM      7  O   UNL A   1      32.398  21.316  23.075  1.00  0.00    -0.269 OA
ATOM      8  H   UNL A   1      33.751  22.768  21.869  1.00  0.00     0.163 HD
BRANCH   6   9
ATOM      9  C   UNL A   1      33.071  22.265  25.121  1.00  0.00     0.105 A 
ATOM     10  C   UNL A   1      32.074  22.547  26.073  1.00  0.00     0.050 A 
ATOM     11  N   UNL A   1      32.665  22.361  27.298  1.00  0.00    -0.280 N 
ATOM     12  N   UNL A   1      33.885  21.835  27.250  1.00  0.00    -0.156 NA
ATOM     13  H   UNL A   1      32.222  22.600  28.145  1.00  0.00     0.190 HD
ATOM     14  C   UNL A   1      34.168  21.839  25.944  1.00  0.00     0.171 A 
BRANCH  10  15
ATOM     15  C   UNL A   1      30.621  22.914  26.002  1.00  0.00     0.053 C 
ATOM     16  C   UNL A   1      29.797  22.635  27.252  1.00  0.00     0.011 C 
ENDBRANCH  10  15
BRANCH  14  17
ATOM     17  N   UNL A   1      35.478  21.410  25.569  1.00  0.00    -0.307 N 
ATOM     18  C   UNL A   1      35.837  20.205  25.000  1.00  0.00     0.093 A 
ATOM     19  C   UNL A   1      36.628  22.176  25.668  1.00  0.00     0.093 A 
ATOM     20  C   UNL A   1      37.201  20.189  24.802  1.00  0.00     0.020 A 
ATOM     21  C   UNL A   1      37.707  21.423  25.262  1.00  0.00     0.020 A 
ENDBRANCH  14  17
ENDBRANCH   6   9
ENDBRANCH   4   5
ENDBRANCH   3   4
ENDBRANCH   2   3
ENDBRANCH   1   2
BRANCH   1  22
ATOM     22  C   UNL A   1      33.878  28.423  25.608  1.00  0.00     0.021 C 
BRANCH  22  23
ATOM     23  C   UNL A   1      34.792  28.596  26.817  1.00  0.00     0.116 C 
BRANCH  23  24
ATOM     24  N   UNL A   1      35.132  29.988  27.046  1.00  0.00    -0.352 N 
ATOM     25  C   UNL A   1      36.163  30.530  27.772  1.00  0.00     0.251 C 
ATOM     26  H   UNL A   1      34.534  30.640  26.615  1.00  0.00     0.163 HD
ATOM     27  O   UNL A   1      36.093  31.695  28.141  1.00  0.00    -0.269 OA
BRANCH  25  28
ATOM     28  C   UNL A   1      37.354  29.730  28.123  1.00  0.00     0.039 A 
ATOM     29  C   UNL A   1      38.411  29.686  27.205  1.00  0.00     0.014 A 
ATOM     30  C   UNL A   1      37.395  28.953  29.286  1.00  0.00     0.014 A 
ATOM     31  C   UNL A   1      39.529  28.906  27.476  1.00  0.00     0.010 A 
ATOM     32  C   UNL A   1      38.526  28.209  29.584  1.00  0.00     0.010 A 
ATOM     33  C   UNL A   1      39.591  28.190  28.678  1.00  0.00    -0.014 A 
BRANCH  33  34
ATOM     34  C   UNL A   1      40.848  27.510  29.044  1.00  0.00     0.031 A 
ATOM     35  C   UNL A   1      40.941  26.109  28.405  1.00  0.00     0.074 A 
ATOM     36  C   UNL A   1      41.691  28.222  29.854  1.00  0.00     0.049 A 
ATOM     37  N   UNL A   1      41.654  25.079  28.742  1.00  0.00    -0.248 NA
ATOM     38  C   UNL A   1      40.076  25.785  27.232  1.00  0.00     0.031 C 
ATOM     39  C   UNL A   1      41.430  29.603  30.321  1.00  0.00     0.029 A 
ATOM     40  N   UNL A   1      42.909  27.965  30.451  1.00  0.00    -0.354 N 
ATOM     41  C   UNL A   1      41.484  24.086  27.747  1.00  0.00     0.074 A 
ATOM     42  C   UNL A   1      40.421  24.537  26.905  1.00  0.00     0.031 C 
ATOM     43  C   UNL A   1      42.389  30.018  31.174  1.00  0.00     0.029 A 
ATOM     44  C   UNL A   1      43.372  28.970  31.348  1.00  0.00     0.049 A 
ATOM     45  H   UNL A   1      43.423  27.144  30.270  1.00  0.00     0.167 HD
ATOM     46  C   UNL A   1      42.328  23.019  27.612  1.00  0.00     0.037 A 
ATOM     47  C   UNL A   1      44.441  28.938  32.206  1.00  0.00     0.037 A 
ATOM     48  C   UNL A   1      43.300  23.047  28.650  1.00  0.00     0.049 A 
ATOM     49  C   UNL A   1      45.164  27.707  31.858  1.00  0.00     0.074 A 
ATOM     50  C   UNL A   1      43.208  22.781  29.989  1.00  0.00     0.029 A 
ATOM     51  N   UNL A   1      44.451  23.755  28.404  1.00  0.00    -0.354 N 
ATOM     52  N   UNL A   1      45.857  27.548  30.771  1.00  0.00    -0.248 NA
ATOM     53  C   UNL A   1      45.013  26.531  32.721  1.00  0.00     0.031 C 
ATOM     54  C   UNL A   1      44.038  23.760  30.564  1.00  0.00     0.029 A 
ATOM     55  C   UNL A   1      44.786  24.398  29.567  1.00  0.00     0.049 A 
ATOM     56  H   UNL A   1      44.943  23.794  27.551  1.00  0.00     0.167 HD
ATOM     57  C   UNL A   1      45.916  26.179  30.667  1.00  0.00     0.074 A 
ATOM     58  C   UNL A   1      45.692  25.649  31.993  1.00  0.00     0.031 C 
ATOM     59  C   UNL A   1      45.592  25.592  29.487  1.00  0.00     0.037 A 
BRANCH  46  60
ATOM     60  C   UNL A   1      42.555  22.017  26.512  1.00  0.00     0.064 A 
ATOM     61  C   UNL A   1      41.928  20.748  26.625  1.00  0.00     0.173 A 
ATOM     62  C   UNL A   1      43.615  22.102  25.602  1.00  0.00     0.173 A 
ATOM     63  F   UNL A   1      40.863  20.577  27.425  1.00  0.00    -0.203 F 
ATOM     64  C   UNL A   1      42.432  19.613  25.994  1.00  0.00     0.198 A 
ATOM     65  C   UNL A   1      44.087  20.966  24.932  1.00  0.00     0.198 A 
ATOM     66  F   UNL A   1      44.279  23.250  25.419  1.00  0.00    -0.203 F 
ATOM     67  F   UNL A   1      41.898  18.410  26.254  1.00  0.00    -0.200 F 
ATOM     68  C   UNL A   1      43.528  19.720  25.163  1.00  0.00     0.200 A 
ATOM     69  F   UNL A   1      45.145  21.074  24.115  1.00  0.00    -0.200 F 
ATOM     70  F   UNL A   1      44.067  18.623  24.615  1.00  0.00    -0.200 F 
ENDBRANCH  46  60
BRANCH  47  71
ATOM     71  C   UNL A   1      44.969  29.719  33.393  1.00  0.00     0.064 A 
ATOM     72  C   UNL A   1      44.495  29.652  34.708  1.00  0.00     0.173 A 
ATOM     73  C   UNL A   1      46.135  30.528  33.243  1.00  0.00     0.173 A 
ATOM     74  F   UNL A   1      43.333  29.061  34.997  1.00  0.00    -0.203 F 
ATOM     75  C   UNL A   1      45.203  30.214  35.789  1.00  0.00     0.198 A 
ATOM     76  C   UNL A   1      46.868  31.036  34.316  1.00  0.00     0.198 A 
ATOM     77  F   UNL A   1      46.620  30.847  32.036  1.00  0.00    -0.203 F 
ATOM     78  F   UNL A   1      44.714  30.105  37.032  1.00  0.00    -0.200 F 
ATOM     79  C   UNL A   1      46.413  30.859  35.598  1.00  0.00     0.200 A 
ATOM     80  F   UNL A   1      48.027  31.670  34.086  1.00  0.00    -0.200 F 
ATOM     81  F   UNL A   1      47.125  31.316  36.635  1.00  0.00    -0.200 F 
ENDBRANCH  47  71
BRANCH  59  82
ATOM     82  C   UNL A   1      45.777  26.493  28.278  1.00  0.00     0.064 A 
ATOM     83  C   UNL A   1      47.061  26.961  27.954  1.00  0.00     0.173 A 
ATOM     84  C   UNL A   1      44.724  27.012  27.507  1.00  0.00     0.173 A 
ATOM     85  F   UNL A   1      48.129  26.495  28.619  1.00  0.00    -0.203 F 
ATOM     86  C   UNL A   1      47.270  27.913  26.951  1.00  0.00     0.198 A 
ATOM     87  C   UNL A   1      44.928  27.961  26.499  1.00  0.00     0.198 A 
ATOM     88  F   UNL A   1      43.470  26.612  27.705  1.00  0.00    -0.203 F 
ATOM     89  F   UNL A   1      48.511  28.340  26.684  1.00  0.00    -0.200 F 
ATOM     90  C   UNL A   1      46.202  28.417  26.228  1.00  0.00     0.200 A 
ATOM     91  F   UNL A   1      43.885  28.424  25.792  1.00  0.00    -0.200 F 
ATOM     92  F   UNL A   1      46.403  29.323  25.261  1.00  0.00    -0.200 F 
ENDBRANCH  59  82
ENDBRANCH  33  34
ENDBRANCH  25  28
ENDBRANCH  23  24
ENDBRANCH  22  23
ENDBRANCH   1  22
TORSDOF 15
ENDMDL
MODEL 3
REMARK VINA RESULT:     -11.3      0.967      2.113
REMARK SMILES CCc1[nH]nc(-n2cccc2)c1C(=O)NCCCCCCNC(=O)c1ccc(-c2c3nc(c(-c4c(F)c(F)c(F)c(F)c4F)c4ccc([nH]4)c(-c4c(F)c(F)c(F)c(F)c4F)c4nc(c(-c5c(F)c(F)c(F)c(F)c5F)c5ccc2[nH]5)C=C4)C=C3)cc1
REMARK SMILES IDX 19 1 18 2 17 3 16 4 15 5 13 6 14 7 12 9 3 10 4 11 5 12 6 14
REMARK SMILES IDX 2 15 1 16 7 17 8 18 11 19 9 20 10 21 20 22 21 23 22 24 23 25
REMARK SMILES IDX 24 27 25 28 26 29 87 30 27 31 86 32 28 33 29 34 30 35 80 36
REMARK SMILES IDX 31 37 85 38 79 39 81 40 32 41 84 42 78 43 77 44 33 46 65 47
REMARK SMILES IDX 45 48 64 49 46 50 49 51 63 52 82 53 47 54 48 55 62 57 83 58
REMARK SMILES IDX 50 59 34 60 35 61 43 62 36 63 37 64 41 65 44 66 38 67 39 68
REMARK SMILES IDX 42 69 40 70 66 71 67 72 75 73 68 74 69 75 73 76 76 77 70 78
REMARK SMILES IDX 71 79 74 80 72 81 51 82 52 83 60 84 53 85 54 86 58 87 61 88
REMARK SMILES IDX 55 89 56 90 59 91 57 92
REMARK H PARENT 15 8 4 13 22 26 81 45 49 56
REMARK Flexibility Score: inf
ROOT
ATOM      1  C   UNL A   1      32.850  28.599  25.210  1.00  0.00     0.002 C 
ENDROOT
BRANCH   1   2
ATOM      2  C   UNL A   1      33.771  28.121  24.082  1.00  0.00     0.002 C 
BRANCH   2   3
ATOM      3  C   UNL A   1      33.376  26.844  23.341  1.00  0.00     0.021 C 
BRANCH   3   4
ATOM      4  C   UNL A   1      34.105  25.564  23.722  1.00  0.00     0.116 C 
BRANCH   4   5
ATOM      5  N   UNL A   1      33.935  24.446  22.841  1.00  0.00    -0.352 N 
ATOM      6  C   UNL A   1      33.031  23.412  22.891  1.00  0.00     0.256 C 
ATOM      7  O   UNL A   1      33.065  22.647  21.927  1.00  0.00    -0.269 OA
ATOM      8  H   UNL A   1      34.562  24.416  22.083  1.00  0.00     0.163 HD
BRANCH   6   9
ATOM      9  C   UNL A   1      32.087  23.192  23.998  1.00  0.00     0.105 A 
ATOM     10  C   UNL A   1      30.954  23.892  24.450  1.00  0.00     0.050 A 
ATOM     11  N   UNL A   1      30.417  23.124  25.454  1.00  0.00    -0.280 N 
ATOM     12  N   UNL A   1      30.978  21.927  25.594  1.00  0.00    -0.156 NA
ATOM     13  H   UNL A   1      29.676  23.434  26.024  1.00  0.00     0.190 HD
ATOM     14  C   UNL A   1      32.030  21.984  24.773  1.00  0.00     0.171 A 
BRANCH  10  15
ATOM     15  C   UNL A   1      30.263  25.159  24.041  1.00  0.00     0.053 C 
ATOM     16  C   UNL A   1      29.785  26.059  25.174  1.00  0.00     0.011 C 
ENDBRANCH  10  15
BRANCH  14  17
ATOM     17  N   UNL A   1      32.907  20.856  24.772  1.00  0.00    -0.307 N 
ATOM     18  C   UNL A   1      34.285  20.864  24.852  1.00  0.00     0.093 A 
ATOM     19  C   UNL A   1      32.504  19.531  24.742  1.00  0.00     0.093 A 
ATOM     20  C   UNL A   1      34.745  19.565  24.811  1.00  0.00     0.020 A 
ATOM     21  C   UNL A   1      33.618  18.722  24.702  1.00  0.00     0.020 A 
ENDBRANCH  14  17
ENDBRANCH   6   9
ENDBRANCH   4   5
ENDBRANCH   3   4
ENDBRANCH   2   3
ENDBRANCH   1   2
BRANCH   1  22
ATOM     22  C   UNL A   1      33.341  28.408  26.652  1.00  0.00     0.021 C 
BRANCH  22  23
ATOM     23  C   UNL A   1      34.839  28.607  26.858  1.00  0.00     0.116 C 
BRANCH  23  24
ATOM     24  N   UNL A   1      35.175  30.002  27.079  1.00  0.00    -0.352 N 
ATOM     25  C   UNL A   1      36.208  30.551  27.796  1.00  0.00     0.251 C 
ATOM     26  H   UNL A   1      34.572  30.650  26.649  1.00  0.00     0.163 HD
ATOM     27  O   UNL A   1      36.136  31.717  28.160  1.00  0.00    -0.269 OA
BRANCH  25  28
ATOM     28  C   UNL A   1      37.405  29.756  28.143  1.00  0.00     0.039 A 
ATOM     29  C   UNL A   1      38.460  29.719  27.222  1.00  0.00     0.014 A 
ATOM     30  C   UNL A   1      37.453  28.980  29.305  1.00  0.00     0.014 A 
ATOM     31  C   UNL A   1      39.582  28.944  27.489  1.00  0.00     0.010 A 
ATOM     32  C   UNL A   1      38.589  28.242  29.600  1.00  0.00     0.010 A 
ATOM     33  C   UNL A   1      39.651  28.228  28.690  1.00  0.00    -0.014 A 
BRANCH  33  34
ATOM     34  C   UNL A   1      40.913  27.554  29.052  1.00  0.00     0.031 A 
ATOM     35  C   UNL A   1      40.993  26.138  28.445  1.00  0.00     0.074 A 
ATOM     36  C   UNL A   1      41.769  28.283  29.832  1.00  0.00     0.049 A 
ATOM     37  N   UNL A   1      41.710  25.115  28.795  1.00  0.00    -0.248 NA
ATOM     38  C   UNL A   1      40.109  25.789  27.294  1.00  0.00     0.031 C 
ATOM     39  C   UNL A   1      41.518  29.675  30.271  1.00  0.00     0.029 A 
ATOM     40  N   UNL A   1      42.996  28.038  30.416  1.00  0.00    -0.354 N 
ATOM     41  C   UNL A   1      41.523  24.099  27.827  1.00  0.00     0.074 A 
ATOM     42  C   UNL A   1      40.447  24.533  26.991  1.00  0.00     0.031 C 
ATOM     43  C   UNL A   1      42.491  30.108  31.099  1.00  0.00     0.029 A 
ATOM     44  C   UNL A   1      43.475  29.063  31.281  1.00  0.00     0.049 A 
ATOM     45  H   UNL A   1      43.506  27.212  30.246  1.00  0.00     0.167 HD
ATOM     46  C   UNL A   1      42.363  23.028  27.703  1.00  0.00     0.037 A 
ATOM     47  C   UNL A   1      44.558  29.048  32.123  1.00  0.00     0.037 A 
ATOM     48  C   UNL A   1      43.351  23.078  28.724  1.00  0.00     0.049 A 
ATOM     49  C   UNL A   1      45.273  27.808  31.792  1.00  0.00     0.074 A 
ATOM     50  C   UNL A   1      43.279  22.844  30.071  1.00  0.00     0.029 A 
ATOM     51  N   UNL A   1      44.499  23.778  28.444  1.00  0.00    -0.354 N 
ATOM     52  N   UNL A   1      45.948  27.622  30.699  1.00  0.00    -0.248 NA
ATOM     53  C   UNL A   1      45.134  26.653  32.686  1.00  0.00     0.031 C 
ATOM     54  C   UNL A   1      44.121  23.835  30.610  1.00  0.00     0.029 A 
ATOM     55  C   UNL A   1      44.854  24.447  29.586  1.00  0.00     0.049 A 
ATOM     56  H   UNL A   1      44.978  23.796  27.583  1.00  0.00     0.167 HD
ATOM     57  C   UNL A   1      46.004  26.252  30.626  1.00  0.00     0.074 A 
ATOM     58  C   UNL A   1      45.799  25.753  31.968  1.00  0.00     0.031 C 
ATOM     59  C   UNL A   1      45.660  25.637  29.466  1.00  0.00     0.037 A 
BRANCH  46  60
ATOM     60  C   UNL A   1      42.570  22.000  26.624  1.00  0.00     0.064 A 
ATOM     61  C   UNL A   1      42.086  20.685  26.851  1.00  0.00     0.173 A 
ATOM     62  C   UNL A   1      43.516  22.140  25.601  1.00  0.00     0.173 A 
ATOM     63  F   UNL A   1      41.133  20.453  27.768  1.00  0.00    -0.203 F 
ATOM     64  C   UNL A   1      42.631  19.573  26.213  1.00  0.00     0.198 A 
ATOM     65  C   UNL A   1      44.024  21.023  24.926  1.00  0.00     0.198 A 
ATOM     66  F   UNL A   1      44.041  23.335  25.304  1.00  0.00    -0.203 F 
ATOM     67  F   UNL A   1      42.247  18.339  26.574  1.00  0.00    -0.200 F 
ATOM     68  C   UNL A   1      43.617  19.742  25.264  1.00  0.00     0.200 A 
ATOM     69  F   UNL A   1      44.975  21.189  23.996  1.00  0.00    -0.200 F 
ATOM     70  F   UNL A   1      44.201  18.675  24.702  1.00  0.00    -0.200 F 
ENDBRANCH  46  60
BRANCH  47  71
ATOM     71  C   UNL A   1      45.106  29.856  33.282  1.00  0.00     0.064 A 
ATOM     72  C   UNL A   1      46.332  30.531  33.319  1.00  0.00     0.173 A 
ATOM     73  C   UNL A   1      44.290  30.087  34.430  1.00  0.00     0.173 A 
ATOM     74  F   UNL A   1      47.273  30.309  32.397  1.00  0.00    -0.203 F 
ATOM     75  C   UNL A   1      46.646  31.461  34.329  1.00  0.00     0.198 A 
ATOM     76  C   UNL A   1      44.573  31.048  35.400  1.00  0.00     0.198 A 
ATOM     77  F   UNL A   1      43.167  29.389  34.648  1.00  0.00    -0.203 F 
ATOM     78  F   UNL A   1      47.828  32.093  34.306  1.00  0.00    -0.200 F 
ATOM     79  C   UNL A   1      45.746  31.756  35.338  1.00  0.00     0.200 A 
ATOM     80  F   UNL A   1      43.681  31.293  36.372  1.00  0.00    -0.200 F 
ATOM     81  F   UNL A   1      46.011  32.703  36.247  1.00  0.00    -0.200 F 
ENDBRANCH  47  71
BRANCH  59  82
ATOM     82  C   UNL A   1      45.827  26.509  28.233  1.00  0.00     0.064 A 
ATOM     83  C   UNL A   1      47.110  26.947  27.863  1.00  0.00     0.173 A 
ATOM     84  C   UNL A   1      44.762  27.032  27.480  1.00  0.00     0.173 A 
ATOM     85  F   UNL A   1      48.188  26.474  28.508  1.00  0.00    -0.203 F 
ATOM     86  C   UNL A   1      47.308  27.874  26.835  1.00  0.00     0.198 A 
ATOM     87  C   UNL A   1      44.955  27.956  26.447  1.00  0.00     0.198 A 
ATOM     88  F   UNL A   1      43.508  26.660  27.721  1.00  0.00    -0.203 F 
ATOM     89  F   UNL A   1      48.549  28.271  26.525  1.00  0.00    -0.200 F 
ATOM     90  C   UNL A   1      46.229  28.382  26.131  1.00  0.00     0.200 A 
ATOM     91  F   UNL A   1      43.901  28.423  25.759  1.00  0.00    -0.200 F 
ATOM     92  F   UNL A   1      46.419  29.264  25.139  1.00  0.00    -0.200 F 
ENDBRANCH  59  82
ENDBRANCH  33  34
ENDBRANCH  25  28
ENDBRANCH  23  24
ENDBRANCH  22  23
ENDBRANCH   1  22
TORSDOF 15
ENDMDL
