MODEL 1
REMARK VINA RESULT:     -12.1      0.000      0.000
REMARK SMILES COc1ccc(S(=O)(=O)N[C@@H](CO)C(=O)NCCCCCCNC(=O)c2ccc(-c3c4nc(c(-c5c(F)c(F)c(F)c(F)c5F)c5ccc([nH]5)c(-c5c(F)c(F)c(F)c(F)c5F)c5nc(c(-c6c(F)c(F)c(F)c(F)c6F)c6ccc3[nH]6)C=C5)C=C4)cc2)cc1C
REMARK SMILES IDX 18 1 17 2 16 3 14 4 15 5 11 7 10 8 7 10 8 11 9 12 6 13 3 14
REMARK SMILES IDX 4 15 90 16 5 17 89 18 91 19 2 20 1 21 12 22 13 23 19 25
REMARK SMILES IDX 20 26 21 27 22 28 23 29 24 30 25 32 26 33 27 34 88 35 28 36
REMARK SMILES IDX 87 37 29 38 30 39 31 40 81 41 32 42 86 43 80 44 82 45 33 46
REMARK SMILES IDX 85 47 79 48 78 49 34 51 66 52 46 53 65 54 47 55 50 56 64 57
REMARK SMILES IDX 83 58 48 59 49 60 63 62 84 63 51 64 35 65 36 66 44 67 37 68
REMARK SMILES IDX 38 69 42 70 45 71 39 72 40 73 43 74 41 75 67 76 68 77 76 78
REMARK SMILES IDX 69 79 70 80 74 81 77 82 71 83 72 84 75 85 73 86 52 87 53 88
REMARK SMILES IDX 61 89 54 90 55 91 59 92 62 93 56 94 57 95 60 96 58 97
REMARK H PARENT 16 6 10 9 13 24 23 31 82 50 50 61
REMARK Flexibility Score: inf
ROOT
ATOM      1  C   UNL A   1      35.236  20.343  24.901  1.00  0.00     0.021 C 
ENDROOT
BRANCH   1   2
ATOM      2  C   UNL A   1      33.786  20.535  25.344  1.00  0.00     0.116 C 
BRANCH   2   3
ATOM      3  N   UNL A   1      32.882  20.751  24.232  1.00  0.00    -0.355 N 
ATOM      4  C   UNL A   1      32.254  21.901  23.848  1.00  0.00     0.240 C 
ATOM      5  O   UNL A   1      31.657  21.896  22.766  1.00  0.00    -0.273 OA
ATOM      6  H   UNL A   1      32.693  19.959  23.678  1.00  0.00     0.163 HD
BRANCH   4   7
ATOM      7  C   UNL A   1      32.225  23.146  24.748  1.00  0.00     0.184 C 
BRANCH   7   8
ATOM      8  N   UNL A   1      32.358  24.345  23.895  1.00  0.00    -0.196 NA
ATOM      9  H   UNL A   1      32.100  24.044  22.955  1.00  0.00     0.142 HD
BRANCH   8  10
ATOM     10  S   UNL A   1      33.755  25.218  23.715  1.00  0.00     0.241 S 
ATOM     11  O   UNL A   1      33.896  25.483  22.301  1.00  0.00    -0.207 OA
ATOM     12  O   UNL A   1      34.766  24.506  24.464  1.00  0.00    -0.207 OA
BRANCH  10  13
ATOM     13  C   UNL A   1      33.464  26.754  24.545  1.00  0.00     0.083 A 
ATOM     14  C   UNL A   1      32.764  29.197  25.694  1.00  0.00     0.121 A 
ATOM     15  C   UNL A   1      33.460  29.158  24.479  1.00  0.00     0.048 A 
ATOM     16  C   UNL A   1      32.398  28.006  26.340  1.00  0.00    -0.008 A 
ATOM     17  C   UNL A   1      33.798  27.939  23.892  1.00  0.00     0.025 A 
ATOM     18  C   UNL A   1      32.818  26.786  25.785  1.00  0.00     0.029 A 
ATOM     19  C   UNL A   1      31.533  27.964  27.566  1.00  0.00     0.048 C 
BRANCH  14  20
ATOM     20  O   UNL A   1      32.384  30.447  26.104  1.00  0.00    -0.496 OA
ATOM     21  C   UNL A   1      33.232  31.022  27.094  1.00  0.00     0.278 C 
ENDBRANCH  14  20
ENDBRANCH  10  13
ENDBRANCH   8  10
ENDBRANCH   7   8
BRANCH   7  22
ATOM     22  C   UNL A   1      31.038  23.128  25.718  1.00  0.00     0.186 C 
BRANCH  22  23
ATOM     23  O   UNL A   1      30.618  21.823  26.099  1.00  0.00    -0.394 OA
ATOM     24  H   UNL A   1      31.022  21.588  26.951  1.00  0.00     0.210 HD
ENDBRANCH  22  23
ENDBRANCH   7  22
ENDBRANCH   4   7
ENDBRANCH   2   3
ENDBRANCH   1   2
BRANCH   1  25
ATOM     25  C   UNL A   1      36.193  21.505  25.193  1.00  0.00     0.002 C 
BRANCH  25  26
ATOM     26  C   UNL A   1      37.639  21.348  24.702  1.00  0.00     0.002 C 
BRANCH  26  27
ATOM     27  C   UNL A   1      38.730  21.437  25.769  1.00  0.00     0.021 C 
BRANCH  27  28
ATOM     28  C   UNL A   1      39.032  22.845  26.259  1.00  0.00     0.116 C 
BRANCH  28  29
ATOM     29  N   UNL A   1      40.353  22.982  26.867  1.00  0.00    -0.352 N 
ATOM     30  C   UNL A   1      40.973  24.113  27.368  1.00  0.00     0.251 C 
ATOM     31  H   UNL A   1      40.877  22.152  26.928  1.00  0.00     0.163 HD
ATOM     32  O   UNL A   1      42.108  24.056  27.827  1.00  0.00    -0.269 OA
BRANCH  30  33
ATOM     33  C   UNL A   1      40.184  25.358  27.499  1.00  0.00     0.039 A 
ATOM     34  C   UNL A   1      40.589  26.451  26.724  1.00  0.00     0.014 A 
ATOM     35  C   UNL A   1      39.308  25.527  28.566  1.00  0.00     0.014 A 
ATOM     36  C   UNL A   1      40.370  27.734  27.207  1.00  0.00     0.010 A 
ATOM     37  C   UNL A   1      39.184  26.788  29.105  1.00  0.00     0.010 A 
ATOM     38  C   UNL A   1      39.797  27.873  28.468  1.00  0.00    -0.014 A 
BRANCH  38  39
ATOM     39  C   UNL A   1      39.883  29.097  29.248  1.00  0.00     0.031 A 
ATOM     40  C   UNL A   1      38.865  30.144  29.066  1.00  0.00     0.074 A 
ATOM     41  C   UNL A   1      40.846  29.207  30.189  1.00  0.00     0.049 A 
ATOM     42  N   UNL A   1      39.004  31.370  29.435  1.00  0.00    -0.248 NA
ATOM     43  C   UNL A   1      37.615  29.892  28.362  1.00  0.00     0.031 C 
ATOM     44  C   UNL A   1      40.936  30.188  31.266  1.00  0.00     0.029 A 
ATOM     45  N   UNL A   1      42.078  28.533  30.227  1.00  0.00    -0.354 N 
ATOM     46  C   UNL A   1      37.790  32.001  29.268  1.00  0.00     0.074 A 
ATOM     47  C   UNL A   1      37.002  31.071  28.500  1.00  0.00     0.031 C 
ATOM     48  C   UNL A   1      42.214  30.268  31.673  1.00  0.00     0.029 A 
ATOM     49  C   UNL A   1      43.001  29.466  30.752  1.00  0.00     0.049 A 
ATOM     50  H   UNL A   1      42.261  27.606  29.947  1.00  0.00     0.167 HD
ATOM     51  C   UNL A   1      37.580  33.181  29.923  1.00  0.00     0.037 A 
ATOM     52  C   UNL A   1      44.034  29.944  29.999  1.00  0.00     0.037 A 
ATOM     53  C   UNL A   1      38.836  33.668  30.502  1.00  0.00     0.049 A 
ATOM     54  C   UNL A   1      44.020  31.445  29.835  1.00  0.00     0.074 A 
ATOM     55  C   UNL A   1      39.372  33.604  31.777  1.00  0.00     0.029 A 
ATOM     56  N   UNL A   1      39.877  34.037  29.654  1.00  0.00    -0.354 N 
ATOM     57  N   UNL A   1      42.949  32.179  29.952  1.00  0.00    -0.248 NA
ATOM     58  C   UNL A   1      45.205  32.227  29.496  1.00  0.00     0.031 C 
ATOM     59  C   UNL A   1      40.764  33.866  31.680  1.00  0.00     0.029 A 
ATOM     60  C   UNL A   1      41.067  34.121  30.352  1.00  0.00     0.049 A 
ATOM     61  H   UNL A   1      39.781  34.212  28.690  1.00  0.00     0.167 HD
ATOM     62  C   UNL A   1      43.263  33.486  29.687  1.00  0.00     0.074 A 
ATOM     63  C   UNL A   1      44.691  33.468  29.432  1.00  0.00     0.031 C 
ATOM     64  C   UNL A   1      42.312  34.469  29.681  1.00  0.00     0.037 A 
BRANCH  51  65
ATOM     65  C   UNL A   1      36.218  33.759  30.289  1.00  0.00     0.064 A 
ATOM     66  C   UNL A   1      35.343  34.209  29.270  1.00  0.00     0.173 A 
ATOM     67  C   UNL A   1      35.742  33.998  31.593  1.00  0.00     0.173 A 
ATOM     68  F   UNL A   1      35.603  33.985  27.975  1.00  0.00    -0.203 F 
ATOM     69  C   UNL A   1      34.163  34.915  29.538  1.00  0.00     0.198 A 
ATOM     70  C   UNL A   1      34.575  34.721  31.862  1.00  0.00     0.198 A 
ATOM     71  F   UNL A   1      36.349  33.513  32.675  1.00  0.00    -0.203 F 
ATOM     72  F   UNL A   1      33.395  35.335  28.524  1.00  0.00    -0.200 F 
ATOM     73  C   UNL A   1      33.792  35.193  30.835  1.00  0.00     0.200 A 
ATOM     74  F   UNL A   1      34.223  34.955  33.135  1.00  0.00    -0.200 F 
ATOM     75  F   UNL A   1      32.679  35.892  31.096  1.00  0.00    -0.200 F 
ENDBRANCH  51  65
BRANCH  52  76
ATOM     76  C   UNL A   1      44.485  28.987  28.950  1.00  0.00     0.064 A 
ATOM     77  C   UNL A   1      45.176  27.826  29.352  1.00  0.00     0.173 A 
ATOM     78  C   UNL A   1      43.929  28.995  27.666  1.00  0.00     0.173 A 
ATOM     79  F   UNL A   1      45.732  27.767  30.574  1.00  0.00    -0.203 F 
ATOM     80  C   UNL A   1      45.187  26.680  28.561  1.00  0.00     0.198 A 
ATOM     81  C   UNL A   1      43.963  27.851  26.867  1.00  0.00     0.198 A 
ATOM     82  F   UNL A   1      43.253  30.065  27.225  1.00  0.00    -0.203 F 
ATOM     83  F   UNL A   1      45.741  25.551  29.030  1.00  0.00    -0.200 F 
ATOM     84  C   UNL A   1      44.557  26.685  27.330  1.00  0.00     0.200 A 
ATOM     85  F   UNL A   1      43.327  27.844  25.686  1.00  0.00    -0.200 F 
ATOM     86  F   UNL A   1      44.478  25.557  26.610  1.00  0.00    -0.200 F 
ENDBRANCH  52  76
BRANCH  64  87
ATOM     87  C   UNL A   1      42.488  35.868  29.131  1.00  0.00     0.064 A 
ATOM     88  C   UNL A   1      41.825  36.355  27.991  1.00  0.00     0.173 A 
ATOM     89  C   UNL A   1      43.243  36.830  29.846  1.00  0.00     0.173 A 
ATOM     90  F   UNL A   1      40.969  35.593  27.299  1.00  0.00    -0.203 F 
ATOM     91  C   UNL A   1      41.968  37.677  27.557  1.00  0.00     0.198 A 
ATOM     92  C   UNL A   1      43.330  38.163  29.447  1.00  0.00     0.198 A 
ATOM     93  F   UNL A   1      43.895  36.514  30.975  1.00  0.00    -0.203 F 
ATOM     94  F   UNL A   1      41.354  38.075  26.434  1.00  0.00    -0.200 F 
ATOM     95  C   UNL A   1      42.711  38.583  28.290  1.00  0.00     0.200 A 
ATOM     96  F   UNL A   1      44.002  39.043  30.204  1.00  0.00    -0.200 F 
ATOM     97  F   UNL A   1      42.805  39.859  27.896  1.00  0.00    -0.200 F 
ENDBRANCH  64  87
ENDBRANCH  38  39
ENDBRANCH  30  33
ENDBRANCH  28  29
ENDBRANCH  27  28
ENDBRANCH  26  27
ENDBRANCH  25  26
ENDBRANCH   1  25
TORSDOF 19
ENDMDL
MODEL 2
REMARK VINA RESULT:     -12.0      3.794      9.945
REMARK SMILES COc1ccc(S(=O)(=O)N[C@@H](CO)C(=O)NCCCCCCNC(=O)c2ccc(-c3c4nc(c(-c5c(F)c(F)c(F)c(F)c5F)c5ccc([nH]5)c(-c5c(F)c(F)c(F)c(F)c5F)c5nc(c(-c6c(F)c(F)c(F)c(F)c6F)c6ccc3[nH]6)C=C5)C=C4)cc2)cc1C
REMARK SMILES IDX 18 1 17 2 16 3 14 4 15 5 11 7 10 8 7 10 8 11 9 12 6 13 3 14
REMARK SMILES IDX 4 15 90 16 5 17 89 18 91 19 2 20 1 21 12 22 13 23 19 25
REMARK SMILES IDX 20 26 21 27 22 28 23 29 24 30 25 32 26 33 27 34 88 35 28 36
REMARK SMILES IDX 87 37 29 38 30 39 31 40 81 41 32 42 86 43 80 44 82 45 33 46
REMARK SMILES IDX 85 47 79 48 78 49 34 51 66 52 46 53 65 54 47 55 50 56 64 57
REMARK SMILES IDX 83 58 48 59 49 60 63 62 84 63 51 64 35 65 36 66 44 67 37 68
REMARK SMILES IDX 38 69 42 70 45 71 39 72 40 73 43 74 41 75 67 76 68 77 76 78
REMARK SMILES IDX 69 79 70 80 74 81 77 82 71 83 72 84 75 85 73 86 52 87 53 88
REMARK SMILES IDX 61 89 54 90 55 91 59 92 62 93 56 94 57 95 60 96 58 97
REMARK H PARENT 16 6 10 9 13 24 23 31 82 50 50 61
REMARK Flexibility Score: inf
ROOT
ATOM      1  C   UNL A   1      32.069  27.153  26.778  1.00  0.00     0.021 C 
ENDROOT
BRANCH   1   2
ATOM      2  C   UNL A   1      31.620  26.008  25.871  1.00  0.00     0.116 C 
BRANCH   2   3
ATOM      3  N   UNL A   1      30.340  26.260  25.238  1.00  0.00    -0.355 N 
ATOM      4  C   UNL A   1      30.082  26.772  24.000  1.00  0.00     0.240 C 
ATOM      5  O   UNL A   1      28.913  26.745  23.599  1.00  0.00    -0.273 OA
ATOM      6  H   UNL A   1      29.548  26.031  25.777  1.00  0.00     0.163 HD
BRANCH   4   7
ATOM      7  C   UNL A   1      31.181  27.424  23.149  1.00  0.00     0.184 C 
BRANCH   7   8
ATOM      8  N   UNL A   1      31.510  26.516  22.031  1.00  0.00    -0.196 NA
ATOM      9  H   UNL A   1      30.977  25.664  22.203  1.00  0.00     0.142 HD
BRANCH   8  10
ATOM     10  S   UNL A   1      33.042  26.013  21.649  1.00  0.00     0.241 S 
ATOM     11  O   UNL A   1      33.923  27.122  21.939  1.00  0.00    -0.207 OA
ATOM     12  O   UNL A   1      32.952  25.434  20.328  1.00  0.00    -0.207 OA
BRANCH  10  13
ATOM     13  C   UNL A   1      33.405  24.700  22.780  1.00  0.00     0.083 A 
ATOM     14  C   UNL A   1      34.169  22.536  24.365  1.00  0.00     0.121 A 
ATOM     15  C   UNL A   1      33.200  22.377  23.366  1.00  0.00     0.048 A 
ATOM     16  C   UNL A   1      34.777  23.784  24.569  1.00  0.00    -0.008 A 
ATOM     17  C   UNL A   1      32.827  23.451  22.560  1.00  0.00     0.025 A 
ATOM     18  C   UNL A   1      34.333  24.879  23.811  1.00  0.00     0.029 A 
ATOM     19  C   UNL A   1      35.919  23.999  25.520  1.00  0.00     0.048 C 
BRANCH  14  20
ATOM     20  O   UNL A   1      34.537  21.382  25.004  1.00  0.00    -0.496 OA
ATOM     21  C   UNL A   1      33.827  21.131  26.214  1.00  0.00     0.278 C 
ENDBRANCH  14  20
ENDBRANCH  10  13
ENDBRANCH   8  10
ENDBRANCH   7   8
BRANCH   7  22
ATOM     22  C   UNL A   1      30.838  28.871  22.773  1.00  0.00     0.186 C 
BRANCH  22  23
ATOM     23  O   UNL A   1      29.763  28.992  21.848  1.00  0.00    -0.394 OA
ATOM     24  H   UNL A   1      29.667  28.163  21.353  1.00  0.00     0.210 HD
ENDBRANCH  22  23
ENDBRANCH   7  22
ENDBRANCH   4   7
ENDBRANCH   2   3
ENDBRANCH   1   2
BRANCH   1  25
ATOM     25  C   UNL A   1      33.054  28.156  26.166  1.00  0.00     0.002 C 
BRANCH  25  26
ATOM     26  C   UNL A   1      32.610  29.624  26.128  1.00  0.00     0.002 C 
BRANCH  26  27
ATOM     27  C   UNL A   1      32.984  30.476  27.341  1.00  0.00     0.021 C 
BRANCH  27  28
ATOM     28  C   UNL A   1      34.337  31.163  27.247  1.00  0.00     0.116 C 
BRANCH  28  29
ATOM     29  N   UNL A   1      34.761  31.794  28.494  1.00  0.00    -0.352 N 
ATOM     30  C   UNL A   1      35.631  31.325  29.462  1.00  0.00     0.251 C 
ATOM     31  H   UNL A   1      34.370  32.681  28.672  1.00  0.00     0.163 HD
ATOM     32  O   UNL A   1      35.860  31.981  30.472  1.00  0.00    -0.269 OA
BRANCH  30  33
ATOM     33  C   UNL A   1      36.412  30.100  29.182  1.00  0.00     0.039 A 
ATOM     34  C   UNL A   1      36.733  29.288  30.276  1.00  0.00     0.014 A 
ATOM     35  C   UNL A   1      37.065  29.946  27.964  1.00  0.00     0.014 A 
ATOM     36  C   UNL A   1      37.908  28.549  30.240  1.00  0.00     0.010 A 
ATOM     37  C   UNL A   1      38.283  29.304  27.962  1.00  0.00     0.010 A 
ATOM     38  C   UNL A   1      38.739  28.687  29.133  1.00  0.00    -0.014 A 
BRANCH  38  39
ATOM     39  C   UNL A   1      40.143  28.308  29.141  1.00  0.00     0.031 A 
ATOM     40  C   UNL A   1      40.534  26.967  28.679  1.00  0.00     0.074 A 
ATOM     41  C   UNL A   1      41.067  29.230  29.489  1.00  0.00     0.049 A 
ATOM     42  N   UNL A   1      41.663  26.405  28.940  1.00  0.00    -0.248 NA
ATOM     43  C   UNL A   1      39.619  26.109  27.939  1.00  0.00     0.031 C 
ATOM     44  C   UNL A   1      42.511  29.170  29.287  1.00  0.00     0.029 A 
ATOM     45  N   UNL A   1      40.876  30.362  30.300  1.00  0.00    -0.354 N 
ATOM     46  C   UNL A   1      41.738  25.246  28.197  1.00  0.00     0.074 A 
ATOM     47  C   UNL A   1      40.404  25.058  27.684  1.00  0.00     0.031 C 
ATOM     48  C   UNL A   1      43.106  30.006  30.154  1.00  0.00     0.029 A 
ATOM     49  C   UNL A   1      42.069  30.496  31.046  1.00  0.00     0.049 A 
ATOM     50  H   UNL A   1      40.078  30.939  30.341  1.00  0.00     0.167 HD
ATOM     51  C   UNL A   1      42.965  24.675  28.013  1.00  0.00     0.037 A 
ATOM     52  C   UNL A   1      42.079  30.341  32.402  1.00  0.00     0.037 A 
ATOM     53  C   UNL A   1      43.955  25.315  28.886  1.00  0.00     0.049 A 
ATOM     54  C   UNL A   1      42.996  29.239  32.878  1.00  0.00     0.074 A 
ATOM     55  C   UNL A   1      44.907  26.297  28.668  1.00  0.00     0.029 A 
ATOM     56  N   UNL A   1      43.827  25.189  30.267  1.00  0.00    -0.354 N 
ATOM     57  N   UNL A   1      43.369  28.232  32.138  1.00  0.00    -0.248 NA
ATOM     58  C   UNL A   1      43.536  29.172  34.233  1.00  0.00     0.031 C 
ATOM     59  C   UNL A   1      45.298  26.815  29.931  1.00  0.00     0.029 A 
ATOM     60  C   UNL A   1      44.609  26.125  30.916  1.00  0.00     0.049 A 
ATOM     61  H   UNL A   1      43.256  24.526  30.719  1.00  0.00     0.167 HD
ATOM     62  C   UNL A   1      44.148  27.385  32.882  1.00  0.00     0.074 A 
ATOM     63  C   UNL A   1      44.243  28.030  34.178  1.00  0.00     0.031 C 
ATOM     64  C   UNL A   1      44.630  26.213  32.370  1.00  0.00     0.037 A 
BRANCH  51  65
ATOM     65  C   UNL A   1      43.345  23.746  26.868  1.00  0.00     0.064 A 
ATOM     66  C   UNL A   1      42.919  22.395  26.879  1.00  0.00     0.173 A 
ATOM     67  C   UNL A   1      44.195  24.064  25.789  1.00  0.00     0.173 A 
ATOM     68  F   UNL A   1      42.041  21.946  27.786  1.00  0.00    -0.203 F 
ATOM     69  C   UNL A   1      43.381  21.444  25.960  1.00  0.00     0.198 A 
ATOM     70  C   UNL A   1      44.674  23.110  24.884  1.00  0.00     0.198 A 
ATOM     71  F   UNL A   1      44.575  25.313  25.523  1.00  0.00    -0.203 F 
ATOM     72  F   UNL A   1      42.956  20.175  26.047  1.00  0.00    -0.200 F 
ATOM     73  C   UNL A   1      44.279  21.796  24.977  1.00  0.00     0.200 A 
ATOM     74  F   UNL A   1      45.527  23.487  23.920  1.00  0.00    -0.200 F 
ATOM     75  F   UNL A   1      44.745  20.884  24.114  1.00  0.00    -0.200 F 
ENDBRANCH  51  65
BRANCH  52  76
ATOM     76  C   UNL A   1      40.780  30.689  33.042  1.00  0.00     0.064 A 
ATOM     77  C   UNL A   1      40.389  32.042  33.074  1.00  0.00     0.173 A 
ATOM     78  C   UNL A   1      39.788  29.724  33.252  1.00  0.00     0.173 A 
ATOM     79  F   UNL A   1      41.302  33.008  32.881  1.00  0.00    -0.203 F 
ATOM     80  C   UNL A   1      39.048  32.406  33.171  1.00  0.00     0.198 A 
ATOM     81  C   UNL A   1      38.447  30.095  33.372  1.00  0.00     0.198 A 
ATOM     82  F   UNL A   1      40.092  28.419  33.227  1.00  0.00    -0.203 F 
ATOM     83  F   UNL A   1      38.697  33.697  33.065  1.00  0.00    -0.200 F 
ATOM     84  C   UNL A   1      38.075  31.430  33.292  1.00  0.00     0.200 A 
ATOM     85  F   UNL A   1      37.500  29.150  33.460  1.00  0.00    -0.200 F 
ATOM     86  F   UNL A   1      36.778  31.768  33.285  1.00  0.00    -0.200 F 
ENDBRANCH  52  76
BRANCH  64  87
ATOM     87  C   UNL A   1      45.245  25.084  33.167  1.00  0.00     0.064 A 
ATOM     88  C   UNL A   1      46.617  24.983  33.461  1.00  0.00     0.173 A 
ATOM     89  C   UNL A   1      44.421  24.121  33.799  1.00  0.00     0.173 A 
ATOM     90  F   UNL A   1      47.492  25.905  33.044  1.00  0.00    -0.203 F 
ATOM     91  C   UNL A   1      47.132  23.955  34.257  1.00  0.00     0.198 A 
ATOM     92  C   UNL A   1      44.931  23.137  34.646  1.00  0.00     0.198 A 
ATOM     93  F   UNL A   1      43.090  24.122  33.640  1.00  0.00    -0.203 F 
ATOM     94  F   UNL A   1      48.454  23.876  34.464  1.00  0.00    -0.200 F 
ATOM     95  C   UNL A   1      46.289  23.040  34.859  1.00  0.00     0.200 A 
ATOM     96  F   UNL A   1      44.093  22.296  35.271  1.00  0.00    -0.200 F 
ATOM     97  F   UNL A   1      46.783  22.087  35.660  1.00  0.00    -0.200 F 
ENDBRANCH  64  87
ENDBRANCH  38  39
ENDBRANCH  30  33
ENDBRANCH  28  29
ENDBRANCH  27  28
ENDBRANCH  26  27
ENDBRANCH  25  26
ENDBRANCH   1  25
TORSDOF 19
ENDMDL
MODEL 3
REMARK VINA RESULT:     -11.8      3.777     10.091
REMARK SMILES COc1ccc(S(=O)(=O)N[C@@H](CO)C(=O)NCCCCCCNC(=O)c2ccc(-c3c4nc(c(-c5c(F)c(F)c(F)c(F)c5F)c5ccc([nH]5)c(-c5c(F)c(F)c(F)c(F)c5F)c5nc(c(-c6c(F)c(F)c(F)c(F)c6F)c6ccc3[nH]6)C=C5)C=C4)cc2)cc1C
REMARK SMILES IDX 18 1 17 2 16 3 14 4 15 5 11 7 10 8 7 10 8 11 9 12 6 13 3 14
REMARK SMILES IDX 4 15 90 16 5 17 89 18 91 19 2 20 1 21 12 22 13 23 19 25
REMARK SMILES IDX 20 26 21 27 22 28 23 29 24 30 25 32 26 33 27 34 88 35 28 36
REMARK SMILES IDX 87 37 29 38 30 39 31 40 81 41 32 42 86 43 80 44 82 45 33 46
REMARK SMILES IDX 85 47 79 48 78 49 34 51 66 52 46 53 65 54 47 55 50 56 64 57
REMARK SMILES IDX 83 58 48 59 49 60 63 62 84 63 51 64 35 65 36 66 44 67 37 68
REMARK SMILES IDX 38 69 42 70 45 71 39 72 40 73 43 74 41 75 67 76 68 77 76 78
REMARK SMILES IDX 69 79 70 80 74 81 77 82 71 83 72 84 75 85 73 86 52 87 53 88
REMARK SMILES IDX 61 89 54 90 55 91 59 92 62 93 56 94 57 95 60 96 58 97
REMARK H PARENT 16 6 10 9 13 24 23 31 82 50 50 61
REMARK Flexibility Score: inf
ROOT
ATOM      1  C   UNL A   1      32.446  28.284  24.980  1.00  0.00     0.021 C 
ENDROOT
BRANCH   1   2
ATOM      2  C   UNL A   1      32.461  27.119  25.969  1.00  0.00     0.116 C 
BRANCH   2   3
ATOM      3  N   UNL A   1      31.131  26.682  26.345  1.00  0.00    -0.355 N 
ATOM      4  C   UNL A   1      30.422  25.607  25.894  1.00  0.00     0.240 C 
ATOM      5  O   UNL A   1      29.369  25.327  26.476  1.00  0.00    -0.273 OA
ATOM      6  H   UNL A   1      30.676  27.239  27.018  1.00  0.00     0.163 HD
BRANCH   4   7
ATOM      7  C   UNL A   1      30.868  24.802  24.664  1.00  0.00     0.184 C 
BRANCH   7   8
ATOM      8  N   UNL A   1      30.622  23.369  24.926  1.00  0.00    -0.196 NA
ATOM      9  H   UNL A   1      29.680  23.318  25.314  1.00  0.00     0.142 HD
BRANCH   8  10
ATOM     10  S   UNL A   1      31.560  22.419  25.909  1.00  0.00     0.241 S 
ATOM     11  O   UNL A   1      31.449  21.069  25.404  1.00  0.00    -0.207 OA
ATOM     12  O   UNL A   1      31.187  22.762  27.263  1.00  0.00    -0.207 OA
BRANCH  10  13
ATOM     13  C   UNL A   1      33.222  22.976  25.659  1.00  0.00     0.083 A 
ATOM     14  C   UNL A   1      35.925  23.585  25.339  1.00  0.00     0.121 A 
ATOM     15  C   UNL A   1      35.328  23.648  26.605  1.00  0.00     0.048 A 
ATOM     16  C   UNL A   1      35.171  23.199  24.220  1.00  0.00    -0.008 A 
ATOM     17  C   UNL A   1      33.981  23.329  26.773  1.00  0.00     0.025 A 
ATOM     18  C   UNL A   1      33.797  22.964  24.385  1.00  0.00     0.029 A 
ATOM     19  C   UNL A   1      35.769  22.972  22.861  1.00  0.00     0.048 C 
BRANCH  14  20
ATOM     20  O   UNL A   1      37.276  23.802  25.325  1.00  0.00    -0.496 OA
ATOM     21  C   UNL A   1      38.053  22.693  25.768  1.00  0.00     0.278 C 
ENDBRANCH  14  20
ENDBRANCH  10  13
ENDBRANCH   8  10
ENDBRANCH   7   8
BRANCH   7  22
ATOM     22  C   UNL A   1      30.286  25.366  23.363  1.00  0.00     0.186 C 
BRANCH  22  23
ATOM     23  O   UNL A   1      29.945  26.747  23.429  1.00  0.00    -0.394 OA
ATOM     24  H   UNL A   1      30.556  27.203  24.031  1.00  0.00     0.210 HD
ENDBRANCH  22  23
ENDBRANCH   7  22
ENDBRANCH   4   7
ENDBRANCH   2   3
ENDBRANCH   1   2
BRANCH   1  25
ATOM     25  C   UNL A   1      31.782  29.577  25.466  1.00  0.00     0.002 C 
BRANCH  25  26
ATOM     26  C   UNL A   1      31.964  29.931  26.949  1.00  0.00     0.002 C 
BRANCH  26  27
ATOM     27  C   UNL A   1      32.771  31.194  27.249  1.00  0.00     0.021 C 
BRANCH  27  28
ATOM     28  C   UNL A   1      34.269  30.976  27.396  1.00  0.00     0.116 C 
BRANCH  28  29
ATOM     29  N   UNL A   1      34.857  31.693  28.525  1.00  0.00    -0.352 N 
ATOM     30  C   UNL A   1      35.863  31.295  29.387  1.00  0.00     0.251 C 
ATOM     31  H   UNL A   1      34.482  32.587  28.697  1.00  0.00     0.163 HD
ATOM     32  O   UNL A   1      36.224  32.019  30.308  1.00  0.00    -0.269 OA
BRANCH  30  33
ATOM     33  C   UNL A   1      36.614  30.058  29.080  1.00  0.00     0.039 A 
ATOM     34  C   UNL A   1      36.843  29.174  30.141  1.00  0.00     0.014 A 
ATOM     35  C   UNL A   1      37.330  29.946  27.892  1.00  0.00     0.014 A 
ATOM     36  C   UNL A   1      37.991  28.393  30.127  1.00  0.00     0.010 A 
ATOM     37  C   UNL A   1      38.523  29.259  27.921  1.00  0.00     0.010 A 
ATOM     38  C   UNL A   1      38.888  28.560  29.077  1.00  0.00    -0.014 A 
BRANCH  38  39
ATOM     39  C   UNL A   1      40.275  28.127  29.141  1.00  0.00     0.031 A 
ATOM     40  C   UNL A   1      40.637  26.783  28.662  1.00  0.00     0.074 A 
ATOM     41  C   UNL A   1      41.215  29.004  29.556  1.00  0.00     0.049 A 
ATOM     42  N   UNL A   1      41.730  26.172  28.960  1.00  0.00    -0.248 NA
ATOM     43  C   UNL A   1      39.727  25.980  27.857  1.00  0.00     0.031 C 
ATOM     44  C   UNL A   1      42.665  28.892  29.420  1.00  0.00     0.029 A 
ATOM     45  N   UNL A   1      41.028  30.122  30.387  1.00  0.00    -0.354 N 
ATOM     46  C   UNL A   1      41.797  25.030  28.191  1.00  0.00     0.074 A 
ATOM     47  C   UNL A   1      40.483  24.907  27.611  1.00  0.00     0.031 C 
ATOM     48  C   UNL A   1      43.248  29.683  30.336  1.00  0.00     0.029 A 
ATOM     49  C   UNL A   1      42.189  30.191  31.191  1.00  0.00     0.049 A 
ATOM     50  H   UNL A   1      40.253  30.728  30.406  1.00  0.00     0.167 HD
ATOM     51  C   UNL A   1      43.009  24.417  28.049  1.00  0.00     0.037 A 
ATOM     52  C   UNL A   1      42.129  30.001  32.542  1.00  0.00     0.037 A 
ATOM     53  C   UNL A   1      43.980  24.995  28.984  1.00  0.00     0.049 A 
ATOM     54  C   UNL A   1      42.980  28.853  33.031  1.00  0.00     0.074 A 
ATOM     55  C   UNL A   1      44.978  25.945  28.837  1.00  0.00     0.029 A 
ATOM     56  N   UNL A   1      43.781  24.841  30.354  1.00  0.00    -0.354 N 
ATOM     57  N   UNL A   1      43.350  27.852  32.282  1.00  0.00    -0.248 NA
ATOM     58  C   UNL A   1      43.452  28.732  34.407  1.00  0.00     0.031 C 
ATOM     59  C   UNL A   1      45.327  26.416  30.130  1.00  0.00     0.029 A 
ATOM     60  C   UNL A   1      44.566  25.729  31.063  1.00  0.00     0.049 A 
ATOM     61  H   UNL A   1      43.165  24.189  30.761  1.00  0.00     0.167 HD
ATOM     62  C   UNL A   1      44.060  26.957  33.039  1.00  0.00     0.074 A 
ATOM     63  C   UNL A   1      44.117  27.565  34.355  1.00  0.00     0.031 C 
ATOM     64  C   UNL A   1      44.522  25.780  32.518  1.00  0.00     0.037 A 
BRANCH  51  65
ATOM     65  C   UNL A   1      43.408  23.502  26.899  1.00  0.00     0.064 A 
ATOM     66  C   UNL A   1      43.013  22.142  26.904  1.00  0.00     0.173 A 
ATOM     67  C   UNL A   1      44.248  23.845  25.820  1.00  0.00     0.173 A 
ATOM     68  F   UNL A   1      42.149  21.668  27.811  1.00  0.00    -0.203 F 
ATOM     69  C   UNL A   1      43.495  21.206  25.980  1.00  0.00     0.198 A 
ATOM     70  C   UNL A   1      44.747  22.907  24.909  1.00  0.00     0.198 A 
ATOM     71  F   UNL A   1      44.599  25.103  25.559  1.00  0.00    -0.203 F 
ATOM     72  F   UNL A   1      43.100  19.928  26.061  1.00  0.00    -0.200 F 
ATOM     73  C   UNL A   1      44.383  21.584  24.997  1.00  0.00     0.200 A 
ATOM     74  F   UNL A   1      45.590  23.308  23.946  1.00  0.00    -0.200 F 
ATOM     75  F   UNL A   1      44.868  20.687  24.128  1.00  0.00    -0.200 F 
ENDBRANCH  51  65
BRANCH  52  76
ATOM     76  C   UNL A   1      40.815  30.384  33.129  1.00  0.00     0.064 A 
ATOM     77  C   UNL A   1      40.494  31.753  33.222  1.00  0.00     0.173 A 
ATOM     78  C   UNL A   1      39.763  29.465  33.225  1.00  0.00     0.173 A 
ATOM     79  F   UNL A   1      41.466  32.676  33.139  1.00  0.00    -0.203 F 
ATOM     80  C   UNL A   1      39.170  32.185  33.267  1.00  0.00     0.198 A 
ATOM     81  C   UNL A   1      38.439  29.902  33.294  1.00  0.00     0.198 A 
ATOM     82  F   UNL A   1      40.000  28.149  33.138  1.00  0.00    -0.203 F 
ATOM     83  F   UNL A   1      38.894  33.497  33.221  1.00  0.00    -0.200 F 
ATOM     84  C   UNL A   1      38.142  31.259  33.275  1.00  0.00     0.200 A 
ATOM     85  F   UNL A   1      37.440  29.008  33.272  1.00  0.00    -0.200 F 
ATOM     86  F   UNL A   1      36.867  31.668  33.217  1.00  0.00    -0.200 F 
ENDBRANCH  52  76
BRANCH  64  87
ATOM     87  C   UNL A   1      45.055  24.609  33.314  1.00  0.00     0.064 A 
ATOM     88  C   UNL A   1      44.326  23.435  33.573  1.00  0.00     0.173 A 
ATOM     89  C   UNL A   1      46.410  24.579  33.725  1.00  0.00     0.173 A 
ATOM     90  F   UNL A   1      43.078  23.270  33.118  1.00  0.00    -0.203 F 
ATOM     91  C   UNL A   1      44.884  22.351  34.258  1.00  0.00     0.198 A 
ATOM     92  C   UNL A   1      46.981  23.471  34.350  1.00  0.00     0.198 A 
ATOM     93  F   UNL A   1      47.234  25.616  33.507  1.00  0.00    -0.203 F 
ATOM     94  F   UNL A   1      44.128  21.275  34.523  1.00  0.00    -0.200 F 
ATOM     95  C   UNL A   1      46.213  22.364  34.636  1.00  0.00     0.200 A 
ATOM     96  F   UNL A   1      48.288  23.476  34.653  1.00  0.00    -0.200 F 
ATOM     97  F   UNL A   1      46.755  21.303  35.249  1.00  0.00    -0.200 F 
ENDBRANCH  64  87
ENDBRANCH  38  39
ENDBRANCH  30  33
ENDBRANCH  28  29
ENDBRANCH  27  28
ENDBRANCH  26  27
ENDBRANCH  25  26
ENDBRANCH   1  25
TORSDOF 19
ENDMDL
