MODEL 1
REMARK VINA RESULT:     -10.8      0.000      0.000
REMARK SMILES CCSc1cccc(-c2ccc([C@@H](C)C(=O)NCCCCCCNC(=O)c3ccc(-c4c5nc(c(-c6c(F)c(F)c(F)c(F)c6F)c6ccc([nH]6)c(-c6c(F)c(F)c(F)c(F)c6F)c6nc(c(-c7c(F)c(F)c(F)c(F)c7F)c7ccc4[nH]7)C=C6)C=C5)cc3)cc2)c1
REMARK SMILES IDX 19 1 18 2 17 3 15 4 16 5 13 7 14 8 12 9 9 10 10 11 91 12
REMARK SMILES IDX 11 13 90 14 8 15 4 16 5 17 92 18 6 19 7 20 3 21 2 22 1 23
REMARK SMILES IDX 20 24 21 25 22 26 23 27 24 28 25 29 26 31 27 32 28 33 89 34
REMARK SMILES IDX 29 35 88 36 30 37 31 38 32 39 82 40 33 41 87 42 81 43 83 44
REMARK SMILES IDX 34 45 86 46 80 47 79 48 35 50 67 51 47 52 66 53 48 54 51 55
REMARK SMILES IDX 65 56 84 57 49 58 50 59 64 61 85 62 52 63 36 64 37 65 45 66
REMARK SMILES IDX 38 67 39 68 43 69 46 70 40 71 41 72 44 73 42 74 68 75 69 76
REMARK SMILES IDX 77 77 70 78 71 79 75 80 78 81 72 82 73 83 76 84 74 85 53 86
REMARK SMILES IDX 54 87 62 88 55 89 56 90 60 91 63 92 57 93 58 94 61 95 59 96
REMARK H PARENT 17 6 24 30 83 49 51 60
REMARK Flexibility Score: inf
ROOT
ATOM      1  C   UNL A   1      33.817  28.553  22.481  1.00  0.00     0.021 C 
ENDROOT
BRANCH   1   2
ATOM      2  C   UNL A   1      32.396  28.551  21.913  1.00  0.00     0.116 C 
BRANCH   2   3
ATOM      3  N   UNL A   1      31.508  29.388  22.691  1.00  0.00    -0.356 N 
ATOM      4  C   UNL A   1      30.270  29.158  23.204  1.00  0.00     0.227 C 
ATOM      5  O   UNL A   1      29.710  30.121  23.744  1.00  0.00    -0.274 OA
ATOM      6  H   UNL A   1      31.865  30.287  22.882  1.00  0.00     0.163 HD
BRANCH   4   7
ATOM      7  C   UNL A   1      29.567  27.792  23.156  1.00  0.00     0.105 C 
ATOM      8  C   UNL A   1      28.054  27.859  23.362  1.00  0.00     0.023 C 
BRANCH   7   9
ATOM      9  C   UNL A   1      30.299  26.704  23.924  1.00  0.00    -0.036 A 
ATOM     10  C   UNL A   1      31.834  24.684  25.258  1.00  0.00    -0.018 A 
ATOM     11  C   UNL A   1      31.219  25.732  25.962  1.00  0.00     0.009 A 
ATOM     12  C   UNL A   1      31.615  24.650  23.871  1.00  0.00     0.009 A 
ATOM     13  C   UNL A   1      30.443  26.703  25.314  1.00  0.00     0.005 A 
ATOM     14  C   UNL A   1      30.887  25.648  23.214  1.00  0.00     0.005 A 
BRANCH  10  15
ATOM     15  C   UNL A   1      32.703  23.691  25.941  1.00  0.00    -0.017 A 
ATOM     16  C   UNL A   1      34.750  22.323  25.970  1.00  0.00     0.008 A 
ATOM     17  C   UNL A   1      34.426  21.858  27.243  1.00  0.00     0.015 A 
ATOM     18  C   UNL A   1      33.884  23.219  25.334  1.00  0.00     0.023 A 
ATOM     19  C   UNL A   1      33.258  22.291  27.869  1.00  0.00     0.002 A 
ATOM     20  C   UNL A   1      32.407  23.193  27.222  1.00  0.00     0.009 A 
BRANCH  16  21
ATOM     21  S   UNL A   1      36.190  21.668  25.144  1.00  0.00    -0.126 SA
BRANCH  21  22
ATOM     22  C   UNL A   1      37.360  23.070  25.229  1.00  0.00     0.071 C 
ATOM     23  C   UNL A   1      38.498  22.853  26.213  1.00  0.00     0.016 C 
ENDBRANCH  21  22
ENDBRANCH  16  21
ENDBRANCH  10  15
ENDBRANCH   7   9
ENDBRANCH   4   7
ENDBRANCH   2   3
ENDBRANCH   1   2
BRANCH   1  24
ATOM     24  C   UNL A   1      33.972  27.737  23.769  1.00  0.00     0.002 C 
BRANCH  24  25
ATOM     25  C   UNL A   1      33.855  28.542  25.071  1.00  0.00     0.002 C 
BRANCH  25  26
ATOM     26  C   UNL A   1      34.003  27.734  26.365  1.00  0.00     0.021 C 
BRANCH  26  27
ATOM     27  C   UNL A   1      33.376  28.376  27.600  1.00  0.00     0.116 C 
BRANCH  27  28
ATOM     28  N   UNL A   1      33.406  29.828  27.533  1.00  0.00    -0.352 N 
ATOM     29  C   UNL A   1      34.375  30.710  27.941  1.00  0.00     0.251 C 
ATOM     30  H   UNL A   1      32.608  30.244  27.131  1.00  0.00     0.163 HD
ATOM     31  O   UNL A   1      34.127  31.910  28.000  1.00  0.00    -0.269 OA
BRANCH  29  32
ATOM     32  C   UNL A   1      35.719  30.223  28.324  1.00  0.00     0.039 A 
ATOM     33  C   UNL A   1      36.738  30.241  27.368  1.00  0.00     0.014 A 
ATOM     34  C   UNL A   1      35.963  29.707  29.599  1.00  0.00     0.014 A 
ATOM     35  C   UNL A   1      38.018  29.794  27.708  1.00  0.00     0.010 A 
ATOM     36  C   UNL A   1      37.253  29.317  29.955  1.00  0.00     0.010 A 
ATOM     37  C   UNL A   1      38.292  29.354  29.013  1.00  0.00    -0.014 A 
BRANCH  37  38
ATOM     38  C   UNL A   1      39.661  28.937  29.409  1.00  0.00     0.031 A 
ATOM     39  C   UNL A   1      40.510  29.834  30.264  1.00  0.00     0.074 A 
ATOM     40  C   UNL A   1      40.161  27.778  28.940  1.00  0.00     0.049 A 
ATOM     41  N   UNL A   1      41.750  29.672  30.655  1.00  0.00    -0.248 NA
ATOM     42  C   UNL A   1      39.896  31.090  30.719  1.00  0.00     0.031 C 
ATOM     43  C   UNL A   1      39.454  26.846  28.061  1.00  0.00     0.029 A 
ATOM     44  N   UNL A   1      41.389  27.191  29.127  1.00  0.00    -0.354 N 
ATOM     45  C   UNL A   1      42.067  30.811  31.385  1.00  0.00     0.074 A 
ATOM     46  C   UNL A   1      40.906  31.675  31.348  1.00  0.00     0.031 C 
ATOM     47  C   UNL A   1      40.252  25.800  27.795  1.00  0.00     0.029 A 
ATOM     48  C   UNL A   1      41.537  26.001  28.457  1.00  0.00     0.049 A 
ATOM     49  H   UNL A   1      42.096  27.587  29.686  1.00  0.00     0.167 HD
ATOM     50  C   UNL A   1      43.215  31.099  32.043  1.00  0.00     0.037 A 
ATOM     51  C   UNL A   1      42.594  25.170  28.382  1.00  0.00     0.037 A 
ATOM     52  C   UNL A   1      44.357  30.223  32.107  1.00  0.00     0.049 A 
ATOM     53  C   UNL A   1      43.850  25.506  29.135  1.00  0.00     0.074 A 
ATOM     54  C   UNL A   1      45.537  30.393  32.809  1.00  0.00     0.029 A 
ATOM     55  N   UNL A   1      44.458  29.010  31.442  1.00  0.00    -0.354 N 
ATOM     56  N   UNL A   1      44.112  26.551  29.882  1.00  0.00    -0.248 NA
ATOM     57  C   UNL A   1      44.957  24.543  29.043  1.00  0.00     0.031 C 
ATOM     58  C   UNL A   1      46.370  29.303  32.536  1.00  0.00     0.029 A 
ATOM     59  C   UNL A   1      45.690  28.432  31.700  1.00  0.00     0.049 A 
ATOM     60  H   UNL A   1      43.759  28.619  30.871  1.00  0.00     0.167 HD
ATOM     61  C   UNL A   1      45.399  26.361  30.367  1.00  0.00     0.074 A 
ATOM     62  C   UNL A   1      45.860  25.093  29.842  1.00  0.00     0.031 C 
ATOM     63  C   UNL A   1      46.133  27.166  31.173  1.00  0.00     0.037 A 
BRANCH  50  64
ATOM     64  C   UNL A   1      43.298  32.418  32.755  1.00  0.00     0.064 A 
ATOM     65  C   UNL A   1      42.936  32.549  34.105  1.00  0.00     0.173 A 
ATOM     66  C   UNL A   1      43.789  33.555  32.094  1.00  0.00     0.173 A 
ATOM     67  F   UNL A   1      42.452  31.495  34.779  1.00  0.00    -0.203 F 
ATOM     68  C   UNL A   1      43.040  33.774  34.759  1.00  0.00     0.198 A 
ATOM     69  C   UNL A   1      43.917  34.771  32.759  1.00  0.00     0.198 A 
ATOM     70  F   UNL A   1      44.153  33.482  30.806  1.00  0.00    -0.203 F 
ATOM     71  F   UNL A   1      42.649  33.885  36.036  1.00  0.00    -0.200 F 
ATOM     72  C   UNL A   1      43.537  34.882  34.088  1.00  0.00     0.200 A 
ATOM     73  F   UNL A   1      44.408  35.838  32.114  1.00  0.00    -0.200 F 
ATOM     74  F   UNL A   1      43.644  36.057  34.722  1.00  0.00    -0.200 F 
ENDBRANCH  50  64
BRANCH  51  75
ATOM     75  C   UNL A   1      42.498  23.924  27.579  1.00  0.00     0.064 A 
ATOM     76  C   UNL A   1      42.019  22.735  28.148  1.00  0.00     0.173 A 
ATOM     77  C   UNL A   1      42.880  23.894  26.230  1.00  0.00     0.173 A 
ATOM     78  F   UNL A   1      41.661  22.710  29.440  1.00  0.00    -0.203 F 
ATOM     79  C   UNL A   1      41.945  21.559  27.405  1.00  0.00     0.198 A 
ATOM     80  C   UNL A   1      42.780  22.725  25.479  1.00  0.00     0.198 A 
ATOM     81  F   UNL A   1      43.337  25.007  25.637  1.00  0.00    -0.203 F 
ATOM     82  F   UNL A   1      41.526  20.428  27.986  1.00  0.00    -0.200 F 
ATOM     83  C   UNL A   1      42.321  21.557  26.069  1.00  0.00     0.200 A 
ATOM     84  F   UNL A   1      43.130  22.729  24.186  1.00  0.00    -0.200 F 
ATOM     85  F   UNL A   1      42.245  20.427  25.353  1.00  0.00    -0.200 F 
ENDBRANCH  51  75
BRANCH  63  86
ATOM     86  C   UNL A   1      47.500  26.687  31.559  1.00  0.00     0.064 A 
ATOM     87  C   UNL A   1      48.640  27.056  30.832  1.00  0.00     0.173 A 
ATOM     88  C   UNL A   1      47.676  25.879  32.693  1.00  0.00     0.173 A 
ATOM     89  F   UNL A   1      48.522  27.814  29.731  1.00  0.00    -0.203 F 
ATOM     90  C   UNL A   1      49.905  26.615  31.211  1.00  0.00     0.198 A 
ATOM     91  C   UNL A   1      48.945  25.463  33.086  1.00  0.00     0.198 A 
ATOM     92  F   UNL A   1      46.617  25.504  33.426  1.00  0.00    -0.203 F 
ATOM     93  F   UNL A   1      50.976  26.943  30.475  1.00  0.00    -0.200 F 
ATOM     94  C   UNL A   1      50.056  25.825  32.341  1.00  0.00     0.200 A 
ATOM     95  F   UNL A   1      49.091  24.709  34.185  1.00  0.00    -0.200 F 
ATOM     96  F   UNL A   1      51.275  25.406  32.709  1.00  0.00    -0.200 F 
ENDBRANCH  63  86
ENDBRANCH  37  38
ENDBRANCH  29  32
ENDBRANCH  27  28
ENDBRANCH  26  27
ENDBRANCH  25  26
ENDBRANCH  24  25
ENDBRANCH   1  24
TORSDOF 17
ENDMDL
MODEL 2
REMARK VINA RESULT:     -10.7      3.920      6.988
REMARK SMILES CCSc1cccc(-c2ccc([C@@H](C)C(=O)NCCCCCCNC(=O)c3ccc(-c4c5nc(c(-c6c(F)c(F)c(F)c(F)c6F)c6ccc([nH]6)c(-c6c(F)c(F)c(F)c(F)c6F)c6nc(c(-c7c(F)c(F)c(F)c(F)c7F)c7ccc4[nH]7)C=C6)C=C5)cc3)cc2)c1
REMARK SMILES IDX 19 1 18 2 17 3 15 4 16 5 13 7 14 8 12 9 9 10 10 11 91 12
REMARK SMILES IDX 11 13 90 14 8 15 4 16 5 17 92 18 6 19 7 20 3 21 2 22 1 23
REMARK SMILES IDX 20 24 21 25 22 26 23 27 24 28 25 29 26 31 27 32 28 33 89 34
REMARK SMILES IDX 29 35 88 36 30 37 31 38 32 39 82 40 33 41 87 42 81 43 83 44
REMARK SMILES IDX 34 45 86 46 80 47 79 48 35 50 67 51 47 52 66 53 48 54 51 55
REMARK SMILES IDX 65 56 84 57 49 58 50 59 64 61 85 62 52 63 36 64 37 65 45 66
REMARK SMILES IDX 38 67 39 68 43 69 46 70 40 71 41 72 44 73 42 74 68 75 69 76
REMARK SMILES IDX 77 77 70 78 71 79 75 80 78 81 72 82 73 83 76 84 74 85 53 86
REMARK SMILES IDX 54 87 62 88 55 89 56 90 60 91 63 92 57 93 58 94 61 95 59 96
REMARK H PARENT 17 6 24 30 83 49 51 60
REMARK Flexibility Score: inf
ROOT
ATOM      1  C   UNL A   1      35.173  34.513  34.077  1.00  0.00     0.021 C 
ENDROOT
BRANCH   1   2
ATOM      2  C   UNL A   1      36.682  34.271  34.001  1.00  0.00     0.116 C 
BRANCH   2   3
ATOM      3  N   UNL A   1      37.105  33.234  34.918  1.00  0.00    -0.356 N 
ATOM      4  C   UNL A   1      37.576  31.977  34.702  1.00  0.00     0.227 C 
ATOM      5  O   UNL A   1      37.759  31.278  35.707  1.00  0.00    -0.274 OA
ATOM      6  H   UNL A   1      37.040  33.485  35.869  1.00  0.00     0.163 HD
BRANCH   4   7
ATOM      7  C   UNL A   1      37.895  31.413  33.308  1.00  0.00     0.105 C 
ATOM      8  C   UNL A   1      36.667  30.948  32.525  1.00  0.00     0.023 C 
BRANCH   7   9
ATOM      9  C   UNL A   1      39.093  30.478  33.290  1.00  0.00    -0.036 A 
ATOM     10  C   UNL A   1      41.386  28.765  33.442  1.00  0.00    -0.018 A 
ATOM     11  C   UNL A   1      40.131  28.288  33.027  1.00  0.00     0.009 A 
ATOM     12  C   UNL A   1      41.469  30.137  33.730  1.00  0.00     0.009 A 
ATOM     13  C   UNL A   1      39.017  29.132  32.924  1.00  0.00     0.005 A 
ATOM     14  C   UNL A   1      40.345  30.971  33.681  1.00  0.00     0.005 A 
BRANCH  10  15
ATOM     15  C   UNL A   1      42.549  27.855  33.606  1.00  0.00    -0.017 A 
ATOM     16  C   UNL A   1      43.513  25.783  34.522  1.00  0.00     0.008 A 
ATOM     17  C   UNL A   1      44.720  26.057  33.882  1.00  0.00     0.015 A 
ATOM     18  C   UNL A   1      42.453  26.687  34.388  1.00  0.00     0.023 A 
ATOM     19  C   UNL A   1      44.858  27.211  33.112  1.00  0.00     0.002 A 
ATOM     20  C   UNL A   1      43.785  28.100  32.982  1.00  0.00     0.009 A 
BRANCH  16  21
ATOM     21  S   UNL A   1      43.398  24.359  35.591  1.00  0.00    -0.126 SA
BRANCH  21  22
ATOM     22  C   UNL A   1      43.407  22.973  34.398  1.00  0.00     0.071 C 
ATOM     23  C   UNL A   1      44.616  22.062  34.535  1.00  0.00     0.016 C 
ENDBRANCH  21  22
ENDBRANCH  16  21
ENDBRANCH  10  15
ENDBRANCH   7   9
ENDBRANCH   4   7
ENDBRANCH   2   3
ENDBRANCH   1   2
BRANCH   1  24
ATOM     24  C   UNL A   1      34.390  33.925  32.898  1.00  0.00     0.002 C 
BRANCH  24  25
ATOM     25  C   UNL A   1      34.977  34.222  31.511  1.00  0.00     0.002 C 
BRANCH  25  26
ATOM     26  C   UNL A   1      34.319  33.481  30.341  1.00  0.00     0.021 C 
BRANCH  26  27
ATOM     27  C   UNL A   1      35.247  32.549  29.566  1.00  0.00     0.116 C 
BRANCH  27  28
ATOM     28  N   UNL A   1      34.514  31.500  28.878  1.00  0.00    -0.352 N 
ATOM     29  C   UNL A   1      34.970  30.359  28.266  1.00  0.00     0.251 C 
ATOM     30  H   UNL A   1      33.537  31.626  28.846  1.00  0.00     0.163 HD
ATOM     31  O   UNL A   1      34.220  29.704  27.549  1.00  0.00    -0.269 OA
BRANCH  29  32
ATOM     32  C   UNL A   1      36.370  29.917  28.454  1.00  0.00     0.039 A 
ATOM     33  C   UNL A   1      37.275  30.082  27.401  1.00  0.00     0.014 A 
ATOM     34  C   UNL A   1      36.778  29.300  29.639  1.00  0.00     0.014 A 
ATOM     35  C   UNL A   1      38.604  29.680  27.558  1.00  0.00     0.010 A 
ATOM     36  C   UNL A   1      38.117  28.953  29.816  1.00  0.00     0.010 A 
ATOM     37  C   UNL A   1      39.041  29.138  28.777  1.00  0.00    -0.014 A 
BRANCH  37  38
ATOM     38  C   UNL A   1      40.464  28.765  28.983  1.00  0.00     0.031 A 
ATOM     39  C   UNL A   1      41.425  29.745  29.594  1.00  0.00     0.074 A 
ATOM     40  C   UNL A   1      40.903  27.565  28.555  1.00  0.00     0.049 A 
ATOM     41  N   UNL A   1      42.715  29.626  29.791  1.00  0.00    -0.248 NA
ATOM     42  C   UNL A   1      40.870  31.039  30.017  1.00  0.00     0.031 C 
ATOM     43  C   UNL A   1      40.078  26.549  27.901  1.00  0.00     0.029 A 
ATOM     44  N   UNL A   1      42.155  27.003  28.595  1.00  0.00    -0.354 N 
ATOM     45  C   UNL A   1      43.126  30.833  30.342  1.00  0.00     0.074 A 
ATOM     46  C   UNL A   1      41.958  31.686  30.410  1.00  0.00     0.031 C 
ATOM     47  C   UNL A   1      40.842  25.482  27.613  1.00  0.00     0.029 A 
ATOM     48  C   UNL A   1      42.214  25.751  28.032  1.00  0.00     0.049 A 
ATOM     49  H   UNL A   1      42.936  27.454  28.989  1.00  0.00     0.167 HD
ATOM     50  C   UNL A   1      44.360  31.188  30.772  1.00  0.00     0.037 A 
ATOM     51  C   UNL A   1      43.259  24.919  27.867  1.00  0.00     0.037 A 
ATOM     52  C   UNL A   1      45.513  30.325  30.734  1.00  0.00     0.049 A 
ATOM     53  C   UNL A   1      44.615  25.331  28.368  1.00  0.00     0.074 A 
ATOM     54  C   UNL A   1      46.788  30.567  31.212  1.00  0.00     0.029 A 
ATOM     55  N   UNL A   1      45.526  29.052  30.184  1.00  0.00    -0.354 N 
ATOM     56  N   UNL A   1      44.976  26.447  28.954  1.00  0.00    -0.248 NA
ATOM     57  C   UNL A   1      45.709  24.366  28.191  1.00  0.00     0.031 C 
ATOM     58  C   UNL A   1      47.585  29.457  30.915  1.00  0.00     0.029 A 
ATOM     59  C   UNL A   1      46.794  28.505  30.293  1.00  0.00     0.049 A 
ATOM     60  H   UNL A   1      44.750  28.603  29.778  1.00  0.00     0.167 HD
ATOM     61  C   UNL A   1      46.328  26.309  29.237  1.00  0.00     0.074 A 
ATOM     62  C   UNL A   1      46.721  24.996  28.773  1.00  0.00     0.031 C 
ATOM     63  C   UNL A   1      47.169  27.193  29.829  1.00  0.00     0.037 A 
BRANCH  50  64
ATOM     64  C   UNL A   1      44.533  32.572  31.326  1.00  0.00     0.064 A 
ATOM     65  C   UNL A   1      44.767  33.674  30.490  1.00  0.00     0.173 A 
ATOM     66  C   UNL A   1      44.418  32.807  32.705  1.00  0.00     0.173 A 
ATOM     67  F   UNL A   1      44.896  33.502  29.166  1.00  0.00    -0.203 F 
ATOM     68  C   UNL A   1      44.903  34.957  31.016  1.00  0.00     0.198 A 
ATOM     69  C   UNL A   1      44.527  34.094  33.225  1.00  0.00     0.198 A 
ATOM     70  F   UNL A   1      44.189  31.788  33.547  1.00  0.00    -0.203 F 
ATOM     71  F   UNL A   1      45.168  35.988  30.204  1.00  0.00    -0.200 F 
ATOM     72  C   UNL A   1      44.775  35.166  32.382  1.00  0.00     0.200 A 
ATOM     73  F   UNL A   1      44.391  34.297  34.542  1.00  0.00    -0.200 F 
ATOM     74  F   UNL A   1      44.898  36.402  32.885  1.00  0.00    -0.200 F 
ENDBRANCH  50  64
BRANCH  51  75
ATOM     75  C   UNL A   1      43.056  23.598  27.218  1.00  0.00     0.064 A 
ATOM     76  C   UNL A   1      43.477  23.373  25.899  1.00  0.00     0.173 A 
ATOM     77  C   UNL A   1      42.442  22.537  27.897  1.00  0.00     0.173 A 
ATOM     78  F   UNL A   1      44.051  24.364  25.202  1.00  0.00    -0.203 F 
ATOM     79  C   UNL A   1      43.272  22.143  25.279  1.00  0.00     0.198 A 
ATOM     80  C   UNL A   1      42.262  21.298  27.286  1.00  0.00     0.198 A 
ATOM     81  F   UNL A   1      42.028  22.700  29.163  1.00  0.00    -0.203 F 
ATOM     82  F   UNL A   1      43.645  21.968  24.004  1.00  0.00    -0.200 F 
ATOM     83  C   UNL A   1      42.670  21.105  25.974  1.00  0.00     0.200 A 
ATOM     84  F   UNL A   1      41.693  20.294  27.966  1.00  0.00    -0.200 F 
ATOM     85  F   UNL A   1      42.477  19.920  25.379  1.00  0.00    -0.200 F 
ENDBRANCH  51  75
BRANCH  63  86
ATOM     86  C   UNL A   1      48.589  26.757  30.031  1.00  0.00     0.064 A 
ATOM     87  C   UNL A   1      49.592  27.075  29.105  1.00  0.00     0.173 A 
ATOM     88  C   UNL A   1      48.957  26.047  31.184  1.00  0.00     0.173 A 
ATOM     89  F   UNL A   1      49.288  27.738  27.980  1.00  0.00    -0.203 F 
ATOM     90  C   UNL A   1      50.910  26.675  29.315  1.00  0.00     0.198 A 
ATOM     91  C   UNL A   1      50.280  25.674  31.403  1.00  0.00     0.198 A 
ATOM     92  F   UNL A   1      48.034  25.725  32.102  1.00  0.00    -0.203 F 
ATOM     93  F   UNL A   1      51.846  26.951  28.394  1.00  0.00    -0.200 F 
ATOM     94  C   UNL A   1      51.253  25.983  30.466  1.00  0.00     0.200 A 
ATOM     95  F   UNL A   1      50.612  25.014  32.522  1.00  0.00    -0.200 F 
ATOM     96  F   UNL A   1      52.523  25.605  30.669  1.00  0.00    -0.200 F 
ENDBRANCH  63  86
ENDBRANCH  37  38
ENDBRANCH  29  32
ENDBRANCH  27  28
ENDBRANCH  26  27
ENDBRANCH  25  26
ENDBRANCH  24  25
ENDBRANCH   1  24
TORSDOF 17
ENDMDL
MODEL 3
REMARK VINA RESULT:     -10.6      3.469      8.525
REMARK SMILES CCSc1cccc(-c2ccc([C@@H](C)C(=O)NCCCCCCNC(=O)c3ccc(-c4c5nc(c(-c6c(F)c(F)c(F)c(F)c6F)c6ccc([nH]6)c(-c6c(F)c(F)c(F)c(F)c6F)c6nc(c(-c7c(F)c(F)c(F)c(F)c7F)c7ccc4[nH]7)C=C6)C=C5)cc3)cc2)c1
REMARK SMILES IDX 19 1 18 2 17 3 15 4 16 5 13 7 14 8 12 9 9 10 10 11 91 12
REMARK SMILES IDX 11 13 90 14 8 15 4 16 5 17 92 18 6 19 7 20 3 21 2 22 1 23
REMARK SMILES IDX 20 24 21 25 22 26 23 27 24 28 25 29 26 31 27 32 28 33 89 34
REMARK SMILES IDX 29 35 88 36 30 37 31 38 32 39 82 40 33 41 87 42 81 43 83 44
REMARK SMILES IDX 34 45 86 46 80 47 79 48 35 50 67 51 47 52 66 53 48 54 51 55
REMARK SMILES IDX 65 56 84 57 49 58 50 59 64 61 85 62 52 63 36 64 37 65 45 66
REMARK SMILES IDX 38 67 39 68 43 69 46 70 40 71 41 72 44 73 42 74 68 75 69 76
REMARK SMILES IDX 77 77 70 78 71 79 75 80 78 81 72 82 73 83 76 84 74 85 53 86
REMARK SMILES IDX 54 87 62 88 55 89 56 90 60 91 63 92 57 93 58 94 61 95 59 96
REMARK H PARENT 17 6 24 30 83 49 51 60
REMARK Flexibility Score: inf
ROOT
ATOM      1  C   UNL A   1      32.962  29.311  25.249  1.00  0.00     0.021 C 
ENDROOT
BRANCH   1   2
ATOM      2  C   UNL A   1      31.543  28.886  24.863  1.00  0.00     0.116 C 
BRANCH   2   3
ATOM      3  N   UNL A   1      31.126  29.487  23.613  1.00  0.00    -0.356 N 
ATOM      4  C   UNL A   1      30.346  29.017  22.603  1.00  0.00     0.227 C 
ATOM      5  O   UNL A   1      30.254  29.737  21.600  1.00  0.00    -0.274 OA
ATOM      6  H   UNL A   1      31.470  30.399  23.469  1.00  0.00     0.163 HD
BRANCH   4   7
ATOM      7  C   UNL A   1      29.588  27.682  22.661  1.00  0.00     0.105 C 
ATOM      8  C   UNL A   1      28.258  27.749  23.411  1.00  0.00     0.023 C 
BRANCH   7   9
ATOM      9  C   UNL A   1      30.477  26.491  22.979  1.00  0.00    -0.036 A 
ATOM     10  C   UNL A   1      32.305  24.368  23.585  1.00  0.00    -0.018 A 
ATOM     11  C   UNL A   1      31.158  24.601  24.360  1.00  0.00     0.009 A 
ATOM     12  C   UNL A   1      32.482  25.199  22.467  1.00  0.00     0.009 A 
ATOM     13  C   UNL A   1      30.247  25.620  24.047  1.00  0.00     0.005 A 
ATOM     14  C   UNL A   1      31.604  26.252  22.183  1.00  0.00     0.005 A 
BRANCH  10  15
ATOM     15  C   UNL A   1      33.297  23.325  23.954  1.00  0.00    -0.017 A 
ATOM     16  C   UNL A   1      33.799  20.995  24.573  1.00  0.00     0.008 A 
ATOM     17  C   UNL A   1      35.161  21.290  24.589  1.00  0.00     0.015 A 
ATOM     18  C   UNL A   1      32.889  22.014  24.269  1.00  0.00     0.023 A 
ATOM     19  C   UNL A   1      35.602  22.579  24.297  1.00  0.00     0.002 A 
ATOM     20  C   UNL A   1      34.678  23.584  23.989  1.00  0.00     0.009 A 
BRANCH  16  21
ATOM     21  S   UNL A   1      33.254  19.368  25.059  1.00  0.00    -0.126 SA
BRANCH  21  22
ATOM     22  C   UNL A   1      32.492  18.735  23.521  1.00  0.00     0.071 C 
ATOM     23  C   UNL A   1      33.128  17.452  23.012  1.00  0.00     0.016 C 
ENDBRANCH  21  22
ENDBRANCH  16  21
ENDBRANCH  10  15
ENDBRANCH   7   9
ENDBRANCH   4   7
ENDBRANCH   2   3
ENDBRANCH   1   2
BRANCH   1  24
ATOM     24  C   UNL A   1      33.016  30.310  26.410  1.00  0.00     0.002 C 
BRANCH  24  25
ATOM     25  C   UNL A   1      31.654  30.827  26.892  1.00  0.00     0.002 C 
BRANCH  25  26
ATOM     26  C   UNL A   1      31.493  32.351  26.916  1.00  0.00     0.021 C 
BRANCH  26  27
ATOM     27  C   UNL A   1      32.783  33.130  27.164  1.00  0.00     0.116 C 
BRANCH  27  28
ATOM     28  N   UNL A   1      32.524  34.449  27.716  1.00  0.00    -0.352 N 
ATOM     29  C   UNL A   1      33.052  35.060  28.826  1.00  0.00     0.251 C 
ATOM     30  H   UNL A   1      31.869  34.989  27.217  1.00  0.00     0.163 HD
ATOM     31  O   UNL A   1      32.549  36.093  29.256  1.00  0.00    -0.269 OA
BRANCH  29  32
ATOM     32  C   UNL A   1      34.221  34.474  29.519  1.00  0.00     0.039 A 
ATOM     33  C   UNL A   1      34.023  33.822  30.739  1.00  0.00     0.014 A 
ATOM     34  C   UNL A   1      35.510  34.607  28.997  1.00  0.00     0.014 A 
ATOM     35  C   UNL A   1      35.110  33.253  31.408  1.00  0.00     0.010 A 
ATOM     36  C   UNL A   1      36.585  33.990  29.634  1.00  0.00     0.010 A 
ATOM     37  C   UNL A   1      36.396  33.309  30.847  1.00  0.00    -0.014 A 
BRANCH  37  38
ATOM     38  C   UNL A   1      37.550  32.655  31.512  1.00  0.00     0.031 A 
ATOM     39  C   UNL A   1      38.252  31.500  30.854  1.00  0.00     0.074 A 
ATOM     40  C   UNL A   1      37.924  33.060  32.741  1.00  0.00     0.049 A 
ATOM     41  N   UNL A   1      39.233  30.760  31.308  1.00  0.00    -0.248 NA
ATOM     42  C   UNL A   1      37.771  31.108  29.521  1.00  0.00     0.031 C 
ATOM     43  C   UNL A   1      37.290  34.136  33.504  1.00  0.00     0.029 A 
ATOM     44  N   UNL A   1      38.919  32.606  33.571  1.00  0.00    -0.354 N 
ATOM     45  C   UNL A   1      39.473  29.807  30.327  1.00  0.00     0.074 A 
ATOM     46  C   UNL A   1      38.508  30.034  29.271  1.00  0.00     0.031 C 
ATOM     47  C   UNL A   1      37.918  34.267  34.683  1.00  0.00     0.029 A 
ATOM     48  C   UNL A   1      38.978  33.267  34.773  1.00  0.00     0.049 A 
ATOM     49  H   UNL A   1      39.532  31.875  33.327  1.00  0.00     0.167 HD
ATOM     50  C   UNL A   1      40.425  28.844  30.300  1.00  0.00     0.037 A 
ATOM     51  C   UNL A   1      39.791  33.082  35.830  1.00  0.00     0.037 A 
ATOM     52  C   UNL A   1      41.404  28.641  31.336  1.00  0.00     0.049 A 
ATOM     53  C   UNL A   1      40.849  32.017  35.768  1.00  0.00     0.074 A 
ATOM     54  C   UNL A   1      42.454  27.741  31.367  1.00  0.00     0.029 A 
ATOM     55  N   UNL A   1      41.451  29.352  32.526  1.00  0.00    -0.354 N 
ATOM     56  N   UNL A   1      41.113  31.169  34.803  1.00  0.00    -0.248 NA
ATOM     57  C   UNL A   1      41.728  31.886  36.938  1.00  0.00     0.031 C 
ATOM     58  C   UNL A   1      43.113  27.878  32.593  1.00  0.00     0.029 A 
ATOM     59  C   UNL A   1      42.500  28.895  33.307  1.00  0.00     0.049 A 
ATOM     60  H   UNL A   1      40.832  30.074  32.778  1.00  0.00     0.167 HD
ATOM     61  C   UNL A   1      42.201  30.424  35.237  1.00  0.00     0.074 A 
ATOM     62  C   UNL A   1      42.558  30.928  36.547  1.00  0.00     0.031 C 
ATOM     63  C   UNL A   1      42.845  29.411  34.608  1.00  0.00     0.037 A 
BRANCH  50  64
ATOM     64  C   UNL A   1      40.460  27.932  29.108  1.00  0.00     0.064 A 
ATOM     65  C   UNL A   1      39.692  26.758  29.059  1.00  0.00     0.173 A 
ATOM     66  C   UNL A   1      41.233  28.259  27.984  1.00  0.00     0.173 A 
ATOM     67  F   UNL A   1      38.945  26.395  30.111  1.00  0.00    -0.203 F 
ATOM     68  C   UNL A   1      39.717  25.933  27.937  1.00  0.00     0.198 A 
ATOM     69  C   UNL A   1      41.234  27.446  26.854  1.00  0.00     0.198 A 
ATOM     70  F   UNL A   1      41.980  29.373  27.978  1.00  0.00    -0.203 F 
ATOM     71  F   UNL A   1      39.009  24.795  27.928  1.00  0.00    -0.200 F 
ATOM     72  C   UNL A   1      40.482  26.281  26.833  1.00  0.00     0.200 A 
ATOM     73  F   UNL A   1      41.963  27.789  25.783  1.00  0.00    -0.200 F 
ATOM     74  F   UNL A   1      40.497  25.490  25.752  1.00  0.00    -0.200 F 
ENDBRANCH  50  64
BRANCH  51  75
ATOM     75  C   UNL A   1      39.649  33.945  37.031  1.00  0.00     0.064 A 
ATOM     76  C   UNL A   1      40.279  35.196  37.097  1.00  0.00     0.173 A 
ATOM     77  C   UNL A   1      38.884  33.541  38.134  1.00  0.00     0.173 A 
ATOM     78  F   UNL A   1      41.038  35.617  36.075  1.00  0.00    -0.203 F 
ATOM     79  C   UNL A   1      40.165  36.001  38.229  1.00  0.00     0.198 A 
ATOM     80  C   UNL A   1      38.748  34.357  39.254  1.00  0.00     0.198 A 
ATOM     81  F   UNL A   1      38.256  32.355  38.117  1.00  0.00    -0.203 F 
ATOM     82  F   UNL A   1      40.813  37.172  38.282  1.00  0.00    -0.200 F 
ATOM     83  C   UNL A   1      39.395  35.583  39.304  1.00  0.00     0.200 A 
ATOM     84  F   UNL A   1      37.991  33.957  40.286  1.00  0.00    -0.200 F 
ATOM     85  F   UNL A   1      39.281  36.359  40.391  1.00  0.00    -0.200 F 
ENDBRANCH  51  75
BRANCH  63  86
ATOM     86  C   UNL A   1      44.018  28.800  35.315  1.00  0.00     0.064 A 
ATOM     87  C   UNL A   1      43.865  27.708  36.180  1.00  0.00     0.173 A 
ATOM     88  C   UNL A   1      45.314  29.289  35.095  1.00  0.00     0.173 A 
ATOM     89  F   UNL A   1      42.644  27.214  36.435  1.00  0.00    -0.203 F 
ATOM     90  C   UNL A   1      44.966  27.142  36.818  1.00  0.00     0.198 A 
ATOM     91  C   UNL A   1      46.415  28.704  35.713  1.00  0.00     0.198 A 
ATOM     92  F   UNL A   1      45.513  30.329  34.271  1.00  0.00    -0.203 F 
ATOM     93  F   UNL A   1      44.791  26.126  37.676  1.00  0.00    -0.200 F 
ATOM     94  C   UNL A   1      46.239  27.635  36.579  1.00  0.00     0.200 A 
ATOM     95  F   UNL A   1      47.647  29.175  35.471  1.00  0.00    -0.200 F 
ATOM     96  F   UNL A   1      47.298  27.086  37.189  1.00  0.00    -0.200 F 
ENDBRANCH  63  86
ENDBRANCH  37  38
ENDBRANCH  29  32
ENDBRANCH  27  28
ENDBRANCH  26  27
ENDBRANCH  25  26
ENDBRANCH  24  25
ENDBRANCH   1  24
TORSDOF 17
ENDMDL
