MODEL 1
REMARK VINA RESULT:     -11.5      0.000      0.000
REMARK SMILES Cc1ccc(C)c(OCCNC(=O)CCC(=O)NCCCCCCNC(=O)c2ccc(-c3c4nc(c(-c5c(F)c(F)c(F)c(F)c5F)c5ccc([nH]5)c(-c5c(F)c(F)c(F)c(F)c5F)c5nc(c(-c6c(F)c(F)c(F)c(F)c6F)c6ccc3[nH]6)C=C5)C=C4)cc2)c1
REMARK SMILES IDX 19 1 18 2 16 3 17 4 15 6 14 7 12 8 11 9 13 11 10 12 9 13
REMARK SMILES IDX 8 14 7 15 1 16 2 17 3 18 91 19 4 20 5 21 6 22 20 23 21 24
REMARK SMILES IDX 22 25 23 26 24 27 25 28 26 29 27 31 28 32 29 33 90 34 30 35
REMARK SMILES IDX 89 36 31 37 32 38 33 39 83 40 34 41 88 42 82 43 84 44 35 45
REMARK SMILES IDX 87 46 81 47 80 48 36 50 68 51 48 52 67 53 49 54 52 55 66 56
REMARK SMILES IDX 85 57 50 58 51 59 65 61 86 62 53 63 37 64 38 65 46 66 39 67
REMARK SMILES IDX 40 68 44 69 47 70 41 71 42 72 45 73 43 74 69 75 70 76 78 77
REMARK SMILES IDX 71 78 72 79 76 80 79 81 73 82 74 83 77 84 75 85 54 86 55 87
REMARK SMILES IDX 63 88 56 89 57 90 61 91 64 92 58 93 59 94 62 95 60 96
REMARK H PARENT 18 5 11 10 25 30 84 49 52 60
REMARK Flexibility Score: inf
ROOT
ATOM      1  C   UNL A   1      37.475  21.928  25.571  1.00  0.00     0.116 C 
ENDROOT
BRANCH   1   2
ATOM      2  N   UNL A   1      36.297  22.384  26.297  1.00  0.00    -0.356 N 
ATOM      3  C   UNL A   1      34.987  22.406  25.924  1.00  0.00     0.220 C 
ATOM      4  O   UNL A   1      34.109  22.666  26.745  1.00  0.00    -0.275 OA
ATOM      5  H   UNL A   1      36.476  22.731  27.200  1.00  0.00     0.163 HD
BRANCH   3   6
ATOM      6  C   UNL A   1      34.682  22.267  24.474  1.00  0.00     0.110 C 
BRANCH   6   7
ATOM      7  C   UNL A   1      33.388  21.491  24.309  1.00  0.00     0.110 C 
BRANCH   7   8
ATOM      8  C   UNL A   1      32.215  22.168  23.619  1.00  0.00     0.220 C 
ATOM      9  N   UNL A   1      31.156  22.769  24.235  1.00  0.00    -0.353 N 
ATOM     10  H   UNL A   1      30.487  23.034  23.564  1.00  0.00     0.163 HD
ATOM     11  O   UNL A   1      32.180  22.145  22.378  1.00  0.00    -0.275 OA
BRANCH   9  12
ATOM     12  C   UNL A   1      30.684  23.157  25.604  1.00  0.00     0.157 C 
BRANCH  12  13
ATOM     13  C   UNL A   1      30.515  24.709  26.220  1.00  0.00     0.250 C 
BRANCH  13  14
ATOM     14  O   UNL A   1      31.616  25.363  26.885  1.00  0.00    -0.491 OA
BRANCH  14  15
ATOM     15  C   UNL A   1      32.580  26.207  26.305  1.00  0.00     0.122 A 
ATOM     16  C   UNL A   1      33.614  25.575  22.700  1.00  0.00     0.044 C 
ATOM     17  C   UNL A   1      33.432  26.346  23.983  1.00  0.00    -0.047 A 
ATOM     18  C   UNL A   1      33.200  27.711  23.949  1.00  0.00     0.004 A 
ATOM     19  C   UNL A   1      33.254  25.653  25.197  1.00  0.00     0.050 A 
ATOM     20  C   UNL A   1      32.758  28.346  25.109  1.00  0.00     0.007 A 
ATOM     21  C   UNL A   1      32.403  27.608  26.277  1.00  0.00    -0.009 A 
ATOM     22  C   UNL A   1      31.733  28.404  27.357  1.00  0.00     0.048 C 
ENDBRANCH  14  15
ENDBRANCH  13  14
ENDBRANCH  12  13
ENDBRANCH   9  12
ENDBRANCH   7   8
ENDBRANCH   6   7
ENDBRANCH   3   6
ENDBRANCH   1   2
BRANCH   1  23
ATOM     23  C   UNL A   1      38.928  22.185  26.076  1.00  0.00     0.021 C 
BRANCH  23  24
ATOM     24  C   UNL A   1      40.017  21.124  26.356  1.00  0.00     0.002 C 
BRANCH  24  25
ATOM     25  C   UNL A   1      40.916  21.237  27.607  1.00  0.00     0.002 C 
BRANCH  25  26
ATOM     26  C   UNL A   1      42.285  20.640  27.424  1.00  0.00     0.021 C 
BRANCH  26  27
ATOM     27  C   UNL A   1      42.819  20.781  26.034  1.00  0.00     0.116 C 
BRANCH  27  28
ATOM     28  N   UNL A   1      43.375  19.692  25.261  1.00  0.00    -0.352 N 
ATOM     29  C   UNL A   1      44.515  19.872  24.466  1.00  0.00     0.251 C 
ATOM     30  H   UNL A   1      42.944  18.807  25.295  1.00  0.00     0.163 HD
ATOM     31  O   UNL A   1      45.017  18.974  23.795  1.00  0.00    -0.269 OA
BRANCH  29  32
ATOM     32  C   UNL A   1      45.115  21.242  24.501  1.00  0.00     0.039 A 
ATOM     33  C   UNL A   1      45.780  21.571  25.691  1.00  0.00     0.014 A 
ATOM     34  C   UNL A   1      44.422  22.220  23.785  1.00  0.00     0.014 A 
ATOM     35  C   UNL A   1      45.473  22.775  26.334  1.00  0.00     0.010 A 
ATOM     36  C   UNL A   1      44.086  23.397  24.456  1.00  0.00     0.010 A 
ATOM     37  C   UNL A   1      44.513  23.629  25.782  1.00  0.00    -0.014 A 
BRANCH  37  38
ATOM     38  C   UNL A   1      44.043  24.813  26.521  1.00  0.00     0.031 A 
ATOM     39  C   UNL A   1      44.940  25.974  26.389  1.00  0.00     0.074 A 
ATOM     40  C   UNL A   1      42.906  25.072  27.204  1.00  0.00     0.049 A 
ATOM     41  N   UNL A   1      45.931  26.254  27.163  1.00  0.00    -0.248 NA
ATOM     42  C   UNL A   1      44.812  26.829  25.203  1.00  0.00     0.031 C 
ATOM     43  C   UNL A   1      41.629  24.370  27.231  1.00  0.00     0.029 A 
ATOM     44  N   UNL A   1      42.667  26.157  28.014  1.00  0.00    -0.354 N 
ATOM     45  C   UNL A   1      46.479  27.409  26.640  1.00  0.00     0.074 A 
ATOM     46  C   UNL A   1      45.917  27.566  25.322  1.00  0.00     0.031 C 
ATOM     47  C   UNL A   1      40.700  25.134  27.863  1.00  0.00     0.029 A 
ATOM     48  C   UNL A   1      41.351  26.309  28.425  1.00  0.00     0.049 A 
ATOM     49  H   UNL A   1      43.380  26.781  28.284  1.00  0.00     0.167 HD
ATOM     50  C   UNL A   1      47.170  28.285  27.414  1.00  0.00     0.037 A 
ATOM     51  C   UNL A   1      40.849  27.340  29.154  1.00  0.00     0.037 A 
ATOM     52  C   UNL A   1      47.433  27.763  28.734  1.00  0.00     0.049 A 
ATOM     53  C   UNL A   1      41.981  28.005  29.848  1.00  0.00     0.074 A 
ATOM     54  C   UNL A   1      48.019  26.614  29.234  1.00  0.00     0.029 A 
ATOM     55  N   UNL A   1      46.739  28.301  29.792  1.00  0.00    -0.354 N 
ATOM     56  N   UNL A   1      42.620  27.510  30.869  1.00  0.00    -0.248 NA
ATOM     57  C   UNL A   1      42.630  29.132  29.196  1.00  0.00     0.031 C 
ATOM     58  C   UNL A   1      47.264  26.278  30.400  1.00  0.00     0.029 A 
ATOM     59  C   UNL A   1      46.276  27.249  30.542  1.00  0.00     0.049 A 
ATOM     60  H   UNL A   1      46.603  29.258  29.977  1.00  0.00     0.167 HD
ATOM     61  C   UNL A   1      43.919  27.965  30.723  1.00  0.00     0.074 A 
ATOM     62  C   UNL A   1      43.835  29.060  29.767  1.00  0.00     0.031 C 
ATOM     63  C   UNL A   1      44.975  27.224  31.165  1.00  0.00     0.037 A 
BRANCH  50  64
ATOM     64  C   UNL A   1      47.328  29.737  27.071  1.00  0.00     0.064 A 
ATOM     65  C   UNL A   1      48.599  30.328  27.161  1.00  0.00     0.173 A 
ATOM     66  C   UNL A   1      46.249  30.623  26.863  1.00  0.00     0.173 A 
ATOM     67  F   UNL A   1      49.681  29.578  27.415  1.00  0.00    -0.203 F 
ATOM     68  C   UNL A   1      48.772  31.709  27.070  1.00  0.00     0.198 A 
ATOM     69  C   UNL A   1      46.433  31.992  26.696  1.00  0.00     0.198 A 
ATOM     70  F   UNL A   1      44.973  30.219  26.926  1.00  0.00    -0.203 F 
ATOM     71  F   UNL A   1      49.984  32.241  27.276  1.00  0.00    -0.200 F 
ATOM     72  C   UNL A   1      47.691  32.539  26.824  1.00  0.00     0.200 A 
ATOM     73  F   UNL A   1      45.369  32.779  26.480  1.00  0.00    -0.200 F 
ATOM     74  F   UNL A   1      47.852  33.866  26.767  1.00  0.00    -0.200 F 
ENDBRANCH  50  64
BRANCH  51  75
ATOM     75  C   UNL A   1      39.482  27.908  29.224  1.00  0.00     0.064 A 
ATOM     76  C   UNL A   1      38.791  27.999  30.447  1.00  0.00     0.173 A 
ATOM     77  C   UNL A   1      38.942  28.634  28.147  1.00  0.00     0.173 A 
ATOM     78  F   UNL A   1      39.263  27.386  31.542  1.00  0.00    -0.203 F 
ATOM     79  C   UNL A   1      37.646  28.789  30.590  1.00  0.00     0.198 A 
ATOM     80  C   UNL A   1      37.790  29.411  28.286  1.00  0.00     0.198 A 
ATOM     81  F   UNL A   1      39.594  28.701  26.977  1.00  0.00    -0.203 F 
ATOM     82  F   UNL A   1      37.065  28.914  31.792  1.00  0.00    -0.200 F 
ATOM     83  C   UNL A   1      37.150  29.499  29.511  1.00  0.00     0.200 A 
ATOM     84  F   UNL A   1      37.345  30.138  27.251  1.00  0.00    -0.200 F 
ATOM     85  F   UNL A   1      36.092  30.309  29.663  1.00  0.00    -0.200 F 
ENDBRANCH  51  75
BRANCH  63  86
ATOM     86  C   UNL A   1      44.691  26.122  32.145  1.00  0.00     0.064 A 
ATOM     87  C   UNL A   1      44.659  26.296  33.540  1.00  0.00     0.173 A 
ATOM     88  C   UNL A   1      44.355  24.857  31.643  1.00  0.00     0.173 A 
ATOM     89  F   UNL A   1      44.859  27.502  34.090  1.00  0.00    -0.203 F 
ATOM     90  C   UNL A   1      44.372  25.231  34.391  1.00  0.00     0.198 A 
ATOM     91  C   UNL A   1      44.028  23.806  32.494  1.00  0.00     0.198 A 
ATOM     92  F   UNL A   1      44.316  24.647  30.317  1.00  0.00    -0.203 F 
ATOM     93  F   UNL A   1      44.377  25.413  35.720  1.00  0.00    -0.200 F 
ATOM     94  C   UNL A   1      44.053  23.988  33.868  1.00  0.00     0.200 A 
ATOM     95  F   UNL A   1      43.673  22.618  31.984  1.00  0.00    -0.200 F 
ATOM     96  F   UNL A   1      43.746  22.972  34.686  1.00  0.00    -0.200 F 
ENDBRANCH  63  86
ENDBRANCH  37  38
ENDBRANCH  29  32
ENDBRANCH  27  28
ENDBRANCH  26  27
ENDBRANCH  25  26
ENDBRANCH  24  25
ENDBRANCH  23  24
ENDBRANCH   1  23
TORSDOF 19
ENDMDL
MODEL 2
REMARK VINA RESULT:     -11.3      1.177      2.620
REMARK SMILES Cc1ccc(C)c(OCCNC(=O)CCC(=O)NCCCCCCNC(=O)c2ccc(-c3c4nc(c(-c5c(F)c(F)c(F)c(F)c5F)c5ccc([nH]5)c(-c5c(F)c(F)c(F)c(F)c5F)c5nc(c(-c6c(F)c(F)c(F)c(F)c6F)c6ccc3[nH]6)C=C5)C=C4)cc2)c1
REMARK SMILES IDX 19 1 18 2 16 3 17 4 15 6 14 7 12 8 11 9 13 11 10 12 9 13
REMARK SMILES IDX 8 14 7 15 1 16 2 17 3 18 91 19 4 20 5 21 6 22 20 23 21 24
REMARK SMILES IDX 22 25 23 26 24 27 25 28 26 29 27 31 28 32 29 33 90 34 30 35
REMARK SMILES IDX 89 36 31 37 32 38 33 39 83 40 34 41 88 42 82 43 84 44 35 45
REMARK SMILES IDX 87 46 81 47 80 48 36 50 68 51 48 52 67 53 49 54 52 55 66 56
REMARK SMILES IDX 85 57 50 58 51 59 65 61 86 62 53 63 37 64 38 65 46 66 39 67
REMARK SMILES IDX 40 68 44 69 47 70 41 71 42 72 45 73 43 74 69 75 70 76 78 77
REMARK SMILES IDX 71 78 72 79 76 80 79 81 73 82 74 83 77 84 75 85 54 86 55 87
REMARK SMILES IDX 63 88 56 89 57 90 61 91 64 92 58 93 59 94 62 95 60 96
REMARK H PARENT 18 5 11 10 25 30 84 49 52 60
REMARK Flexibility Score: inf
ROOT
ATOM      1  C   UNL A   1      37.593  22.125  25.596  1.00  0.00     0.116 C 
ENDROOT
BRANCH   1   2
ATOM      2  N   UNL A   1      36.394  22.297  26.404  1.00  0.00    -0.356 N 
ATOM      3  C   UNL A   1      35.313  23.105  26.215  1.00  0.00     0.220 C 
ATOM      4  O   UNL A   1      34.311  22.982  26.919  1.00  0.00    -0.275 OA
ATOM      5  H   UNL A   1      36.358  21.742  27.215  1.00  0.00     0.163 HD
BRANCH   3   6
ATOM      6  C   UNL A   1      35.455  24.229  25.251  1.00  0.00     0.110 C 
BRANCH   6   7
ATOM      7  C   UNL A   1      34.849  23.823  23.919  1.00  0.00     0.110 C 
BRANCH   7   8
ATOM      8  C   UNL A   1      33.706  24.652  23.356  1.00  0.00     0.220 C 
ATOM      9  N   UNL A   1      32.411  24.636  23.786  1.00  0.00    -0.353 N 
ATOM     10  H   UNL A   1      31.854  25.183  23.186  1.00  0.00     0.163 HD
ATOM     11  O   UNL A   1      33.946  25.387  22.385  1.00  0.00    -0.275 OA
BRANCH   9  12
ATOM     12  C   UNL A   1      31.563  24.055  24.877  1.00  0.00     0.157 C 
BRANCH  12  13
ATOM     13  C   UNL A   1      31.105  22.451  25.064  1.00  0.00     0.250 C 
BRANCH  13  14
ATOM     14  O   UNL A   1      32.057  21.457  25.496  1.00  0.00    -0.491 OA
BRANCH  14  15
ATOM     15  C   UNL A   1      32.706  20.497  24.700  1.00  0.00     0.122 A 
ATOM     16  C   UNL A   1      32.637  16.863  25.820  1.00  0.00     0.044 C 
ATOM     17  C   UNL A   1      32.783  18.027  24.873  1.00  0.00    -0.047 A 
ATOM     18  C   UNL A   1      32.416  17.893  23.544  1.00  0.00     0.004 A 
ATOM     19  C   UNL A   1      33.057  19.312  25.380  1.00  0.00     0.050 A 
ATOM     20  C   UNL A   1      32.291  19.042  22.763  1.00  0.00     0.007 A 
ATOM     21  C   UNL A   1      32.389  20.347  23.331  1.00  0.00    -0.009 A 
ATOM     22  C   UNL A   1      32.007  21.473  22.417  1.00  0.00     0.048 C 
ENDBRANCH  14  15
ENDBRANCH  13  14
ENDBRANCH  12  13
ENDBRANCH   9  12
ENDBRANCH   7   8
ENDBRANCH   6   7
ENDBRANCH   3   6
ENDBRANCH   1   2
BRANCH   1  23
ATOM     23  C   UNL A   1      39.031  22.241  26.187  1.00  0.00     0.021 C 
BRANCH  23  24
ATOM     24  C   UNL A   1      40.177  21.211  26.057  1.00  0.00     0.002 C 
BRANCH  24  25
ATOM     25  C   UNL A   1      40.781  20.550  27.316  1.00  0.00     0.002 C 
BRANCH  25  26
ATOM     26  C   UNL A   1      42.284  20.608  27.367  1.00  0.00     0.021 C 
BRANCH  26  27
ATOM     27  C   UNL A   1      42.921  20.804  26.029  1.00  0.00     0.116 C 
BRANCH  27  28
ATOM     28  N   UNL A   1      43.462  19.733  25.220  1.00  0.00    -0.352 N 
ATOM     29  C   UNL A   1      44.590  19.930  24.412  1.00  0.00     0.251 C 
ATOM     30  H   UNL A   1      43.029  18.848  25.239  1.00  0.00     0.163 HD
ATOM     31  O   UNL A   1      45.079  19.048  23.711  1.00  0.00    -0.269 OA
BRANCH  29  32
ATOM     32  C   UNL A   1      45.194  21.298  24.471  1.00  0.00     0.039 A 
ATOM     33  C   UNL A   1      45.835  21.614  25.677  1.00  0.00     0.014 A 
ATOM     34  C   UNL A   1      44.519  22.284  23.749  1.00  0.00     0.014 A 
ATOM     35  C   UNL A   1      45.520  22.814  26.324  1.00  0.00     0.010 A 
ATOM     36  C   UNL A   1      44.174  23.456  24.424  1.00  0.00     0.010 A 
ATOM     37  C   UNL A   1      44.574  23.675  25.760  1.00  0.00    -0.014 A 
BRANCH  37  38
ATOM     38  C   UNL A   1      44.093  24.855  26.499  1.00  0.00     0.031 A 
ATOM     39  C   UNL A   1      44.975  26.027  26.362  1.00  0.00     0.074 A 
ATOM     40  C   UNL A   1      42.955  25.101  27.186  1.00  0.00     0.049 A 
ATOM     41  N   UNL A   1      45.966  26.319  27.132  1.00  0.00    -0.248 NA
ATOM     42  C   UNL A   1      44.833  26.878  25.176  1.00  0.00     0.031 C 
ATOM     43  C   UNL A   1      41.687  24.384  27.219  1.00  0.00     0.029 A 
ATOM     44  N   UNL A   1      42.707  26.185  27.996  1.00  0.00    -0.354 N 
ATOM     45  C   UNL A   1      46.499  27.479  26.606  1.00  0.00     0.074 A 
ATOM     46  C   UNL A   1      45.930  27.628  25.289  1.00  0.00     0.031 C 
ATOM     47  C   UNL A   1      40.752  25.139  27.853  1.00  0.00     0.029 A 
ATOM     48  C   UNL A   1      41.391  26.322  28.412  1.00  0.00     0.049 A 
ATOM     49  H   UNL A   1      43.414  26.817  28.262  1.00  0.00     0.167 HD
ATOM     50  C   UNL A   1      47.182  28.365  27.375  1.00  0.00     0.037 A 
ATOM     51  C   UNL A   1      40.880  27.347  29.141  1.00  0.00     0.037 A 
ATOM     52  C   UNL A   1      47.456  27.848  28.695  1.00  0.00     0.049 A 
ATOM     53  C   UNL A   1      42.006  28.027  29.831  1.00  0.00     0.074 A 
ATOM     54  C   UNL A   1      48.058  26.706  29.195  1.00  0.00     0.029 A 
ATOM     55  N   UNL A   1      46.761  28.379  29.755  1.00  0.00    -0.354 N 
ATOM     56  N   UNL A   1      42.655  27.540  30.849  1.00  0.00    -0.248 NA
ATOM     57  C   UNL A   1      42.640  29.161  29.175  1.00  0.00     0.031 C 
ATOM     58  C   UNL A   1      47.311  26.363  30.364  1.00  0.00     0.029 A 
ATOM     59  C   UNL A   1      46.312  27.323  30.509  1.00  0.00     0.049 A 
ATOM     60  H   UNL A   1      46.614  29.335  29.940  1.00  0.00     0.167 HD
ATOM     61  C   UNL A   1      43.948  28.010  30.697  1.00  0.00     0.074 A 
ATOM     62  C   UNL A   1      43.847  29.104  29.741  1.00  0.00     0.031 C 
ATOM     63  C   UNL A   1      45.015  27.282  31.137  1.00  0.00     0.037 A 
BRANCH  50  64
ATOM     64  C   UNL A   1      47.321  29.818  27.030  1.00  0.00     0.064 A 
ATOM     65  C   UNL A   1      48.589  30.420  27.098  1.00  0.00     0.173 A 
ATOM     66  C   UNL A   1      46.232  30.695  26.842  1.00  0.00     0.173 A 
ATOM     67  F   UNL A   1      49.682  29.679  27.332  1.00  0.00    -0.203 F 
ATOM     68  C   UNL A   1      48.748  31.802  27.004  1.00  0.00     0.198 A 
ATOM     69  C   UNL A   1      46.401  32.065  26.672  1.00  0.00     0.198 A 
ATOM     70  F   UNL A   1      44.961  30.280  26.927  1.00  0.00    -0.203 F 
ATOM     71  F   UNL A   1      49.960  32.344  27.188  1.00  0.00    -0.200 F 
ATOM     72  C   UNL A   1      47.657  32.623  26.778  1.00  0.00     0.200 A 
ATOM     73  F   UNL A   1      45.327  32.843  26.475  1.00  0.00    -0.200 F 
ATOM     74  F   UNL A   1      47.805  33.952  26.719  1.00  0.00    -0.200 F 
ENDBRANCH  50  64
BRANCH  51  75
ATOM     75  C   UNL A   1      39.506  27.899  29.216  1.00  0.00     0.064 A 
ATOM     76  C   UNL A   1      38.827  28.004  30.445  1.00  0.00     0.173 A 
ATOM     77  C   UNL A   1      38.946  28.600  28.132  1.00  0.00     0.173 A 
ATOM     78  F   UNL A   1      39.318  27.416  31.545  1.00  0.00    -0.203 F 
ATOM     79  C   UNL A   1      37.674  28.782  30.585  1.00  0.00     0.198 A 
ATOM     80  C   UNL A   1      37.785  29.364  28.270  1.00  0.00     0.198 A 
ATOM     81  F   UNL A   1      39.585  28.654  26.954  1.00  0.00    -0.203 F 
ATOM     82  F   UNL A   1      37.103  28.920  31.791  1.00  0.00    -0.200 F 
ATOM     83  C   UNL A   1      37.157  29.466  29.500  1.00  0.00     0.200 A 
ATOM     84  F   UNL A   1      37.321  30.067  27.227  1.00  0.00    -0.200 F 
ATOM     85  F   UNL A   1      36.091  30.265  29.649  1.00  0.00    -0.200 F 
ENDBRANCH  51  75
BRANCH  63  86
ATOM     86  C   UNL A   1      44.747  26.179  32.119  1.00  0.00     0.064 A 
ATOM     87  C   UNL A   1      44.725  26.353  33.514  1.00  0.00     0.173 A 
ATOM     88  C   UNL A   1      44.418  24.911  31.620  1.00  0.00     0.173 A 
ATOM     89  F   UNL A   1      44.920  27.561  34.062  1.00  0.00    -0.203 F 
ATOM     90  C   UNL A   1      44.453  25.286  34.368  1.00  0.00     0.198 A 
ATOM     91  C   UNL A   1      44.106  23.857  32.474  1.00  0.00     0.198 A 
ATOM     92  F   UNL A   1      44.369  24.700  30.295  1.00  0.00    -0.203 F 
ATOM     93  F   UNL A   1      44.468  25.469  35.697  1.00  0.00    -0.200 F 
ATOM     94  C   UNL A   1      44.140  24.041  33.847  1.00  0.00     0.200 A 
ATOM     95  F   UNL A   1      43.757  22.667  31.967  1.00  0.00    -0.200 F 
ATOM     96  F   UNL A   1      43.848  23.022  34.669  1.00  0.00    -0.200 F 
ENDBRANCH  63  86
ENDBRANCH  37  38
ENDBRANCH  29  32
ENDBRANCH  27  28
ENDBRANCH  26  27
ENDBRANCH  25  26
ENDBRANCH  24  25
ENDBRANCH  23  24
ENDBRANCH   1  23
TORSDOF 19
ENDMDL
MODEL 3
REMARK VINA RESULT:     -11.2      2.843      4.132
REMARK SMILES Cc1ccc(C)c(OCCNC(=O)CCC(=O)NCCCCCCNC(=O)c2ccc(-c3c4nc(c(-c5c(F)c(F)c(F)c(F)c5F)c5ccc([nH]5)c(-c5c(F)c(F)c(F)c(F)c5F)c5nc(c(-c6c(F)c(F)c(F)c(F)c6F)c6ccc3[nH]6)C=C5)C=C4)cc2)c1
REMARK SMILES IDX 19 1 18 2 16 3 17 4 15 6 14 7 12 8 11 9 13 11 10 12 9 13
REMARK SMILES IDX 8 14 7 15 1 16 2 17 3 18 91 19 4 20 5 21 6 22 20 23 21 24
REMARK SMILES IDX 22 25 23 26 24 27 25 28 26 29 27 31 28 32 29 33 90 34 30 35
REMARK SMILES IDX 89 36 31 37 32 38 33 39 83 40 34 41 88 42 82 43 84 44 35 45
REMARK SMILES IDX 87 46 81 47 80 48 36 50 68 51 48 52 67 53 49 54 52 55 66 56
REMARK SMILES IDX 85 57 50 58 51 59 65 61 86 62 53 63 37 64 38 65 46 66 39 67
REMARK SMILES IDX 40 68 44 69 47 70 41 71 42 72 45 73 43 74 69 75 70 76 78 77
REMARK SMILES IDX 71 78 72 79 76 80 79 81 73 82 74 83 77 84 75 85 54 86 55 87
REMARK SMILES IDX 63 88 56 89 57 90 61 91 64 92 58 93 59 94 62 95 60 96
REMARK H PARENT 18 5 11 10 25 30 84 49 52 60
REMARK Flexibility Score: inf
ROOT
ATOM      1  C   UNL A   1      38.198  21.598  25.518  1.00  0.00     0.116 C 
ENDROOT
BRANCH   1   2
ATOM      2  N   UNL A   1      37.443  22.336  24.515  1.00  0.00    -0.356 N 
ATOM      3  C   UNL A   1      36.098  22.445  24.331  1.00  0.00     0.220 C 
ATOM      4  O   UNL A   1      35.642  23.261  23.530  1.00  0.00    -0.275 OA
ATOM      5  H   UNL A   1      37.991  22.835  23.869  1.00  0.00     0.163 HD
BRANCH   3   6
ATOM      6  C   UNL A   1      35.227  21.441  25.001  1.00  0.00     0.110 C 
BRANCH   6   7
ATOM      7  C   UNL A   1      33.849  21.474  24.367  1.00  0.00     0.110 C 
BRANCH   7   8
ATOM      8  C   UNL A   1      32.652  21.053  25.203  1.00  0.00     0.220 C 
ATOM      9  N   UNL A   1      32.127  21.738  26.260  1.00  0.00    -0.353 N 
ATOM     10  H   UNL A   1      31.426  21.200  26.692  1.00  0.00     0.163 HD
ATOM     11  O   UNL A   1      32.114  19.965  24.941  1.00  0.00    -0.275 OA
BRANCH   9  12
ATOM     12  C   UNL A   1      32.274  23.048  26.976  1.00  0.00     0.157 C 
BRANCH  12  13
ATOM     13  C   UNL A   1      32.244  24.585  26.301  1.00  0.00     0.250 C 
BRANCH  13  14
ATOM     14  O   UNL A   1      31.302  25.575  26.763  1.00  0.00    -0.491 OA
BRANCH  14  15
ATOM     15  C   UNL A   1      31.306  26.952  26.477  1.00  0.00     0.122 A 
ATOM     16  C   UNL A   1      34.447  28.956  27.243  1.00  0.00     0.044 C 
ATOM     17  C   UNL A   1      33.124  28.631  26.595  1.00  0.00    -0.047 A 
ATOM     18  C   UNL A   1      32.860  29.052  25.303  1.00  0.00     0.004 A 
ATOM     19  C   UNL A   1      32.259  27.698  27.201  1.00  0.00     0.050 A 
ATOM     20  C   UNL A   1      31.766  28.507  24.630  1.00  0.00     0.007 A 
ATOM     21  C   UNL A   1      31.009  27.431  25.182  1.00  0.00    -0.009 A 
ATOM     22  C   UNL A   1      30.016  26.804  24.249  1.00  0.00     0.048 C 
ENDBRANCH  14  15
ENDBRANCH  13  14
ENDBRANCH  12  13
ENDBRANCH   9  12
ENDBRANCH   7   8
ENDBRANCH   6   7
ENDBRANCH   3   6
ENDBRANCH   1   2
BRANCH   1  23
ATOM     23  C   UNL A   1      39.400  22.219  26.294  1.00  0.00     0.021 C 
BRANCH  23  24
ATOM     24  C   UNL A   1      40.396  21.477  27.216  1.00  0.00     0.002 C 
BRANCH  24  25
ATOM     25  C   UNL A   1      41.200  20.269  26.687  1.00  0.00     0.002 C 
BRANCH  25  26
ATOM     26  C   UNL A   1      42.663  20.556  26.487  1.00  0.00     0.021 C 
BRANCH  26  27
ATOM     27  C   UNL A   1      42.931  21.627  25.478  1.00  0.00     0.116 C 
BRANCH  27  28
ATOM     28  N   UNL A   1      44.108  22.468  25.475  1.00  0.00    -0.352 N 
ATOM     29  C   UNL A   1      44.083  23.756  26.028  1.00  0.00     0.251 C 
ATOM     30  H   UNL A   1      44.943  22.128  25.079  1.00  0.00     0.163 HD
ATOM     31  O   UNL A   1      45.060  24.500  26.045  1.00  0.00    -0.269 OA
BRANCH  29  32
ATOM     32  C   UNL A   1      42.779  24.173  26.632  1.00  0.00     0.039 A 
ATOM     33  C   UNL A   1      41.993  25.014  25.832  1.00  0.00     0.014 A 
ATOM     34  C   UNL A   1      42.779  24.316  28.021  1.00  0.00     0.014 A 
ATOM     35  C   UNL A   1      41.483  26.196  26.379  1.00  0.00     0.010 A 
ATOM     36  C   UNL A   1      42.308  25.520  28.547  1.00  0.00     0.010 A 
ATOM     37  C   UNL A   1      41.764  26.519  27.711  1.00  0.00    -0.014 A 
BRANCH  37  38
ATOM     38  C   UNL A   1      41.392  27.832  28.262  1.00  0.00     0.031 A 
ATOM     39  C   UNL A   1      42.351  28.898  27.924  1.00  0.00     0.074 A 
ATOM     40  C   UNL A   1      40.296  28.268  28.924  1.00  0.00     0.049 A 
ATOM     41  N   UNL A   1      43.383  29.233  28.619  1.00  0.00    -0.248 NA
ATOM     42  C   UNL A   1      42.233  29.562  26.621  1.00  0.00     0.031 C 
ATOM     43  C   UNL A   1      38.982  27.663  29.094  1.00  0.00     0.029 A 
ATOM     44  N   UNL A   1      40.151  29.481  29.556  1.00  0.00    -0.354 N 
ATOM     45  C   UNL A   1      43.981  30.253  27.905  1.00  0.00     0.074 A 
ATOM     46  C   UNL A   1      43.383  30.236  26.593  1.00  0.00     0.031 C 
ATOM     47  C   UNL A   1      38.123  28.576  29.619  1.00  0.00     0.029 A 
ATOM     48  C   UNL A   1      38.862  29.780  29.970  1.00  0.00     0.049 A 
ATOM     49  H   UNL A   1      40.909  30.092  29.705  1.00  0.00     0.167 HD
ATOM     50  C   UNL A   1      44.749  31.194  28.511  1.00  0.00     0.037 A 
ATOM     51  C   UNL A   1      38.448  30.943  30.538  1.00  0.00     0.037 A 
ATOM     52  C   UNL A   1      45.026  30.871  29.890  1.00  0.00     0.049 A 
ATOM     53  C   UNL A   1      39.641  31.635  31.089  1.00  0.00     0.074 A 
ATOM     54  C   UNL A   1      45.560  29.779  30.553  1.00  0.00     0.029 A 
ATOM     55  N   UNL A   1      44.403  31.612  30.866  1.00  0.00    -0.354 N 
ATOM     56  N   UNL A   1      40.284  31.267  32.159  1.00  0.00    -0.248 NA
ATOM     57  C   UNL A   1      40.333  32.602  30.249  1.00  0.00     0.031 C 
ATOM     58  C   UNL A   1      44.828  29.681  31.776  1.00  0.00     0.029 A 
ATOM     59  C   UNL A   1      43.905  30.724  31.786  1.00  0.00     0.049 A 
ATOM     60  H   UNL A   1      44.331  32.594  30.900  1.00  0.00     0.167 HD
ATOM     61  C   UNL A   1      41.602  31.609  31.909  1.00  0.00     0.074 A 
ATOM     62  C   UNL A   1      41.550  32.543  30.793  1.00  0.00     0.031 C 
ATOM     63  C   UNL A   1      42.627  30.880  32.438  1.00  0.00     0.037 A 
BRANCH  50  64
ATOM     64  C   UNL A   1      44.981  32.561  27.937  1.00  0.00     0.064 A 
ATOM     65  C   UNL A   1      46.279  32.930  27.550  1.00  0.00     0.173 A 
ATOM     66  C   UNL A   1      44.023  33.597  27.949  1.00  0.00     0.173 A 
ATOM     67  F   UNL A   1      47.275  32.030  27.562  1.00  0.00    -0.203 F 
ATOM     68  C   UNL A   1      46.598  34.247  27.219  1.00  0.00     0.198 A 
ATOM     69  C   UNL A   1      44.325  34.893  27.543  1.00  0.00     0.198 A 
ATOM     70  F   UNL A   1      42.794  33.425  28.454  1.00  0.00    -0.203 F 
ATOM     71  F   UNL A   1      47.871  34.578  26.967  1.00  0.00    -0.200 F 
ATOM     72  C   UNL A   1      45.618  35.224  27.202  1.00  0.00     0.200 A 
ATOM     73  F   UNL A   1      43.365  35.828  27.556  1.00  0.00    -0.200 F 
ATOM     74  F   UNL A   1      45.929  36.494  26.914  1.00  0.00    -0.200 F 
ENDBRANCH  50  64
BRANCH  51  75
ATOM     75  C   UNL A   1      37.120  31.602  30.550  1.00  0.00     0.064 A 
ATOM     76  C   UNL A   1      36.354  31.679  31.730  1.00  0.00     0.173 A 
ATOM     77  C   UNL A   1      36.705  32.418  29.483  1.00  0.00     0.173 A 
ATOM     78  F   UNL A   1      36.708  30.979  32.817  1.00  0.00    -0.203 F 
ATOM     79  C   UNL A   1      35.258  32.539  31.841  1.00  0.00     0.198 A 
ATOM     80  C   UNL A   1      35.600  33.266  29.590  1.00  0.00     0.198 A 
ATOM     81  F   UNL A   1      37.439  32.498  28.363  1.00  0.00    -0.203 F 
ATOM     82  F   UNL A   1      34.605  32.643  33.008  1.00  0.00    -0.200 F 
ATOM     83  C   UNL A   1      34.885  33.337  30.774  1.00  0.00     0.200 A 
ATOM     84  F   UNL A   1      35.277  34.074  28.570  1.00  0.00    -0.200 F 
ATOM     85  F   UNL A   1      33.876  34.210  30.901  1.00  0.00    -0.200 F 
ENDBRANCH  51  75
BRANCH  63  86
ATOM     86  C   UNL A   1      42.313  29.968  33.588  1.00  0.00     0.064 A 
ATOM     87  C   UNL A   1      41.842  28.651  33.444  1.00  0.00     0.173 A 
ATOM     88  C   UNL A   1      42.580  30.422  34.888  1.00  0.00     0.173 A 
ATOM     89  F   UNL A   1      41.669  28.109  32.231  1.00  0.00    -0.203 F 
ATOM     90  C   UNL A   1      41.585  27.854  34.557  1.00  0.00     0.198 A 
ATOM     91  C   UNL A   1      42.361  29.608  35.995  1.00  0.00     0.198 A 
ATOM     92  F   UNL A   1      43.082  31.652  35.082  1.00  0.00    -0.203 F 
ATOM     93  F   UNL A   1      41.107  26.610  34.397  1.00  0.00    -0.200 F 
ATOM     94  C   UNL A   1      41.849  28.331  35.831  1.00  0.00     0.200 A 
ATOM     95  F   UNL A   1      42.663  30.055  37.222  1.00  0.00    -0.200 F 
ATOM     96  F   UNL A   1      41.632  27.551  36.900  1.00  0.00    -0.200 F 
ENDBRANCH  63  86
ENDBRANCH  37  38
ENDBRANCH  29  32
ENDBRANCH  27  28
ENDBRANCH  26  27
ENDBRANCH  25  26
ENDBRANCH  24  25
ENDBRANCH  23  24
ENDBRANCH   1  23
TORSDOF 19
ENDMDL
