MODEL 1
REMARK VINA RESULT:     -10.1      0.000      0.000
REMARK SMILES O=C(COc1ccccc1Br)Nc1cccc(C(=O)Nc2ccc(C(=O)NCCCCCCNC(=O)c3ccc(-c4c5nc(c(-c6c(F)c(F)c(F)c(F)c6F)c6ccc([nH]6)c(-c6c(F)c(F)c(F)c(F)c6F)c6nc(c(-c7c(F)c(F)c(F)c(F)c7F)c7ccc4[nH]7)C=C6)C=C5)cc3)cc2)c1
REMARK SMILES IDX 28 1 27 2 25 3 26 4 24 6 21 7 22 8 101 9 23 10 100 11 20 12
REMARK SMILES IDX 18 13 19 14 17 16 13 17 14 18 102 19 15 20 16 21 12 22 1 23
REMARK SMILES IDX 2 24 3 26 4 27 5 28 6 29 10 30 7 31 9 32 11 33 8 34 29 35
REMARK SMILES IDX 30 36 31 37 32 38 33 39 34 40 35 41 36 43 37 44 38 45 99 46
REMARK SMILES IDX 39 47 98 48 40 49 41 50 42 51 92 52 43 53 97 54 91 55 93 56
REMARK SMILES IDX 44 57 96 58 90 59 89 60 45 62 77 63 57 64 76 65 58 66 61 67
REMARK SMILES IDX 75 68 94 69 59 70 60 71 74 73 95 74 62 75 46 76 47 77 55 78
REMARK SMILES IDX 48 79 49 80 53 81 56 82 50 83 51 84 54 85 52 86 78 87 79 88
REMARK SMILES IDX 87 89 80 90 81 91 85 92 88 93 82 94 83 95 86 96 84 97 63 98
REMARK SMILES IDX 64 99 72 100 65 101 66 102 70 103 73 104 67 105 68 106
REMARK SMILES IDX 71 107 69 108
REMARK H PARENT 27 5 20 15 12 25 34 42 93 61 61 72
REMARK Flexibility Score: inf
ROOT
ATOM      1  C   UNL A   1      40.745  23.621  27.333  1.00  0.00     0.116 C 
ENDROOT
BRANCH   1   2
ATOM      2  N   UNL A   1      41.123  24.492  26.237  1.00  0.00    -0.352 N 
ATOM      3  C   UNL A   1      41.162  25.857  26.093  1.00  0.00     0.251 C 
ATOM      4  O   UNL A   1      41.528  26.295  25.001  1.00  0.00    -0.269 OA
ATOM      5  H   UNL A   1      41.410  24.005  25.431  1.00  0.00     0.163 HD
BRANCH   3   6
ATOM      6  C   UNL A   1      40.867  26.813  27.198  1.00  0.00     0.039 A 
ATOM      7  C   UNL A   1      40.749  28.837  29.135  1.00  0.00     0.041 A 
ATOM      8  C   UNL A   1      40.508  29.150  27.799  1.00  0.00     0.027 A 
ATOM      9  C   UNL A   1      40.857  27.499  29.522  1.00  0.00     0.027 A 
ATOM     10  C   UNL A   1      40.602  28.143  26.832  1.00  0.00     0.016 A 
ATOM     11  C   UNL A   1      40.879  26.485  28.555  1.00  0.00     0.016 A 
BRANCH   7  12
ATOM     12  N   UNL A   1      40.994  29.899  30.022  1.00  0.00    -0.322 N 
ATOM     13  C   UNL A   1      40.125  30.886  30.463  1.00  0.00     0.255 C 
ATOM     14  O   UNL A   1      40.569  31.858  31.075  1.00  0.00    -0.269 OA
ATOM     15  H   UNL A   1      41.910  29.950  30.380  1.00  0.00     0.170 HD
BRANCH  13  16
ATOM     16  C   UNL A   1      38.642  30.750  30.312  1.00  0.00     0.042 A 
ATOM     17  C   UNL A   1      36.439  31.762  30.089  1.00  0.00     0.042 A 
ATOM     18  C   UNL A   1      35.861  30.492  30.151  1.00  0.00     0.026 A 
ATOM     19  C   UNL A   1      37.826  31.866  30.096  1.00  0.00     0.040 A 
ATOM     20  C   UNL A   1      36.670  29.352  30.214  1.00  0.00     0.003 A 
ATOM     21  C   UNL A   1      38.058  29.482  30.310  1.00  0.00     0.014 A 
BRANCH  17  22
ATOM     22  N   UNL A   1      35.589  32.877  29.980  1.00  0.00    -0.323 N 
ATOM     23  O   UNL A   1      35.468  33.219  27.665  1.00  0.00    -0.271 OA
ATOM     24  C   UNL A   1      35.119  33.469  28.814  1.00  0.00     0.262 C 
ATOM     25  H   UNL A   1      35.293  33.286  30.826  1.00  0.00     0.170 HD
BRANCH  24  26
ATOM     26  C   UNL A   1      34.068  34.537  29.086  1.00  0.00     0.329 C 
BRANCH  26  27
ATOM     27  O   UNL A   1      33.389  34.255  30.317  1.00  0.00    -0.483 OA
BRANCH  27  28
ATOM     28  C   UNL A   1      33.521  35.311  31.179  1.00  0.00     0.134 A 
ATOM     29  C   UNL A   1      33.278  36.590  30.675  1.00  0.00     0.047 A 
ATOM     30  C   UNL A   1      33.933  35.146  32.506  1.00  0.00     0.060 A 
ATOM     31  C   UNL A   1      33.399  37.700  31.510  1.00  0.00     0.004 A 
ATOM     32  C   UNL A   1      34.027  36.257  33.344  1.00  0.00     0.019 A 
ATOM     33  Br  UNL A   1      34.425  33.478  33.249  1.00  0.00    -0.047 Br
ATOM     34  C   UNL A   1      33.760  37.531  32.846  1.00  0.00     0.001 A 
ENDBRANCH  27  28
ENDBRANCH  26  27
ENDBRANCH  24  26
ENDBRANCH  17  22
ENDBRANCH  13  16
ENDBRANCH   7  12
ENDBRANCH   3   6
ENDBRANCH   1   2
BRANCH   1  35
ATOM     35  C   UNL A   1      41.881  22.655  27.661  1.00  0.00     0.021 C 
BRANCH  35  36
ATOM     36  C   UNL A   1      42.901  22.509  26.519  1.00  0.00     0.002 C 
BRANCH  36  37
ATOM     37  C   UNL A   1      44.210  23.288  26.708  1.00  0.00     0.002 C 
BRANCH  37  38
ATOM     38  C   UNL A   1      45.051  23.460  25.441  1.00  0.00     0.021 C 
BRANCH  38  39
ATOM     39  C   UNL A   1      46.497  23.877  25.694  1.00  0.00     0.116 C 
BRANCH  39  40
ATOM     40  N   UNL A   1      46.929  24.924  24.781  1.00  0.00    -0.352 N 
ATOM     41  C   UNL A   1      46.705  26.279  24.837  1.00  0.00     0.251 C 
ATOM     42  H   UNL A   1      47.460  24.617  24.011  1.00  0.00     0.163 HD
ATOM     43  O   UNL A   1      46.960  26.991  23.877  1.00  0.00    -0.269 OA
BRANCH  41  44
ATOM     44  C   UNL A   1      46.128  26.870  26.063  1.00  0.00     0.039 A 
ATOM     45  C   UNL A   1      46.989  27.321  27.067  1.00  0.00     0.014 A 
ATOM     46  C   UNL A   1      44.744  26.991  26.212  1.00  0.00     0.014 A 
ATOM     47  C   UNL A   1      46.464  27.974  28.184  1.00  0.00     0.010 A 
ATOM     48  C   UNL A   1      44.227  27.701  27.292  1.00  0.00     0.010 A 
ATOM     49  C   UNL A   1      45.083  28.213  28.280  1.00  0.00    -0.014 A 
BRANCH  49  50
ATOM     50  C   UNL A   1      44.517  29.042  29.375  1.00  0.00     0.031 A 
ATOM     51  C   UNL A   1      44.300  30.515  29.178  1.00  0.00     0.074 A 
ATOM     52  C   UNL A   1      44.288  28.477  30.577  1.00  0.00     0.049 A 
ATOM     53  N   UNL A   1      43.928  31.419  30.049  1.00  0.00    -0.248 NA
ATOM     54  C   UNL A   1      44.554  31.049  27.830  1.00  0.00     0.031 C 
ATOM     55  C   UNL A   1      44.502  27.065  30.902  1.00  0.00     0.029 A 
ATOM     56  N   UNL A   1      43.851  29.024  31.759  1.00  0.00    -0.354 N 
ATOM     57  C   UNL A   1      43.921  32.626  29.362  1.00  0.00     0.074 A 
ATOM     58  C   UNL A   1      44.359  32.348  28.011  1.00  0.00     0.031 C 
ATOM     59  C   UNL A   1      44.193  26.858  32.192  1.00  0.00     0.029 A 
ATOM     60  C   UNL A   1      43.808  28.127  32.799  1.00  0.00     0.049 A 
ATOM     61  H   UNL A   1      43.591  29.970  31.851  1.00  0.00     0.167 HD
ATOM     62  C   UNL A   1      43.569  33.851  29.820  1.00  0.00     0.037 A 
ATOM     63  C   UNL A   1      43.522  28.313  34.102  1.00  0.00     0.037 A 
ATOM     64  C   UNL A   1      43.110  34.116  31.158  1.00  0.00     0.049 A 
ATOM     65  C   UNL A   1      43.153  29.692  34.581  1.00  0.00     0.074 A 
ATOM     66  C   UNL A   1      42.650  35.308  31.689  1.00  0.00     0.029 A 
ATOM     67  N   UNL A   1      43.063  33.179  32.179  1.00  0.00    -0.354 N 
ATOM     68  N   UNL A   1      43.067  30.809  33.902  1.00  0.00    -0.248 NA
ATOM     69  C   UNL A   1      42.842  29.836  36.011  1.00  0.00     0.031 C 
ATOM     70  C   UNL A   1      42.388  35.111  33.047  1.00  0.00     0.029 A 
ATOM     71  C   UNL A   1      42.622  33.778  33.349  1.00  0.00     0.049 A 
ATOM     72  H   UNL A   1      43.306  32.229  32.088  1.00  0.00     0.167 HD
ATOM     73  C   UNL A   1      42.669  31.780  34.812  1.00  0.00     0.074 A 
ATOM     74  C   UNL A   1      42.506  31.115  36.087  1.00  0.00     0.031 C 
ATOM     75  C   UNL A   1      42.462  33.104  34.611  1.00  0.00     0.037 A 
BRANCH  62  76
ATOM     76  C   UNL A   1      43.663  35.013  28.874  1.00  0.00     0.064 A 
ATOM     77  C   UNL A   1      42.525  35.580  28.283  1.00  0.00     0.173 A 
ATOM     78  C   UNL A   1      44.904  35.623  28.629  1.00  0.00     0.173 A 
ATOM     79  F   UNL A   1      41.318  35.029  28.478  1.00  0.00    -0.203 F 
ATOM     80  C   UNL A   1      42.626  36.708  27.472  1.00  0.00     0.198 A 
ATOM     81  C   UNL A   1      44.997  36.768  27.841  1.00  0.00     0.198 A 
ATOM     82  F   UNL A   1      46.023  35.124  29.175  1.00  0.00    -0.203 F 
ATOM     83  F   UNL A   1      41.528  37.215  26.894  1.00  0.00    -0.200 F 
ATOM     84  C   UNL A   1      43.858  37.308  27.262  1.00  0.00     0.200 A 
ATOM     85  F   UNL A   1      46.187  37.355  27.653  1.00  0.00    -0.200 F 
ATOM     86  F   UNL A   1      43.950  38.406  26.500  1.00  0.00    -0.200 F 
ENDBRANCH  62  76
BRANCH  63  87
ATOM     87  C   UNL A   1      43.593  27.172  35.057  1.00  0.00     0.064 A 
ATOM     88  C   UNL A   1      42.461  26.399  35.349  1.00  0.00     0.173 A 
ATOM     89  C   UNL A   1      44.785  26.860  35.728  1.00  0.00     0.173 A 
ATOM     90  F   UNL A   1      41.293  26.670  34.749  1.00  0.00    -0.203 F 
ATOM     91  C   UNL A   1      42.510  25.382  36.302  1.00  0.00     0.198 A 
ATOM     92  C   UNL A   1      44.841  25.820  36.653  1.00  0.00     0.198 A 
ATOM     93  F   UNL A   1      45.901  27.563  35.483  1.00  0.00    -0.203 F 
ATOM     94  F   UNL A   1      41.396  24.704  36.609  1.00  0.00    -0.200 F 
ATOM     95  C   UNL A   1      43.700  25.092  36.950  1.00  0.00     0.200 A 
ATOM     96  F   UNL A   1      45.999  25.530  37.262  1.00  0.00    -0.200 F 
ATOM     97  F   UNL A   1      43.745  24.117  37.869  1.00  0.00    -0.200 F 
ENDBRANCH  63  87
BRANCH  75  98
ATOM     98  C   UNL A   1      42.012  33.918  35.789  1.00  0.00     0.064 A 
ATOM     99  C   UNL A   1      42.930  34.565  36.631  1.00  0.00     0.173 A 
ATOM    100  C   UNL A   1      40.645  34.086  36.059  1.00  0.00     0.173 A 
ATOM    101  F   UNL A   1      44.248  34.422  36.426  1.00  0.00    -0.203 F 
ATOM    102  C   UNL A   1      42.496  35.327  37.712  1.00  0.00     0.198 A 
ATOM    103  C   UNL A   1      40.215  34.877  37.119  1.00  0.00     0.198 A 
ATOM    104  F   UNL A   1      39.724  33.495  35.282  1.00  0.00    -0.203 F 
ATOM    105  F   UNL A   1      43.393  35.891  38.533  1.00  0.00    -0.200 F 
ATOM    106  C   UNL A   1      41.140  35.489  37.950  1.00  0.00     0.200 A 
ATOM    107  F   UNL A   1      38.903  35.047  37.338  1.00  0.00    -0.200 F 
ATOM    108  F   UNL A   1      40.725  36.232  38.987  1.00  0.00    -0.200 F 
ENDBRANCH  75  98
ENDBRANCH  49  50
ENDBRANCH  41  44
ENDBRANCH  39  40
ENDBRANCH  38  39
ENDBRANCH  37  38
ENDBRANCH  36  37
ENDBRANCH  35  36
ENDBRANCH   1  35
TORSDOF 19
ENDMDL
MODEL 2
REMARK VINA RESULT:     -10.0      5.173     10.988
REMARK SMILES O=C(COc1ccccc1Br)Nc1cccc(C(=O)Nc2ccc(C(=O)NCCCCCCNC(=O)c3ccc(-c4c5nc(c(-c6c(F)c(F)c(F)c(F)c6F)c6ccc([nH]6)c(-c6c(F)c(F)c(F)c(F)c6F)c6nc(c(-c7c(F)c(F)c(F)c(F)c7F)c7ccc4[nH]7)C=C6)C=C5)cc3)cc2)c1
REMARK SMILES IDX 28 1 27 2 25 3 26 4 24 6 21 7 22 8 101 9 23 10 100 11 20 12
REMARK SMILES IDX 18 13 19 14 17 16 13 17 14 18 102 19 15 20 16 21 12 22 1 23
REMARK SMILES IDX 2 24 3 26 4 27 5 28 6 29 10 30 7 31 9 32 11 33 8 34 29 35
REMARK SMILES IDX 30 36 31 37 32 38 33 39 34 40 35 41 36 43 37 44 38 45 99 46
REMARK SMILES IDX 39 47 98 48 40 49 41 50 42 51 92 52 43 53 97 54 91 55 93 56
REMARK SMILES IDX 44 57 96 58 90 59 89 60 45 62 77 63 57 64 76 65 58 66 61 67
REMARK SMILES IDX 75 68 94 69 59 70 60 71 74 73 95 74 62 75 46 76 47 77 55 78
REMARK SMILES IDX 48 79 49 80 53 81 56 82 50 83 51 84 54 85 52 86 78 87 79 88
REMARK SMILES IDX 87 89 80 90 81 91 85 92 88 93 82 94 83 95 86 96 84 97 63 98
REMARK SMILES IDX 64 99 72 100 65 101 66 102 70 103 73 104 67 105 68 106
REMARK SMILES IDX 71 107 69 108
REMARK H PARENT 27 5 20 15 12 25 34 42 93 61 61 72
REMARK Flexibility Score: inf
ROOT
ATOM      1  C   UNL A   1      32.470  29.473  24.784  1.00  0.00     0.116 C 
ENDROOT
BRANCH   1   2
ATOM      2  N   UNL A   1      31.526  29.463  23.684  1.00  0.00    -0.352 N 
ATOM      3  C   UNL A   1      30.970  28.457  22.931  1.00  0.00     0.251 C 
ATOM      4  O   UNL A   1      30.190  28.790  22.038  1.00  0.00    -0.269 OA
ATOM      5  H   UNL A   1      31.220  30.362  23.422  1.00  0.00     0.163 HD
BRANCH   3   6
ATOM      6  C   UNL A   1      31.201  27.008  23.193  1.00  0.00     0.039 A 
ATOM      7  C   UNL A   1      31.501  24.219  23.192  1.00  0.00     0.041 A 
ATOM      8  C   UNL A   1      32.435  25.012  22.527  1.00  0.00     0.027 A 
ATOM      9  C   UNL A   1      30.541  24.823  24.008  1.00  0.00     0.027 A 
ATOM     10  C   UNL A   1      32.261  26.400  22.501  1.00  0.00     0.016 A 
ATOM     11  C   UNL A   1      30.415  26.219  24.035  1.00  0.00     0.016 A 
BRANCH   7  12
ATOM     12  N   UNL A   1      31.494  22.842  22.915  1.00  0.00    -0.322 N 
ATOM     13  C   UNL A   1      32.254  21.833  23.490  1.00  0.00     0.255 C 
ATOM     14  O   UNL A   1      32.266  20.714  22.975  1.00  0.00    -0.269 OA
ATOM     15  H   UNL A   1      30.864  22.553  22.217  1.00  0.00     0.170 HD
BRANCH  13  16
ATOM     16  C   UNL A   1      32.976  22.034  24.784  1.00  0.00     0.042 A 
ATOM     17  C   UNL A   1      35.053  22.301  26.027  1.00  0.00     0.042 A 
ATOM     18  C   UNL A   1      34.327  22.292  27.221  1.00  0.00     0.026 A 
ATOM     19  C   UNL A   1      34.359  22.248  24.823  1.00  0.00     0.040 A 
ATOM     20  C   UNL A   1      32.930  22.232  27.196  1.00  0.00     0.003 A 
ATOM     21  C   UNL A   1      32.256  22.088  25.980  1.00  0.00     0.014 A 
BRANCH  17  22
ATOM     22  N   UNL A   1      36.454  22.409  26.098  1.00  0.00    -0.323 N 
ATOM     23  O   UNL A   1      37.185  20.520  24.920  1.00  0.00    -0.271 OA
ATOM     24  C   UNL A   1      37.395  21.580  25.502  1.00  0.00     0.262 C 
ATOM     25  H   UNL A   1      36.808  23.157  26.632  1.00  0.00     0.170 HD
BRANCH  24  26
ATOM     26  C   UNL A   1      38.813  22.115  25.640  1.00  0.00     0.329 C 
BRANCH  26  27
ATOM     27  O   UNL A   1      39.228  22.059  27.012  1.00  0.00    -0.483 OA
BRANCH  27  28
ATOM     28  C   UNL A   1      39.890  23.208  27.351  1.00  0.00     0.134 A 
ATOM     29  C   UNL A   1      39.156  24.396  27.368  1.00  0.00     0.047 A 
ATOM     30  C   UNL A   1      41.263  23.228  27.624  1.00  0.00     0.060 A 
ATOM     31  C   UNL A   1      39.782  25.594  27.706  1.00  0.00     0.004 A 
ATOM     32  C   UNL A   1      41.878  24.426  27.986  1.00  0.00     0.019 A 
ATOM     33  Br  UNL A   1      42.378  21.706  27.490  1.00  0.00    -0.047 Br
ATOM     34  C   UNL A   1      41.138  25.606  28.027  1.00  0.00     0.001 A 
ENDBRANCH  27  28
ENDBRANCH  26  27
ENDBRANCH  24  26
ENDBRANCH  17  22
ENDBRANCH  13  16
ENDBRANCH   7  12
ENDBRANCH   3   6
ENDBRANCH   1   2
BRANCH   1  35
ATOM     35  C   UNL A   1      31.797  28.994  26.068  1.00  0.00     0.021 C 
BRANCH  35  36
ATOM     36  C   UNL A   1      32.656  29.219  27.323  1.00  0.00     0.002 C 
BRANCH  36  37
ATOM     37  C   UNL A   1      33.753  30.284  27.183  1.00  0.00     0.002 C 
BRANCH  37  38
ATOM     38  C   UNL A   1      35.174  29.792  27.462  1.00  0.00     0.021 C 
BRANCH  38  39
ATOM     39  C   UNL A   1      35.739  30.223  28.813  1.00  0.00     0.116 C 
BRANCH  39  40
ATOM     40  N   UNL A   1      35.024  31.366  29.361  1.00  0.00    -0.352 N 
ATOM     41  C   UNL A   1      35.214  32.025  30.553  1.00  0.00     0.251 C 
ATOM     42  H   UNL A   1      34.299  31.719  28.797  1.00  0.00     0.163 HD
ATOM     43  O   UNL A   1      34.389  32.832  30.954  1.00  0.00    -0.269 OA
BRANCH  41  44
ATOM     44  C   UNL A   1      36.415  31.731  31.362  1.00  0.00     0.039 A 
ATOM     45  C   UNL A   1      37.642  32.276  30.975  1.00  0.00     0.014 A 
ATOM     46  C   UNL A   1      36.327  30.933  32.505  1.00  0.00     0.014 A 
ATOM     47  C   UNL A   1      38.765  32.093  31.784  1.00  0.00     0.010 A 
ATOM     48  C   UNL A   1      37.430  30.807  33.345  1.00  0.00     0.010 A 
ATOM     49  C   UNL A   1      38.655  31.399  33.001  1.00  0.00    -0.014 A 
BRANCH  49  50
ATOM     50  C   UNL A   1      39.792  31.327  33.955  1.00  0.00     0.031 A 
ATOM     51  C   UNL A   1      40.708  30.137  33.955  1.00  0.00     0.074 A 
ATOM     52  C   UNL A   1      39.936  32.296  34.881  1.00  0.00     0.049 A 
ATOM     53  N   UNL A   1      41.677  29.842  34.785  1.00  0.00    -0.248 NA
ATOM     54  C   UNL A   1      40.495  29.135  32.899  1.00  0.00     0.031 C 
ATOM     55  C   UNL A   1      39.081  33.478  35.007  1.00  0.00     0.029 A 
ATOM     56  N   UNL A   1      40.836  32.429  35.909  1.00  0.00    -0.354 N 
ATOM     57  C   UNL A   1      42.176  28.617  34.363  1.00  0.00     0.074 A 
ATOM     58  C   UNL A   1      41.383  28.205  33.225  1.00  0.00     0.031 C 
ATOM     59  C   UNL A   1      39.500  34.216  36.048  1.00  0.00     0.029 A 
ATOM     60  C   UNL A   1      40.617  33.536  36.694  1.00  0.00     0.049 A 
ATOM     61  H   UNL A   1      41.569  31.791  36.069  1.00  0.00     0.167 HD
ATOM     62  C   UNL A   1      43.212  27.910  34.874  1.00  0.00     0.037 A 
ATOM     63  C   UNL A   1      41.227  33.941  37.824  1.00  0.00     0.037 A 
ATOM     64  C   UNL A   1      44.014  28.338  35.990  1.00  0.00     0.049 A 
ATOM     65  C   UNL A   1      42.363  33.121  38.378  1.00  0.00     0.074 A 
ATOM     66  C   UNL A   1      45.136  27.731  36.527  1.00  0.00     0.029 A 
ATOM     67  N   UNL A   1      43.773  29.474  36.748  1.00  0.00    -0.354 N 
ATOM     68  N   UNL A   1      42.881  32.009  37.919  1.00  0.00    -0.248 NA
ATOM     69  C   UNL A   1      42.999  33.613  39.608  1.00  0.00     0.031 C 
ATOM     70  C   UNL A   1      45.535  28.462  37.649  1.00  0.00     0.029 A 
ATOM     71  C   UNL A   1      44.702  29.562  37.775  1.00  0.00     0.049 A 
ATOM     72  H   UNL A   1      43.051  30.123  36.583  1.00  0.00     0.167 HD
ATOM     73  C   UNL A   1      43.915  31.682  38.785  1.00  0.00     0.074 A 
ATOM     74  C   UNL A   1      43.968  32.728  39.785  1.00  0.00     0.031 C 
ATOM     75  C   UNL A   1      44.744  30.610  38.761  1.00  0.00     0.037 A 
BRANCH  62  76
ATOM     76  C   UNL A   1      43.549  26.591  34.242  1.00  0.00     0.064 A 
ATOM     77  C   UNL A   1      44.438  26.494  33.162  1.00  0.00     0.173 A 
ATOM     78  C   UNL A   1      43.043  25.399  34.785  1.00  0.00     0.173 A 
ATOM     79  F   UNL A   1      44.943  27.604  32.602  1.00  0.00    -0.203 F 
ATOM     80  C   UNL A   1      44.800  25.253  32.642  1.00  0.00     0.198 A 
ATOM     81  C   UNL A   1      43.429  24.160  34.280  1.00  0.00     0.198 A 
ATOM     82  F   UNL A   1      42.193  25.436  35.822  1.00  0.00    -0.203 F 
ATOM     83  F   UNL A   1      45.630  25.187  31.591  1.00  0.00    -0.200 F 
ATOM     84  C   UNL A   1      44.306  24.089  33.208  1.00  0.00     0.200 A 
ATOM     85  F   UNL A   1      42.963  23.035  34.840  1.00  0.00    -0.200 F 
ATOM     86  F   UNL A   1      44.673  22.896  32.721  1.00  0.00    -0.200 F 
ENDBRANCH  62  76
BRANCH  63  87
ATOM     87  C   UNL A   1      40.768  35.170  38.527  1.00  0.00     0.064 A 
ATOM     88  C   UNL A   1      41.504  36.362  38.462  1.00  0.00     0.173 A 
ATOM     89  C   UNL A   1      39.605  35.167  39.313  1.00  0.00     0.173 A 
ATOM     90  F   UNL A   1      42.633  36.412  37.740  1.00  0.00    -0.203 F 
ATOM     91  C   UNL A   1      41.115  37.489  39.184  1.00  0.00     0.198 A 
ATOM     92  C   UNL A   1      39.198  36.306  40.005  1.00  0.00     0.198 A 
ATOM     93  F   UNL A   1      38.859  34.056  39.407  1.00  0.00    -0.203 F 
ATOM     94  F   UNL A   1      41.875  38.592  39.155  1.00  0.00    -0.200 F 
ATOM     95  C   UNL A   1      39.962  37.461  39.951  1.00  0.00     0.200 A 
ATOM     96  F   UNL A   1      38.072  36.279  40.730  1.00  0.00    -0.200 F 
ATOM     97  F   UNL A   1      39.591  38.544  40.649  1.00  0.00    -0.200 F 
ENDBRANCH  63  87
BRANCH  75  98
ATOM     98  C   UNL A   1      45.795  30.526  39.829  1.00  0.00     0.064 A 
ATOM     99  C   UNL A   1      47.085  31.041  39.634  1.00  0.00     0.173 A 
ATOM    100  C   UNL A   1      45.498  29.959  41.078  1.00  0.00     0.173 A 
ATOM    101  F   UNL A   1      47.426  31.579  38.454  1.00  0.00    -0.203 F 
ATOM    102  C   UNL A   1      48.045  30.967  40.640  1.00  0.00     0.198 A 
ATOM    103  C   UNL A   1      46.448  29.918  42.093  1.00  0.00     0.198 A 
ATOM    104  F   UNL A   1      44.276  29.458  41.320  1.00  0.00    -0.203 F 
ATOM    105  F   UNL A   1      49.287  31.418  40.412  1.00  0.00    -0.200 F 
ATOM    106  C   UNL A   1      47.724  30.414  41.870  1.00  0.00     0.200 A 
ATOM    107  F   UNL A   1      46.130  29.399  43.287  1.00  0.00    -0.200 F 
ATOM    108  F   UNL A   1      48.647  30.352  42.841  1.00  0.00    -0.200 F 
ENDBRANCH  75  98
ENDBRANCH  49  50
ENDBRANCH  41  44
ENDBRANCH  39  40
ENDBRANCH  38  39
ENDBRANCH  37  38
ENDBRANCH  36  37
ENDBRANCH  35  36
ENDBRANCH   1  35
TORSDOF 19
ENDMDL
MODEL 3
REMARK VINA RESULT:      -9.9      5.182     10.623
REMARK SMILES O=C(COc1ccccc1Br)Nc1cccc(C(=O)Nc2ccc(C(=O)NCCCCCCNC(=O)c3ccc(-c4c5nc(c(-c6c(F)c(F)c(F)c(F)c6F)c6ccc([nH]6)c(-c6c(F)c(F)c(F)c(F)c6F)c6nc(c(-c7c(F)c(F)c(F)c(F)c7F)c7ccc4[nH]7)C=C6)C=C5)cc3)cc2)c1
REMARK SMILES IDX 28 1 27 2 25 3 26 4 24 6 21 7 22 8 101 9 23 10 100 11 20 12
REMARK SMILES IDX 18 13 19 14 17 16 13 17 14 18 102 19 15 20 16 21 12 22 1 23
REMARK SMILES IDX 2 24 3 26 4 27 5 28 6 29 10 30 7 31 9 32 11 33 8 34 29 35
REMARK SMILES IDX 30 36 31 37 32 38 33 39 34 40 35 41 36 43 37 44 38 45 99 46
REMARK SMILES IDX 39 47 98 48 40 49 41 50 42 51 92 52 43 53 97 54 91 55 93 56
REMARK SMILES IDX 44 57 96 58 90 59 89 60 45 62 77 63 57 64 76 65 58 66 61 67
REMARK SMILES IDX 75 68 94 69 59 70 60 71 74 73 95 74 62 75 46 76 47 77 55 78
REMARK SMILES IDX 48 79 49 80 53 81 56 82 50 83 51 84 54 85 52 86 78 87 79 88
REMARK SMILES IDX 87 89 80 90 81 91 85 92 88 93 82 94 83 95 86 96 84 97 63 98
REMARK SMILES IDX 64 99 72 100 65 101 66 102 70 103 73 104 67 105 68 106
REMARK SMILES IDX 71 107 69 108
REMARK H PARENT 27 5 20 15 12 25 34 42 93 61 61 72
REMARK Flexibility Score: inf
ROOT
ATOM      1  C   UNL A   1      33.409  30.608  26.959  1.00  0.00     0.116 C 
ENDROOT
BRANCH   1   2
ATOM      2  N   UNL A   1      32.586  29.609  27.613  1.00  0.00    -0.352 N 
ATOM      3  C   UNL A   1      32.036  28.422  27.192  1.00  0.00     0.251 C 
ATOM      4  O   UNL A   1      31.359  27.798  28.010  1.00  0.00    -0.269 OA
ATOM      5  H   UNL A   1      32.379  29.825  28.551  1.00  0.00     0.163 HD
BRANCH   3   6
ATOM      6  C   UNL A   1      32.282  27.830  25.847  1.00  0.00     0.039 A 
ATOM      7  C   UNL A   1      32.615  26.271  23.539  1.00  0.00     0.041 A 
ATOM      8  C   UNL A   1      31.330  26.535  24.011  1.00  0.00     0.027 A 
ATOM      9  C   UNL A   1      33.707  26.938  24.102  1.00  0.00     0.027 A 
ATOM     10  C   UNL A   1      31.171  27.284  25.182  1.00  0.00     0.016 A 
ATOM     11  C   UNL A   1      33.533  27.746  25.234  1.00  0.00     0.016 A 
BRANCH   7  12
ATOM     12  N   UNL A   1      32.767  25.247  22.589  1.00  0.00    -0.322 N 
ATOM     13  C   UNL A   1      33.441  24.040  22.709  1.00  0.00     0.255 C 
ATOM     14  O   UNL A   1      33.648  23.359  21.704  1.00  0.00    -0.269 OA
ATOM     15  H   UNL A   1      32.337  25.409  21.719  1.00  0.00     0.170 HD
BRANCH  13  16
ATOM     16  C   UNL A   1      33.828  23.486  24.044  1.00  0.00     0.042 A 
ATOM     17  C   UNL A   1      35.542  22.805  25.633  1.00  0.00     0.042 A 
ATOM     18  C   UNL A   1      34.545  22.340  26.493  1.00  0.00     0.026 A 
ATOM     19  C   UNL A   1      35.165  23.440  24.454  1.00  0.00     0.040 A 
ATOM     20  C   UNL A   1      33.196  22.516  26.168  1.00  0.00     0.003 A 
ATOM     21  C   UNL A   1      32.838  23.074  24.938  1.00  0.00     0.014 A 
BRANCH  17  22
ATOM     22  N   UNL A   1      36.885  22.648  26.021  1.00  0.00    -0.323 N 
ATOM     23  O   UNL A   1      37.481  20.607  25.038  1.00  0.00    -0.271 OA
ATOM     24  C   UNL A   1      37.757  21.631  25.653  1.00  0.00     0.262 C 
ATOM     25  H   UNL A   1      37.249  23.338  26.623  1.00  0.00     0.170 HD
BRANCH  24  26
ATOM     26  C   UNL A   1      39.185  21.894  26.112  1.00  0.00     0.329 C 
BRANCH  26  27
ATOM     27  O   UNL A   1      39.337  23.272  26.478  1.00  0.00    -0.483 OA
BRANCH  27  28
ATOM     28  C   UNL A   1      40.449  23.430  27.263  1.00  0.00     0.134 A 
ATOM     29  C   UNL A   1      41.272  22.317  27.448  1.00  0.00     0.047 A 
ATOM     30  C   UNL A   1      40.743  24.636  27.908  1.00  0.00     0.060 A 
ATOM     31  C   UNL A   1      42.415  22.424  28.238  1.00  0.00     0.004 A 
ATOM     32  C   UNL A   1      41.902  24.744  28.677  1.00  0.00     0.019 A 
ATOM     33  Br  UNL A   1      39.623  26.159  27.842  1.00  0.00    -0.047 Br
ATOM     34  C   UNL A   1      42.736  23.639  28.840  1.00  0.00     0.001 A 
ENDBRANCH  27  28
ENDBRANCH  26  27
ENDBRANCH  24  26
ENDBRANCH  17  22
ENDBRANCH  13  16
ENDBRANCH   7  12
ENDBRANCH   3   6
ENDBRANCH   1   2
BRANCH   1  35
ATOM     35  C   UNL A   1      34.757  30.731  27.665  1.00  0.00     0.021 C 
BRANCH  35  36
ATOM     36  C   UNL A   1      35.598  29.446  27.594  1.00  0.00     0.002 C 
BRANCH  36  37
ATOM     37  C   UNL A   1      37.108  29.640  27.794  1.00  0.00     0.002 C 
BRANCH  37  38
ATOM     38  C   UNL A   1      37.515  30.206  29.156  1.00  0.00     0.021 C 
BRANCH  38  39
ATOM     39  C   UNL A   1      36.994  29.412  30.351  1.00  0.00     0.116 C 
BRANCH  39  40
ATOM     40  N   UNL A   1      36.804  30.253  31.523  1.00  0.00    -0.352 N 
ATOM     41  C   UNL A   1      37.626  30.434  32.610  1.00  0.00     0.251 C 
ATOM     42  H   UNL A   1      35.965  30.768  31.540  1.00  0.00     0.163 HD
ATOM     43  O   UNL A   1      37.220  31.015  33.606  1.00  0.00    -0.269 OA
BRANCH  41  44
ATOM     44  C   UNL A   1      39.003  29.898  32.577  1.00  0.00     0.039 A 
ATOM     45  C   UNL A   1      40.068  30.781  32.383  1.00  0.00     0.014 A 
ATOM     46  C   UNL A   1      39.241  28.533  32.751  1.00  0.00     0.014 A 
ATOM     47  C   UNL A   1      41.380  30.306  32.452  1.00  0.00     0.010 A 
ATOM     48  C   UNL A   1      40.547  28.072  32.887  1.00  0.00     0.010 A 
ATOM     49  C   UNL A   1      41.628  28.957  32.754  1.00  0.00    -0.014 A 
BRANCH  49  50
ATOM     50  C   UNL A   1      43.009  28.460  32.991  1.00  0.00     0.031 A 
ATOM     51  C   UNL A   1      43.839  27.952  31.848  1.00  0.00     0.074 A 
ATOM     52  C   UNL A   1      43.472  28.382  34.255  1.00  0.00     0.049 A 
ATOM     53  N   UNL A   1      45.014  27.374  31.874  1.00  0.00    -0.248 NA
ATOM     54  C   UNL A   1      43.268  28.091  30.499  1.00  0.00     0.031 C 
ATOM     55  C   UNL A   1      42.740  28.804  35.451  1.00  0.00     0.029 A 
ATOM     56  N   UNL A   1      44.659  27.898  34.748  1.00  0.00    -0.354 N 
ATOM     57  C   UNL A   1      45.313  27.066  30.553  1.00  0.00     0.074 A 
ATOM     58  C   UNL A   1      44.184  27.488  29.753  1.00  0.00     0.031 C 
ATOM     59  C   UNL A   1      43.493  28.564  36.536  1.00  0.00     0.029 A 
ATOM     60  C   UNL A   1      44.737  27.926  36.120  1.00  0.00     0.049 A 
ATOM     61  H   UNL A   1      45.384  27.563  34.174  1.00  0.00     0.167 HD
ATOM     62  C   UNL A   1      46.436  26.494  30.058  1.00  0.00     0.037 A 
ATOM     63  C   UNL A   1      45.690  27.462  36.951  1.00  0.00     0.037 A 
ATOM     64  C   UNL A   1      47.566  26.100  30.856  1.00  0.00     0.049 A 
ATOM     65  C   UNL A   1      46.917  26.812  36.367  1.00  0.00     0.074 A 
ATOM     66  C   UNL A   1      48.782  25.589  30.435  1.00  0.00     0.029 A 
ATOM     67  N   UNL A   1      47.617  26.160  32.241  1.00  0.00    -0.354 N 
ATOM     68  N   UNL A   1      47.226  26.605  35.111  1.00  0.00    -0.248 NA
ATOM     69  C   UNL A   1      47.929  26.331  37.319  1.00  0.00     0.031 C 
ATOM     70  C   UNL A   1      49.542  25.279  31.565  1.00  0.00     0.029 A 
ATOM     71  C   UNL A   1      48.828  25.656  32.691  1.00  0.00     0.049 A 
ATOM     72  H   UNL A   1      46.901  26.509  32.819  1.00  0.00     0.167 HD
ATOM     73  C   UNL A   1      48.473  25.995  35.119  1.00  0.00     0.074 A 
ATOM     74  C   UNL A   1      48.876  25.888  36.505  1.00  0.00     0.031 C 
ATOM     75  C   UNL A   1      49.217  25.558  34.074  1.00  0.00     0.037 A 
BRANCH  62  76
ATOM     76  C   UNL A   1      46.511  26.249  28.579  1.00  0.00     0.064 A 
ATOM     77  C   UNL A   1      46.888  27.258  27.680  1.00  0.00     0.173 A 
ATOM     78  C   UNL A   1      46.290  24.961  28.064  1.00  0.00     0.173 A 
ATOM     79  F   UNL A   1      47.102  28.507  28.120  1.00  0.00    -0.203 F 
ATOM     80  C   UNL A   1      47.030  26.990  26.320  1.00  0.00     0.198 A 
ATOM     81  C   UNL A   1      46.461  24.691  26.710  1.00  0.00     0.198 A 
ATOM     82  F   UNL A   1      45.933  23.959  28.881  1.00  0.00    -0.203 F 
ATOM     83  F   UNL A   1      47.363  27.977  25.477  1.00  0.00    -0.200 F 
ATOM     84  C   UNL A   1      46.829  25.706  25.839  1.00  0.00     0.200 A 
ATOM     85  F   UNL A   1      46.282  23.445  26.249  1.00  0.00    -0.200 F 
ATOM     86  F   UNL A   1      46.988  25.445  24.534  1.00  0.00    -0.200 F 
ENDBRANCH  62  76
BRANCH  63  87
ATOM     87  C   UNL A   1      45.518  27.569  38.426  1.00  0.00     0.064 A 
ATOM     88  C   UNL A   1      46.002  28.678  39.134  1.00  0.00     0.173 A 
ATOM     89  C   UNL A   1      44.906  26.544  39.163  1.00  0.00     0.173 A 
ATOM     90  F   UNL A   1      46.613  29.676  38.478  1.00  0.00    -0.203 F 
ATOM     91  C   UNL A   1      45.911  28.741  40.523  1.00  0.00     0.198 A 
ATOM     92  C   UNL A   1      44.783  26.625  40.549  1.00  0.00     0.198 A 
ATOM     93  F   UNL A   1      44.420  25.461  38.537  1.00  0.00    -0.203 F 
ATOM     94  F   UNL A   1      46.441  29.783  41.179  1.00  0.00    -0.200 F 
ATOM     95  C   UNL A   1      45.299  27.717  41.228  1.00  0.00     0.200 A 
ATOM     96  F   UNL A   1      44.174  25.641  41.223  1.00  0.00    -0.200 F 
ATOM     97  F   UNL A   1      45.216  27.776  42.565  1.00  0.00    -0.200 F 
ENDBRANCH  63  87
BRANCH  75  98
ATOM     98  C   UNL A   1      50.552  24.947  34.386  1.00  0.00     0.064 A 
ATOM     99  C   UNL A   1      50.708  23.561  34.546  1.00  0.00     0.173 A 
ATOM    100  C   UNL A   1      51.698  25.751  34.487  1.00  0.00     0.173 A 
ATOM    101  F   UNL A   1      49.642  22.750  34.475  1.00  0.00    -0.203 F 
ATOM    102  C   UNL A   1      51.956  23.009  34.821  1.00  0.00     0.198 A 
ATOM    103  C   UNL A   1      52.948  25.192  34.727  1.00  0.00     0.198 A 
ATOM    104  F   UNL A   1      51.606  27.081  34.335  1.00  0.00    -0.203 F 
ATOM    105  F   UNL A   1      52.071  21.689  35.023  1.00  0.00    -0.200 F 
ATOM    106  C   UNL A   1      53.075  23.823  34.904  1.00  0.00     0.200 A 
ATOM    107  F   UNL A   1      54.032  25.978  34.789  1.00  0.00    -0.200 F 
ATOM    108  F   UNL A   1      54.277  23.287  35.159  1.00  0.00    -0.200 F 
ENDBRANCH  75  98
ENDBRANCH  49  50
ENDBRANCH  41  44
ENDBRANCH  39  40
ENDBRANCH  38  39
ENDBRANCH  37  38
ENDBRANCH  36  37
ENDBRANCH  35  36
ENDBRANCH   1  35
TORSDOF 19
ENDMDL
