MODEL 1
REMARK VINA RESULT:     -11.7      0.000      0.000
REMARK SMILES C#CCSc1nnnn1-c1ccc(C(=O)NCCCCCCNC(=O)c2ccc(-c3c4nc(c(-c5c(F)c(F)c(F)c(F)c5F)c5ccc([nH]5)c(-c5c(F)c(F)c(F)c(F)c5F)c5nc(c(-c6c(F)c(F)c(F)c(F)c6F)c6ccc3[nH]6)C=C5)C=C4)cc2)cc1
REMARK SMILES IDX 18 1 17 2 16 3 14 4 15 5 13 7 10 8 11 9 90 10 12 11 89 12
REMARK SMILES IDX 9 13 5 14 6 15 7 16 8 17 4 18 3 19 2 20 1 21 19 22 20 23
REMARK SMILES IDX 21 24 22 25 23 26 24 27 25 29 26 30 27 31 88 32 28 33 87 34
REMARK SMILES IDX 29 35 30 36 31 37 81 38 32 39 86 40 80 41 82 42 33 43 85 44
REMARK SMILES IDX 79 45 78 46 34 48 66 49 46 50 65 51 47 52 50 53 64 54 83 55
REMARK SMILES IDX 48 56 49 57 63 59 84 60 51 61 35 62 36 63 44 64 37 65 38 66
REMARK SMILES IDX 42 67 45 68 39 69 40 70 43 71 41 72 67 73 68 74 76 75 69 76
REMARK SMILES IDX 70 77 74 78 77 79 71 80 72 81 75 82 73 83 52 84 53 85 61 86
REMARK SMILES IDX 54 87 55 88 59 89 62 90 56 91 57 92 60 93 58 94
REMARK H PARENT 16 6 23 28 82 47 50 58
REMARK Flexibility Score: inf
ROOT
ATOM      1  C   UNL A   1      39.383  21.037  25.746  1.00  0.00     0.021 C 
ENDROOT
BRANCH   1   2
ATOM      2  C   UNL A   1      37.978  21.644  25.721  1.00  0.00     0.116 C 
BRANCH   2   3
ATOM      3  N   UNL A   1      37.698  22.200  24.409  1.00  0.00    -0.352 N 
ATOM      4  C   UNL A   1      36.568  22.726  23.834  1.00  0.00     0.251 C 
ATOM      5  O   UNL A   1      36.650  23.117  22.670  1.00  0.00    -0.269 OA
ATOM      6  H   UNL A   1      38.478  22.200  23.809  1.00  0.00     0.163 HD
BRANCH   4   7
ATOM      7  C   UNL A   1      35.289  22.916  24.573  1.00  0.00     0.039 A 
ATOM      8  C   UNL A   1      32.739  23.347  25.624  1.00  0.00     0.069 A 
ATOM      9  C   UNL A   1      32.957  22.231  24.819  1.00  0.00     0.029 A 
ATOM     10  C   UNL A   1      33.802  24.169  26.011  1.00  0.00     0.029 A 
ATOM     11  C   UNL A   1      34.228  22.044  24.266  1.00  0.00     0.016 A 
ATOM     12  C   UNL A   1      35.084  23.908  25.533  1.00  0.00     0.016 A 
BRANCH   8  13
ATOM     13  N   UNL A   1      31.440  23.675  26.043  1.00  0.00    -0.187 N 
ATOM     14  C   UNL A   1      30.648  24.743  25.672  1.00  0.00     0.215 A 
ATOM     15  N   UNL A   1      29.642  24.824  26.511  1.00  0.00    -0.101 NA
ATOM     16  N   UNL A   1      29.757  23.734  27.343  1.00  0.00    -0.022 NA
ATOM     17  N   UNL A   1      30.804  22.987  27.014  1.00  0.00    -0.039 NA
BRANCH  14  18
ATOM     18  S   UNL A   1      30.846  25.565  24.151  1.00  0.00    -0.071 SA
BRANCH  18  19
ATOM     19  C   UNL A   1      31.898  26.978  24.534  1.00  0.00     0.167 C 
BRANCH  19  20
ATOM     20  C   UNL A   1      32.846  27.367  23.412  1.00  0.00    -0.095 C 
ATOM     21  C   UNL A   1      33.658  27.701  22.449  1.00  0.00     0.005 C 
ENDBRANCH  19  20
ENDBRANCH  18  19
ENDBRANCH  14  18
ENDBRANCH   8  13
ENDBRANCH   4   7
ENDBRANCH   2   3
ENDBRANCH   1   2
BRANCH   1  22
ATOM     22  C   UNL A   1      40.319  21.718  26.754  1.00  0.00     0.002 C 
BRANCH  22  23
ATOM     23  C   UNL A   1      41.561  20.905  27.154  1.00  0.00     0.002 C 
BRANCH  23  24
ATOM     24  C   UNL A   1      41.924  19.734  26.229  1.00  0.00     0.021 C 
BRANCH  24  25
ATOM     25  C   UNL A   1      43.322  19.186  26.470  1.00  0.00     0.116 C 
BRANCH  25  26
ATOM     26  N   UNL A   1      44.111  19.142  25.239  1.00  0.00    -0.352 N 
ATOM     27  C   UNL A   1      44.446  20.183  24.405  1.00  0.00     0.251 C 
ATOM     28  H   UNL A   1      44.445  18.254  24.974  1.00  0.00     0.163 HD
ATOM     29  O   UNL A   1      44.786  19.985  23.240  1.00  0.00    -0.269 OA
BRANCH  27  30
ATOM     30  C   UNL A   1      44.391  21.550  24.938  1.00  0.00     0.039 A 
ATOM     31  C   UNL A   1      43.570  22.520  24.356  1.00  0.00     0.014 A 
ATOM     32  C   UNL A   1      45.149  21.833  26.072  1.00  0.00     0.014 A 
ATOM     33  C   UNL A   1      43.457  23.757  24.981  1.00  0.00     0.010 A 
ATOM     34  C   UNL A   1      44.920  22.993  26.766  1.00  0.00     0.010 A 
ATOM     35  C   UNL A   1      44.119  23.979  26.200  1.00  0.00    -0.014 A 
BRANCH  35  36
ATOM     36  C   UNL A   1      43.908  25.219  26.938  1.00  0.00     0.031 A 
ATOM     37  C   UNL A   1      44.882  26.304  26.643  1.00  0.00     0.074 A 
ATOM     38  C   UNL A   1      42.806  25.454  27.682  1.00  0.00     0.049 A 
ATOM     39  N   UNL A   1      45.769  26.805  27.435  1.00  0.00    -0.248 NA
ATOM     40  C   UNL A   1      44.953  26.820  25.266  1.00  0.00     0.031 C 
ATOM     41  C   UNL A   1      41.595  24.634  27.816  1.00  0.00     0.029 A 
ATOM     42  N   UNL A   1      42.503  26.555  28.421  1.00  0.00    -0.354 N 
ATOM     43  C   UNL A   1      46.393  27.828  26.724  1.00  0.00     0.074 A 
ATOM     44  C   UNL A   1      45.967  27.684  25.356  1.00  0.00     0.031 C 
ATOM     45  C   UNL A   1      40.615  25.362  28.393  1.00  0.00     0.029 A 
ATOM     46  C   UNL A   1      41.182  26.620  28.838  1.00  0.00     0.049 A 
ATOM     47  H   UNL A   1      43.167  27.247  28.642  1.00  0.00     0.167 HD
ATOM     48  C   UNL A   1      47.023  28.848  27.373  1.00  0.00     0.037 A 
ATOM     49  C   UNL A   1      40.590  27.647  29.493  1.00  0.00     0.037 A 
ATOM     50  C   UNL A   1      47.284  28.500  28.748  1.00  0.00     0.049 A 
ATOM     51  C   UNL A   1      41.671  28.447  30.119  1.00  0.00     0.074 A 
ATOM     52  C   UNL A   1      48.017  27.520  29.386  1.00  0.00     0.029 A 
ATOM     53  N   UNL A   1      46.436  29.004  29.702  1.00  0.00    -0.354 N 
ATOM     54  N   UNL A   1      42.431  28.014  31.086  1.00  0.00    -0.248 NA
ATOM     55  C   UNL A   1      42.194  29.579  29.372  1.00  0.00     0.031 C 
ATOM     56  C   UNL A   1      47.237  27.159  30.527  1.00  0.00     0.029 A 
ATOM     57  C   UNL A   1      46.110  27.982  30.553  1.00  0.00     0.049 A 
ATOM     58  H   UNL A   1      46.119  29.935  29.764  1.00  0.00     0.167 HD
ATOM     59  C   UNL A   1      43.690  28.516  30.795  1.00  0.00     0.074 A 
ATOM     60  C   UNL A   1      43.460  29.555  29.795  1.00  0.00     0.031 C 
ATOM     61  C   UNL A   1      44.816  27.848  31.182  1.00  0.00     0.037 A 
BRANCH  48  62
ATOM     62  C   UNL A   1      47.050  30.287  26.901  1.00  0.00     0.064 A 
ATOM     63  C   UNL A   1      48.254  31.015  27.003  1.00  0.00     0.173 A 
ATOM     64  C   UNL A   1      45.895  31.061  26.661  1.00  0.00     0.173 A 
ATOM     65  F   UNL A   1      49.416  30.387  27.236  1.00  0.00    -0.203 F 
ATOM     66  C   UNL A   1      48.281  32.412  26.972  1.00  0.00     0.198 A 
ATOM     67  C   UNL A   1      45.934  32.453  26.577  1.00  0.00     0.198 A 
ATOM     68  F   UNL A   1      44.671  30.525  26.611  1.00  0.00    -0.203 F 
ATOM     69  F   UNL A   1      49.427  33.062  27.216  1.00  0.00    -0.200 F 
ATOM     70  C   UNL A   1      47.117  33.130  26.771  1.00  0.00     0.200 A 
ATOM     71  F   UNL A   1      44.792  33.131  26.396  1.00  0.00    -0.200 F 
ATOM     72  F   UNL A   1      47.126  34.469  26.811  1.00  0.00    -0.200 F 
ENDBRANCH  48  62
BRANCH  49  73
ATOM     73  C   UNL A   1      39.209  28.153  29.337  1.00  0.00     0.064 A 
ATOM     74  C   UNL A   1      38.370  28.312  30.451  1.00  0.00     0.173 A 
ATOM     75  C   UNL A   1      38.790  28.766  28.140  1.00  0.00     0.173 A 
ATOM     76  F   UNL A   1      38.720  27.795  31.637  1.00  0.00    -0.203 F 
ATOM     77  C   UNL A   1      37.197  29.070  30.379  1.00  0.00     0.198 A 
ATOM     78  C   UNL A   1      37.617  29.517  28.070  1.00  0.00     0.198 A 
ATOM     79  F   UNL A   1      39.562  28.731  27.044  1.00  0.00    -0.203 F 
ATOM     80  F   UNL A   1      36.456  29.259  31.481  1.00  0.00    -0.200 F 
ATOM     81  C   UNL A   1      36.829  29.683  29.193  1.00  0.00     0.200 A 
ATOM     82  F   UNL A   1      37.294  30.138  26.926  1.00  0.00    -0.200 F 
ATOM     83  F   UNL A   1      35.744  30.467  29.143  1.00  0.00    -0.200 F 
ENDBRANCH  49  73
BRANCH  61  84
ATOM     84  C   UNL A   1      44.660  26.734  32.182  1.00  0.00     0.064 A 
ATOM     85  C   UNL A   1      44.473  25.382  31.844  1.00  0.00     0.173 A 
ATOM     86  C   UNL A   1      44.837  27.037  33.539  1.00  0.00     0.173 A 
ATOM     87  F   UNL A   1      44.392  24.994  30.566  1.00  0.00    -0.203 F 
ATOM     88  C   UNL A   1      44.421  24.391  32.823  1.00  0.00     0.198 A 
ATOM     89  C   UNL A   1      44.823  26.041  34.511  1.00  0.00     0.198 A 
ATOM     90  F   UNL A   1      45.074  28.303  33.918  1.00  0.00    -0.203 F 
ATOM     91  F   UNL A   1      44.226  23.110  32.474  1.00  0.00    -0.200 F 
ATOM     92  C   UNL A   1      44.604  24.721  34.155  1.00  0.00     0.200 A 
ATOM     93  F   UNL A   1      45.049  26.360  35.793  1.00  0.00    -0.200 F 
ATOM     94  F   UNL A   1      44.593  23.764  35.094  1.00  0.00    -0.200 F 
ENDBRANCH  61  84
ENDBRANCH  35  36
ENDBRANCH  27  30
ENDBRANCH  25  26
ENDBRANCH  24  25
ENDBRANCH  23  24
ENDBRANCH  22  23
ENDBRANCH   1  22
TORSDOF 17
ENDMDL
MODEL 2
REMARK VINA RESULT:     -11.6      3.047      4.373
REMARK SMILES C#CCSc1nnnn1-c1ccc(C(=O)NCCCCCCNC(=O)c2ccc(-c3c4nc(c(-c5c(F)c(F)c(F)c(F)c5F)c5ccc([nH]5)c(-c5c(F)c(F)c(F)c(F)c5F)c5nc(c(-c6c(F)c(F)c(F)c(F)c6F)c6ccc3[nH]6)C=C5)C=C4)cc2)cc1
REMARK SMILES IDX 18 1 17 2 16 3 14 4 15 5 13 7 10 8 11 9 90 10 12 11 89 12
REMARK SMILES IDX 9 13 5 14 6 15 7 16 8 17 4 18 3 19 2 20 1 21 19 22 20 23
REMARK SMILES IDX 21 24 22 25 23 26 24 27 25 29 26 30 27 31 88 32 28 33 87 34
REMARK SMILES IDX 29 35 30 36 31 37 81 38 32 39 86 40 80 41 82 42 33 43 85 44
REMARK SMILES IDX 79 45 78 46 34 48 66 49 46 50 65 51 47 52 50 53 64 54 83 55
REMARK SMILES IDX 48 56 49 57 63 59 84 60 51 61 35 62 36 63 44 64 37 65 38 66
REMARK SMILES IDX 42 67 45 68 39 69 40 70 43 71 41 72 67 73 68 74 76 75 69 76
REMARK SMILES IDX 70 77 74 78 77 79 71 80 72 81 75 82 73 83 52 84 53 85 61 86
REMARK SMILES IDX 54 87 55 88 59 89 62 90 56 91 57 92 60 93 58 94
REMARK H PARENT 16 6 23 28 82 47 50 58
REMARK Flexibility Score: inf
ROOT
ATOM      1  C   UNL A   1      35.211  20.974  24.917  1.00  0.00     0.021 C 
ENDROOT
BRANCH   1   2
ATOM      2  C   UNL A   1      33.695  21.043  25.114  1.00  0.00     0.116 C 
BRANCH   2   3
ATOM      3  N   UNL A   1      33.014  20.734  23.870  1.00  0.00    -0.352 N 
ATOM      4  C   UNL A   1      32.292  21.492  22.982  1.00  0.00     0.251 C 
ATOM      5  O   UNL A   1      31.821  20.922  21.997  1.00  0.00    -0.269 OA
ATOM      6  H   UNL A   1      33.084  19.788  23.610  1.00  0.00     0.163 HD
BRANCH   4   7
ATOM      7  C   UNL A   1      32.126  22.966  23.112  1.00  0.00     0.039 A 
ATOM      8  C   UNL A   1      31.492  25.684  23.174  1.00  0.00     0.069 A 
ATOM      9  C   UNL A   1      30.723  24.795  23.923  1.00  0.00     0.029 A 
ATOM     10  C   UNL A   1      32.641  25.250  22.506  1.00  0.00     0.029 A 
ATOM     11  C   UNL A   1      31.025  23.431  23.855  1.00  0.00     0.016 A 
ATOM     12  C   UNL A   1      32.986  23.901  22.534  1.00  0.00     0.016 A 
BRANCH   8  13
ATOM     13  N   UNL A   1      31.109  27.031  23.064  1.00  0.00    -0.187 N 
ATOM     14  C   UNL A   1      30.964  27.979  24.057  1.00  0.00     0.215 A 
ATOM     15  N   UNL A   1      30.318  29.006  23.556  1.00  0.00    -0.101 NA
ATOM     16  N   UNL A   1      30.158  28.734  22.217  1.00  0.00    -0.022 NA
ATOM     17  N   UNL A   1      30.706  27.569  21.895  1.00  0.00    -0.039 NA
BRANCH  14  18
ATOM     18  S   UNL A   1      31.814  27.879  25.572  1.00  0.00    -0.071 SA
BRANCH  18  19
ATOM     19  C   UNL A   1      33.446  28.561  25.219  1.00  0.00     0.167 C 
BRANCH  19  20
ATOM     20  C   UNL A   1      34.229  28.967  26.457  1.00  0.00    -0.095 C 
ATOM     21  C   UNL A   1      34.900  29.314  27.518  1.00  0.00     0.005 C 
ENDBRANCH  19  20
ENDBRANCH  18  19
ENDBRANCH  14  18
ENDBRANCH   8  13
ENDBRANCH   4   7
ENDBRANCH   2   3
ENDBRANCH   1   2
BRANCH   1  22
ATOM     22  C   UNL A   1      35.814  22.284  24.391  1.00  0.00     0.002 C 
BRANCH  22  23
ATOM     23  C   UNL A   1      37.047  22.795  25.153  1.00  0.00     0.002 C 
BRANCH  23  24
ATOM     24  C   UNL A   1      38.214  21.805  25.285  1.00  0.00     0.021 C 
BRANCH  24  25
ATOM     25  C   UNL A   1      39.133  22.107  26.457  1.00  0.00     0.116 C 
BRANCH  25  26
ATOM     26  N   UNL A   1      40.544  21.971  26.094  1.00  0.00    -0.352 N 
ATOM     27  C   UNL A   1      41.511  22.948  26.051  1.00  0.00     0.251 C 
ATOM     28  H   UNL A   1      40.838  21.063  25.851  1.00  0.00     0.163 HD
ATOM     29  O   UNL A   1      42.541  22.799  25.397  1.00  0.00    -0.269 OA
BRANCH  27  30
ATOM     30  C   UNL A   1      41.288  24.185  26.810  1.00  0.00     0.039 A 
ATOM     31  C   UNL A   1      41.943  24.418  28.022  1.00  0.00     0.014 A 
ATOM     32  C   UNL A   1      40.437  25.138  26.256  1.00  0.00     0.014 A 
ATOM     33  C   UNL A   1      41.796  25.661  28.629  1.00  0.00     0.010 A 
ATOM     34  C   UNL A   1      40.415  26.407  26.774  1.00  0.00     0.010 A 
ATOM     35  C   UNL A   1      41.047  26.660  27.987  1.00  0.00    -0.014 A 
BRANCH  35  36
ATOM     36  C   UNL A   1      40.991  28.008  28.539  1.00  0.00     0.031 A 
ATOM     37  C   UNL A   1      42.065  28.926  28.076  1.00  0.00     0.074 A 
ATOM     38  C   UNL A   1      39.944  28.466  29.258  1.00  0.00     0.049 A 
ATOM     39  N   UNL A   1      43.025  29.435  28.774  1.00  0.00    -0.248 NA
ATOM     40  C   UNL A   1      42.150  29.230  26.638  1.00  0.00     0.031 C 
ATOM     41  C   UNL A   1      38.657  27.811  29.527  1.00  0.00     0.029 A 
ATOM     42  N   UNL A   1      39.782  29.687  29.833  1.00  0.00    -0.354 N 
ATOM     43  C   UNL A   1      43.732  30.272  27.913  1.00  0.00     0.074 A 
ATOM     44  C   UNL A   1      43.251  29.981  26.587  1.00  0.00     0.031 C 
ATOM     45  C   UNL A   1      37.777  28.717  30.006  1.00  0.00     0.029 A 
ATOM     46  C   UNL A   1      38.488  29.956  30.256  1.00  0.00     0.049 A 
ATOM     47  H   UNL A   1      40.522  30.328  29.942  1.00  0.00     0.167 HD
ATOM     48  C   UNL A   1      44.486  31.298  28.398  1.00  0.00     0.037 A 
ATOM     49  C   UNL A   1      38.030  31.124  30.763  1.00  0.00     0.037 A 
ATOM     50  C   UNL A   1      44.750  31.124  29.805  1.00  0.00     0.049 A 
ATOM     51  C   UNL A   1      39.208  31.882  31.251  1.00  0.00     0.074 A 
ATOM     52  C   UNL A   1      45.394  30.170  30.568  1.00  0.00     0.029 A 
ATOM     53  N   UNL A   1      43.990  31.849  30.688  1.00  0.00    -0.354 N 
ATOM     54  N   UNL A   1      39.946  31.511  32.259  1.00  0.00    -0.248 NA
ATOM     55  C   UNL A   1      39.825  32.832  30.341  1.00  0.00     0.031 C 
ATOM     56  C   UNL A   1      44.615  30.063  31.760  1.00  0.00     0.029 A 
ATOM     57  C   UNL A   1      43.583  31.000  31.683  1.00  0.00     0.049 A 
ATOM     58  H   UNL A   1      43.776  32.808  30.619  1.00  0.00     0.167 HD
ATOM     59  C   UNL A   1      41.242  31.825  31.880  1.00  0.00     0.074 A 
ATOM     60  C   UNL A   1      41.094  32.730  30.744  1.00  0.00     0.031 C 
ATOM     61  C   UNL A   1      42.302  31.099  32.344  1.00  0.00     0.037 A 
BRANCH  48  62
ATOM     62  C   UNL A   1      44.652  32.643  27.722  1.00  0.00     0.064 A 
ATOM     63  C   UNL A   1      45.832  32.897  26.990  1.00  0.00     0.173 A 
ATOM     64  C   UNL A   1      43.872  33.780  28.021  1.00  0.00     0.173 A 
ATOM     65  F   UNL A   1      46.657  31.895  26.652  1.00  0.00    -0.203 F 
ATOM     66  C   UNL A   1      46.245  34.196  26.678  1.00  0.00     0.198 A 
ATOM     67  C   UNL A   1      44.261  35.070  27.661  1.00  0.00     0.198 A 
ATOM     68  F   UNL A   1      42.764  33.711  28.768  1.00  0.00    -0.203 F 
ATOM     69  F   UNL A   1      47.442  34.394  26.110  1.00  0.00    -0.200 F 
ATOM     70  C   UNL A   1      45.464  35.281  27.025  1.00  0.00     0.200 A 
ATOM     71  F   UNL A   1      43.497  36.110  28.019  1.00  0.00    -0.200 F 
ATOM     72  F   UNL A   1      45.890  36.530  26.792  1.00  0.00    -0.200 F 
ENDBRANCH  48  62
BRANCH  49  73
ATOM     73  C   UNL A   1      36.706  31.751  30.557  1.00  0.00     0.064 A 
ATOM     74  C   UNL A   1      35.887  32.082  31.646  1.00  0.00     0.173 A 
ATOM     75  C   UNL A   1      36.351  32.304  29.310  1.00  0.00     0.173 A 
ATOM     76  F   UNL A   1      36.183  31.631  32.873  1.00  0.00    -0.203 F 
ATOM     77  C   UNL A   1      34.795  32.946  31.505  1.00  0.00     0.198 A 
ATOM     78  C   UNL A   1      35.259  33.161  29.170  1.00  0.00     0.198 A 
ATOM     79  F   UNL A   1      37.116  32.104  28.227  1.00  0.00    -0.203 F 
ATOM     80  F   UNL A   1      34.077  33.296  32.582  1.00  0.00    -0.200 F 
ATOM     81  C   UNL A   1      34.491  33.494  30.270  1.00  0.00     0.200 A 
ATOM     82  F   UNL A   1      35.000  33.716  27.978  1.00  0.00    -0.200 F 
ATOM     83  F   UNL A   1      33.490  34.377  30.148  1.00  0.00    -0.200 F 
ENDBRANCH  49  73
BRANCH  61  84
ATOM     84  C   UNL A   1      42.059  30.164  33.497  1.00  0.00     0.064 A 
ATOM     85  C   UNL A   1      41.686  28.815  33.361  1.00  0.00     0.173 A 
ATOM     86  C   UNL A   1      42.343  30.623  34.790  1.00  0.00     0.173 A 
ATOM     87  F   UNL A   1      41.490  28.270  32.155  1.00  0.00    -0.203 F 
ATOM     88  C   UNL A   1      41.560  27.983  34.473  1.00  0.00     0.198 A 
ATOM     89  C   UNL A   1      42.254  29.781  35.894  1.00  0.00     0.198 A 
ATOM     90  F   UNL A   1      42.756  31.887  34.977  1.00  0.00    -0.203 F 
ATOM     91  F   UNL A   1      41.186  26.704  34.317  1.00  0.00    -0.200 F 
ATOM     92  C   UNL A   1      41.851  28.465  35.737  1.00  0.00     0.200 A 
ATOM     93  F   UNL A   1      42.584  30.240  37.109  1.00  0.00    -0.200 F 
ATOM     94  F   UNL A   1      41.768  27.655  36.803  1.00  0.00    -0.200 F 
ENDBRANCH  61  84
ENDBRANCH  35  36
ENDBRANCH  27  30
ENDBRANCH  25  26
ENDBRANCH  24  25
ENDBRANCH  23  24
ENDBRANCH  22  23
ENDBRANCH   1  22
TORSDOF 17
ENDMDL
MODEL 3
REMARK VINA RESULT:     -11.5      4.824     10.127
REMARK SMILES C#CCSc1nnnn1-c1ccc(C(=O)NCCCCCCNC(=O)c2ccc(-c3c4nc(c(-c5c(F)c(F)c(F)c(F)c5F)c5ccc([nH]5)c(-c5c(F)c(F)c(F)c(F)c5F)c5nc(c(-c6c(F)c(F)c(F)c(F)c6F)c6ccc3[nH]6)C=C5)C=C4)cc2)cc1
REMARK SMILES IDX 18 1 17 2 16 3 14 4 15 5 13 7 10 8 11 9 90 10 12 11 89 12
REMARK SMILES IDX 9 13 5 14 6 15 7 16 8 17 4 18 3 19 2 20 1 21 19 22 20 23
REMARK SMILES IDX 21 24 22 25 23 26 24 27 25 29 26 30 27 31 88 32 28 33 87 34
REMARK SMILES IDX 29 35 30 36 31 37 81 38 32 39 86 40 80 41 82 42 33 43 85 44
REMARK SMILES IDX 79 45 78 46 34 48 66 49 46 50 65 51 47 52 50 53 64 54 83 55
REMARK SMILES IDX 48 56 49 57 63 59 84 60 51 61 35 62 36 63 44 64 37 65 38 66
REMARK SMILES IDX 42 67 45 68 39 69 40 70 43 71 41 72 67 73 68 74 76 75 69 76
REMARK SMILES IDX 70 77 74 78 77 79 71 80 72 81 75 82 73 83 52 84 53 85 61 86
REMARK SMILES IDX 54 87 55 88 59 89 62 90 56 91 57 92 60 93 58 94
REMARK H PARENT 16 6 23 28 82 47 50 58
REMARK Flexibility Score: inf
ROOT
ATOM      1  C   UNL A   1      33.623  31.696  27.636  1.00  0.00     0.021 C 
ENDROOT
BRANCH   1   2
ATOM      2  C   UNL A   1      33.810  30.271  27.111  1.00  0.00     0.116 C 
BRANCH   2   3
ATOM      3  N   UNL A   1      32.814  29.389  27.694  1.00  0.00    -0.352 N 
ATOM      4  C   UNL A   1      32.157  28.278  27.228  1.00  0.00     0.251 C 
ATOM      5  O   UNL A   1      31.341  27.742  27.979  1.00  0.00    -0.269 OA
ATOM      6  H   UNL A   1      32.558  29.641  28.610  1.00  0.00     0.163 HD
BRANCH   4   7
ATOM      7  C   UNL A   1      32.444  27.654  25.907  1.00  0.00     0.039 A 
ATOM      8  C   UNL A   1      32.719  26.231  23.521  1.00  0.00     0.069 A 
ATOM      9  C   UNL A   1      31.540  26.936  23.754  1.00  0.00     0.029 A 
ATOM     10  C   UNL A   1      33.801  26.335  24.401  1.00  0.00     0.029 A 
ATOM     11  C   UNL A   1      31.396  27.614  24.968  1.00  0.00     0.016 A 
ATOM     12  C   UNL A   1      33.676  27.101  25.558  1.00  0.00     0.016 A 
BRANCH   8  13
ATOM     13  N   UNL A   1      32.830  25.386  22.405  1.00  0.00    -0.187 N 
ATOM     14  C   UNL A   1      32.980  24.014  22.362  1.00  0.00     0.215 A 
ATOM     15  N   UNL A   1      33.333  23.674  21.144  1.00  0.00    -0.101 NA
ATOM     16  N   UNL A   1      33.297  24.834  20.405  1.00  0.00    -0.022 NA
ATOM     17  N   UNL A   1      32.917  25.866  21.147  1.00  0.00    -0.039 NA
BRANCH  14  18
ATOM     18  S   UNL A   1      32.444  22.979  23.654  1.00  0.00    -0.071 SA
BRANCH  18  19
ATOM     19  C   UNL A   1      33.921  22.695  24.648  1.00  0.00     0.167 C 
BRANCH  19  20
ATOM     20  C   UNL A   1      35.224  22.856  23.882  1.00  0.00    -0.095 C 
ATOM     21  C   UNL A   1      36.341  22.994  23.226  1.00  0.00     0.005 C 
ENDBRANCH  19  20
ENDBRANCH  18  19
ENDBRANCH  14  18
ENDBRANCH   8  13
ENDBRANCH   4   7
ENDBRANCH   2   3
ENDBRANCH   1   2
BRANCH   1  22
ATOM     22  C   UNL A   1      34.944  32.383  28.008  1.00  0.00     0.002 C 
BRANCH  22  23
ATOM     23  C   UNL A   1      34.878  33.914  28.137  1.00  0.00     0.002 C 
BRANCH  23  24
ATOM     24  C   UNL A   1      33.557  34.486  28.672  1.00  0.00     0.021 C 
BRANCH  24  25
ATOM     25  C   UNL A   1      33.723  35.812  29.397  1.00  0.00     0.116 C 
BRANCH  25  26
ATOM     26  N   UNL A   1      32.963  35.850  30.647  1.00  0.00    -0.352 N 
ATOM     27  C   UNL A   1      33.094  35.037  31.748  1.00  0.00     0.251 C 
ATOM     28  H   UNL A   1      32.271  36.548  30.707  1.00  0.00     0.163 HD
ATOM     29  O   UNL A   1      32.185  34.921  32.568  1.00  0.00    -0.269 OA
BRANCH  27  30
ATOM     30  C   UNL A   1      34.352  34.301  31.928  1.00  0.00     0.039 A 
ATOM     31  C   UNL A   1      34.418  32.921  31.725  1.00  0.00     0.014 A 
ATOM     32  C   UNL A   1      35.487  35.036  32.262  1.00  0.00     0.014 A 
ATOM     33  C   UNL A   1      35.661  32.299  31.780  1.00  0.00     0.010 A 
ATOM     34  C   UNL A   1      36.723  34.450  32.166  1.00  0.00     0.010 A 
ATOM     35  C   UNL A   1      36.814  33.076  31.979  1.00  0.00    -0.014 A 
BRANCH  35  36
ATOM     36  C   UNL A   1      38.135  32.464  31.908  1.00  0.00     0.031 A 
ATOM     37  C   UNL A   1      38.871  32.394  33.198  1.00  0.00     0.074 A 
ATOM     38  C   UNL A   1      38.592  31.823  30.810  1.00  0.00     0.049 A 
ATOM     39  N   UNL A   1      39.951  33.022  33.527  1.00  0.00    -0.248 NA
ATOM     40  C   UNL A   1      38.276  31.618  34.299  1.00  0.00     0.031 C 
ATOM     41  C   UNL A   1      37.876  31.506  29.567  1.00  0.00     0.029 A 
ATOM     42  N   UNL A   1      39.800  31.230  30.617  1.00  0.00    -0.354 N 
ATOM     43  C   UNL A   1      40.281  32.584  34.808  1.00  0.00     0.074 A 
ATOM     44  C   UNL A   1      39.137  31.853  35.290  1.00  0.00     0.031 C 
ATOM     45  C   UNL A   1      38.577  30.595  28.859  1.00  0.00     0.029 A 
ATOM     46  C   UNL A   1      39.866  30.413  29.498  1.00  0.00     0.049 A 
ATOM     47  H   UNL A   1      40.565  31.370  31.221  1.00  0.00     0.167 HD
ATOM     48  C   UNL A   1      41.562  32.666  35.267  1.00  0.00     0.037 A 
ATOM     49  C   UNL A   1      40.905  29.628  29.131  1.00  0.00     0.037 A 
ATOM     50  C   UNL A   1      42.339  33.577  34.463  1.00  0.00     0.049 A 
ATOM     51  C   UNL A   1      42.112  30.151  29.816  1.00  0.00     0.074 A 
ATOM     52  C   UNL A   1      42.265  34.921  34.161  1.00  0.00     0.029 A 
ATOM     53  N   UNL A   1      43.178  33.035  33.522  1.00  0.00    -0.354 N 
ATOM     54  N   UNL A   1      42.648  31.312  29.561  1.00  0.00    -0.248 NA
ATOM     55  C   UNL A   1      42.472  29.564  31.096  1.00  0.00     0.031 C 
ATOM     56  C   UNL A   1      42.657  35.015  32.791  1.00  0.00     0.029 A 
ATOM     57  C   UNL A   1      43.007  33.735  32.357  1.00  0.00     0.049 A 
ATOM     58  H   UNL A   1      43.794  32.278  33.660  1.00  0.00     0.167 HD
ATOM     59  C   UNL A   1      43.046  31.794  30.798  1.00  0.00     0.074 A 
ATOM     60  C   UNL A   1      43.011  30.634  31.685  1.00  0.00     0.031 C 
ATOM     61  C   UNL A   1      43.091  33.137  31.045  1.00  0.00     0.037 A 
BRANCH  48  62
ATOM     62  C   UNL A   1      42.221  31.648  36.173  1.00  0.00     0.064 A 
ATOM     63  C   UNL A   1      42.927  32.102  37.308  1.00  0.00     0.173 A 
ATOM     64  C   UNL A   1      42.461  30.306  35.811  1.00  0.00     0.173 A 
ATOM     65  F   UNL A   1      42.785  33.363  37.743  1.00  0.00    -0.203 F 
ATOM     66  C   UNL A   1      43.874  31.306  37.959  1.00  0.00     0.198 A 
ATOM     67  C   UNL A   1      43.367  29.497  36.498  1.00  0.00     0.198 A 
ATOM     68  F   UNL A   1      41.923  29.751  34.720  1.00  0.00    -0.203 F 
ATOM     69  F   UNL A   1      44.621  31.830  38.941  1.00  0.00    -0.200 F 
ATOM     70  C   UNL A   1      44.101  30.008  37.545  1.00  0.00     0.200 A 
ATOM     71  F   UNL A   1      43.583  28.245  36.071  1.00  0.00    -0.200 F 
ATOM     72  F   UNL A   1      45.056  29.265  38.121  1.00  0.00    -0.200 F 
ENDBRANCH  48  62
BRANCH  49  73
ATOM     73  C   UNL A   1      40.860  28.289  28.503  1.00  0.00     0.064 A 
ATOM     74  C   UNL A   1      40.081  27.260  29.054  1.00  0.00     0.173 A 
ATOM     75  C   UNL A   1      41.343  28.083  27.195  1.00  0.00     0.173 A 
ATOM     76  F   UNL A   1      39.549  27.399  30.276  1.00  0.00    -0.203 F 
ATOM     77  C   UNL A   1      39.772  26.107  28.325  1.00  0.00     0.198 A 
ATOM     78  C   UNL A   1      41.037  26.930  26.472  1.00  0.00     0.198 A 
ATOM     79  F   UNL A   1      42.033  29.041  26.559  1.00  0.00    -0.203 F 
ATOM     80  F   UNL A   1      38.966  25.176  28.858  1.00  0.00    -0.200 F 
ATOM     81  C   UNL A   1      40.239  25.949  27.031  1.00  0.00     0.200 A 
ATOM     82  F   UNL A   1      41.463  26.808  25.207  1.00  0.00    -0.200 F 
ATOM     83  F   UNL A   1      39.885  24.878  26.307  1.00  0.00    -0.200 F 
ENDBRANCH  49  73
BRANCH  61  84
ATOM     84  C   UNL A   1      42.996  34.068  29.867  1.00  0.00     0.064 A 
ATOM     85  C   UNL A   1      44.077  34.410  29.036  1.00  0.00     0.173 A 
ATOM     86  C   UNL A   1      41.728  34.530  29.492  1.00  0.00     0.173 A 
ATOM     87  F   UNL A   1      45.305  33.932  29.266  1.00  0.00    -0.203 F 
ATOM     88  C   UNL A   1      43.899  35.214  27.910  1.00  0.00     0.198 A 
ATOM     89  C   UNL A   1      41.546  35.300  28.348  1.00  0.00     0.198 A 
ATOM     90  F   UNL A   1      40.650  34.192  30.217  1.00  0.00    -0.203 F 
ATOM     91  F   UNL A   1      44.950  35.538  27.142  1.00  0.00    -0.200 F 
ATOM     92  C   UNL A   1      42.632  35.652  27.563  1.00  0.00     0.200 A 
ATOM     93  F   UNL A   1      40.312  35.681  27.990  1.00  0.00    -0.200 F 
ATOM     94  F   UNL A   1      42.454  36.392  26.460  1.00  0.00    -0.200 F 
ENDBRANCH  61  84
ENDBRANCH  35  36
ENDBRANCH  27  30
ENDBRANCH  25  26
ENDBRANCH  24  25
ENDBRANCH  23  24
ENDBRANCH  22  23
ENDBRANCH   1  22
TORSDOF 17
ENDMDL
