MODEL 1
REMARK VINA RESULT:     -11.1      0.000      0.000
REMARK SMILES CC(C)(C(=O)NCCCCCCNC(=O)c1ccc(-c2c3nc(c(-c4c(F)c(F)c(F)c(F)c4F)c4ccc([nH]4)c(-c4c(F)c(F)c(F)c(F)c4F)c4nc(c(-c5c(F)c(F)c(F)c(F)c5F)c5ccc2[nH]5)C=C4)C=C3)cc1)C1CCCCC1
REMARK SMILES IDX 10 1 9 2 8 3 7 4 6 5 4 6 5 7 2 9 1 10 3 11 79 12 80 13 84 14
REMARK SMILES IDX 81 15 83 16 82 17 11 18 12 19 13 20 14 21 15 23 16 24 17 25
REMARK SMILES IDX 78 26 18 27 77 28 19 29 20 30 21 31 71 32 22 33 76 34 70 35
REMARK SMILES IDX 72 36 23 37 75 38 69 39 68 40 24 42 56 43 36 44 55 45 37 46
REMARK SMILES IDX 40 47 54 48 73 49 38 50 39 51 53 53 74 54 41 55 25 56 26 57
REMARK SMILES IDX 34 58 27 59 28 60 32 61 35 62 29 63 30 64 33 65 31 66 57 67
REMARK SMILES IDX 58 68 66 69 59 70 60 71 64 72 67 73 61 74 62 75 65 76 63 77
REMARK SMILES IDX 42 78 43 79 51 80 44 81 45 82 49 83 52 84 46 85 47 86 50 87
REMARK SMILES IDX 48 88
REMARK H PARENT 6 8 13 22 72 41 40 52
REMARK Flexibility Score: inf
ROOT
ATOM      1  C   UNL A   1      34.534  33.897  28.966  1.00  0.00     0.002 C 
ENDROOT
BRANCH   1   2
ATOM      2  C   UNL A   1      34.445  32.370  29.063  1.00  0.00     0.002 C 
BRANCH   2   3
ATOM      3  C   UNL A   1      34.896  31.614  27.808  1.00  0.00     0.021 C 
BRANCH   3   4
ATOM      4  C   UNL A   1      34.536  30.130  27.808  1.00  0.00     0.116 C 
BRANCH   4   5
ATOM      5  N   UNL A   1      34.608  29.588  26.465  1.00  0.00    -0.356 N 
ATOM      6  C   UNL A   1      33.671  29.053  25.639  1.00  0.00     0.225 C 
ATOM      7  O   UNL A   1      34.122  28.381  24.707  1.00  0.00    -0.275 OA
ATOM      8  H   UNL A   1      35.511  29.613  26.076  1.00  0.00     0.163 HD
BRANCH   6   9
ATOM      9  C   UNL A   1      32.148  29.222  25.873  1.00  0.00     0.046 C 
ATOM     10  C   UNL A   1      31.778  28.346  27.094  1.00  0.00     0.022 C 
ATOM     11  C   UNL A   1      31.779  30.700  26.127  1.00  0.00     0.022 C 
BRANCH   9  12
ATOM     12  C   UNL A   1      31.336  28.679  24.615  1.00  0.00     0.004 C 
ATOM     13  C   UNL A   1      30.589  27.354  24.916  1.00  0.00     0.005 C 
ATOM     14  C   UNL A   1      30.328  29.694  24.015  1.00  0.00     0.005 C 
ATOM     15  C   UNL A   1      29.829  26.809  23.709  1.00  0.00     0.000 C 
ATOM     16  C   UNL A   1      29.613  29.129  22.788  1.00  0.00     0.000 C 
ATOM     17  C   UNL A   1      28.875  27.844  23.130  1.00  0.00     0.000 C 
ENDBRANCH   9  12
ENDBRANCH   6   9
ENDBRANCH   4   5
ENDBRANCH   3   4
ENDBRANCH   2   3
ENDBRANCH   1   2
BRANCH   1  18
ATOM     18  C   UNL A   1      33.194  34.633  29.044  1.00  0.00     0.021 C 
BRANCH  18  19
ATOM     19  C   UNL A   1      33.298  36.101  29.441  1.00  0.00     0.116 C 
BRANCH  19  20
ATOM     20  N   UNL A   1      32.487  36.413  30.606  1.00  0.00    -0.352 N 
ATOM     21  C   UNL A   1      32.616  35.960  31.890  1.00  0.00     0.251 C 
ATOM     22  H   UNL A   1      31.742  37.037  30.449  1.00  0.00     0.163 HD
ATOM     23  O   UNL A   1      31.735  36.187  32.721  1.00  0.00    -0.269 OA
BRANCH  21  24
ATOM     24  C   UNL A   1      33.807  35.178  32.281  1.00  0.00     0.039 A 
ATOM     25  C   UNL A   1      33.634  33.872  32.745  1.00  0.00     0.014 A 
ATOM     26  C   UNL A   1      35.088  35.736  32.212  1.00  0.00     0.014 A 
ATOM     27  C   UNL A   1      34.749  33.110  33.101  1.00  0.00     0.010 A 
ATOM     28  C   UNL A   1      36.202  34.953  32.500  1.00  0.00     0.010 A 
ATOM     29  C   UNL A   1      36.043  33.638  32.963  1.00  0.00    -0.014 A 
BRANCH  29  30
ATOM     30  C   UNL A   1      37.239  32.845  33.339  1.00  0.00     0.031 A 
ATOM     31  C   UNL A   1      37.947  33.131  34.636  1.00  0.00     0.074 A 
ATOM     32  C   UNL A   1      37.715  31.904  32.500  1.00  0.00     0.049 A 
ATOM     33  N   UNL A   1      39.053  32.614  35.109  1.00  0.00    -0.248 NA
ATOM     34  C   UNL A   1      37.344  34.155  35.505  1.00  0.00     0.031 C 
ATOM     35  C   UNL A   1      37.139  31.561  31.199  1.00  0.00     0.029 A 
ATOM     36  N   UNL A   1      38.801  31.072  32.613  1.00  0.00    -0.354 N 
ATOM     37  C   UNL A   1      39.279  33.253  36.321  1.00  0.00     0.074 A 
ATOM     38  C   UNL A   1      38.233  34.237  36.485  1.00  0.00     0.031 C 
ATOM     39  C   UNL A   1      37.869  30.581  30.641  1.00  0.00     0.029 A 
ATOM     40  C   UNL A   1      38.982  30.252  31.526  1.00  0.00     0.049 A 
ATOM     41  H   UNL A   1      39.394  31.064  33.399  1.00  0.00     0.167 HD
ATOM     42  C   UNL A   1      40.254  33.018  37.231  1.00  0.00     0.037 A 
ATOM     43  C   UNL A   1      39.945  29.345  31.271  1.00  0.00     0.037 A 
ATOM     44  C   UNL A   1      41.281  32.023  37.078  1.00  0.00     0.049 A 
ATOM     45  C   UNL A   1      41.019  29.109  32.300  1.00  0.00     0.074 A 
ATOM     46  C   UNL A   1      42.305  31.696  37.950  1.00  0.00     0.029 A 
ATOM     47  N   UNL A   1      41.405  31.183  35.981  1.00  0.00    -0.354 N 
ATOM     48  N   UNL A   1      41.198  29.690  33.461  1.00  0.00    -0.248 NA
ATOM     49  C   UNL A   1      42.019  28.077  31.988  1.00  0.00     0.031 C 
ATOM     50  C   UNL A   1      43.068  30.679  37.367  1.00  0.00     0.029 A 
ATOM     51  C   UNL A   1      42.490  30.339  36.156  1.00  0.00     0.049 A 
ATOM     52  H   UNL A   1      40.811  31.185  35.197  1.00  0.00     0.167 HD
ATOM     53  C   UNL A   1      42.301  29.072  34.033  1.00  0.00     0.074 A 
ATOM     54  C   UNL A   1      42.744  28.060  33.097  1.00  0.00     0.031 C 
ATOM     55  C   UNL A   1      42.897  29.319  35.225  1.00  0.00     0.037 A 
BRANCH  42  56
ATOM     56  C   UNL A   1      40.246  33.841  38.486  1.00  0.00     0.064 A 
ATOM     57  C   UNL A   1      39.507  33.447  39.612  1.00  0.00     0.173 A 
ATOM     58  C   UNL A   1      41.025  35.004  38.588  1.00  0.00     0.173 A 
ATOM     59  F   UNL A   1      38.736  32.350  39.562  1.00  0.00    -0.203 F 
ATOM     60  C   UNL A   1      39.531  34.197  40.785  1.00  0.00     0.198 A 
ATOM     61  C   UNL A   1      41.069  35.735  39.772  1.00  0.00     0.198 A 
ATOM     62  F   UNL A   1      41.755  35.422  37.543  1.00  0.00    -0.203 F 
ATOM     63  F   UNL A   1      38.783  33.823  41.832  1.00  0.00    -0.200 F 
ATOM     64  C   UNL A   1      40.319  35.334  40.866  1.00  0.00     0.200 A 
ATOM     65  F   UNL A   1      41.842  36.827  39.854  1.00  0.00    -0.200 F 
ATOM     66  F   UNL A   1      40.352  36.048  42.000  1.00  0.00    -0.200 F 
ENDBRANCH  42  56
BRANCH  43  67
ATOM     67  C   UNL A   1      39.936  28.580  29.997  1.00  0.00     0.064 A 
ATOM     68  C   UNL A   1      39.355  27.306  29.923  1.00  0.00     0.173 A 
ATOM     69  C   UNL A   1      40.542  29.086  28.839  1.00  0.00     0.173 A 
ATOM     70  F   UNL A   1      38.780  26.769  31.010  1.00  0.00    -0.203 F 
ATOM     71  C   UNL A   1      39.411  26.554  28.751  1.00  0.00     0.198 A 
ATOM     72  C   UNL A   1      40.570  28.347  27.657  1.00  0.00     0.198 A 
ATOM     73  F   UNL A   1      41.107  30.303  28.852  1.00  0.00    -0.203 F 
ATOM     74  F   UNL A   1      38.903  25.314  28.729  1.00  0.00    -0.200 F 
ATOM     75  C   UNL A   1      40.016  27.076  27.618  1.00  0.00     0.200 A 
ATOM     76  F   UNL A   1      41.144  28.861  26.561  1.00  0.00    -0.200 F 
ATOM     77  F   UNL A   1      40.078  26.350  26.494  1.00  0.00    -0.200 F 
ENDBRANCH  43  67
BRANCH  55  78
ATOM     78  C   UNL A   1      44.051  28.443  35.614  1.00  0.00     0.064 A 
ATOM     79  C   UNL A   1      45.373  28.768  35.278  1.00  0.00     0.173 A 
ATOM     80  C   UNL A   1      43.831  27.279  36.368  1.00  0.00     0.173 A 
ATOM     81  F   UNL A   1      45.634  29.863  34.548  1.00  0.00    -0.203 F 
ATOM     82  C   UNL A   1      46.430  27.946  35.658  1.00  0.00     0.198 A 
ATOM     83  C   UNL A   1      44.893  26.475  36.771  1.00  0.00     0.198 A 
ATOM     84  F   UNL A   1      42.585  26.927  36.720  1.00  0.00    -0.203 F 
ATOM     85  F   UNL A   1      47.681  28.249  35.284  1.00  0.00    -0.200 F 
ATOM     86  C   UNL A   1      46.190  26.804  36.410  1.00  0.00     0.200 A 
ATOM     87  F   UNL A   1      44.660  25.381  37.510  1.00  0.00    -0.200 F 
ATOM     88  F   UNL A   1      47.210  26.018  36.780  1.00  0.00    -0.200 F 
ENDBRANCH  55  78
ENDBRANCH  29  30
ENDBRANCH  21  24
ENDBRANCH  19  20
ENDBRANCH  18  19
ENDBRANCH   1  18
TORSDOF 14
ENDMDL
MODEL 2
REMARK VINA RESULT:     -10.8      1.736      7.971
REMARK SMILES CC(C)(C(=O)NCCCCCCNC(=O)c1ccc(-c2c3nc(c(-c4c(F)c(F)c(F)c(F)c4F)c4ccc([nH]4)c(-c4c(F)c(F)c(F)c(F)c4F)c4nc(c(-c5c(F)c(F)c(F)c(F)c5F)c5ccc2[nH]5)C=C4)C=C3)cc1)C1CCCCC1
REMARK SMILES IDX 10 1 9 2 8 3 7 4 6 5 4 6 5 7 2 9 1 10 3 11 79 12 80 13 84 14
REMARK SMILES IDX 81 15 83 16 82 17 11 18 12 19 13 20 14 21 15 23 16 24 17 25
REMARK SMILES IDX 78 26 18 27 77 28 19 29 20 30 21 31 71 32 22 33 76 34 70 35
REMARK SMILES IDX 72 36 23 37 75 38 69 39 68 40 24 42 56 43 36 44 55 45 37 46
REMARK SMILES IDX 40 47 54 48 73 49 38 50 39 51 53 53 74 54 41 55 25 56 26 57
REMARK SMILES IDX 34 58 27 59 28 60 32 61 35 62 29 63 30 64 33 65 31 66 57 67
REMARK SMILES IDX 58 68 66 69 59 70 60 71 64 72 67 73 61 74 62 75 65 76 63 77
REMARK SMILES IDX 42 78 43 79 51 80 44 81 45 82 49 83 52 84 46 85 47 86 50 87
REMARK SMILES IDX 48 88
REMARK H PARENT 6 8 13 22 72 41 40 52
REMARK Flexibility Score: inf
ROOT
ATOM      1  C   UNL A   1      31.391  30.873  26.047  1.00  0.00     0.002 C 
ENDROOT
BRANCH   1   2
ATOM      2  C   UNL A   1      32.314  30.023  26.925  1.00  0.00     0.002 C 
BRANCH   2   3
ATOM      3  C   UNL A   1      31.723  28.685  27.384  1.00  0.00     0.021 C 
BRANCH   3   4
ATOM      4  C   UNL A   1      32.433  27.458  26.817  1.00  0.00     0.116 C 
BRANCH   4   5
ATOM      5  N   UNL A   1      31.565  26.298  26.866  1.00  0.00    -0.356 N 
ATOM      6  C   UNL A   1      30.751  25.720  25.944  1.00  0.00     0.225 C 
ATOM      7  O   UNL A   1      29.900  24.957  26.407  1.00  0.00    -0.275 OA
ATOM      8  H   UNL A   1      31.565  25.839  27.737  1.00  0.00     0.163 HD
BRANCH   6   9
ATOM      9  C   UNL A   1      30.843  26.033  24.428  1.00  0.00     0.046 C 
ATOM     10  C   UNL A   1      32.338  26.269  24.105  1.00  0.00     0.022 C 
ATOM     11  C   UNL A   1      30.275  24.874  23.580  1.00  0.00     0.022 C 
BRANCH   9  12
ATOM     12  C   UNL A   1      30.051  27.374  24.095  1.00  0.00     0.004 C 
ATOM     13  C   UNL A   1      30.838  28.308  23.139  1.00  0.00     0.005 C 
ATOM     14  C   UNL A   1      28.629  27.153  23.517  1.00  0.00     0.005 C 
ATOM     15  C   UNL A   1      30.101  29.610  22.835  1.00  0.00     0.000 C 
ATOM     16  C   UNL A   1      27.907  28.475  23.259  1.00  0.00     0.000 C 
ATOM     17  C   UNL A   1      28.699  29.351  22.300  1.00  0.00     0.000 C 
ENDBRANCH   9  12
ENDBRANCH   6   9
ENDBRANCH   4   5
ENDBRANCH   3   4
ENDBRANCH   2   3
ENDBRANCH   1   2
BRANCH   1  18
ATOM     18  C   UNL A   1      31.281  32.345  26.451  1.00  0.00     0.021 C 
BRANCH  18  19
ATOM     19  C   UNL A   1      32.485  32.885  27.213  1.00  0.00     0.116 C 
BRANCH  19  20
ATOM     20  N   UNL A   1      32.313  34.276  27.597  1.00  0.00    -0.352 N 
ATOM     21  C   UNL A   1      32.962  34.986  28.571  1.00  0.00     0.251 C 
ATOM     22  H   UNL A   1      31.637  34.777  27.086  1.00  0.00     0.163 HD
ATOM     23  O   UNL A   1      32.570  36.111  28.885  1.00  0.00    -0.269 OA
BRANCH  21  24
ATOM     24  C   UNL A   1      34.124  34.395  29.265  1.00  0.00     0.039 A 
ATOM     25  C   UNL A   1      33.906  33.623  30.408  1.00  0.00     0.014 A 
ATOM     26  C   UNL A   1      35.426  34.619  28.804  1.00  0.00     0.014 A 
ATOM     27  C   UNL A   1      34.991  33.041  31.067  1.00  0.00     0.010 A 
ATOM     28  C   UNL A   1      36.499  33.981  29.420  1.00  0.00     0.010 A 
ATOM     29  C   UNL A   1      36.294  33.199  30.567  1.00  0.00    -0.014 A 
BRANCH  29  30
ATOM     30  C   UNL A   1      37.459  32.590  31.255  1.00  0.00     0.031 A 
ATOM     31  C   UNL A   1      38.210  31.465  30.596  1.00  0.00     0.074 A 
ATOM     32  C   UNL A   1      37.812  33.013  32.485  1.00  0.00     0.049 A 
ATOM     33  N   UNL A   1      39.198  30.743  31.061  1.00  0.00    -0.248 NA
ATOM     34  C   UNL A   1      37.776  31.084  29.242  1.00  0.00     0.031 C 
ATOM     35  C   UNL A   1      37.139  34.068  33.242  1.00  0.00     0.029 A 
ATOM     36  N   UNL A   1      38.820  32.596  33.318  1.00  0.00    -0.354 N 
ATOM     37  C   UNL A   1      39.495  29.823  30.064  1.00  0.00     0.074 A 
ATOM     38  C   UNL A   1      38.547  30.036  28.993  1.00  0.00     0.031 C 
ATOM     39  C   UNL A   1      37.760  34.225  34.423  1.00  0.00     0.029 A 
ATOM     40  C   UNL A   1      38.851  33.260  34.520  1.00  0.00     0.049 A 
ATOM     41  H   UNL A   1      39.460  31.887  33.077  1.00  0.00     0.167 HD
ATOM     42  C   UNL A   1      40.489  28.904  30.030  1.00  0.00     0.037 A 
ATOM     43  C   UNL A   1      39.663  33.099  35.583  1.00  0.00     0.037 A 
ATOM     44  C   UNL A   1      41.447  28.709  31.086  1.00  0.00     0.049 A 
ATOM     45  C   UNL A   1      40.757  32.066  35.518  1.00  0.00     0.074 A 
ATOM     46  C   UNL A   1      42.501  27.815  31.142  1.00  0.00     0.029 A 
ATOM     47  N   UNL A   1      41.471  29.431  32.270  1.00  0.00    -0.354 N 
ATOM     48  N   UNL A   1      41.054  31.231  34.552  1.00  0.00    -0.248 NA
ATOM     49  C   UNL A   1      41.641  31.963  36.689  1.00  0.00     0.031 C 
ATOM     50  C   UNL A   1      43.146  27.975  32.372  1.00  0.00     0.029 A 
ATOM     51  C   UNL A   1      42.523  29.001  33.062  1.00  0.00     0.049 A 
ATOM     52  H   UNL A   1      40.836  30.143  32.510  1.00  0.00     0.167 HD
ATOM     53  C   UNL A   1      42.175  30.534  34.980  1.00  0.00     0.074 A 
ATOM     54  C   UNL A   1      42.515  31.052  36.287  1.00  0.00     0.031 C 
ATOM     55  C   UNL A   1      42.862  29.551  34.348  1.00  0.00     0.037 A 
BRANCH  42  56
ATOM     56  C   UNL A   1      40.605  28.050  28.802  1.00  0.00     0.064 A 
ATOM     57  C   UNL A   1      39.910  26.836  28.690  1.00  0.00     0.173 A 
ATOM     58  C   UNL A   1      41.372  28.469  27.705  1.00  0.00     0.173 A 
ATOM     59  F   UNL A   1      39.173  26.383  29.716  1.00  0.00    -0.203 F 
ATOM     60  C   UNL A   1      39.996  26.064  27.534  1.00  0.00     0.198 A 
ATOM     61  C   UNL A   1      41.432  27.709  26.539  1.00  0.00     0.198 A 
ATOM     62  F   UNL A   1      42.052  29.625  27.758  1.00  0.00    -0.203 F 
ATOM     63  F   UNL A   1      39.356  24.888  27.467  1.00  0.00    -0.200 F 
ATOM     64  C   UNL A   1      40.749  26.506  26.458  1.00  0.00     0.200 A 
ATOM     65  F   UNL A   1      42.150  28.144  25.494  1.00  0.00    -0.200 F 
ATOM     66  F   UNL A   1      40.820  25.769  25.341  1.00  0.00    -0.200 F 
ENDBRANCH  42  56
BRANCH  43  67
ATOM     67  C   UNL A   1      39.488  33.941  36.796  1.00  0.00     0.064 A 
ATOM     68  C   UNL A   1      40.101  35.198  36.896  1.00  0.00     0.173 A 
ATOM     69  C   UNL A   1      38.740  33.491  37.892  1.00  0.00     0.173 A 
ATOM     70  F   UNL A   1      40.843  35.664  35.881  1.00  0.00    -0.203 F 
ATOM     71  C   UNL A   1      40.001  35.957  38.061  1.00  0.00     0.198 A 
ATOM     72  C   UNL A   1      38.615  34.265  39.045  1.00  0.00     0.198 A 
ATOM     73  F   UNL A   1      38.128  32.299  37.846  1.00  0.00    -0.203 F 
ATOM     74  F   UNL A   1      40.650  37.126  38.153  1.00  0.00    -0.200 F 
ATOM     75  C   UNL A   1      39.256  35.492  39.133  1.00  0.00     0.200 A 
ATOM     76  F   UNL A   1      37.882  33.817  40.074  1.00  0.00    -0.200 F 
ATOM     77  F   UNL A   1      39.167  36.217  40.256  1.00  0.00    -0.200 F 
ENDBRANCH  43  67
BRANCH  55  78
ATOM     78  C   UNL A   1      44.086  29.015  35.033  1.00  0.00     0.064 A 
ATOM     79  C   UNL A   1      44.026  27.915  35.899  1.00  0.00     0.173 A 
ATOM     80  C   UNL A   1      45.342  29.592  34.785  1.00  0.00     0.173 A 
ATOM     81  F   UNL A   1      42.848  27.338  36.177  1.00  0.00    -0.203 F 
ATOM     82  C   UNL A   1      45.176  27.429  36.515  1.00  0.00     0.198 A 
ATOM     83  C   UNL A   1      46.492  29.084  35.380  1.00  0.00     0.198 A 
ATOM     84  F   UNL A   1      45.453  30.643  33.958  1.00  0.00    -0.203 F 
ATOM     85  F   UNL A   1      45.090  26.407  37.379  1.00  0.00    -0.200 F 
ATOM     86  C   UNL A   1      46.408  28.009  36.250  1.00  0.00     0.200 A 
ATOM     87  F   UNL A   1      47.684  29.636  35.111  1.00  0.00    -0.200 F 
ATOM     88  F   UNL A   1      47.514  27.534  36.840  1.00  0.00    -0.200 F 
ENDBRANCH  55  78
ENDBRANCH  29  30
ENDBRANCH  21  24
ENDBRANCH  19  20
ENDBRANCH  18  19
ENDBRANCH   1  18
TORSDOF 14
ENDMDL
MODEL 3
REMARK VINA RESULT:     -10.7      1.820      3.092
REMARK SMILES CC(C)(C(=O)NCCCCCCNC(=O)c1ccc(-c2c3nc(c(-c4c(F)c(F)c(F)c(F)c4F)c4ccc([nH]4)c(-c4c(F)c(F)c(F)c(F)c4F)c4nc(c(-c5c(F)c(F)c(F)c(F)c5F)c5ccc2[nH]5)C=C4)C=C3)cc1)C1CCCCC1
REMARK SMILES IDX 10 1 9 2 8 3 7 4 6 5 4 6 5 7 2 9 1 10 3 11 79 12 80 13 84 14
REMARK SMILES IDX 81 15 83 16 82 17 11 18 12 19 13 20 14 21 15 23 16 24 17 25
REMARK SMILES IDX 78 26 18 27 77 28 19 29 20 30 21 31 71 32 22 33 76 34 70 35
REMARK SMILES IDX 72 36 23 37 75 38 69 39 68 40 24 42 56 43 36 44 55 45 37 46
REMARK SMILES IDX 40 47 54 48 73 49 38 50 39 51 53 53 74 54 41 55 25 56 26 57
REMARK SMILES IDX 34 58 27 59 28 60 32 61 35 62 29 63 30 64 33 65 31 66 57 67
REMARK SMILES IDX 58 68 66 69 59 70 60 71 64 72 67 73 61 74 62 75 65 76 63 77
REMARK SMILES IDX 42 78 43 79 51 80 44 81 45 82 49 83 52 84 46 85 47 86 50 87
REMARK SMILES IDX 48 88
REMARK H PARENT 6 8 13 22 72 41 40 52
REMARK Flexibility Score: inf
ROOT
ATOM      1  C   UNL A   1      31.363  30.841  26.122  1.00  0.00     0.002 C 
ENDROOT
BRANCH   1   2
ATOM      2  C   UNL A   1      32.343  29.985  26.931  1.00  0.00     0.002 C 
BRANCH   2   3
ATOM      3  C   UNL A   1      31.788  28.636  27.403  1.00  0.00     0.021 C 
BRANCH   3   4
ATOM      4  C   UNL A   1      32.481  27.423  26.786  1.00  0.00     0.116 C 
BRANCH   4   5
ATOM      5  N   UNL A   1      31.619  26.259  26.844  1.00  0.00    -0.356 N 
ATOM      6  C   UNL A   1      30.781  25.691  25.938  1.00  0.00     0.225 C 
ATOM      7  O   UNL A   1      29.945  24.917  26.415  1.00  0.00    -0.275 OA
ATOM      8  H   UNL A   1      31.646  25.788  27.707  1.00  0.00     0.163 HD
BRANCH   6   9
ATOM      9  C   UNL A   1      30.827  26.024  24.424  1.00  0.00     0.046 C 
ATOM     10  C   UNL A   1      32.306  26.312  24.070  1.00  0.00     0.022 C 
ATOM     11  C   UNL A   1      30.276  24.858  23.575  1.00  0.00     0.022 C 
BRANCH   9  12
ATOM     12  C   UNL A   1      29.986  27.343  24.127  1.00  0.00     0.004 C 
ATOM     13  C   UNL A   1      30.753  28.349  23.230  1.00  0.00     0.005 C 
ATOM     14  C   UNL A   1      28.588  27.086  23.505  1.00  0.00     0.005 C 
ATOM     15  C   UNL A   1      29.967  29.631  22.962  1.00  0.00     0.000 C 
ATOM     16  C   UNL A   1      27.816  28.387  23.283  1.00  0.00     0.000 C 
ATOM     17  C   UNL A   1      28.591  29.335  22.382  1.00  0.00     0.000 C 
ENDBRANCH   9  12
ENDBRANCH   6   9
ENDBRANCH   4   5
ENDBRANCH   3   4
ENDBRANCH   2   3
ENDBRANCH   1   2
BRANCH   1  18
ATOM     18  C   UNL A   1      31.327  32.323  26.502  1.00  0.00     0.021 C 
BRANCH  18  19
ATOM     19  C   UNL A   1      32.613  32.850  27.129  1.00  0.00     0.116 C 
BRANCH  19  20
ATOM     20  N   UNL A   1      32.454  34.192  27.663  1.00  0.00    -0.352 N 
ATOM     21  C   UNL A   1      33.117  34.787  28.703  1.00  0.00     0.251 C 
ATOM     22  H   UNL A   1      31.778  34.749  27.216  1.00  0.00     0.163 HD
ATOM     23  O   UNL A   1      32.736  35.873  29.141  1.00  0.00    -0.269 OA
BRANCH  21  24
ATOM     24  C   UNL A   1      34.281  34.116  29.318  1.00  0.00     0.039 A 
ATOM     25  C   UNL A   1      34.059  33.093  30.242  1.00  0.00     0.014 A 
ATOM     26  C   UNL A   1      35.585  34.509  29.002  1.00  0.00     0.014 A 
ATOM     27  C   UNL A   1      35.146  32.434  30.820  1.00  0.00     0.010 A 
ATOM     28  C   UNL A   1      36.667  33.806  29.525  1.00  0.00     0.010 A 
ATOM     29  C   UNL A   1      36.458  32.773  30.451  1.00  0.00    -0.014 A 
BRANCH  29  30
ATOM     30  C   UNL A   1      37.627  32.086  31.056  1.00  0.00     0.031 A 
ATOM     31  C   UNL A   1      38.109  32.498  32.421  1.00  0.00     0.074 A 
ATOM     32  C   UNL A   1      38.279  31.131  30.366  1.00  0.00     0.049 A 
ATOM     33  N   UNL A   1      39.157  32.086  33.089  1.00  0.00    -0.248 NA
ATOM     34  C   UNL A   1      37.322  33.530  33.117  1.00  0.00     0.031 C 
ATOM     35  C   UNL A   1      37.930  30.671  29.021  1.00  0.00     0.029 A 
ATOM     36  N   UNL A   1      39.380  30.382  30.698  1.00  0.00    -0.354 N 
ATOM     37  C   UNL A   1      39.158  32.811  34.274  1.00  0.00     0.074 A 
ATOM     38  C   UNL A   1      38.043  33.730  34.210  1.00  0.00     0.031 C 
ATOM     39  C   UNL A   1      38.792  29.711  28.648  1.00  0.00     0.029 A 
ATOM     40  C   UNL A   1      39.773  29.512  29.711  1.00  0.00     0.049 A 
ATOM     41  H   UNL A   1      39.845  30.462  31.563  1.00  0.00     0.167 HD
ATOM     42  C   UNL A   1      39.993  32.698  35.333  1.00  0.00     0.037 A 
ATOM     43  C   UNL A   1      40.815  28.658  29.666  1.00  0.00     0.037 A 
ATOM     44  C   UNL A   1      41.087  31.766  35.406  1.00  0.00     0.049 A 
ATOM     45  C   UNL A   1      41.729  28.558  30.859  1.00  0.00     0.074 A 
ATOM     46  C   UNL A   1      41.982  31.563  36.441  1.00  0.00     0.029 A 
ATOM     47  N   UNL A   1      41.426  30.872  34.402  1.00  0.00    -0.354 N 
ATOM     48  N   UNL A   1      41.694  29.219  31.990  1.00  0.00    -0.248 NA
ATOM     49  C   UNL A   1      42.824  27.578  30.773  1.00  0.00     0.031 C 
ATOM     50  C   UNL A   1      42.882  30.567  36.052  1.00  0.00     0.029 A 
ATOM     51  C   UNL A   1      42.518  30.116  34.795  1.00  0.00     0.049 A 
ATOM     52  H   UNL A   1      40.960  30.787  33.539  1.00  0.00     0.167 HD
ATOM     53  C   UNL A   1      42.731  28.712  32.762  1.00  0.00     0.074 A 
ATOM     54  C   UNL A   1      43.369  27.678  31.976  1.00  0.00     0.031 C 
ATOM     55  C   UNL A   1      43.120  29.071  34.009  1.00  0.00     0.037 A 
BRANCH  42  56
ATOM     56  C   UNL A   1      39.746  33.593  36.513  1.00  0.00     0.064 A 
ATOM     57  C   UNL A   1      40.327  34.867  36.596  1.00  0.00     0.173 A 
ATOM     58  C   UNL A   1      38.879  33.199  37.543  1.00  0.00     0.173 A 
ATOM     59  F   UNL A   1      41.174  35.286  35.643  1.00  0.00    -0.203 F 
ATOM     60  C   UNL A   1      40.067  35.705  37.677  1.00  0.00     0.198 A 
ATOM     61  C   UNL A   1      38.598  34.052  38.608  1.00  0.00     0.198 A 
ATOM     62  F   UNL A   1      38.292  31.993  37.510  1.00  0.00    -0.203 F 
ATOM     63  F   UNL A   1      40.667  36.901  37.754  1.00  0.00    -0.200 F 
ATOM     64  C   UNL A   1      39.196  35.300  38.676  1.00  0.00     0.200 A 
ATOM     65  F   UNL A   1      37.745  33.665  39.567  1.00  0.00    -0.200 F 
ATOM     66  F   UNL A   1      38.935  36.114  39.709  1.00  0.00    -0.200 F 
ENDBRANCH  42  56
BRANCH  43  67
ATOM     67  C   UNL A   1      41.046  27.818  28.462  1.00  0.00     0.064 A 
ATOM     68  C   UNL A   1      41.883  28.255  27.426  1.00  0.00     0.173 A 
ATOM     69  C   UNL A   1      40.404  26.582  28.303  1.00  0.00     0.173 A 
ATOM     70  F   UNL A   1      42.505  29.440  27.522  1.00  0.00    -0.203 F 
ATOM     71  C   UNL A   1      42.042  27.505  26.262  1.00  0.00     0.198 A 
ATOM     72  C   UNL A   1      40.588  25.817  27.152  1.00  0.00     0.198 A 
ATOM     73  F   UNL A   1      39.597  26.113  29.267  1.00  0.00    -0.203 F 
ATOM     74  F   UNL A   1      42.798  27.978  25.262  1.00  0.00    -0.200 F 
ATOM     75  C   UNL A   1      41.397  26.286  26.127  1.00  0.00     0.200 A 
ATOM     76  F   UNL A   1      39.974  24.633  27.032  1.00  0.00    -0.200 F 
ATOM     77  F   UNL A   1      41.543  25.568  25.005  1.00  0.00    -0.200 F 
ENDBRANCH  43  67
BRANCH  55  78
ATOM     78  C   UNL A   1      44.250  28.299  34.627  1.00  0.00     0.064 A 
ATOM     79  C   UNL A   1      45.583  28.719  34.511  1.00  0.00     0.173 A 
ATOM     80  C   UNL A   1      43.987  27.143  35.379  1.00  0.00     0.173 A 
ATOM     81  F   UNL A   1      45.887  29.810  33.792  1.00  0.00    -0.203 F 
ATOM     82  C   UNL A   1      46.614  27.993  35.100  1.00  0.00     0.198 A 
ATOM     83  C   UNL A   1      45.017  26.437  35.991  1.00  0.00     0.198 A 
ATOM     84  F   UNL A   1      42.728  26.704  35.526  1.00  0.00    -0.203 F 
ATOM     85  F   UNL A   1      47.885  28.384  34.935  1.00  0.00    -0.200 F 
ATOM     86  C   UNL A   1      46.330  26.858  35.845  1.00  0.00     0.200 A 
ATOM     87  F   UNL A   1      44.740  25.349  36.723  1.00  0.00    -0.200 F 
ATOM     88  F   UNL A   1      47.324  26.164  36.418  1.00  0.00    -0.200 F 
ENDBRANCH  55  78
ENDBRANCH  29  30
ENDBRANCH  21  24
ENDBRANCH  19  20
ENDBRANCH  18  19
ENDBRANCH   1  18
TORSDOF 14
ENDMDL
