MODEL 1
REMARK VINA RESULT:     -12.7      0.000      0.000
REMARK SMILES Cc1ccc(O[C@H](C)C(=O)NNC(=O)[C@@H]2[C@@H](C(=O)NCCCCCCNC(=O)c3ccc(-c4c5nc(c(-c6c(F)c(F)c(F)c(F)c6F)c6ccc([nH]6)c(-c6c(F)c(F)c(F)c(F)c6F)c6nc(c(-c7c(F)c(F)c(F)c(F)c7F)c7ccc4[nH]7)C=C6)C=C5)cc3)[C@@H]3C=C[C@H]2C3)cc1C
REMARK SMILES IDX 21 1 20 2 19 3 17 4 18 5 16 7 15 8 95 9 92 10 94 11 96 12
REMARK SMILES IDX 93 13 13 14 12 15 14 17 11 18 9 19 10 20 7 22 8 23 6 24 5 25
REMARK SMILES IDX 1 26 2 27 3 28 98 29 4 30 97 31 99 32 22 33 23 34 24 35
REMARK SMILES IDX 25 36 26 37 27 38 28 40 29 41 30 42 91 43 31 44 90 45 32 46
REMARK SMILES IDX 33 47 34 48 84 49 35 50 89 51 83 52 85 53 36 54 88 55 82 56
REMARK SMILES IDX 81 57 37 59 69 60 49 61 68 62 50 63 53 64 67 65 86 66 51 67
REMARK SMILES IDX 52 68 66 70 87 71 54 72 38 73 39 74 47 75 40 76 41 77 45 78
REMARK SMILES IDX 48 79 42 80 43 81 46 82 44 83 70 84 71 85 79 86 72 87 73 88
REMARK SMILES IDX 77 89 80 90 74 91 75 92 78 93 76 94 55 95 56 96 64 97 57 98
REMARK SMILES IDX 58 99 62 100 65 101 59 102 60 103 63 104 61 105
REMARK H PARENT 19 6 12 16 11 21 26 39 85 58 53 69
REMARK Flexibility Score: inf
ROOT
ATOM      1  C   UNL A   1      32.039  28.711  27.277  1.00  0.00     0.021 C 
ENDROOT
BRANCH   1   2
ATOM      2  C   UNL A   1      32.263  27.307  26.720  1.00  0.00     0.116 C 
BRANCH   2   3
ATOM      3  N   UNL A   1      31.026  26.563  26.732  1.00  0.00    -0.356 N 
ATOM      4  C   UNL A   1      30.826  25.224  26.653  1.00  0.00     0.224 C 
ATOM      5  O   UNL A   1      29.656  24.840  26.634  1.00  0.00    -0.275 OA
ATOM      6  H   UNL A   1      30.210  27.108  26.810  1.00  0.00     0.163 HD
BRANCH   4   7
ATOM      7  C   UNL A   1      32.012  24.255  26.620  1.00  0.00     0.098 C 
ATOM      8  C   UNL A   1      32.588  23.964  25.169  1.00  0.00     0.100 C 
ATOM      9  C   UNL A   1      32.303  22.444  25.019  1.00  0.00     0.025 C 
ATOM     10  C   UNL A   1      31.519  22.850  27.066  1.00  0.00     0.025 C 
ATOM     11  C   UNL A   1      33.178  21.681  25.983  1.00  0.00    -0.027 C 
ATOM     12  C   UNL A   1      30.972  22.287  25.753  1.00  0.00     0.017 C 
ATOM     13  C   UNL A   1      32.723  21.946  27.216  1.00  0.00    -0.027 C 
BRANCH   8  14
ATOM     14  C   UNL A   1      34.053  24.427  25.046  1.00  0.00     0.242 C 
ATOM     15  N   UNL A   1      34.564  25.071  23.955  1.00  0.00    -0.267 N 
ATOM     16  H   UNL A   1      35.403  25.568  24.093  1.00  0.00     0.191 HD
ATOM     17  O   UNL A   1      34.829  24.344  26.004  1.00  0.00    -0.273 OA
BRANCH  15  18
ATOM     18  N   UNL A   1      34.034  25.105  22.682  1.00  0.00    -0.264 N 
ATOM     19  C   UNL A   1      33.472  26.227  22.121  1.00  0.00     0.279 C 
ATOM     20  O   UNL A   1      33.254  26.230  20.906  1.00  0.00    -0.269 OA
ATOM     21  H   UNL A   1      34.060  24.279  22.146  1.00  0.00     0.191 HD
BRANCH  19  22
ATOM     22  C   UNL A   1      33.007  27.388  23.022  1.00  0.00     0.260 C 
ATOM     23  C   UNL A   1      34.251  28.165  23.479  1.00  0.00     0.064 C 
BRANCH  22  24
ATOM     24  O   UNL A   1      32.069  28.248  22.370  1.00  0.00    -0.481 OA
BRANCH  24  25
ATOM     25  C   UNL A   1      30.739  28.102  22.687  1.00  0.00     0.120 A 
ATOM     26  C   UNL A   1      26.543  28.030  23.778  1.00  0.00     0.044 C 
ATOM     27  C   UNL A   1      27.987  28.086  23.362  1.00  0.00    -0.048 A 
ATOM     28  C   UNL A   1      28.801  26.973  23.606  1.00  0.00     0.007 A 
ATOM     29  C   UNL A   1      28.551  29.215  22.737  1.00  0.00    -0.045 A 
ATOM     30  C   UNL A   1      30.156  26.976  23.264  1.00  0.00     0.047 A 
ATOM     31  C   UNL A   1      29.926  29.207  22.412  1.00  0.00     0.050 A 
ATOM     32  C   UNL A   1      27.749  30.441  22.395  1.00  0.00     0.045 C 
ENDBRANCH  24  25
ENDBRANCH  22  24
ENDBRANCH  19  22
ENDBRANCH  15  18
ENDBRANCH   8  14
ENDBRANCH   4   7
ENDBRANCH   2   3
ENDBRANCH   1   2
BRANCH   1  33
ATOM     33  C   UNL A   1      32.531  29.812  26.328  1.00  0.00     0.002 C 
BRANCH  33  34
ATOM     34  C   UNL A   1      31.414  30.625  25.661  1.00  0.00     0.002 C 
BRANCH  34  35
ATOM     35  C   UNL A   1      31.216  32.028  26.236  1.00  0.00     0.021 C 
BRANCH  35  36
ATOM     36  C   UNL A   1      32.351  32.484  27.144  1.00  0.00     0.116 C 
BRANCH  36  37
ATOM     37  N   UNL A   1      32.229  33.896  27.480  1.00  0.00    -0.352 N 
ATOM     38  C   UNL A   1      32.939  34.618  28.404  1.00  0.00     0.251 C 
ATOM     39  H   UNL A   1      31.546  34.398  26.978  1.00  0.00     0.163 HD
ATOM     40  O   UNL A   1      32.570  35.736  28.751  1.00  0.00    -0.269 OA
BRANCH  38  41
ATOM     41  C   UNL A   1      34.159  34.027  28.983  1.00  0.00     0.039 A 
ATOM     42  C   UNL A   1      35.401  34.606  28.711  1.00  0.00     0.014 A 
ATOM     43  C   UNL A   1      34.060  32.907  29.814  1.00  0.00     0.014 A 
ATOM     44  C   UNL A   1      36.546  34.088  29.319  1.00  0.00     0.010 A 
ATOM     45  C   UNL A   1      35.189  32.441  30.473  1.00  0.00     0.010 A 
ATOM     46  C   UNL A   1      36.443  33.020  30.224  1.00  0.00    -0.014 A 
BRANCH  46  47
ATOM     47  C   UNL A   1      37.629  32.450  30.904  1.00  0.00     0.031 A 
ATOM     48  C   UNL A   1      38.390  31.335  30.243  1.00  0.00     0.074 A 
ATOM     49  C   UNL A   1      37.960  32.859  32.143  1.00  0.00     0.049 A 
ATOM     50  N   UNL A   1      39.344  30.581  30.722  1.00  0.00    -0.248 NA
ATOM     51  C   UNL A   1      37.995  31.005  28.863  1.00  0.00     0.031 C 
ATOM     52  C   UNL A   1      37.286  33.918  32.893  1.00  0.00     0.029 A 
ATOM     53  N   UNL A   1      38.937  32.415  32.997  1.00  0.00    -0.354 N 
ATOM     54  C   UNL A   1      39.646  29.674  29.714  1.00  0.00     0.074 A 
ATOM     55  C   UNL A   1      38.737  29.936  28.619  1.00  0.00     0.031 C 
ATOM     56  C   UNL A   1      37.879  34.053  34.091  1.00  0.00     0.029 A 
ATOM     57  C   UNL A   1      38.940  33.057  34.211  1.00  0.00     0.049 A 
ATOM     58  H   UNL A   1      39.575  31.703  32.764  1.00  0.00     0.167 HD
ATOM     59  C   UNL A   1      40.610  28.723  29.696  1.00  0.00     0.037 A 
ATOM     60  C   UNL A   1      39.702  32.850  35.303  1.00  0.00     0.037 A 
ATOM     61  C   UNL A   1      41.523  28.486  30.782  1.00  0.00     0.049 A 
ATOM     62  C   UNL A   1      40.741  31.760  35.274  1.00  0.00     0.074 A 
ATOM     63  C   UNL A   1      42.561  27.575  30.854  1.00  0.00     0.029 A 
ATOM     64  N   UNL A   1      41.504  29.170  31.990  1.00  0.00    -0.354 N 
ATOM     65  N   UNL A   1      41.048  30.935  34.303  1.00  0.00    -0.248 NA
ATOM     66  C   UNL A   1      41.538  31.572  36.494  1.00  0.00     0.031 C 
ATOM     67  C   UNL A   1      43.140  27.675  32.123  1.00  0.00     0.029 A 
ATOM     68  C   UNL A   1      42.500  28.687  32.820  1.00  0.00     0.049 A 
ATOM     69  H   UNL A   1      40.874  29.890  32.221  1.00  0.00     0.167 HD
ATOM     70  C   UNL A   1      42.100  30.162  34.776  1.00  0.00     0.074 A 
ATOM     71  C   UNL A   1      42.377  30.615  36.124  1.00  0.00     0.031 C 
ATOM     72  C   UNL A   1      42.780  29.173  34.147  1.00  0.00     0.037 A 
BRANCH  59  73
ATOM     73  C   UNL A   1      40.717  27.872  28.464  1.00  0.00     0.064 A 
ATOM     74  C   UNL A   1      41.483  28.270  27.357  1.00  0.00     0.173 A 
ATOM     75  C   UNL A   1      40.056  26.636  28.391  1.00  0.00     0.173 A 
ATOM     76  F   UNL A   1      42.126  29.448  27.370  1.00  0.00    -0.203 F 
ATOM     77  C   UNL A   1      41.549  27.483  26.210  1.00  0.00     0.198 A 
ATOM     78  C   UNL A   1      40.154  25.836  27.257  1.00  0.00     0.198 A 
ATOM     79  F   UNL A   1      39.316  26.203  29.423  1.00  0.00    -0.203 F 
ATOM     80  F   UNL A   1      42.235  27.917  25.143  1.00  0.00    -0.200 F 
ATOM     81  C   UNL A   1      40.890  26.265  26.163  1.00  0.00     0.200 A 
ATOM     82  F   UNL A   1      39.527  24.652  27.218  1.00  0.00    -0.200 F 
ATOM     83  F   UNL A   1      40.956  25.509  25.058  1.00  0.00    -0.200 F 
ENDBRANCH  59  73
BRANCH  60  84
ATOM     84  C   UNL A   1      39.532  33.711  36.502  1.00  0.00     0.064 A 
ATOM     85  C   UNL A   1      40.174  34.954  36.586  1.00  0.00     0.173 A 
ATOM     86  C   UNL A   1      38.732  33.316  37.584  1.00  0.00     0.173 A 
ATOM     87  F   UNL A   1      40.967  35.366  35.584  1.00  0.00    -0.203 F 
ATOM     88  C   UNL A   1      40.038  35.762  37.712  1.00  0.00     0.198 A 
ATOM     89  C   UNL A   1      38.574  34.138  38.699  1.00  0.00     0.198 A 
ATOM     90  F   UNL A   1      38.093  32.137  37.554  1.00  0.00    -0.203 F 
ATOM     91  F   UNL A   1      40.699  36.925  37.783  1.00  0.00    -0.200 F 
ATOM     92  C   UNL A   1      39.234  35.356  38.766  1.00  0.00     0.200 A 
ATOM     93  F   UNL A   1      37.785  33.748  39.710  1.00  0.00    -0.200 F 
ATOM     94  F   UNL A   1      39.100  36.134  39.847  1.00  0.00    -0.200 F 
ENDBRANCH  60  84
BRANCH  72  95
ATOM     95  C   UNL A   1      43.936  28.551  34.875  1.00  0.00     0.064 A 
ATOM     96  C   UNL A   1      45.224  29.098  34.822  1.00  0.00     0.173 A 
ATOM     97  C   UNL A   1      43.724  27.439  35.705  1.00  0.00     0.173 A 
ATOM     98  F   UNL A   1      45.480  30.151  34.031  1.00  0.00    -0.203 F 
ATOM     99  C   UNL A   1      46.263  28.548  35.569  1.00  0.00     0.198 A 
ATOM    100  C   UNL A   1      44.758  26.909  36.471  1.00  0.00     0.198 A 
ATOM    101  F   UNL A   1      42.507  26.883  35.794  1.00  0.00    -0.203 F 
ATOM    102  F   UNL A   1      47.496  29.068  35.482  1.00  0.00    -0.200 F 
ATOM    103  C   UNL A   1      46.027  27.463  36.401  1.00  0.00     0.200 A 
ATOM    104  F   UNL A   1      44.523  25.872  37.286  1.00  0.00    -0.200 F 
ATOM    105  F   UNL A   1      47.024  26.949  37.135  1.00  0.00    -0.200 F 
ENDBRANCH  72  95
ENDBRANCH  46  47
ENDBRANCH  38  41
ENDBRANCH  36  37
ENDBRANCH  35  36
ENDBRANCH  34  35
ENDBRANCH  33  34
ENDBRANCH   1  33
TORSDOF 18
ENDMDL
MODEL 2
REMARK VINA RESULT:     -12.6      5.062     10.013
REMARK SMILES Cc1ccc(O[C@H](C)C(=O)NNC(=O)[C@@H]2[C@@H](C(=O)NCCCCCCNC(=O)c3ccc(-c4c5nc(c(-c6c(F)c(F)c(F)c(F)c6F)c6ccc([nH]6)c(-c6c(F)c(F)c(F)c(F)c6F)c6nc(c(-c7c(F)c(F)c(F)c(F)c7F)c7ccc4[nH]7)C=C6)C=C5)cc3)[C@@H]3C=C[C@H]2C3)cc1C
REMARK SMILES IDX 21 1 20 2 19 3 17 4 18 5 16 7 15 8 95 9 92 10 94 11 96 12
REMARK SMILES IDX 93 13 13 14 12 15 14 17 11 18 9 19 10 20 7 22 8 23 6 24 5 25
REMARK SMILES IDX 1 26 2 27 3 28 98 29 4 30 97 31 99 32 22 33 23 34 24 35
REMARK SMILES IDX 25 36 26 37 27 38 28 40 29 41 30 42 91 43 31 44 90 45 32 46
REMARK SMILES IDX 33 47 34 48 84 49 35 50 89 51 83 52 85 53 36 54 88 55 82 56
REMARK SMILES IDX 81 57 37 59 69 60 49 61 68 62 50 63 53 64 67 65 86 66 51 67
REMARK SMILES IDX 52 68 66 70 87 71 54 72 38 73 39 74 47 75 40 76 41 77 45 78
REMARK SMILES IDX 48 79 42 80 43 81 46 82 44 83 70 84 71 85 79 86 72 87 73 88
REMARK SMILES IDX 77 89 80 90 74 91 75 92 78 93 76 94 55 95 56 96 64 97 57 98
REMARK SMILES IDX 58 99 62 100 65 101 59 102 60 103 63 104 61 105
REMARK H PARENT 19 6 12 16 11 21 26 39 85 58 53 69
REMARK Flexibility Score: inf
ROOT
ATOM      1  C   UNL A   1      37.046  23.092  25.143  1.00  0.00     0.021 C 
ENDROOT
BRANCH   1   2
ATOM      2  C   UNL A   1      36.097  23.449  26.285  1.00  0.00     0.116 C 
BRANCH   2   3
ATOM      3  N   UNL A   1      35.269  22.314  26.617  1.00  0.00    -0.356 N 
ATOM      4  C   UNL A   1      34.012  22.014  26.203  1.00  0.00     0.224 C 
ATOM      5  O   UNL A   1      33.502  20.999  26.679  1.00  0.00    -0.275 OA
ATOM      6  H   UNL A   1      35.677  21.664  27.234  1.00  0.00     0.163 HD
BRANCH   4   7
ATOM      7  C   UNL A   1      33.296  22.892  25.173  1.00  0.00     0.098 C 
ATOM      8  C   UNL A   1      32.588  24.178  25.779  1.00  0.00     0.100 C 
ATOM      9  C   UNL A   1      31.094  23.889  25.465  1.00  0.00     0.025 C 
ATOM     10  C   UNL A   1      32.093  22.097  24.592  1.00  0.00     0.025 C 
ATOM     11  C   UNL A   1      30.883  23.952  23.972  1.00  0.00    -0.027 C 
ATOM     12  C   UNL A   1      31.011  22.373  25.637  1.00  0.00     0.017 C 
ATOM     13  C   UNL A   1      31.506  22.890  23.444  1.00  0.00    -0.027 C 
BRANCH   8  14
ATOM     14  C   UNL A   1      33.195  25.473  25.206  1.00  0.00     0.242 C 
ATOM     15  N   UNL A   1      33.289  26.648  25.897  1.00  0.00    -0.267 N 
ATOM     16  H   UNL A   1      33.937  27.306  25.557  1.00  0.00     0.191 HD
ATOM     17  O   UNL A   1      33.754  25.480  24.103  1.00  0.00    -0.273 OA
BRANCH  15  18
ATOM     18  N   UNL A   1      32.577  27.012  27.021  1.00  0.00    -0.264 N 
ATOM     19  C   UNL A   1      31.936  28.222  27.157  1.00  0.00     0.279 C 
ATOM     20  O   UNL A   1      31.128  28.358  28.080  1.00  0.00    -0.269 OA
ATOM     21  H   UNL A   1      32.524  26.372  27.767  1.00  0.00     0.191 HD
BRANCH  19  22
ATOM     22  C   UNL A   1      32.330  29.407  26.254  1.00  0.00     0.260 C 
ATOM     23  C   UNL A   1      33.717  29.900  26.689  1.00  0.00     0.064 C 
BRANCH  22  24
ATOM     24  O   UNL A   1      32.311  29.069  24.865  1.00  0.00    -0.481 OA
BRANCH  24  25
ATOM     25  C   UNL A   1      31.089  29.005  24.237  1.00  0.00     0.120 A 
ATOM     26  C   UNL A   1      27.114  29.092  22.506  1.00  0.00     0.044 C 
ATOM     27  C   UNL A   1      28.500  29.109  23.090  1.00  0.00    -0.048 A 
ATOM     28  C   UNL A   1      29.206  27.903  23.182  1.00  0.00     0.007 A 
ATOM     29  C   UNL A   1      29.114  30.290  23.549  1.00  0.00    -0.045 A 
ATOM     30  C   UNL A   1      30.487  27.852  23.739  1.00  0.00     0.047 A 
ATOM     31  C   UNL A   1      30.403  30.219  24.122  1.00  0.00     0.050 A 
ATOM     32  C   UNL A   1      28.454  31.639  23.453  1.00  0.00     0.045 C 
ENDBRANCH  24  25
ENDBRANCH  22  24
ENDBRANCH  19  22
ENDBRANCH  15  18
ENDBRANCH   8  14
ENDBRANCH   4   7
ENDBRANCH   2   3
ENDBRANCH   1   2
BRANCH   1  33
ATOM     33  C   UNL A   1      37.972  21.918  25.486  1.00  0.00     0.002 C 
BRANCH  33  34
ATOM     34  C   UNL A   1      37.602  20.594  24.806  1.00  0.00     0.002 C 
BRANCH  34  35
ATOM     35  C   UNL A   1      38.559  19.437  25.098  1.00  0.00     0.021 C 
BRANCH  35  36
ATOM     36  C   UNL A   1      39.635  19.776  26.121  1.00  0.00     0.116 C 
BRANCH  36  37
ATOM     37  N   UNL A   1      40.822  18.951  25.938  1.00  0.00    -0.352 N 
ATOM     38  C   UNL A   1      42.136  19.340  25.919  1.00  0.00     0.251 C 
ATOM     39  H   UNL A   1      40.658  17.989  25.810  1.00  0.00     0.163 HD
ATOM     40  O   UNL A   1      43.013  18.581  25.518  1.00  0.00    -0.269 OA
BRANCH  38  41
ATOM     41  C   UNL A   1      42.485  20.694  26.386  1.00  0.00     0.039 A 
ATOM     42  C   UNL A   1      42.460  20.979  27.754  1.00  0.00     0.014 A 
ATOM     43  C   UNL A   1      42.855  21.673  25.460  1.00  0.00     0.014 A 
ATOM     44  C   UNL A   1      42.860  22.239  28.198  1.00  0.00     0.010 A 
ATOM     45  C   UNL A   1      43.322  22.900  25.909  1.00  0.00     0.010 A 
ATOM     46  C   UNL A   1      43.318  23.198  27.281  1.00  0.00    -0.014 A 
BRANCH  46  47
ATOM     47  C   UNL A   1      43.769  24.544  27.710  1.00  0.00     0.031 A 
ATOM     48  C   UNL A   1      42.742  25.584  28.059  1.00  0.00     0.074 A 
ATOM     49  C   UNL A   1      45.077  24.857  27.690  1.00  0.00     0.049 A 
ATOM     50  N   UNL A   1      42.899  26.861  28.294  1.00  0.00    -0.248 NA
ATOM     51  C   UNL A   1      41.344  25.127  28.118  1.00  0.00     0.031 C 
ATOM     52  C   UNL A   1      46.163  23.938  27.351  1.00  0.00     0.029 A 
ATOM     53  N   UNL A   1      45.713  26.046  27.943  1.00  0.00    -0.354 N 
ATOM     54  C   UNL A   1      41.621  27.362  28.504  1.00  0.00     0.074 A 
ATOM     55  C   UNL A   1      40.697  26.266  28.314  1.00  0.00     0.031 C 
ATOM     56  C   UNL A   1      47.333  24.593  27.431  1.00  0.00     0.029 A 
ATOM     57  C   UNL A   1      47.075  25.988  27.777  1.00  0.00     0.049 A 
ATOM     58  H   UNL A   1      45.239  26.864  28.216  1.00  0.00     0.167 HD
ATOM     59  C   UNL A   1      41.254  28.620  28.846  1.00  0.00     0.037 A 
ATOM     60  C   UNL A   1      48.006  26.957  27.876  1.00  0.00     0.037 A 
ATOM     61  C   UNL A   1      42.183  29.698  29.054  1.00  0.00     0.049 A 
ATOM     62  C   UNL A   1      47.570  28.357  28.219  1.00  0.00     0.074 A 
ATOM     63  C   UNL A   1      41.923  31.000  29.439  1.00  0.00     0.029 A 
ATOM     64  N   UNL A   1      43.558  29.594  28.892  1.00  0.00    -0.354 N 
ATOM     65  N   UNL A   1      46.364  28.815  28.455  1.00  0.00    -0.248 NA
ATOM     66  C   UNL A   1      48.625  29.377  28.305  1.00  0.00     0.031 C 
ATOM     67  C   UNL A   1      43.135  31.697  29.466  1.00  0.00     0.029 A 
ATOM     68  C   UNL A   1      44.157  30.815  29.152  1.00  0.00     0.049 A 
ATOM     69  H   UNL A   1      44.036  28.775  28.630  1.00  0.00     0.167 HD
ATOM     70  C   UNL A   1      46.519  30.160  28.763  1.00  0.00     0.074 A 
ATOM     71  C   UNL A   1      47.936  30.447  28.678  1.00  0.00     0.031 C 
ATOM     72  C   UNL A   1      45.573  31.072  29.093  1.00  0.00     0.037 A 
BRANCH  59  73
ATOM     73  C   UNL A   1      39.787  28.891  29.011  1.00  0.00     0.064 A 
ATOM     74  C   UNL A   1      39.141  28.729  30.247  1.00  0.00     0.173 A 
ATOM     75  C   UNL A   1      39.016  29.329  27.923  1.00  0.00     0.173 A 
ATOM     76  F   UNL A   1      39.829  28.301  31.316  1.00  0.00    -0.203 F 
ATOM     77  C   UNL A   1      37.773  28.955  30.378  1.00  0.00     0.198 A 
ATOM     78  C   UNL A   1      37.656  29.589  28.066  1.00  0.00     0.198 A 
ATOM     79  F   UNL A   1      39.582  29.507  26.720  1.00  0.00    -0.203 F 
ATOM     80  F   UNL A   1      37.169  28.731  31.553  1.00  0.00    -0.200 F 
ATOM     81  C   UNL A   1      37.033  29.391  29.289  1.00  0.00     0.200 A 
ATOM     82  F   UNL A   1      36.944  30.023  27.017  1.00  0.00    -0.200 F 
ATOM     83  F   UNL A   1      35.717  29.609  29.417  1.00  0.00    -0.200 F 
ENDBRANCH  59  73
BRANCH  60  84
ATOM     84  C   UNL A   1      49.442  26.631  27.677  1.00  0.00     0.064 A 
ATOM     85  C   UNL A   1      49.980  26.539  26.386  1.00  0.00     0.173 A 
ATOM     86  C   UNL A   1      50.303  26.406  28.761  1.00  0.00     0.173 A 
ATOM     87  F   UNL A   1      49.190  26.726  25.317  1.00  0.00    -0.203 F 
ATOM     88  C   UNL A   1      51.320  26.216  26.185  1.00  0.00     0.198 A 
ATOM     89  C   UNL A   1      51.650  26.111  28.559  1.00  0.00     0.198 A 
ATOM     90  F   UNL A   1      49.840  26.484  30.017  1.00  0.00    -0.203 F 
ATOM     91  F   UNL A   1      51.796  26.091  24.939  1.00  0.00    -0.200 F 
ATOM     92  C   UNL A   1      52.156  26.007  27.271  1.00  0.00     0.200 A 
ATOM     93  F   UNL A   1      52.458  25.922  29.611  1.00  0.00    -0.200 F 
ATOM     94  F   UNL A   1      53.444  25.700  27.077  1.00  0.00    -0.200 F 
ENDBRANCH  60  84
BRANCH  72  95
ATOM     95  C   UNL A   1      46.034  32.453  29.455  1.00  0.00     0.064 A 
ATOM     96  C   UNL A   1      46.106  33.482  28.507  1.00  0.00     0.173 A 
ATOM     97  C   UNL A   1      46.323  32.767  30.792  1.00  0.00     0.173 A 
ATOM     98  F   UNL A   1      45.853  33.229  27.214  1.00  0.00    -0.203 F 
ATOM     99  C   UNL A   1      46.461  34.775  28.883  1.00  0.00     0.198 A 
ATOM    100  C   UNL A   1      46.650  34.066  31.169  1.00  0.00     0.198 A 
ATOM    101  F   UNL A   1      46.262  31.818  31.738  1.00  0.00    -0.203 F 
ATOM    102  F   UNL A   1      46.553  35.739  27.956  1.00  0.00    -0.200 F 
ATOM    103  C   UNL A   1      46.721  35.068  30.215  1.00  0.00     0.200 A 
ATOM    104  F   UNL A   1      46.884  34.349  32.458  1.00  0.00    -0.200 F 
ATOM    105  F   UNL A   1      47.040  36.318  30.577  1.00  0.00    -0.200 F 
ENDBRANCH  72  95
ENDBRANCH  46  47
ENDBRANCH  38  41
ENDBRANCH  36  37
ENDBRANCH  35  36
ENDBRANCH  34  35
ENDBRANCH  33  34
ENDBRANCH   1  33
TORSDOF 18
ENDMDL
MODEL 3
REMARK VINA RESULT:     -12.6      5.070     10.674
REMARK SMILES Cc1ccc(O[C@H](C)C(=O)NNC(=O)[C@@H]2[C@@H](C(=O)NCCCCCCNC(=O)c3ccc(-c4c5nc(c(-c6c(F)c(F)c(F)c(F)c6F)c6ccc([nH]6)c(-c6c(F)c(F)c(F)c(F)c6F)c6nc(c(-c7c(F)c(F)c(F)c(F)c7F)c7ccc4[nH]7)C=C6)C=C5)cc3)[C@@H]3C=C[C@H]2C3)cc1C
REMARK SMILES IDX 21 1 20 2 19 3 17 4 18 5 16 7 15 8 95 9 92 10 94 11 96 12
REMARK SMILES IDX 93 13 13 14 12 15 14 17 11 18 9 19 10 20 7 22 8 23 6 24 5 25
REMARK SMILES IDX 1 26 2 27 3 28 98 29 4 30 97 31 99 32 22 33 23 34 24 35
REMARK SMILES IDX 25 36 26 37 27 38 28 40 29 41 30 42 91 43 31 44 90 45 32 46
REMARK SMILES IDX 33 47 34 48 84 49 35 50 89 51 83 52 85 53 36 54 88 55 82 56
REMARK SMILES IDX 81 57 37 59 69 60 49 61 68 62 50 63 53 64 67 65 86 66 51 67
REMARK SMILES IDX 52 68 66 70 87 71 54 72 38 73 39 74 47 75 40 76 41 77 45 78
REMARK SMILES IDX 48 79 42 80 43 81 46 82 44 83 70 84 71 85 79 86 72 87 73 88
REMARK SMILES IDX 77 89 80 90 74 91 75 92 78 93 76 94 55 95 56 96 64 97 57 98
REMARK SMILES IDX 58 99 62 100 65 101 59 102 60 103 63 104 61 105
REMARK H PARENT 19 6 12 16 11 21 26 39 85 58 53 69
REMARK Flexibility Score: inf
ROOT
ATOM      1  C   UNL A   1      36.934  23.271  25.021  1.00  0.00     0.021 C 
ENDROOT
BRANCH   1   2
ATOM      2  C   UNL A   1      35.634  24.069  24.979  1.00  0.00     0.116 C 
BRANCH   2   3
ATOM      3  N   UNL A   1      34.968  23.870  23.713  1.00  0.00    -0.356 N 
ATOM      4  C   UNL A   1      34.144  24.707  23.033  1.00  0.00     0.224 C 
ATOM      5  O   UNL A   1      33.660  24.275  21.986  1.00  0.00    -0.275 OA
ATOM      6  H   UNL A   1      35.138  23.002  23.282  1.00  0.00     0.163 HD
BRANCH   4   7
ATOM      7  C   UNL A   1      33.868  26.123  23.546  1.00  0.00     0.098 C 
ATOM      8  C   UNL A   1      32.468  26.301  24.274  1.00  0.00     0.100 C 
ATOM      9  C   UNL A   1      31.752  27.308  23.332  1.00  0.00     0.025 C 
ATOM     10  C   UNL A   1      33.728  27.076  22.326  1.00  0.00     0.025 C 
ATOM     11  C   UNL A   1      32.447  28.644  23.418  1.00  0.00    -0.027 C 
ATOM     12  C   UNL A   1      32.257  26.881  21.954  1.00  0.00     0.017 C 
ATOM     13  C   UNL A   1      33.646  28.498  22.837  1.00  0.00    -0.027 C 
BRANCH   8  14
ATOM     14  C   UNL A   1      32.653  26.716  25.747  1.00  0.00     0.242 C 
ATOM     15  N   UNL A   1      31.720  26.512  26.724  1.00  0.00    -0.267 N 
ATOM     16  H   UNL A   1      32.045  26.545  27.653  1.00  0.00     0.191 HD
ATOM     17  O   UNL A   1      33.734  27.157  26.153  1.00  0.00    -0.273 OA
BRANCH  15  18
ATOM     18  N   UNL A   1      30.374  26.264  26.553  1.00  0.00    -0.264 N 
ATOM     19  C   UNL A   1      29.794  25.035  26.767  1.00  0.00     0.279 C 
ATOM     20  O   UNL A   1      28.563  24.970  26.830  1.00  0.00    -0.269 OA
ATOM     21  H   UNL A   1      29.797  27.006  26.262  1.00  0.00     0.191 HD
BRANCH  19  22
ATOM     22  C   UNL A   1      30.667  23.765  26.790  1.00  0.00     0.260 C 
ATOM     23  C   UNL A   1      29.735  22.545  26.809  1.00  0.00     0.064 C 
BRANCH  22  24
ATOM     24  O   UNL A   1      31.578  23.705  25.689  1.00  0.00    -0.481 OA
BRANCH  24  25
ATOM     25  C   UNL A   1      32.201  22.506  25.438  1.00  0.00     0.120 A 
ATOM     26  C   UNL A   1      33.844  18.620  24.435  1.00  0.00     0.044 C 
ATOM     27  C   UNL A   1      33.275  19.979  24.734  1.00  0.00    -0.048 A 
ATOM     28  C   UNL A   1      33.557  20.569  25.972  1.00  0.00     0.007 A 
ATOM     29  C   UNL A   1      32.469  20.681  23.817  1.00  0.00    -0.045 A 
ATOM     30  C   UNL A   1      33.036  21.820  26.316  1.00  0.00     0.047 A 
ATOM     31  C   UNL A   1      31.939  21.938  24.187  1.00  0.00     0.050 A 
ATOM     32  C   UNL A   1      32.146  20.150  22.446  1.00  0.00     0.045 C 
ENDBRANCH  24  25
ENDBRANCH  22  24
ENDBRANCH  19  22
ENDBRANCH  15  18
ENDBRANCH   8  14
ENDBRANCH   4   7
ENDBRANCH   2   3
ENDBRANCH   1   2
BRANCH   1  33
ATOM     33  C   UNL A   1      36.878  21.997  24.167  1.00  0.00     0.002 C 
BRANCH  33  34
ATOM     34  C   UNL A   1      36.870  20.690  24.971  1.00  0.00     0.002 C 
BRANCH  34  35
ATOM     35  C   UNL A   1      38.136  19.844  24.826  1.00  0.00     0.021 C 
BRANCH  35  36
ATOM     36  C   UNL A   1      39.255  20.248  25.777  1.00  0.00     0.116 C 
BRANCH  36  37
ATOM     37  N   UNL A   1      40.233  19.180  25.932  1.00  0.00    -0.352 N 
ATOM     38  C   UNL A   1      41.591  19.283  26.092  1.00  0.00     0.251 C 
ATOM     39  H   UNL A   1      39.872  18.265  25.920  1.00  0.00     0.163 HD
ATOM     40  O   UNL A   1      42.317  18.301  25.970  1.00  0.00    -0.269 OA
BRANCH  38  41
ATOM     41  C   UNL A   1      42.172  20.600  26.410  1.00  0.00     0.039 A 
ATOM     42  C   UNL A   1      42.554  21.453  25.373  1.00  0.00     0.014 A 
ATOM     43  C   UNL A   1      42.317  20.989  27.745  1.00  0.00     0.014 A 
ATOM     44  C   UNL A   1      43.036  22.727  25.676  1.00  0.00     0.010 A 
ATOM     45  C   UNL A   1      42.727  22.281  28.041  1.00  0.00     0.010 A 
ATOM     46  C   UNL A   1      43.101  23.158  27.010  1.00  0.00    -0.014 A 
BRANCH  46  47
ATOM     47  C   UNL A   1      43.590  24.508  27.377  1.00  0.00     0.031 A 
ATOM     48  C   UNL A   1      42.616  25.522  27.907  1.00  0.00     0.074 A 
ATOM     49  C   UNL A   1      44.871  24.849  27.145  1.00  0.00     0.049 A 
ATOM     50  N   UNL A   1      42.785  26.799  28.131  1.00  0.00    -0.248 NA
ATOM     51  C   UNL A   1      41.256  25.036  28.191  1.00  0.00     0.031 C 
ATOM     52  C   UNL A   1      45.902  23.957  26.618  1.00  0.00     0.029 A 
ATOM     53  N   UNL A   1      45.518  26.048  27.306  1.00  0.00    -0.354 N 
ATOM     54  C   UNL A   1      41.551  27.271  28.557  1.00  0.00     0.074 A 
ATOM     55  C   UNL A   1      40.629  26.158  28.508  1.00  0.00     0.031 C 
ATOM     56  C   UNL A   1      47.057  24.635  26.512  1.00  0.00     0.029 A 
ATOM     57  C   UNL A   1      46.834  26.020  26.916  1.00  0.00     0.049 A 
ATOM     58  H   UNL A   1      45.080  26.853  27.666  1.00  0.00     0.167 HD
ATOM     59  C   UNL A   1      41.222  28.517  28.973  1.00  0.00     0.037 A 
ATOM     60  C   UNL A   1      47.749  27.008  26.873  1.00  0.00     0.037 A 
ATOM     61  C   UNL A   1      42.153  29.612  29.040  1.00  0.00     0.049 A 
ATOM     62  C   UNL A   1      47.350  28.395  27.303  1.00  0.00     0.074 A 
ATOM     63  C   UNL A   1      41.935  30.904  29.482  1.00  0.00     0.029 A 
ATOM     64  N   UNL A   1      43.483  29.539  28.651  1.00  0.00    -0.354 N 
ATOM     65  N   UNL A   1      46.192  28.824  27.743  1.00  0.00    -0.248 NA
ATOM     66  C   UNL A   1      48.385  29.436  27.228  1.00  0.00     0.031 C 
ATOM     67  C   UNL A   1      43.121  31.627  29.317  1.00  0.00     0.029 A 
ATOM     68  C   UNL A   1      44.093  30.770  28.825  1.00  0.00     0.049 A 
ATOM     69  H   UNL A   1      43.926  28.733  28.301  1.00  0.00     0.167 HD
ATOM     70  C   UNL A   1      46.370  30.169  28.040  1.00  0.00     0.074 A 
ATOM     71  C   UNL A   1      47.748  30.486  27.725  1.00  0.00     0.031 C 
ATOM     72  C   UNL A   1      45.475  31.057  28.535  1.00  0.00     0.037 A 
BRANCH  59  73
ATOM     73  C   UNL A   1      39.798  28.756  29.383  1.00  0.00     0.064 A 
ATOM     74  C   UNL A   1      38.835  29.213  28.470  1.00  0.00     0.173 A 
ATOM     75  C   UNL A   1      39.386  28.515  30.703  1.00  0.00     0.173 A 
ATOM     76  F   UNL A   1      39.178  29.471  27.199  1.00  0.00    -0.203 F 
ATOM     77  C   UNL A   1      37.524  29.458  28.873  1.00  0.00     0.198 A 
ATOM     78  C   UNL A   1      38.066  28.727  31.092  1.00  0.00     0.198 A 
ATOM     79  F   UNL A   1      40.263  28.070  31.616  1.00  0.00    -0.203 F 
ATOM     80  F   UNL A   1      36.640  29.956  27.997  1.00  0.00    -0.200 F 
ATOM     81  C   UNL A   1      37.140  29.209  30.181  1.00  0.00     0.200 A 
ATOM     82  F   UNL A   1      37.693  28.472  32.354  1.00  0.00    -0.200 F 
ATOM     83  F   UNL A   1      35.878  29.445  30.566  1.00  0.00    -0.200 F 
ENDBRANCH  59  73
BRANCH  60  84
ATOM     84  C   UNL A   1      49.138  26.715  26.434  1.00  0.00     0.064 A 
ATOM     85  C   UNL A   1      49.523  26.920  25.102  1.00  0.00     0.173 A 
ATOM     86  C   UNL A   1      50.105  26.227  27.325  1.00  0.00     0.173 A 
ATOM     87  F   UNL A   1      48.627  27.365  24.207  1.00  0.00    -0.203 F 
ATOM     88  C   UNL A   1      50.816  26.631  24.672  1.00  0.00     0.198 A 
ATOM     89  C   UNL A   1      51.407  25.966  26.900  1.00  0.00     0.198 A 
ATOM     90  F   UNL A   1      49.790  26.016  28.611  1.00  0.00    -0.203 F 
ATOM     91  F   UNL A   1      51.144  26.795  23.383  1.00  0.00    -0.200 F 
ATOM     92  C   UNL A   1      51.759  26.160  25.572  1.00  0.00     0.200 A 
ATOM     93  F   UNL A   1      52.319  25.522  27.776  1.00  0.00    -0.200 F 
ATOM     94  F   UNL A   1      53.003  25.886  25.160  1.00  0.00    -0.200 F 
ENDBRANCH  60  84
BRANCH  72  95
ATOM     95  C   UNL A   1      45.963  32.444  28.836  1.00  0.00     0.064 A 
ATOM     96  C   UNL A   1      46.519  32.780  30.077  1.00  0.00     0.173 A 
ATOM     97  C   UNL A   1      45.950  33.425  27.831  1.00  0.00     0.173 A 
ATOM     98  F   UNL A   1      46.539  31.882  31.074  1.00  0.00    -0.203 F 
ATOM     99  C   UNL A   1      47.036  34.053  30.306  1.00  0.00     0.198 A 
ATOM    100  C   UNL A   1      46.494  34.686  28.054  1.00  0.00     0.198 A 
ATOM    101  F   UNL A   1      45.435  33.149  26.624  1.00  0.00    -0.203 F 
ATOM    102  F   UNL A   1      47.537  34.364  31.510  1.00  0.00    -0.200 F 
ATOM    103  C   UNL A   1      47.035  35.000  29.291  1.00  0.00     0.200 A 
ATOM    104  F   UNL A   1      46.506  35.592  27.067  1.00  0.00    -0.200 F 
ATOM    105  F   UNL A   1      47.554  36.216  29.507  1.00  0.00    -0.200 F 
ENDBRANCH  72  95
ENDBRANCH  46  47
ENDBRANCH  38  41
ENDBRANCH  36  37
ENDBRANCH  35  36
ENDBRANCH  34  35
ENDBRANCH  33  34
ENDBRANCH   1  33
TORSDOF 18
ENDMDL
