MODEL 1
REMARK VINA RESULT:     -12.2      0.000      0.000
REMARK SMILES NS(=O)(=O)c1ccc(N2N=C(C(=O)NCCCCCCNC(=O)c3ccc(-c4c5nc(c(-c6c(F)c(F)c(F)c(F)c6F)c6ccc([nH]6)c(-c6c(F)c(F)c(F)c(F)c6F)c6nc(c(-c7c(F)c(F)c(F)c(F)c7F)c7ccc4[nH]7)C=C6)C=C5)cc3)C[C@H]2c2ccco2)cc1
REMARK SMILES IDX 17 1 16 2 15 3 14 4 12 5 13 6 11 8 9 9 10 10 88 11 87 12
REMARK SMILES IDX 8 13 5 14 6 15 95 16 7 17 94 18 2 19 3 20 4 21 1 22 89 25
REMARK SMILES IDX 90 26 93 27 91 28 92 29 18 30 19 31 20 32 21 33 22 34 23 36
REMARK SMILES IDX 24 37 25 38 86 39 26 40 85 41 27 42 28 43 29 44 79 45 30 46
REMARK SMILES IDX 84 47 78 48 80 49 31 50 83 51 77 52 76 53 32 55 64 56 44 57
REMARK SMILES IDX 63 58 45 59 48 60 62 61 81 62 46 63 47 64 61 66 82 67 49 68
REMARK SMILES IDX 33 69 34 70 42 71 35 72 36 73 40 74 43 75 37 76 38 77 41 78
REMARK SMILES IDX 39 79 65 80 66 81 74 82 67 83 68 84 72 85 75 86 69 87 70 88
REMARK SMILES IDX 73 89 71 90 50 91 51 92 59 93 52 94 53 95 57 96 60 97 54 98
REMARK SMILES IDX 55 99 58 100 56 101
REMARK H PARENT 14 7 1 23 1 24 21 35 80 54 48 65
REMARK Flexibility Score: inf
ROOT
ATOM      1  C   UNL A   1      31.538  28.617  24.436  1.00  0.00     0.002 C 
ENDROOT
BRANCH   1   2
ATOM      2  C   UNL A   1      31.045  28.679  22.988  1.00  0.00     0.021 C 
BRANCH   2   3
ATOM      3  C   UNL A   1      30.602  27.340  22.402  1.00  0.00     0.116 C 
BRANCH   3   4
ATOM      4  N   UNL A   1      31.621  26.777  21.540  1.00  0.00    -0.351 N 
ATOM      5  C   UNL A   1      32.475  25.709  21.636  1.00  0.00     0.267 C 
ATOM      6  O   UNL A   1      33.277  25.546  20.719  1.00  0.00    -0.268 OA
ATOM      7  H   UNL A   1      31.722  27.272  20.695  1.00  0.00     0.163 HD
BRANCH   5   8
ATOM      8  C   UNL A   1      32.468  24.703  22.781  1.00  0.00     0.128 C 
ATOM      9  N   UNL A   1      32.368  22.794  23.737  1.00  0.00    -0.254 N 
ATOM     10  N   UNL A   1      32.568  23.429  22.549  1.00  0.00    -0.171 NA
ATOM     11  C   UNL A   1      32.267  23.706  24.880  1.00  0.00     0.180 C 
ATOM     12  C   UNL A   1      32.357  25.083  24.217  1.00  0.00     0.099 C 
BRANCH   9  13
ATOM     13  C   UNL A   1      32.785  21.474  23.910  1.00  0.00     0.060 A 
ATOM     14  C   UNL A   1      33.534  18.794  24.316  1.00  0.00     0.082 A 
ATOM     15  C   UNL A   1      34.199  19.811  25.003  1.00  0.00     0.024 A 
ATOM     16  C   UNL A   1      32.528  19.102  23.401  1.00  0.00     0.024 A 
ATOM     17  C   UNL A   1      33.831  21.144  24.786  1.00  0.00     0.029 A 
ATOM     18  C   UNL A   1      32.160  20.435  23.207  1.00  0.00     0.029 A 
BRANCH  14  19
ATOM     19  S   UNL A   1      33.962  17.099  24.554  1.00  0.00     0.238 S 
ATOM     20  O   UNL A   1      33.099  16.540  25.571  1.00  0.00    -0.207 OA
ATOM     21  O   UNL A   1      35.398  16.999  24.612  1.00  0.00    -0.207 OA
BRANCH  19  22
ATOM     22  N   UNL A   1      33.496  16.347  23.127  1.00  0.00    -0.225 NA
ATOM     23  H   UNL A   1      34.321  16.157  22.557  1.00  0.00     0.137 HD
ATOM     24  H   UNL A   1      32.860  16.957  22.612  1.00  0.00     0.137 HD
ENDBRANCH  19  22
ENDBRANCH  14  19
ENDBRANCH   9  13
BRANCH  11  25
ATOM     25  C   UNL A   1      31.070  23.582  25.772  1.00  0.00     0.128 A 
ATOM     26  C   UNL A   1      30.505  22.507  26.433  1.00  0.00     0.048 A 
ATOM     27  O   UNL A   1      30.352  24.713  26.045  1.00  0.00    -0.467 OA
ATOM     28  C   UNL A   1      29.384  23.008  27.136  1.00  0.00     0.042 A 
ATOM     29  C   UNL A   1      29.341  24.357  26.876  1.00  0.00     0.195 A 
ENDBRANCH  11  25
ENDBRANCH   5   8
ENDBRANCH   3   4
ENDBRANCH   2   3
ENDBRANCH   1   2
BRANCH   1  30
ATOM     30  C   UNL A   1      31.449  29.928  25.223  1.00  0.00     0.002 C 
BRANCH  30  31
ATOM     31  C   UNL A   1      32.731  30.366  25.934  1.00  0.00     0.021 C 
BRANCH  31  32
ATOM     32  C   UNL A   1      32.526  31.103  27.253  1.00  0.00     0.116 C 
BRANCH  32  33
ATOM     33  N   UNL A   1      32.827  32.520  27.152  1.00  0.00    -0.352 N 
ATOM     34  C   UNL A   1      33.886  33.225  27.666  1.00  0.00     0.251 C 
ATOM     35  H   UNL A   1      32.177  33.052  26.639  1.00  0.00     0.163 HD
ATOM     36  O   UNL A   1      33.895  34.451  27.611  1.00  0.00    -0.269 OA
BRANCH  34  37
ATOM     37  C   UNL A   1      35.011  32.514  28.310  1.00  0.00     0.039 A 
ATOM     38  C   UNL A   1      36.258  33.143  28.365  1.00  0.00     0.014 A 
ATOM     39  C   UNL A   1      34.848  31.230  28.838  1.00  0.00     0.014 A 
ATOM     40  C   UNL A   1      37.328  32.508  28.999  1.00  0.00     0.010 A 
ATOM     41  C   UNL A   1      35.898  30.625  29.527  1.00  0.00     0.010 A 
ATOM     42  C   UNL A   1      37.149  31.255  29.609  1.00  0.00    -0.014 A 
BRANCH  42  43
ATOM     43  C   UNL A   1      38.257  30.593  30.339  1.00  0.00     0.031 A 
ATOM     44  C   UNL A   1      38.526  30.927  31.777  1.00  0.00     0.074 A 
ATOM     45  C   UNL A   1      39.073  29.747  29.681  1.00  0.00     0.049 A 
ATOM     46  N   UNL A   1      39.487  30.506  32.561  1.00  0.00    -0.248 NA
ATOM     47  C   UNL A   1      37.612  31.888  32.410  1.00  0.00     0.031 C 
ATOM     48  C   UNL A   1      38.955  29.390  28.267  1.00  0.00     0.029 A 
ATOM     49  N   UNL A   1      40.174  29.049  30.110  1.00  0.00    -0.354 N 
ATOM     50  C   UNL A   1      39.306  31.166  33.768  1.00  0.00     0.074 A 
ATOM     51  C   UNL A   1      38.173  32.052  33.599  1.00  0.00     0.031 C 
ATOM     52  C   UNL A   1      39.938  28.535  27.946  1.00  0.00     0.029 A 
ATOM     53  C   UNL A   1      40.771  28.306  29.123  1.00  0.00     0.049 A 
ATOM     54  H   UNL A   1      40.504  29.079  31.037  1.00  0.00     0.167 HD
ATOM     55  C   UNL A   1      40.008  31.032  34.920  1.00  0.00     0.037 A 
ATOM     56  C   UNL A   1      41.873  27.531  29.160  1.00  0.00     0.037 A 
ATOM     57  C   UNL A   1      41.113  30.126  35.092  1.00  0.00     0.049 A 
ATOM     58  C   UNL A   1      42.619  27.372  30.454  1.00  0.00     0.074 A 
ATOM     59  C   UNL A   1      41.830  29.847  36.243  1.00  0.00     0.029 A 
ATOM     60  N   UNL A   1      41.668  29.356  34.079  1.00  0.00    -0.354 N 
ATOM     61  N   UNL A   1      42.386  27.932  31.616  1.00  0.00    -0.248 NA
ATOM     62  C   UNL A   1      43.772  26.462  30.447  1.00  0.00     0.031 C 
ATOM     63  C   UNL A   1      42.848  28.943  35.915  1.00  0.00     0.029 A 
ATOM     64  C   UNL A   1      42.736  28.623  34.572  1.00  0.00     0.049 A 
ATOM     65  H   UNL A   1      41.349  29.334  33.149  1.00  0.00     0.167 HD
ATOM     66  C   UNL A   1      43.349  27.435  32.481  1.00  0.00     0.074 A 
ATOM     67  C   UNL A   1      44.163  26.512  31.714  1.00  0.00     0.031 C 
ATOM     68  C   UNL A   1      43.542  27.716  33.793  1.00  0.00     0.037 A 
BRANCH  55  69
ATOM     69  C   UNL A   1      39.601  31.895  36.079  1.00  0.00     0.064 A 
ATOM     70  C   UNL A   1      38.513  31.566  36.901  1.00  0.00     0.173 A 
ATOM     71  C   UNL A   1      40.315  33.066  36.376  1.00  0.00     0.173 A 
ATOM     72  F   UNL A   1      37.791  30.462  36.653  1.00  0.00    -0.203 F 
ATOM     73  C   UNL A   1      38.128  32.397  37.950  1.00  0.00     0.198 A 
ATOM     74  C   UNL A   1      39.947  33.878  37.447  1.00  0.00     0.198 A 
ATOM     75  F   UNL A   1      41.368  33.425  35.628  1.00  0.00    -0.203 F 
ATOM     76  F   UNL A   1      37.046  32.092  38.681  1.00  0.00    -0.200 F 
ATOM     77  C   UNL A   1      38.847  33.550  38.224  1.00  0.00     0.200 A 
ATOM     78  F   UNL A   1      40.651  34.987  37.717  1.00  0.00    -0.200 F 
ATOM     79  F   UNL A   1      38.474  34.351  39.232  1.00  0.00    -0.200 F 
ENDBRANCH  55  69
BRANCH  56  80
ATOM     80  C   UNL A   1      42.310  26.832  27.926  1.00  0.00     0.064 A 
ATOM     81  C   UNL A   1      43.194  27.443  27.026  1.00  0.00     0.173 A 
ATOM     82  C   UNL A   1      41.889  25.524  27.644  1.00  0.00     0.173 A 
ATOM     83  F   UNL A   1      43.608  28.699  27.246  1.00  0.00    -0.203 F 
ATOM     84  C   UNL A   1      43.637  26.773  25.888  1.00  0.00     0.198 A 
ATOM     85  C   UNL A   1      42.352  24.847  26.518  1.00  0.00     0.198 A 
ATOM     86  F   UNL A   1      41.051  24.894  28.480  1.00  0.00    -0.203 F 
ATOM     87  F   UNL A   1      44.462  27.389  25.030  1.00  0.00    -0.200 F 
ATOM     88  C   UNL A   1      43.222  25.474  25.639  1.00  0.00     0.200 A 
ATOM     89  F   UNL A   1      41.962  23.585  26.290  1.00  0.00    -0.200 F 
ATOM     90  F   UNL A   1      43.662  24.825  24.552  1.00  0.00    -0.200 F 
ENDBRANCH  56  80
BRANCH  68  91
ATOM     91  C   UNL A   1      44.670  27.010  34.489  1.00  0.00     0.064 A 
ATOM     92  C   UNL A   1      45.944  27.586  34.590  1.00  0.00     0.173 A 
ATOM     93  C   UNL A   1      44.461  25.762  35.096  1.00  0.00     0.173 A 
ATOM     94  F   UNL A   1      46.198  28.770  34.013  1.00  0.00    -0.203 F 
ATOM     95  C   UNL A   1      46.974  26.929  35.258  1.00  0.00     0.198 A 
ATOM     96  C   UNL A   1      45.485  25.121  35.786  1.00  0.00     0.198 A 
ATOM     97  F   UNL A   1      43.258  25.171  35.030  1.00  0.00    -0.203 F 
ATOM     98  F   UNL A   1      48.196  27.478  35.307  1.00  0.00    -0.200 F 
ATOM     99  C   UNL A   1      46.742  25.701  35.861  1.00  0.00     0.200 A 
ATOM    100  F   UNL A   1      45.256  23.940  36.378  1.00  0.00    -0.200 F 
ATOM    101  F   UNL A   1      47.734  25.074  36.510  1.00  0.00    -0.200 F 
ENDBRANCH  68  91
ENDBRANCH  42  43
ENDBRANCH  34  37
ENDBRANCH  32  33
ENDBRANCH  31  32
ENDBRANCH  30  31
ENDBRANCH   1  30
TORSDOF 17
ENDMDL
MODEL 2
REMARK VINA RESULT:     -12.1      3.327      8.746
REMARK SMILES NS(=O)(=O)c1ccc(N2N=C(C(=O)NCCCCCCNC(=O)c3ccc(-c4c5nc(c(-c6c(F)c(F)c(F)c(F)c6F)c6ccc([nH]6)c(-c6c(F)c(F)c(F)c(F)c6F)c6nc(c(-c7c(F)c(F)c(F)c(F)c7F)c7ccc4[nH]7)C=C6)C=C5)cc3)C[C@H]2c2ccco2)cc1
REMARK SMILES IDX 17 1 16 2 15 3 14 4 12 5 13 6 11 8 9 9 10 10 88 11 87 12
REMARK SMILES IDX 8 13 5 14 6 15 95 16 7 17 94 18 2 19 3 20 4 21 1 22 89 25
REMARK SMILES IDX 90 26 93 27 91 28 92 29 18 30 19 31 20 32 21 33 22 34 23 36
REMARK SMILES IDX 24 37 25 38 86 39 26 40 85 41 27 42 28 43 29 44 79 45 30 46
REMARK SMILES IDX 84 47 78 48 80 49 31 50 83 51 77 52 76 53 32 55 64 56 44 57
REMARK SMILES IDX 63 58 45 59 48 60 62 61 81 62 46 63 47 64 61 66 82 67 49 68
REMARK SMILES IDX 33 69 34 70 42 71 35 72 36 73 40 74 43 75 37 76 38 77 41 78
REMARK SMILES IDX 39 79 65 80 66 81 74 82 67 83 68 84 72 85 75 86 69 87 70 88
REMARK SMILES IDX 73 89 71 90 50 91 51 92 59 93 52 94 53 95 57 96 60 97 54 98
REMARK SMILES IDX 55 99 58 100 56 101
REMARK H PARENT 14 7 1 23 1 24 21 35 80 54 48 65
REMARK Flexibility Score: inf
ROOT
ATOM      1  C   UNL A   1      41.309  25.088  26.665  1.00  0.00     0.002 C 
ENDROOT
BRANCH   1   2
ATOM      2  C   UNL A   1      39.862  25.561  26.831  1.00  0.00     0.021 C 
BRANCH   2   3
ATOM      3  C   UNL A   1      38.891  24.494  27.333  1.00  0.00     0.116 C 
BRANCH   3   4
ATOM      4  N   UNL A   1      39.268  23.174  26.868  1.00  0.00    -0.351 N 
ATOM      5  C   UNL A   1      38.662  22.220  26.093  1.00  0.00     0.267 C 
ATOM      6  O   UNL A   1      39.258  21.156  25.941  1.00  0.00    -0.268 OA
ATOM      7  H   UNL A   1      40.162  22.902  27.179  1.00  0.00     0.163 HD
BRANCH   5   8
ATOM      8  C   UNL A   1      37.324  22.409  25.389  1.00  0.00     0.128 C 
ATOM      9  N   UNL A   1      35.448  23.319  24.915  1.00  0.00    -0.254 N 
ATOM     10  N   UNL A   1      36.654  23.515  25.517  1.00  0.00    -0.171 NA
ATOM     11  C   UNL A   1      35.348  22.040  24.206  1.00  0.00     0.180 C 
ATOM     12  C   UNL A   1      36.693  21.379  24.517  1.00  0.00     0.099 C 
BRANCH   9  13
ATOM     13  C   UNL A   1      34.661  24.408  24.541  1.00  0.00     0.060 A 
ATOM     14  C   UNL A   1      33.163  26.648  23.740  1.00  0.00     0.082 A 
ATOM     15  C   UNL A   1      33.484  26.476  25.087  1.00  0.00     0.024 A 
ATOM     16  C   UNL A   1      33.546  25.697  22.796  1.00  0.00     0.024 A 
ATOM     17  C   UNL A   1      34.219  25.351  25.481  1.00  0.00     0.029 A 
ATOM     18  C   UNL A   1      34.292  24.589  23.201  1.00  0.00     0.029 A 
BRANCH  14  19
ATOM     19  S   UNL A   1      32.238  28.049  23.194  1.00  0.00     0.238 S 
ATOM     20  O   UNL A   1      33.156  29.040  22.677  1.00  0.00    -0.207 OA
ATOM     21  O   UNL A   1      31.246  28.354  24.194  1.00  0.00    -0.207 OA
BRANCH  19  22
ATOM     22  N   UNL A   1      31.395  27.494  21.851  1.00  0.00    -0.225 NA
ATOM     23  H   UNL A   1      30.399  27.450  22.069  1.00  0.00     0.137 HD
ATOM     24  H   UNL A   1      31.730  26.563  21.600  1.00  0.00     0.137 HD
ENDBRANCH  19  22
ENDBRANCH  14  19
ENDBRANCH   9  13
BRANCH  11  25
ATOM     25  C   UNL A   1      34.188  21.148  24.530  1.00  0.00     0.128 A 
ATOM     26  C   UNL A   1      32.821  21.353  24.520  1.00  0.00     0.048 A 
ATOM     27  O   UNL A   1      34.453  19.859  24.903  1.00  0.00    -0.467 OA
ATOM     28  C   UNL A   1      32.226  20.131  24.914  1.00  0.00     0.042 A 
ATOM     29  C   UNL A   1      33.261  19.251  25.125  1.00  0.00     0.195 A 
ENDBRANCH  11  25
ENDBRANCH   5   8
ENDBRANCH   3   4
ENDBRANCH   2   3
ENDBRANCH   1   2
BRANCH   1  30
ATOM     30  C   UNL A   1      42.077  25.707  25.494  1.00  0.00     0.002 C 
BRANCH  30  31
ATOM     31  C   UNL A   1      43.225  24.866  24.932  1.00  0.00     0.021 C 
BRANCH  31  32
ATOM     32  C   UNL A   1      43.395  23.489  25.565  1.00  0.00     0.116 C 
BRANCH  32  33
ATOM     33  N   UNL A   1      44.764  23.230  25.975  1.00  0.00    -0.352 N 
ATOM     34  C   UNL A   1      45.512  23.838  26.951  1.00  0.00     0.251 C 
ATOM     35  H   UNL A   1      45.222  22.513  25.480  1.00  0.00     0.163 HD
ATOM     36  O   UNL A   1      46.710  23.592  27.053  1.00  0.00    -0.269 OA
BRANCH  34  37
ATOM     37  C   UNL A   1      44.884  24.812  27.871  1.00  0.00     0.039 A 
ATOM     38  C   UNL A   1      44.058  24.332  28.892  1.00  0.00     0.014 A 
ATOM     39  C   UNL A   1      45.088  26.186  27.719  1.00  0.00     0.014 A 
ATOM     40  C   UNL A   1      43.482  25.227  29.795  1.00  0.00     0.010 A 
ATOM     41  C   UNL A   1      44.566  27.072  28.659  1.00  0.00     0.010 A 
ATOM     42  C   UNL A   1      43.754  26.602  29.703  1.00  0.00    -0.014 A 
BRANCH  42  43
ATOM     43  C   UNL A   1      43.199  27.561  30.689  1.00  0.00     0.031 A 
ATOM     44  C   UNL A   1      43.835  27.713  32.040  1.00  0.00     0.074 A 
ATOM     45  C   UNL A   1      42.072  28.238  30.395  1.00  0.00     0.049 A 
ATOM     46  N   UNL A   1      43.456  28.446  33.058  1.00  0.00    -0.248 NA
ATOM     47  C   UNL A   1      45.039  26.910  32.294  1.00  0.00     0.031 C 
ATOM     48  C   UNL A   1      41.325  28.129  29.142  1.00  0.00     0.029 A 
ATOM     49  N   UNL A   1      41.349  29.137  31.138  1.00  0.00    -0.354 N 
ATOM     50  C   UNL A   1      44.360  28.175  34.075  1.00  0.00     0.074 A 
ATOM     51  C   UNL A   1      45.277  27.175  33.570  1.00  0.00     0.031 C 
ATOM     52  C   UNL A   1      40.254  28.935  29.198  1.00  0.00     0.029 A 
ATOM     53  C   UNL A   1      40.223  29.595  30.500  1.00  0.00     0.049 A 
ATOM     54  H   UNL A   1      41.612  29.425  32.041  1.00  0.00     0.167 HD
ATOM     55  C   UNL A   1      44.431  28.724  35.312  1.00  0.00     0.037 A 
ATOM     56  C   UNL A   1      39.267  30.446  30.921  1.00  0.00     0.037 A 
ATOM     57  C   UNL A   1      43.536  29.742  35.798  1.00  0.00     0.049 A 
ATOM     58  C   UNL A   1      39.381  31.067  32.284  1.00  0.00     0.074 A 
ATOM     59  C   UNL A   1      43.580  30.429  36.998  1.00  0.00     0.029 A 
ATOM     60  N   UNL A   1      42.427  30.212  35.108  1.00  0.00    -0.354 N 
ATOM     61  N   UNL A   1      40.291  30.871  33.207  1.00  0.00    -0.248 NA
ATOM     62  C   UNL A   1      38.344  32.038  32.659  1.00  0.00     0.031 C 
ATOM     63  C   UNL A   1      42.471  31.282  37.054  1.00  0.00     0.029 A 
ATOM     64  C   UNL A   1      41.763  31.161  35.869  1.00  0.00     0.049 A 
ATOM     65  H   UNL A   1      42.154  29.916  34.211  1.00  0.00     0.167 HD
ATOM     66  C   UNL A   1      39.949  31.702  34.264  1.00  0.00     0.074 A 
ATOM     67  C   UNL A   1      38.754  32.417  33.863  1.00  0.00     0.031 C 
ATOM     68  C   UNL A   1      40.569  31.858  35.460  1.00  0.00     0.037 A 
BRANCH  55  69
ATOM     69  C   UNL A   1      45.512  28.224  36.227  1.00  0.00     0.064 A 
ATOM     70  C   UNL A   1      46.815  28.743  36.184  1.00  0.00     0.173 A 
ATOM     71  C   UNL A   1      45.239  27.217  37.164  1.00  0.00     0.173 A 
ATOM     72  F   UNL A   1      47.132  29.701  35.298  1.00  0.00    -0.203 F 
ATOM     73  C   UNL A   1      47.815  28.242  37.015  1.00  0.00     0.198 A 
ATOM     74  C   UNL A   1      46.233  26.741  38.016  1.00  0.00     0.198 A 
ATOM     75  F   UNL A   1      44.009  26.691  37.253  1.00  0.00    -0.203 F 
ATOM     76  F   UNL A   1      49.066  28.710  36.910  1.00  0.00    -0.200 F 
ATOM     77  C   UNL A   1      47.522  27.244  37.932  1.00  0.00     0.200 A 
ATOM     78  F   UNL A   1      45.945  25.785  38.910  1.00  0.00    -0.200 F 
ATOM     79  F   UNL A   1      48.485  26.761  38.729  1.00  0.00    -0.200 F 
ENDBRANCH  55  69
BRANCH  56  80
ATOM     80  C   UNL A   1      38.135  30.770  30.017  1.00  0.00     0.064 A 
ATOM     81  C   UNL A   1      38.068  32.007  29.362  1.00  0.00     0.173 A 
ATOM     82  C   UNL A   1      37.123  29.835  29.756  1.00  0.00     0.173 A 
ATOM     83  F   UNL A   1      39.004  32.939  29.596  1.00  0.00    -0.203 F 
ATOM     84  C   UNL A   1      37.028  32.299  28.483  1.00  0.00     0.198 A 
ATOM     85  C   UNL A   1      36.097  30.120  28.858  1.00  0.00     0.198 A 
ATOM     86  F   UNL A   1      37.148  28.635  30.352  1.00  0.00    -0.203 F 
ATOM     87  F   UNL A   1      36.973  33.499  27.888  1.00  0.00    -0.200 F 
ATOM     88  C   UNL A   1      36.049  31.352  28.225  1.00  0.00     0.200 A 
ATOM     89  F   UNL A   1      35.161  29.196  28.599  1.00  0.00    -0.200 F 
ATOM     90  F   UNL A   1      35.057  31.628  27.366  1.00  0.00    -0.200 F 
ENDBRANCH  56  80
BRANCH  68  91
ATOM     91  C   UNL A   1      39.975  32.849  36.418  1.00  0.00     0.064 A 
ATOM     92  C   UNL A   1      38.894  32.513  37.244  1.00  0.00     0.173 A 
ATOM     93  C   UNL A   1      40.521  34.136  36.539  1.00  0.00     0.173 A 
ATOM     94  F   UNL A   1      38.327  31.299  37.155  1.00  0.00    -0.203 F 
ATOM     95  C   UNL A   1      38.368  33.436  38.144  1.00  0.00     0.198 A 
ATOM     96  C   UNL A   1      40.010  35.047  37.459  1.00  0.00     0.198 A 
ATOM     97  F   UNL A   1      41.559  34.506  35.773  1.00  0.00    -0.203 F 
ATOM     98  F   UNL A   1      37.307  33.107  38.896  1.00  0.00    -0.200 F 
ATOM     99  C   UNL A   1      38.930  34.699  38.255  1.00  0.00     0.200 A 
ATOM    100  F   UNL A   1      40.562  36.263  37.573  1.00  0.00    -0.200 F 
ATOM    101  F   UNL A   1      38.426  35.583  39.128  1.00  0.00    -0.200 F 
ENDBRANCH  68  91
ENDBRANCH  42  43
ENDBRANCH  34  37
ENDBRANCH  32  33
ENDBRANCH  31  32
ENDBRANCH  30  31
ENDBRANCH   1  30
TORSDOF 17
ENDMDL
MODEL 3
REMARK VINA RESULT:     -12.1      7.818     12.307
REMARK SMILES NS(=O)(=O)c1ccc(N2N=C(C(=O)NCCCCCCNC(=O)c3ccc(-c4c5nc(c(-c6c(F)c(F)c(F)c(F)c6F)c6ccc([nH]6)c(-c6c(F)c(F)c(F)c(F)c6F)c6nc(c(-c7c(F)c(F)c(F)c(F)c7F)c7ccc4[nH]7)C=C6)C=C5)cc3)C[C@H]2c2ccco2)cc1
REMARK SMILES IDX 17 1 16 2 15 3 14 4 12 5 13 6 11 8 9 9 10 10 88 11 87 12
REMARK SMILES IDX 8 13 5 14 6 15 95 16 7 17 94 18 2 19 3 20 4 21 1 22 89 25
REMARK SMILES IDX 90 26 93 27 91 28 92 29 18 30 19 31 20 32 21 33 22 34 23 36
REMARK SMILES IDX 24 37 25 38 86 39 26 40 85 41 27 42 28 43 29 44 79 45 30 46
REMARK SMILES IDX 84 47 78 48 80 49 31 50 83 51 77 52 76 53 32 55 64 56 44 57
REMARK SMILES IDX 63 58 45 59 48 60 62 61 81 62 46 63 47 64 61 66 82 67 49 68
REMARK SMILES IDX 33 69 34 70 42 71 35 72 36 73 40 74 43 75 37 76 38 77 41 78
REMARK SMILES IDX 39 79 65 80 66 81 74 82 67 83 68 84 72 85 75 86 69 87 70 88
REMARK SMILES IDX 73 89 71 90 50 91 51 92 59 93 52 94 53 95 57 96 60 97 54 98
REMARK SMILES IDX 55 99 58 100 56 101
REMARK H PARENT 14 7 1 23 1 24 21 35 80 54 48 65
REMARK Flexibility Score: inf
ROOT
ATOM      1  C   UNL A   1      39.668  33.467  38.405  1.00  0.00     0.002 C 
ENDROOT
BRANCH   1   2
ATOM      2  C   UNL A   1      38.348  33.196  39.133  1.00  0.00     0.021 C 
BRANCH   2   3
ATOM      3  C   UNL A   1      37.329  32.386  38.335  1.00  0.00     0.116 C 
BRANCH   3   4
ATOM      4  N   UNL A   1      37.961  31.296  37.621  1.00  0.00    -0.351 N 
ATOM      5  C   UNL A   1      38.284  31.068  36.308  1.00  0.00     0.267 C 
ATOM      6  O   UNL A   1      38.776  29.976  36.031  1.00  0.00    -0.268 OA
ATOM      7  H   UNL A   1      38.218  30.552  38.211  1.00  0.00     0.163 HD
BRANCH   5   8
ATOM      8  C   UNL A   1      38.103  32.087  35.190  1.00  0.00     0.128 C 
ATOM      9  N   UNL A   1      37.115  33.143  33.615  1.00  0.00    -0.254 N 
ATOM     10  N   UNL A   1      36.929  32.323  34.686  1.00  0.00    -0.171 NA
ATOM     11  C   UNL A   1      38.497  33.611  33.468  1.00  0.00     0.180 C 
ATOM     12  C   UNL A   1      39.220  32.880  34.601  1.00  0.00     0.099 C 
BRANCH   9  13
ATOM     13  C   UNL A   1      36.051  33.883  33.100  1.00  0.00     0.060 A 
ATOM     14  C   UNL A   1      33.976  35.423  31.992  1.00  0.00     0.082 A 
ATOM     15  C   UNL A   1      34.448  35.716  33.273  1.00  0.00     0.024 A 
ATOM     16  C   UNL A   1      34.499  34.348  31.276  1.00  0.00     0.024 A 
ATOM     17  C   UNL A   1      35.472  34.937  33.824  1.00  0.00     0.029 A 
ATOM     18  C   UNL A   1      35.532  33.590  31.832  1.00  0.00     0.029 A 
BRANCH  14  19
ATOM     19  S   UNL A   1      32.686  36.375  31.255  1.00  0.00     0.238 S 
ATOM     20  O   UNL A   1      31.616  36.534  32.216  1.00  0.00    -0.207 OA
ATOM     21  O   UNL A   1      32.464  35.880  29.920  1.00  0.00    -0.207 OA
BRANCH  19  22
ATOM     22  N   UNL A   1      33.346  37.909  31.082  1.00  0.00    -0.225 NA
ATOM     23  H   UNL A   1      34.073  38.048  31.785  1.00  0.00     0.137 HD
ATOM     24  H   UNL A   1      32.616  38.611  31.206  1.00  0.00     0.137 HD
ENDBRANCH  19  22
ENDBRANCH  14  19
ENDBRANCH   9  13
BRANCH  11  25
ATOM     25  C   UNL A   1      39.167  33.408  32.143  1.00  0.00     0.128 A 
ATOM     26  C   UNL A   1      39.964  34.227  31.364  1.00  0.00     0.048 A 
ATOM     27  O   UNL A   1      39.022  32.196  31.528  1.00  0.00    -0.467 OA
ATOM     28  C   UNL A   1      40.312  33.478  30.215  1.00  0.00     0.042 A 
ATOM     29  C   UNL A   1      39.723  32.246  30.368  1.00  0.00     0.195 A 
ENDBRANCH  11  25
ENDBRANCH   5   8
ENDBRANCH   3   4
ENDBRANCH   2   3
ENDBRANCH   1   2
BRANCH   1  30
ATOM     30  C   UNL A   1      40.884  33.704  39.305  1.00  0.00     0.002 C 
BRANCH  30  31
ATOM     31  C   UNL A   1      40.810  34.933  40.214  1.00  0.00     0.021 C 
BRANCH  31  32
ATOM     32  C   UNL A   1      40.231  36.187  39.568  1.00  0.00     0.116 C 
BRANCH  32  33
ATOM     33  N   UNL A   1      41.161  37.303  39.585  1.00  0.00    -0.352 N 
ATOM     34  C   UNL A   1      42.233  37.556  38.768  1.00  0.00     0.251 C 
ATOM     35  H   UNL A   1      40.998  37.974  40.286  1.00  0.00     0.163 HD
ATOM     36  O   UNL A   1      43.004  38.475  39.030  1.00  0.00    -0.269 OA
BRANCH  34  37
ATOM     37  C   UNL A   1      42.479  36.712  37.579  1.00  0.00     0.039 A 
ATOM     38  C   UNL A   1      43.772  36.228  37.356  1.00  0.00     0.014 A 
ATOM     39  C   UNL A   1      41.453  36.414  36.679  1.00  0.00     0.014 A 
ATOM     40  C   UNL A   1      44.023  35.399  36.261  1.00  0.00     0.010 A 
ATOM     41  C   UNL A   1      41.690  35.535  35.623  1.00  0.00     0.010 A 
ATOM     42  C   UNL A   1      42.977  35.024  35.402  1.00  0.00    -0.014 A 
BRANCH  42  43
ATOM     43  C   UNL A   1      43.213  34.097  34.268  1.00  0.00     0.031 A 
ATOM     44  C   UNL A   1      43.382  34.630  32.874  1.00  0.00     0.074 A 
ATOM     45  C   UNL A   1      43.197  32.767  34.482  1.00  0.00     0.049 A 
ATOM     46  N   UNL A   1      43.527  33.977  31.748  1.00  0.00    -0.248 NA
ATOM     47  C   UNL A   1      43.349  36.092  32.722  1.00  0.00     0.031 C 
ATOM     48  C   UNL A   1      42.980  32.125  35.778  1.00  0.00     0.029 A 
ATOM     49  N   UNL A   1      43.347  31.718  33.610  1.00  0.00    -0.354 N 
ATOM     50  C   UNL A   1      43.581  34.946  30.755  1.00  0.00     0.074 A 
ATOM     51  C   UNL A   1      43.404  36.227  31.405  1.00  0.00     0.031 C 
ATOM     52  C   UNL A   1      43.018  30.793  35.619  1.00  0.00     0.029 A 
ATOM     53  C   UNL A   1      43.233  30.488  34.208  1.00  0.00     0.049 A 
ATOM     54  H   UNL A   1      43.519  31.837  32.648  1.00  0.00     0.167 HD
ATOM     55  C   UNL A   1      43.779  34.782  29.424  1.00  0.00     0.037 A 
ATOM     56  C   UNL A   1      43.289  29.252  33.677  1.00  0.00     0.037 A 
ATOM     57  C   UNL A   1      43.987  33.508  28.788  1.00  0.00     0.049 A 
ATOM     58  C   UNL A   1      43.541  29.093  32.204  1.00  0.00     0.074 A 
ATOM     59  C   UNL A   1      44.289  33.243  27.464  1.00  0.00     0.029 A 
ATOM     60  N   UNL A   1      43.905  32.281  29.432  1.00  0.00    -0.354 N 
ATOM     61  N   UNL A   1      43.679  30.018  31.286  1.00  0.00    -0.248 NA
ATOM     62  C   UNL A   1      43.657  27.719  31.696  1.00  0.00     0.031 C 
ATOM     63  C   UNL A   1      44.344  31.854  27.298  1.00  0.00     0.029 A 
ATOM     64  C   UNL A   1      44.124  31.255  28.527  1.00  0.00     0.049 A 
ATOM     65  H   UNL A   1      43.720  32.159  30.391  1.00  0.00     0.167 HD
ATOM     66  C   UNL A   1      43.914  29.343  30.096  1.00  0.00     0.074 A 
ATOM     67  C   UNL A   1      43.915  27.929  30.412  1.00  0.00     0.031 C 
ATOM     68  C   UNL A   1      44.112  29.851  28.854  1.00  0.00     0.037 A 
BRANCH  55  69
ATOM     69  C   UNL A   1      43.772  36.017  28.570  1.00  0.00     0.064 A 
ATOM     70  C   UNL A   1      44.945  36.738  28.301  1.00  0.00     0.173 A 
ATOM     71  C   UNL A   1      42.574  36.483  28.008  1.00  0.00     0.173 A 
ATOM     72  F   UNL A   1      46.116  36.341  28.825  1.00  0.00    -0.203 F 
ATOM     73  C   UNL A   1      44.914  37.901  27.537  1.00  0.00     0.198 A 
ATOM     74  C   UNL A   1      42.551  37.629  27.216  1.00  0.00     0.198 A 
ATOM     75  F   UNL A   1      41.424  35.829  28.226  1.00  0.00    -0.203 F 
ATOM     76  F   UNL A   1      46.038  38.607  27.347  1.00  0.00    -0.200 F 
ATOM     77  C   UNL A   1      43.718  38.344  26.992  1.00  0.00     0.200 A 
ATOM     78  F   UNL A   1      41.396  38.049  26.681  1.00  0.00    -0.200 F 
ATOM     79  F   UNL A   1      43.688  39.466  26.259  1.00  0.00    -0.200 F 
ENDBRANCH  55  69
BRANCH  56  80
ATOM     80  C   UNL A   1      43.126  28.073  34.563  1.00  0.00     0.064 A 
ATOM     81  C   UNL A   1      44.159  27.665  35.417  1.00  0.00     0.173 A 
ATOM     82  C   UNL A   1      41.919  27.358  34.608  1.00  0.00     0.173 A 
ATOM     83  F   UNL A   1      45.336  28.307  35.396  1.00  0.00    -0.203 F 
ATOM     84  C   UNL A   1      43.994  26.583  36.279  1.00  0.00     0.198 A 
ATOM     85  C   UNL A   1      41.748  26.292  35.488  1.00  0.00     0.198 A 
ATOM     86  F   UNL A   1      40.898  27.716  33.816  1.00  0.00    -0.203 F 
ATOM     87  F   UNL A   1      45.007  26.198  37.068  1.00  0.00    -0.200 F 
ATOM     88  C   UNL A   1      42.787  25.903  36.320  1.00  0.00     0.200 A 
ATOM     89  F   UNL A   1      40.574  25.648  35.536  1.00  0.00    -0.200 F 
ATOM     90  F   UNL A   1      42.624  24.873  37.161  1.00  0.00    -0.200 F 
ENDBRANCH  56  80
BRANCH  68  91
ATOM     91  C   UNL A   1      44.359  28.872  27.743  1.00  0.00     0.064 A 
ATOM     92  C   UNL A   1      43.336  28.486  26.866  1.00  0.00     0.173 A 
ATOM     93  C   UNL A   1      45.643  28.348  27.529  1.00  0.00     0.173 A 
ATOM     94  F   UNL A   1      42.088  28.948  27.039  1.00  0.00    -0.203 F 
ATOM     95  C   UNL A   1      43.585  27.594  25.826  1.00  0.00     0.198 A 
ATOM     96  C   UNL A   1      45.894  27.478  26.473  1.00  0.00     0.198 A 
ATOM     97  F   UNL A   1      46.657  28.690  28.339  1.00  0.00    -0.203 F 
ATOM     98  F   UNL A   1      42.583  27.206  25.024  1.00  0.00    -0.200 F 
ATOM     99  C   UNL A   1      44.864  27.097  25.626  1.00  0.00     0.200 A 
ATOM    100  F   UNL A   1      47.134  27.007  26.274  1.00  0.00    -0.200 F 
ATOM    101  F   UNL A   1      45.103  26.244  24.620  1.00  0.00    -0.200 F 
ENDBRANCH  68  91
ENDBRANCH  42  43
ENDBRANCH  34  37
ENDBRANCH  32  33
ENDBRANCH  31  32
ENDBRANCH  30  31
ENDBRANCH   1  30
TORSDOF 17
ENDMDL
