MODEL 1
REMARK VINA RESULT:     -13.0      0.000      0.000
REMARK SMILES CC(=O)Oc1cc(CCC(=O)NCCCCCCNC(=O)c2ccc(-c3c4nc(c(-c5c(F)c(F)c(F)c(F)c5F)c5ccc([nH]5)c(-c5c(F)c(F)c(F)c(F)c5F)c5nc(c(-c6c(F)c(F)c(F)c(F)c6F)c6ccc3[nH]6)C=C5)C=C4)cc2)c(OC(C)=O)c2c1C(=O)c1ccccc1C2=O
REMARK SMILES IDX 14 1 13 2 12 3 10 4 11 5 9 7 8 8 7 9 5 10 6 11 91 12 90 13
REMARK SMILES IDX 92 14 85 15 100 16 93 17 94 18 99 19 101 20 95 21 98 22
REMARK SMILES IDX 96 23 97 24 4 25 2 26 1 27 3 28 86 29 87 30 88 31 89 32
REMARK SMILES IDX 15 33 16 34 17 35 18 36 19 37 20 38 21 40 22 41 23 42 84 43
REMARK SMILES IDX 24 44 83 45 25 46 26 47 27 48 77 49 28 50 82 51 76 52 78 53
REMARK SMILES IDX 29 54 81 55 75 56 74 57 30 59 62 60 42 61 61 62 43 63 46 64
REMARK SMILES IDX 60 65 79 66 44 67 45 68 59 70 80 71 47 72 31 73 32 74 40 75
REMARK SMILES IDX 33 76 34 77 38 78 41 79 35 80 36 81 39 82 37 83 63 84 64 85
REMARK SMILES IDX 72 86 65 87 66 88 70 89 73 90 67 91 68 92 71 93 69 94 48 95
REMARK SMILES IDX 49 96 57 97 50 98 51 99 55 100 58 101 52 102 53 103 56 104
REMARK SMILES IDX 54 105
REMARK H PARENT 12 6 19 39 78 58 46 69
REMARK Flexibility Score: inf
ROOT
ATOM      1  C   UNL A   1      32.899  21.166  25.678  1.00  0.00     0.021 C 
ENDROOT
BRANCH   1   2
ATOM      2  C   UNL A   1      32.064  22.115  24.824  1.00  0.00     0.116 C 
BRANCH   2   3
ATOM      3  N   UNL A   1      31.597  23.233  25.629  1.00  0.00    -0.356 N 
ATOM      4  C   UNL A   1      32.296  24.173  26.320  1.00  0.00     0.220 C 
ATOM      5  O   UNL A   1      31.663  24.932  27.059  1.00  0.00    -0.275 OA
ATOM      6  H   UNL A   1      30.618  23.323  25.682  1.00  0.00     0.163 HD
BRANCH   4   7
ATOM      7  C   UNL A   1      33.797  24.346  26.137  1.00  0.00     0.105 C 
BRANCH   7   8
ATOM      8  C   UNL A   1      34.295  25.456  25.202  1.00  0.00     0.049 C 
BRANCH   8   9
ATOM      9  C   UNL A   1      33.467  26.711  25.109  1.00  0.00    -0.000 A 
ATOM     10  C   UNL A   1      32.655  28.750  26.176  1.00  0.00     0.143 A 
ATOM     11  C   UNL A   1      33.427  27.577  26.208  1.00  0.00     0.055 A 
ATOM     12  C   UNL A   1      31.877  29.092  25.058  1.00  0.00     0.080 A 
ATOM     13  C   UNL A   1      31.851  28.211  23.970  1.00  0.00     0.081 A 
ATOM     14  C   UNL A   1      31.054  30.330  25.032  1.00  0.00     0.198 C 
ATOM     15  C   UNL A   1      32.704  27.078  23.991  1.00  0.00     0.146 A 
ATOM     16  C   UNL A   1      30.794  28.380  22.941  1.00  0.00     0.198 C 
ATOM     17  O   UNL A   1      31.157  31.190  25.899  1.00  0.00    -0.288 OA
ATOM     18  C   UNL A   1      30.024  30.490  23.986  1.00  0.00     0.034 A 
ATOM     19  C   UNL A   1      29.809  29.467  23.073  1.00  0.00     0.034 A 
ATOM     20  O   UNL A   1      30.665  27.603  22.008  1.00  0.00    -0.288 OA
ATOM     21  C   UNL A   1      29.158  31.592  24.010  1.00  0.00     0.013 A 
ATOM     22  C   UNL A   1      28.637  29.457  22.302  1.00  0.00     0.013 A 
ATOM     23  C   UNL A   1      27.999  31.590  23.230  1.00  0.00     0.001 A 
ATOM     24  C   UNL A   1      27.717  30.502  22.408  1.00  0.00     0.001 A 
BRANCH  10  25
ATOM     25  O   UNL A   1      32.728  29.557  27.319  1.00  0.00    -0.426 OA
BRANCH  25  26
ATOM     26  C   UNL A   1      33.921  30.267  27.412  1.00  0.00     0.308 C 
ATOM     27  C   UNL A   1      35.009  29.340  27.872  1.00  0.00     0.139 C 
ATOM     28  O   UNL A   1      34.062  31.470  27.221  1.00  0.00    -0.252 OA
ENDBRANCH  25  26
ENDBRANCH  10  25
BRANCH  15  29
ATOM     29  O   UNL A   1      32.707  26.156  22.803  1.00  0.00    -0.426 OA
BRANCH  29  30
ATOM     30  C   UNL A   1      32.815  25.275  21.666  1.00  0.00     0.308 C 
ATOM     31  C   UNL A   1      32.890  23.843  22.080  1.00  0.00     0.139 C 
ATOM     32  O   UNL A   1      32.894  25.668  20.511  1.00  0.00    -0.252 OA
ENDBRANCH  29  30
ENDBRANCH  15  29
ENDBRANCH   8   9
ENDBRANCH   7   8
ENDBRANCH   4   7
ENDBRANCH   2   3
ENDBRANCH   1   2
BRANCH   1  33
ATOM     33  C   UNL A   1      34.291  20.783  25.197  1.00  0.00     0.002 C 
BRANCH  33  34
ATOM     34  C   UNL A   1      34.953  21.665  24.134  1.00  0.00     0.002 C 
BRANCH  34  35
ATOM     35  C   UNL A   1      36.430  22.054  24.297  1.00  0.00     0.021 C 
BRANCH  35  36
ATOM     36  C   UNL A   1      37.013  22.065  25.711  1.00  0.00     0.116 C 
BRANCH  36  37
ATOM     37  N   UNL A   1      38.139  21.162  25.903  1.00  0.00    -0.352 N 
ATOM     38  C   UNL A   1      39.423  21.380  26.341  1.00  0.00     0.251 C 
ATOM     39  H   UNL A   1      37.943  20.224  25.678  1.00  0.00     0.163 HD
ATOM     40  O   UNL A   1      40.203  20.428  26.376  1.00  0.00    -0.269 OA
BRANCH  38  41
ATOM     41  C   UNL A   1      39.917  22.716  26.766  1.00  0.00     0.039 A 
ATOM     42  C   UNL A   1      40.810  22.788  27.841  1.00  0.00     0.014 A 
ATOM     43  C   UNL A   1      39.469  23.901  26.186  1.00  0.00     0.014 A 
ATOM     44  C   UNL A   1      41.273  24.031  28.291  1.00  0.00     0.010 A 
ATOM     45  C   UNL A   1      39.949  25.144  26.610  1.00  0.00     0.010 A 
ATOM     46  C   UNL A   1      40.867  25.220  27.660  1.00  0.00    -0.014 A 
BRANCH  46  47
ATOM     47  C   UNL A   1      41.514  26.514  28.005  1.00  0.00     0.031 A 
ATOM     48  C   UNL A   1      42.934  26.829  27.627  1.00  0.00     0.074 A 
ATOM     49  C   UNL A   1      40.797  27.397  28.726  1.00  0.00     0.049 A 
ATOM     50  N   UNL A   1      43.596  27.952  27.772  1.00  0.00    -0.248 NA
ATOM     51  C   UNL A   1      43.728  25.741  27.041  1.00  0.00     0.031 C 
ATOM     52  C   UNL A   1      39.452  27.150  29.250  1.00  0.00     0.029 A 
ATOM     53  N   UNL A   1      41.083  28.674  29.136  1.00  0.00    -0.354 N 
ATOM     54  C   UNL A   1      44.875  27.709  27.287  1.00  0.00     0.074 A 
ATOM     55  C   UNL A   1      44.917  26.313  26.905  1.00  0.00     0.031 C 
ATOM     56  C   UNL A   1      39.005  28.259  29.856  1.00  0.00     0.029 A 
ATOM     57  C   UNL A   1      40.041  29.282  29.793  1.00  0.00     0.049 A 
ATOM     58  H   UNL A   1      41.950  29.112  28.974  1.00  0.00     0.167 HD
ATOM     59  C   UNL A   1      45.907  28.581  27.153  1.00  0.00     0.037 A 
ATOM     60  C   UNL A   1      39.926  30.533  30.275  1.00  0.00     0.037 A 
ATOM     61  C   UNL A   1      45.848  29.967  27.554  1.00  0.00     0.049 A 
ATOM     62  C   UNL A   1      41.070  31.489  30.082  1.00  0.00     0.074 A 
ATOM     63  C   UNL A   1      46.807  30.955  27.404  1.00  0.00     0.029 A 
ATOM     64  N   UNL A   1      44.770  30.558  28.201  1.00  0.00    -0.354 N 
ATOM     65  N   UNL A   1      42.232  31.285  29.508  1.00  0.00    -0.248 NA
ATOM     66  C   UNL A   1      40.879  32.853  30.585  1.00  0.00     0.031 C 
ATOM     67  C   UNL A   1      46.336  32.122  28.016  1.00  0.00     0.029 A 
ATOM     68  C   UNL A   1      45.052  31.887  28.482  1.00  0.00     0.049 A 
ATOM     69  H   UNL A   1      43.929  30.100  28.427  1.00  0.00     0.167 HD
ATOM     70  C   UNL A   1      42.900  32.500  29.559  1.00  0.00     0.074 A 
ATOM     71  C   UNL A   1      41.998  33.442  30.191  1.00  0.00     0.031 C 
ATOM     72  C   UNL A   1      44.147  32.809  29.122  1.00  0.00     0.037 A 
BRANCH  59  73
ATOM     73  C   UNL A   1      47.187  28.072  26.541  1.00  0.00     0.064 A 
ATOM     74  C   UNL A   1      48.265  27.648  27.336  1.00  0.00     0.173 A 
ATOM     75  C   UNL A   1      47.321  27.946  25.148  1.00  0.00     0.173 A 
ATOM     76  F   UNL A   1      48.195  27.740  28.672  1.00  0.00    -0.203 F 
ATOM     77  C   UNL A   1      49.435  27.153  26.761  1.00  0.00     0.198 A 
ATOM     78  C   UNL A   1      48.478  27.418  24.579  1.00  0.00     0.198 A 
ATOM     79  F   UNL A   1      46.322  28.321  24.335  1.00  0.00    -0.203 F 
ATOM     80  F   UNL A   1      50.466  26.804  27.543  1.00  0.00    -0.200 F 
ATOM     81  C   UNL A   1      49.538  27.031  25.385  1.00  0.00     0.200 A 
ATOM     82  F   UNL A   1      48.568  27.281  23.249  1.00  0.00    -0.200 F 
ATOM     83  F   UNL A   1      50.659  26.545  24.835  1.00  0.00    -0.200 F 
ENDBRANCH  59  73
BRANCH  60  84
ATOM     84  C   UNL A   1      38.661  30.961  30.931  1.00  0.00     0.064 A 
ATOM     85  C   UNL A   1      38.530  30.950  32.327  1.00  0.00     0.173 A 
ATOM     86  C   UNL A   1      37.562  31.401  30.179  1.00  0.00     0.173 A 
ATOM     87  F   UNL A   1      39.548  30.528  33.093  1.00  0.00    -0.203 F 
ATOM     88  C   UNL A   1      37.342  31.338  32.943  1.00  0.00     0.198 A 
ATOM     89  C   UNL A   1      36.388  31.823  30.796  1.00  0.00     0.198 A 
ATOM     90  F   UNL A   1      37.639  31.444  28.840  1.00  0.00    -0.203 F 
ATOM     91  F   UNL A   1      37.227  31.268  34.276  1.00  0.00    -0.200 F 
ATOM     92  C   UNL A   1      36.274  31.781  32.177  1.00  0.00     0.200 A 
ATOM     93  F   UNL A   1      35.368  32.273  30.054  1.00  0.00    -0.200 F 
ATOM     94  F   UNL A   1      35.134  32.163  32.770  1.00  0.00    -0.200 F 
ENDBRANCH  60  84
BRANCH  72  95
ATOM     95  C   UNL A   1      44.591  34.236  29.293  1.00  0.00     0.064 A 
ATOM     96  C   UNL A   1      45.265  34.671  30.444  1.00  0.00     0.173 A 
ATOM     97  C   UNL A   1      44.330  35.183  28.289  1.00  0.00     0.173 A 
ATOM     98  F   UNL A   1      45.528  33.812  31.439  1.00  0.00    -0.203 F 
ATOM     99  C   UNL A   1      45.615  36.009  30.607  1.00  0.00     0.198 A 
ATOM    100  C   UNL A   1      44.720  36.512  28.437  1.00  0.00     0.198 A 
ATOM    101  F   UNL A   1      43.698  34.822  27.163  1.00  0.00    -0.203 F 
ATOM    102  F   UNL A   1      46.187  36.416  31.749  1.00  0.00    -0.200 F 
ATOM    103  C   UNL A   1      45.347  36.927  29.602  1.00  0.00     0.200 A 
ATOM    104  F   UNL A   1      44.478  37.392  27.457  1.00  0.00    -0.200 F 
ATOM    105  F   UNL A   1      45.683  38.215  29.761  1.00  0.00    -0.200 F 
ENDBRANCH  72  95
ENDBRANCH  46  47
ENDBRANCH  38  41
ENDBRANCH  36  37
ENDBRANCH  35  36
ENDBRANCH  34  35
ENDBRANCH  33  34
ENDBRANCH   1  33
TORSDOF 19
ENDMDL
MODEL 2
REMARK VINA RESULT:     -12.9      4.071     10.222
REMARK SMILES CC(=O)Oc1cc(CCC(=O)NCCCCCCNC(=O)c2ccc(-c3c4nc(c(-c5c(F)c(F)c(F)c(F)c5F)c5ccc([nH]5)c(-c5c(F)c(F)c(F)c(F)c5F)c5nc(c(-c6c(F)c(F)c(F)c(F)c6F)c6ccc3[nH]6)C=C5)C=C4)cc2)c(OC(C)=O)c2c1C(=O)c1ccccc1C2=O
REMARK SMILES IDX 14 1 13 2 12 3 10 4 11 5 9 7 8 8 7 9 5 10 6 11 91 12 90 13
REMARK SMILES IDX 92 14 85 15 100 16 93 17 94 18 99 19 101 20 95 21 98 22
REMARK SMILES IDX 96 23 97 24 4 25 2 26 1 27 3 28 86 29 87 30 88 31 89 32
REMARK SMILES IDX 15 33 16 34 17 35 18 36 19 37 20 38 21 40 22 41 23 42 84 43
REMARK SMILES IDX 24 44 83 45 25 46 26 47 27 48 77 49 28 50 82 51 76 52 78 53
REMARK SMILES IDX 29 54 81 55 75 56 74 57 30 59 62 60 42 61 61 62 43 63 46 64
REMARK SMILES IDX 60 65 79 66 44 67 45 68 59 70 80 71 47 72 31 73 32 74 40 75
REMARK SMILES IDX 33 76 34 77 38 78 41 79 35 80 36 81 39 82 37 83 63 84 64 85
REMARK SMILES IDX 72 86 65 87 66 88 70 89 73 90 67 91 68 92 71 93 69 94 48 95
REMARK SMILES IDX 49 96 57 97 50 98 51 99 55 100 58 101 52 102 53 103 56 104
REMARK SMILES IDX 54 105
REMARK H PARENT 12 6 19 39 78 58 46 69
REMARK Flexibility Score: inf
ROOT
ATOM      1  C   UNL A   1      31.459  28.869  22.674  1.00  0.00     0.021 C 
ENDROOT
BRANCH   1   2
ATOM      2  C   UNL A   1      32.979  28.761  22.756  1.00  0.00     0.116 C 
BRANCH   2   3
ATOM      3  N   UNL A   1      33.408  27.432  22.352  1.00  0.00    -0.356 N 
ATOM      4  C   UNL A   1      33.622  26.311  23.093  1.00  0.00     0.220 C 
ATOM      5  O   UNL A   1      34.139  25.341  22.533  1.00  0.00    -0.275 OA
ATOM      6  H   UNL A   1      33.570  27.325  21.386  1.00  0.00     0.163 HD
BRANCH   4   7
ATOM      7  C   UNL A   1      33.172  26.217  24.544  1.00  0.00     0.105 C 
BRANCH   7   8
ATOM      8  C   UNL A   1      34.149  25.639  25.577  1.00  0.00     0.049 C 
BRANCH   8   9
ATOM      9  C   UNL A   1      34.520  24.186  25.445  1.00  0.00    -0.000 A 
ATOM     10  C   UNL A   1      36.234  22.512  24.973  1.00  0.00     0.143 A 
ATOM     11  C   UNL A   1      35.842  23.853  25.125  1.00  0.00     0.055 A 
ATOM     12  C   UNL A   1      35.318  21.456  25.112  1.00  0.00     0.080 A 
ATOM     13  C   UNL A   1      33.978  21.765  25.370  1.00  0.00     0.081 A 
ATOM     14  C   UNL A   1      35.734  20.039  24.942  1.00  0.00     0.198 C 
ATOM     15  C   UNL A   1      33.625  23.119  25.604  1.00  0.00     0.146 A 
ATOM     16  C   UNL A   1      32.953  20.706  25.187  1.00  0.00     0.198 C 
ATOM     17  O   UNL A   1      36.915  19.720  24.855  1.00  0.00    -0.288 OA
ATOM     18  C   UNL A   1      34.701  18.997  24.785  1.00  0.00     0.034 A 
ATOM     19  C   UNL A   1      33.361  19.359  24.754  1.00  0.00     0.034 A 
ATOM     20  O   UNL A   1      31.759  20.926  25.320  1.00  0.00    -0.288 OA
ATOM     21  C   UNL A   1      35.068  17.673  24.507  1.00  0.00     0.013 A 
ATOM     22  C   UNL A   1      32.404  18.449  24.279  1.00  0.00     0.013 A 
ATOM     23  C   UNL A   1      34.113  16.762  24.049  1.00  0.00     0.001 A 
ATOM     24  C   UNL A   1      32.789  17.163  23.894  1.00  0.00     0.001 A 
BRANCH  10  25
ATOM     25  O   UNL A   1      37.590  22.303  24.695  1.00  0.00    -0.426 OA
BRANCH  25  26
ATOM     26  C   UNL A   1      38.426  22.654  25.750  1.00  0.00     0.308 C 
ATOM     27  C   UNL A   1      39.355  21.510  26.043  1.00  0.00     0.139 C 
ATOM     28  O   UNL A   1      38.378  23.697  26.393  1.00  0.00    -0.252 OA
ENDBRANCH  25  26
ENDBRANCH  10  25
BRANCH  15  29
ATOM     29  O   UNL A   1      32.191  23.445  25.924  1.00  0.00    -0.426 OA
BRANCH  29  30
ATOM     30  C   UNL A   1      30.844  23.759  26.333  1.00  0.00     0.308 C 
ATOM     31  C   UNL A   1      30.285  24.909  25.562  1.00  0.00     0.139 C 
ATOM     32  O   UNL A   1      30.262  23.185  27.242  1.00  0.00    -0.252 OA
ENDBRANCH  29  30
ENDBRANCH  15  29
ENDBRANCH   8   9
ENDBRANCH   7   8
ENDBRANCH   4   7
ENDBRANCH   2   3
ENDBRANCH   1   2
BRANCH   1  33
ATOM     33  C   UNL A   1      30.680  29.183  23.943  1.00  0.00     0.002 C 
BRANCH  33  34
ATOM     34  C   UNL A   1      31.467  29.372  25.243  1.00  0.00     0.002 C 
BRANCH  34  35
ATOM     35  C   UNL A   1      31.421  30.731  25.956  1.00  0.00     0.021 C 
BRANCH  35  36
ATOM     36  C   UNL A   1      32.559  31.070  26.920  1.00  0.00     0.116 C 
BRANCH  36  37
ATOM     37  N   UNL A   1      32.730  32.494  27.169  1.00  0.00    -0.352 N 
ATOM     38  C   UNL A   1      33.707  33.197  27.833  1.00  0.00     0.251 C 
ATOM     39  H   UNL A   1      32.014  33.056  26.793  1.00  0.00     0.163 HD
ATOM     40  O   UNL A   1      33.590  34.419  27.932  1.00  0.00    -0.269 OA
BRANCH  38  41
ATOM     41  C   UNL A   1      34.895  32.548  28.446  1.00  0.00     0.039 A 
ATOM     42  C   UNL A   1      36.127  33.208  28.377  1.00  0.00     0.014 A 
ATOM     43  C   UNL A   1      34.845  31.279  29.019  1.00  0.00     0.014 A 
ATOM     44  C   UNL A   1      37.276  32.614  28.915  1.00  0.00     0.010 A 
ATOM     45  C   UNL A   1      35.981  30.692  29.584  1.00  0.00     0.010 A 
ATOM     46  C   UNL A   1      37.207  31.360  29.549  1.00  0.00    -0.014 A 
BRANCH  46  47
ATOM     47  C   UNL A   1      38.379  30.829  30.295  1.00  0.00     0.031 A 
ATOM     48  C   UNL A   1      38.664  31.208  31.721  1.00  0.00     0.074 A 
ATOM     49  C   UNL A   1      39.227  30.022  29.630  1.00  0.00     0.049 A 
ATOM     50  N   UNL A   1      39.589  30.745  32.527  1.00  0.00    -0.248 NA
ATOM     51  C   UNL A   1      37.830  32.262  32.313  1.00  0.00     0.031 C 
ATOM     52  C   UNL A   1      39.115  29.681  28.210  1.00  0.00     0.029 A 
ATOM     53  N   UNL A   1      40.337  29.334  30.049  1.00  0.00    -0.354 N 
ATOM     54  C   UNL A   1      39.441  31.441  33.721  1.00  0.00     0.074 A 
ATOM     55  C   UNL A   1      38.380  32.404  33.512  1.00  0.00     0.031 C 
ATOM     56  C   UNL A   1      40.075  28.803  27.890  1.00  0.00     0.029 A 
ATOM     57  C   UNL A   1      40.890  28.543  29.071  1.00  0.00     0.049 A 
ATOM     58  H   UNL A   1      40.701  29.400  30.961  1.00  0.00     0.167 HD
ATOM     59  C   UNL A   1      40.114  31.270  34.887  1.00  0.00     0.037 A 
ATOM     60  C   UNL A   1      41.927  27.687  29.124  1.00  0.00     0.037 A 
ATOM     61  C   UNL A   1      41.179  30.312  35.070  1.00  0.00     0.049 A 
ATOM     62  C   UNL A   1      42.633  27.490  30.437  1.00  0.00     0.074 A 
ATOM     63  C   UNL A   1      41.883  30.007  36.223  1.00  0.00     0.029 A 
ATOM     64  N   UNL A   1      41.705  29.512  34.063  1.00  0.00    -0.354 N 
ATOM     65  N   UNL A   1      42.404  28.063  31.595  1.00  0.00    -0.248 NA
ATOM     66  C   UNL A   1      43.728  26.515  30.455  1.00  0.00     0.031 C 
ATOM     67  C   UNL A   1      42.874  29.073  35.899  1.00  0.00     0.029 A 
ATOM     68  C   UNL A   1      42.741  28.736  34.561  1.00  0.00     0.049 A 
ATOM     69  H   UNL A   1      41.387  29.497  33.131  1.00  0.00     0.167 HD
ATOM     70  C   UNL A   1      43.308  27.500  32.484  1.00  0.00     0.074 A 
ATOM     71  C   UNL A   1      44.066  26.517  31.735  1.00  0.00     0.031 C 
ATOM     72  C   UNL A   1      43.494  27.771  33.800  1.00  0.00     0.037 A 
BRANCH  59  73
ATOM     73  C   UNL A   1      39.720  32.126  36.063  1.00  0.00     0.064 A 
ATOM     74  C   UNL A   1      40.390  33.326  36.357  1.00  0.00     0.173 A 
ATOM     75  C   UNL A   1      38.622  31.784  36.869  1.00  0.00     0.173 A 
ATOM     76  F   UNL A   1      41.444  33.708  35.621  1.00  0.00    -0.203 F 
ATOM     77  C   UNL A   1      40.001  34.125  37.431  1.00  0.00     0.198 A 
ATOM     78  C   UNL A   1      38.214  32.604  37.920  1.00  0.00     0.198 A 
ATOM     79  F   UNL A   1      37.932  30.659  36.631  1.00  0.00    -0.203 F 
ATOM     80  F   UNL A   1      40.692  35.237  37.720  1.00  0.00    -0.200 F 
ATOM     81  C   UNL A   1      38.909  33.769  38.206  1.00  0.00     0.200 A 
ATOM     82  F   UNL A   1      37.145  32.268  38.655  1.00  0.00    -0.200 F 
ATOM     83  F   UNL A   1      38.530  34.545  39.231  1.00  0.00    -0.200 F 
ENDBRANCH  59  73
BRANCH  60  84
ATOM     84  C   UNL A   1      42.315  26.917  27.912  1.00  0.00     0.064 A 
ATOM     85  C   UNL A   1      43.258  27.421  27.005  1.00  0.00     0.173 A 
ATOM     86  C   UNL A   1      41.763  25.656  27.642  1.00  0.00     0.173 A 
ATOM     87  F   UNL A   1      43.809  28.627  27.211  1.00  0.00    -0.203 F 
ATOM     88  C   UNL A   1      43.613  26.706  25.863  1.00  0.00     0.198 A 
ATOM     89  C   UNL A   1      42.146  24.927  26.520  1.00  0.00     0.198 A 
ATOM     90  F   UNL A   1      40.867  25.121  28.485  1.00  0.00    -0.203 F 
ATOM     91  F   UNL A   1      44.478  27.236  24.986  1.00  0.00    -0.200 F 
ATOM     92  C   UNL A   1      43.062  25.457  25.624  1.00  0.00     0.200 A 
ATOM     93  F   UNL A   1      41.629  23.709  26.307  1.00  0.00    -0.200 F 
ATOM     94  F   UNL A   1      43.411  24.766  24.531  1.00  0.00    -0.200 F 
ENDBRANCH  60  84
BRANCH  72  95
ATOM     95  C   UNL A   1      44.545  26.967  34.515  1.00  0.00     0.064 A 
ATOM     96  C   UNL A   1      45.887  27.374  34.563  1.00  0.00     0.173 A 
ATOM     97  C   UNL A   1      44.203  25.766  35.157  1.00  0.00     0.173 A 
ATOM     98  F   UNL A   1      46.271  28.507  33.956  1.00  0.00    -0.203 F 
ATOM     99  C   UNL A   1      46.854  26.586  35.181  1.00  0.00     0.198 A 
ATOM    100  C   UNL A   1      45.166  25.001  35.811  1.00  0.00     0.198 A 
ATOM    101  F   UNL A   1      42.934  25.331  35.152  1.00  0.00    -0.203 F 
ATOM    102  F   UNL A   1      48.142  26.957  35.144  1.00  0.00    -0.200 F 
ATOM    103  C   UNL A   1      46.493  25.403  35.808  1.00  0.00     0.200 A 
ATOM    104  F   UNL A   1      44.811  23.868  36.432  1.00  0.00    -0.200 F 
ATOM    105  F   UNL A   1      47.425  24.644  36.401  1.00  0.00    -0.200 F 
ENDBRANCH  72  95
ENDBRANCH  46  47
ENDBRANCH  38  41
ENDBRANCH  36  37
ENDBRANCH  35  36
ENDBRANCH  34  35
ENDBRANCH  33  34
ENDBRANCH   1  33
TORSDOF 19
ENDMDL
MODEL 3
REMARK VINA RESULT:     -12.7      1.176      3.217
REMARK SMILES CC(=O)Oc1cc(CCC(=O)NCCCCCCNC(=O)c2ccc(-c3c4nc(c(-c5c(F)c(F)c(F)c(F)c5F)c5ccc([nH]5)c(-c5c(F)c(F)c(F)c(F)c5F)c5nc(c(-c6c(F)c(F)c(F)c(F)c6F)c6ccc3[nH]6)C=C5)C=C4)cc2)c(OC(C)=O)c2c1C(=O)c1ccccc1C2=O
REMARK SMILES IDX 14 1 13 2 12 3 10 4 11 5 9 7 8 8 7 9 5 10 6 11 91 12 90 13
REMARK SMILES IDX 92 14 85 15 100 16 93 17 94 18 99 19 101 20 95 21 98 22
REMARK SMILES IDX 96 23 97 24 4 25 2 26 1 27 3 28 86 29 87 30 88 31 89 32
REMARK SMILES IDX 15 33 16 34 17 35 18 36 19 37 20 38 21 40 22 41 23 42 84 43
REMARK SMILES IDX 24 44 83 45 25 46 26 47 27 48 77 49 28 50 82 51 76 52 78 53
REMARK SMILES IDX 29 54 81 55 75 56 74 57 30 59 62 60 42 61 61 62 43 63 46 64
REMARK SMILES IDX 60 65 79 66 44 67 45 68 59 70 80 71 47 72 31 73 32 74 40 75
REMARK SMILES IDX 33 76 34 77 38 78 41 79 35 80 36 81 39 82 37 83 63 84 64 85
REMARK SMILES IDX 72 86 65 87 66 88 70 89 73 90 67 91 68 92 71 93 69 94 48 95
REMARK SMILES IDX 49 96 57 97 50 98 51 99 55 100 58 101 52 102 53 103 56 104
REMARK SMILES IDX 54 105
REMARK H PARENT 12 6 19 39 78 58 46 69
REMARK Flexibility Score: inf
ROOT
ATOM      1  C   UNL A   1      32.585  20.803  23.472  1.00  0.00     0.021 C 
ENDROOT
BRANCH   1   2
ATOM      2  C   UNL A   1      32.065  22.074  22.806  1.00  0.00     0.116 C 
BRANCH   2   3
ATOM      3  N   UNL A   1      33.102  23.095  22.799  1.00  0.00    -0.356 N 
ATOM      4  C   UNL A   1      33.048  24.403  22.430  1.00  0.00     0.220 C 
ATOM      5  O   UNL A   1      34.111  25.027  22.368  1.00  0.00    -0.275 OA
ATOM      6  H   UNL A   1      33.984  22.789  23.112  1.00  0.00     0.163 HD
BRANCH   4   7
ATOM      7  C   UNL A   1      31.722  25.106  22.178  1.00  0.00     0.105 C 
BRANCH   7   8
ATOM      8  C   UNL A   1      30.822  25.422  23.380  1.00  0.00     0.049 C 
BRANCH   8   9
ATOM      9  C   UNL A   1      31.033  26.739  24.080  1.00  0.00    -0.000 A 
ATOM     10  C   UNL A   1      30.492  29.113  24.250  1.00  0.00     0.143 A 
ATOM     11  C   UNL A   1      30.316  27.859  23.642  1.00  0.00     0.055 A 
ATOM     12  C   UNL A   1      31.405  29.303  25.301  1.00  0.00     0.080 A 
ATOM     13  C   UNL A   1      32.179  28.213  25.716  1.00  0.00     0.081 A 
ATOM     14  C   UNL A   1      31.594  30.633  25.937  1.00  0.00     0.198 C 
ATOM     15  C   UNL A   1      31.922  26.939  25.146  1.00  0.00     0.146 A 
ATOM     16  C   UNL A   1      33.364  28.465  26.574  1.00  0.00     0.198 C 
ATOM     17  O   UNL A   1      30.843  31.572  25.700  1.00  0.00    -0.288 OA
ATOM     18  C   UNL A   1      32.766  30.858  26.805  1.00  0.00     0.034 A 
ATOM     19  C   UNL A   1      33.695  29.842  26.981  1.00  0.00     0.034 A 
ATOM     20  O   UNL A   1      34.127  27.572  26.909  1.00  0.00    -0.288 OA
ATOM     21  C   UNL A   1      33.030  32.135  27.320  1.00  0.00     0.013 A 
ATOM     22  C   UNL A   1      34.958  30.137  27.516  1.00  0.00     0.013 A 
ATOM     23  C   UNL A   1      34.282  32.425  27.869  1.00  0.00     0.001 A 
ATOM     24  C   UNL A   1      35.260  31.436  27.926  1.00  0.00     0.001 A 
BRANCH  10  25
ATOM     25  O   UNL A   1      29.689  30.148  23.754  1.00  0.00    -0.426 OA
BRANCH  25  26
ATOM     26  C   UNL A   1      29.242  29.919  22.456  1.00  0.00     0.308 C 
ATOM     27  C   UNL A   1      27.749  29.749  22.474  1.00  0.00     0.139 C 
ATOM     28  O   UNL A   1      29.946  29.802  21.460  1.00  0.00    -0.252 OA
ENDBRANCH  25  26
ENDBRANCH  10  25
BRANCH  15  29
ATOM     29  O   UNL A   1      32.725  25.761  25.624  1.00  0.00    -0.426 OA
BRANCH  29  30
ATOM     30  C   UNL A   1      33.439  24.571  26.018  1.00  0.00     0.308 C 
ATOM     31  C   UNL A   1      32.586  23.658  26.836  1.00  0.00     0.139 C 
ATOM     32  O   UNL A   1      34.617  24.371  25.757  1.00  0.00    -0.252 OA
ENDBRANCH  29  30
ENDBRANCH  15  29
ENDBRANCH   8   9
ENDBRANCH   7   8
ENDBRANCH   4   7
ENDBRANCH   2   3
ENDBRANCH   1   2
BRANCH   1  33
ATOM     33  C   UNL A   1      33.229  20.911  24.847  1.00  0.00     0.002 C 
BRANCH  33  34
ATOM     34  C   UNL A   1      34.690  20.475  24.994  1.00  0.00     0.002 C 
BRANCH  34  35
ATOM     35  C   UNL A   1      35.807  21.453  24.601  1.00  0.00     0.021 C 
BRANCH  35  36
ATOM     36  C   UNL A   1      36.839  21.823  25.667  1.00  0.00     0.116 C 
BRANCH  36  37
ATOM     37  N   UNL A   1      37.944  20.882  25.784  1.00  0.00    -0.352 N 
ATOM     38  C   UNL A   1      39.259  21.053  26.144  1.00  0.00     0.251 C 
ATOM     39  H   UNL A   1      37.704  19.952  25.565  1.00  0.00     0.163 HD
ATOM     40  O   UNL A   1      40.007  20.075  26.126  1.00  0.00    -0.269 OA
BRANCH  38  41
ATOM     41  C   UNL A   1      39.823  22.368  26.547  1.00  0.00     0.039 A 
ATOM     42  C   UNL A   1      40.874  22.391  27.469  1.00  0.00     0.014 A 
ATOM     43  C   UNL A   1      39.295  23.579  26.100  1.00  0.00     0.014 A 
ATOM     44  C   UNL A   1      41.411  23.612  27.897  1.00  0.00     0.010 A 
ATOM     45  C   UNL A   1      39.844  24.800  26.500  1.00  0.00     0.010 A 
ATOM     46  C   UNL A   1      40.917  24.829  27.394  1.00  0.00    -0.014 A 
BRANCH  46  47
ATOM     47  C   UNL A   1      41.619  26.106  27.691  1.00  0.00     0.031 A 
ATOM     48  C   UNL A   1      42.993  26.410  27.165  1.00  0.00     0.074 A 
ATOM     49  C   UNL A   1      41.000  26.983  28.506  1.00  0.00     0.049 A 
ATOM     50  N   UNL A   1      43.685  27.521  27.259  1.00  0.00    -0.248 NA
ATOM     51  C   UNL A   1      43.700  25.324  26.473  1.00  0.00     0.031 C 
ATOM     52  C   UNL A   1      39.717  26.742  29.169  1.00  0.00     0.029 A 
ATOM     53  N   UNL A   1      41.350  28.246  28.907  1.00  0.00    -0.354 N 
ATOM     54  C   UNL A   1      44.898  27.272  26.630  1.00  0.00     0.074 A 
ATOM     55  C   UNL A   1      44.876  25.884  26.217  1.00  0.00     0.031 C 
ATOM     56  C   UNL A   1      39.358  27.844  29.844  1.00  0.00     0.029 A 
ATOM     57  C   UNL A   1      40.397  28.854  29.688  1.00  0.00     0.049 A 
ATOM     58  H   UNL A   1      42.201  28.676  28.659  1.00  0.00     0.167 HD
ATOM     59  C   UNL A   1      45.923  28.132  26.400  1.00  0.00     0.037 A 
ATOM     60  C   UNL A   1      40.355  30.096  30.205  1.00  0.00     0.037 A 
ATOM     61  C   UNL A   1      45.930  29.509  26.833  1.00  0.00     0.049 A 
ATOM     62  C   UNL A   1      41.485  31.040  29.905  1.00  0.00     0.074 A 
ATOM     63  C   UNL A   1      46.882  30.488  26.598  1.00  0.00     0.029 A 
ATOM     64  N   UNL A   1      44.940  30.100  27.608  1.00  0.00    -0.354 N 
ATOM     65  N   UNL A   1      42.574  30.833  29.203  1.00  0.00    -0.248 NA
ATOM     66  C   UNL A   1      41.373  32.395  30.455  1.00  0.00     0.031 C 
ATOM     67  C   UNL A   1      46.500  31.647  27.282  1.00  0.00     0.029 A 
ATOM     68  C   UNL A   1      45.272  31.419  27.883  1.00  0.00     0.049 A 
ATOM     69  H   UNL A   1      44.122  29.649  27.917  1.00  0.00     0.167 HD
ATOM     70  C   UNL A   1      43.263  32.037  29.204  1.00  0.00     0.074 A 
ATOM     71  C   UNL A   1      42.451  32.977  29.951  1.00  0.00     0.031 C 
ATOM     72  C   UNL A   1      44.459  32.339  28.638  1.00  0.00     0.037 A 
BRANCH  59  73
ATOM     73  C   UNL A   1      47.119  27.620  25.640  1.00  0.00     0.064 A 
ATOM     74  C   UNL A   1      47.196  27.712  24.240  1.00  0.00     0.173 A 
ATOM     75  C   UNL A   1      48.229  27.087  26.315  1.00  0.00     0.173 A 
ATOM     76  F   UNL A   1      46.169  28.214  23.539  1.00  0.00    -0.203 F 
ATOM     77  C   UNL A   1      48.319  27.260  23.548  1.00  0.00     0.198 A 
ATOM     78  C   UNL A   1      49.364  26.670  25.622  1.00  0.00     0.198 A 
ATOM     79  F   UNL A   1      48.223  26.985  27.653  1.00  0.00    -0.203 F 
ATOM     80  F   UNL A   1      48.343  27.313  22.209  1.00  0.00    -0.200 F 
ATOM     81  C   UNL A   1      49.405  26.747  24.239  1.00  0.00     0.200 A 
ATOM     82  F   UNL A   1      50.421  26.194  26.294  1.00  0.00    -0.200 F 
ATOM     83  F   UNL A   1      50.487  26.324  23.572  1.00  0.00    -0.200 F 
ENDBRANCH  59  73
BRANCH  60  84
ATOM     84  C   UNL A   1      39.177  30.525  31.005  1.00  0.00     0.064 A 
ATOM     85  C   UNL A   1      39.051  30.169  32.356  1.00  0.00     0.173 A 
ATOM     86  C   UNL A   1      38.161  31.312  30.443  1.00  0.00     0.173 A 
ATOM     87  F   UNL A   1      39.990  29.409  32.940  1.00  0.00    -0.203 F 
ATOM     88  C   UNL A   1      37.942  30.560  33.104  1.00  0.00     0.198 A 
ATOM     89  C   UNL A   1      37.072  31.733  31.201  1.00  0.00     0.198 A 
ATOM     90  F   UNL A   1      38.239  31.692  29.159  1.00  0.00    -0.203 F 
ATOM     91  F   UNL A   1      37.822  30.161  34.378  1.00  0.00    -0.200 F 
ATOM     92  C   UNL A   1      36.957  31.347  32.528  1.00  0.00     0.200 A 
ATOM     93  F   UNL A   1      36.135  32.513  30.647  1.00  0.00    -0.200 F 
ATOM     94  F   UNL A   1      35.895  31.731  33.250  1.00  0.00    -0.200 F 
ENDBRANCH  60  84
BRANCH  72  95
ATOM     95  C   UNL A   1      44.941  33.756  28.787  1.00  0.00     0.064 A 
ATOM     96  C   UNL A   1      44.622  34.751  27.851  1.00  0.00     0.173 A 
ATOM     97  C   UNL A   1      45.740  34.120  29.883  1.00  0.00     0.173 A 
ATOM     98  F   UNL A   1      43.872  34.455  26.778  1.00  0.00    -0.203 F 
ATOM     99  C   UNL A   1      45.126  36.043  27.977  1.00  0.00     0.198 A 
ATOM    100  C   UNL A   1      46.208  35.424  30.028  1.00  0.00     0.198 A 
ATOM    101  F   UNL A   1      46.069  33.213  30.814  1.00  0.00    -0.203 F 
ATOM    102  F   UNL A   1      44.873  36.954  27.027  1.00  0.00    -0.200 F 
ATOM    103  C   UNL A   1      45.914  36.379  29.067  1.00  0.00     0.200 A 
ATOM    104  F   UNL A   1      46.953  35.752  31.093  1.00  0.00    -0.200 F 
ATOM    105  F   UNL A   1      46.400  37.623  29.187  1.00  0.00    -0.200 F 
ENDBRANCH  72  95
ENDBRANCH  46  47
ENDBRANCH  38  41
ENDBRANCH  36  37
ENDBRANCH  35  36
ENDBRANCH  34  35
ENDBRANCH  33  34
ENDBRANCH   1  33
TORSDOF 19
ENDMDL
