MODEL 1
REMARK VINA RESULT:     -12.2      0.000      0.000
REMARK SMILES C#Cc1cccc(N(C)S(=O)(=O)c2cc(F)c(F)c(C(=O)NCCCCCCNC(=O)c3ccc(-c4c5nc(c(-c6c(F)c(F)c(F)c(F)c6F)c6ccc([nH]6)c(-c6c(F)c(F)c(F)c(F)c6F)c6nc(c(-c7c(F)c(F)c(F)c(F)c7F)c7ccc4[nH]7)C=C6)C=C5)cc3)c2)c1
REMARK SMILES IDX 24 1 23 2 22 3 20 4 21 5 19 7 13 8 14 9 95 10 15 11 16 12
REMARK SMILES IDX 17 13 18 14 10 15 11 16 12 17 8 18 9 19 7 20 3 21 4 22 96 23
REMARK SMILES IDX 5 24 6 25 2 26 1 27 25 28 26 29 27 30 28 31 29 32 30 33
REMARK SMILES IDX 31 35 32 36 33 37 94 38 34 39 93 40 35 41 36 42 37 43 87 44
REMARK SMILES IDX 38 45 92 46 86 47 88 48 39 49 91 50 85 51 84 52 40 54 72 55
REMARK SMILES IDX 52 56 71 57 53 58 56 59 70 60 89 61 54 62 55 63 69 65 90 66
REMARK SMILES IDX 57 67 41 68 42 69 50 70 43 71 44 72 48 73 51 74 45 75 46 76
REMARK SMILES IDX 49 77 47 78 73 79 74 80 82 81 75 82 76 83 80 84 83 85 77 86
REMARK SMILES IDX 78 87 81 88 79 89 58 90 59 91 67 92 60 93 61 94 65 95 68 96
REMARK SMILES IDX 62 97 63 98 66 99 64 100
REMARK H PARENT 22 6 29 34 88 53 56 64
REMARK Flexibility Score: inf
ROOT
ATOM      1  C   UNL A   1      37.404  22.779  25.207  1.00  0.00     0.021 C 
ENDROOT
BRANCH   1   2
ATOM      2  C   UNL A   1      36.334  23.399  26.094  1.00  0.00     0.116 C 
BRANCH   2   3
ATOM      3  N   UNL A   1      35.511  22.541  26.897  1.00  0.00    -0.352 N 
ATOM      4  C   UNL A   1      34.232  22.071  26.637  1.00  0.00     0.254 C 
ATOM      5  O   UNL A   1      33.752  21.277  27.442  1.00  0.00    -0.269 OA
ATOM      6  H   UNL A   1      35.907  22.245  27.749  1.00  0.00     0.163 HD
BRANCH   4   7
ATOM      7  C   UNL A   1      33.410  22.541  25.465  1.00  0.00     0.079 A 
ATOM      8  C   UNL A   1      31.884  24.118  24.375  1.00  0.00     0.091 A 
ATOM      9  C   UNL A   1      31.586  23.145  23.410  1.00  0.00     0.064 A 
ATOM     10  C   UNL A   1      32.881  23.849  25.326  1.00  0.00     0.039 A 
ATOM     11  C   UNL A   1      32.238  21.917  23.440  1.00  0.00     0.161 A 
ATOM     12  F   UNL A   1      31.971  21.014  22.486  1.00  0.00    -0.204 F 
ATOM     13  C   UNL A   1      33.110  21.596  24.475  1.00  0.00     0.171 A 
ATOM     14  F   UNL A   1      33.618  20.355  24.510  1.00  0.00    -0.203 F 
BRANCH   8  15
ATOM     15  S   UNL A   1      30.794  25.565  24.383  1.00  0.00     0.264 S 
ATOM     16  O   UNL A   1      30.506  25.782  25.789  1.00  0.00    -0.201 OA
ATOM     17  O   UNL A   1      29.739  25.258  23.442  1.00  0.00    -0.201 OA
BRANCH  15  18
ATOM     18  N   UNL A   1      31.613  26.981  23.831  1.00  0.00    -0.269 N 
ATOM     19  C   UNL A   1      32.456  26.822  22.640  1.00  0.00     0.164 C 
BRANCH  18  20
ATOM     20  C   UNL A   1      32.213  27.883  24.838  1.00  0.00     0.053 A 
ATOM     21  C   UNL A   1      32.328  29.921  26.173  1.00  0.00     0.026 A 
ATOM     22  C   UNL A   1      33.484  29.470  26.813  1.00  0.00     0.017 A 
ATOM     23  C   UNL A   1      31.693  29.132  25.197  1.00  0.00     0.044 A 
ATOM     24  C   UNL A   1      34.028  28.244  26.462  1.00  0.00     0.003 A 
ATOM     25  C   UNL A   1      33.415  27.480  25.464  1.00  0.00     0.027 A 
BRANCH  21  26
ATOM     26  C   UNL A   1      31.809  31.209  26.513  1.00  0.00    -0.070 C 
ATOM     27  C   UNL A   1      31.395  32.308  26.777  1.00  0.00     0.010 C 
ENDBRANCH  21  26
ENDBRANCH  18  20
ENDBRANCH  15  18
ENDBRANCH   8  15
ENDBRANCH   4   7
ENDBRANCH   2   3
ENDBRANCH   1   2
BRANCH   1  28
ATOM     28  C   UNL A   1      36.962  21.657  24.279  1.00  0.00     0.002 C 
BRANCH  28  29
ATOM     29  C   UNL A   1      36.863  20.262  24.904  1.00  0.00     0.002 C 
BRANCH  29  30
ATOM     30  C   UNL A   1      38.139  19.413  24.889  1.00  0.00     0.021 C 
BRANCH  30  31
ATOM     31  C   UNL A   1      39.260  19.891  25.809  1.00  0.00     0.116 C 
BRANCH  31  32
ATOM     32  N   UNL A   1      40.369  18.952  25.865  1.00  0.00    -0.352 N 
ATOM     33  C   UNL A   1      41.713  19.180  26.017  1.00  0.00     0.251 C 
ATOM     34  H   UNL A   1      40.116  18.005  25.780  1.00  0.00     0.163 HD
ATOM     35  O   UNL A   1      42.515  18.270  25.827  1.00  0.00    -0.269 OA
BRANCH  33  36
ATOM     36  C   UNL A   1      42.206  20.522  26.396  1.00  0.00     0.039 A 
ATOM     37  C   UNL A   1      42.601  21.406  25.389  1.00  0.00     0.014 A 
ATOM     38  C   UNL A   1      42.305  20.902  27.738  1.00  0.00     0.014 A 
ATOM     39  C   UNL A   1      43.037  22.689  25.725  1.00  0.00     0.010 A 
ATOM     40  C   UNL A   1      42.660  22.207  28.066  1.00  0.00     0.010 A 
ATOM     41  C   UNL A   1      43.032  23.114  27.063  1.00  0.00    -0.014 A 
BRANCH  41  42
ATOM     42  C   UNL A   1      43.405  24.507  27.428  1.00  0.00     0.031 A 
ATOM     43  C   UNL A   1      44.851  24.917  27.486  1.00  0.00     0.074 A 
ATOM     44  C   UNL A   1      42.438  25.388  27.752  1.00  0.00     0.049 A 
ATOM     45  N   UNL A   1      45.369  26.066  27.838  1.00  0.00    -0.248 NA
ATOM     46  C   UNL A   1      45.851  23.899  27.120  1.00  0.00     0.031 C 
ATOM     47  C   UNL A   1      41.003  25.099  27.761  1.00  0.00     0.029 A 
ATOM     48  N   UNL A   1      42.512  26.704  28.136  1.00  0.00    -0.354 N 
ATOM     49  C   UNL A   1      46.745  25.909  27.737  1.00  0.00     0.074 A 
ATOM     50  C   UNL A   1      46.989  24.538  27.352  1.00  0.00     0.031 C 
ATOM     51  C   UNL A   1      40.331  26.212  28.094  1.00  0.00     0.029 A 
ATOM     52  C   UNL A   1      41.286  27.280  28.375  1.00  0.00     0.049 A 
ATOM     53  H   UNL A   1      43.362  27.191  28.232  1.00  0.00     0.167 HD
ATOM     54  C   UNL A   1      47.714  26.836  27.920  1.00  0.00     0.037 A 
ATOM     55  C   UNL A   1      40.966  28.524  28.784  1.00  0.00     0.037 A 
ATOM     56  C   UNL A   1      47.462  28.207  28.282  1.00  0.00     0.049 A 
ATOM     57  C   UNL A   1      42.070  29.520  29.024  1.00  0.00     0.074 A 
ATOM     58  C   UNL A   1      48.377  29.231  28.450  1.00  0.00     0.029 A 
ATOM     59  N   UNL A   1      46.208  28.746  28.529  1.00  0.00    -0.354 N 
ATOM     60  N   UNL A   1      43.363  29.374  28.869  1.00  0.00    -0.248 NA
ATOM     61  C   UNL A   1      41.671  30.856  29.493  1.00  0.00     0.031 C 
ATOM     62  C   UNL A   1      47.686  30.371  28.865  1.00  0.00     0.029 A 
ATOM     63  C   UNL A   1      46.331  30.081  28.882  1.00  0.00     0.049 A 
ATOM     64  H   UNL A   1      45.358  28.255  28.465  1.00  0.00     0.167 HD
ATOM     65  C   UNL A   1      43.928  30.602  29.188  1.00  0.00     0.074 A 
ATOM     66  C   UNL A   1      42.836  31.488  29.528  1.00  0.00     0.031 C 
ATOM     67  C   UNL A   1      45.235  30.960  29.202  1.00  0.00     0.037 A 
BRANCH  54  68
ATOM     68  C   UNL A   1      49.143  26.425  27.714  1.00  0.00     0.064 A 
ATOM     69  C   UNL A   1      49.991  26.219  28.814  1.00  0.00     0.173 A 
ATOM     70  C   UNL A   1      49.705  26.350  26.431  1.00  0.00     0.173 A 
ATOM     71  F   UNL A   1      49.506  26.284  30.063  1.00  0.00    -0.203 F 
ATOM     72  C   UNL A   1      51.352  25.985  28.636  1.00  0.00     0.198 A 
ATOM     73  C   UNL A   1      51.061  26.083  26.257  1.00  0.00     0.198 A 
ATOM     74  F   UNL A   1      48.938  26.528  25.345  1.00  0.00    -0.203 F 
ATOM     75  F   UNL A   1      52.150  25.845  29.704  1.00  0.00    -0.200 F 
ATOM     76  C   UNL A   1      51.886  25.917  27.359  1.00  0.00     0.200 A 
ATOM     77  F   UNL A   1      51.571  25.994  25.020  1.00  0.00    -0.200 F 
ATOM     78  F   UNL A   1      53.197  25.694  27.190  1.00  0.00    -0.200 F 
ENDBRANCH  54  68
BRANCH  55  79
ATOM     79  C   UNL A   1      39.538  28.901  28.968  1.00  0.00     0.064 A 
ATOM     80  C   UNL A   1      38.756  29.363  27.898  1.00  0.00     0.173 A 
ATOM     81  C   UNL A   1      38.926  28.812  30.226  1.00  0.00     0.173 A 
ATOM     82  F   UNL A   1      39.291  29.472  26.673  1.00  0.00    -0.203 F 
ATOM     83  C   UNL A   1      37.428  29.740  28.083  1.00  0.00     0.198 A 
ATOM     84  C   UNL A   1      37.586  29.155  30.404  1.00  0.00     0.198 A 
ATOM     85  F   UNL A   1      39.622  28.360  31.279  1.00  0.00    -0.203 F 
ATOM     86  F   UNL A   1      36.719  30.217  27.051  1.00  0.00    -0.200 F 
ATOM     87  C   UNL A   1      36.841  29.627  29.334  1.00  0.00     0.200 A 
ATOM     88  F   UNL A   1      37.015  29.015  31.608  1.00  0.00    -0.200 F 
ATOM     89  F   UNL A   1      35.557  29.970  29.507  1.00  0.00    -0.200 F 
ENDBRANCH  55  79
BRANCH  67  90
ATOM     90  C   UNL A   1      45.575  32.378  29.565  1.00  0.00     0.064 A 
ATOM     91  C   UNL A   1      45.840  32.724  30.900  1.00  0.00     0.173 A 
ATOM     92  C   UNL A   1      45.539  33.409  28.617  1.00  0.00     0.173 A 
ATOM     93  F   UNL A   1      45.875  31.777  31.850  1.00  0.00    -0.203 F 
ATOM     94  C   UNL A   1      46.033  34.050  31.273  1.00  0.00     0.198 A 
ATOM     95  C   UNL A   1      45.771  34.732  28.987  1.00  0.00     0.198 A 
ATOM     96  F   UNL A   1      45.299  33.132  27.327  1.00  0.00    -0.203 F 
ATOM     97  F   UNL A   1      46.233  34.361  32.562  1.00  0.00    -0.200 F 
ATOM     98  C   UNL A   1      46.003  35.053  30.316  1.00  0.00     0.200 A 
ATOM     99  F   UNL A   1      45.767  35.695  28.057  1.00  0.00    -0.200 F 
ATOM    100  F   UNL A   1      46.197  36.329  30.675  1.00  0.00    -0.200 F 
ENDBRANCH  67  90
ENDBRANCH  41  42
ENDBRANCH  33  36
ENDBRANCH  31  32
ENDBRANCH  30  31
ENDBRANCH  29  30
ENDBRANCH  28  29
ENDBRANCH   1  28
TORSDOF 17
ENDMDL
MODEL 2
REMARK VINA RESULT:     -12.1      0.245      7.129
REMARK SMILES C#Cc1cccc(N(C)S(=O)(=O)c2cc(F)c(F)c(C(=O)NCCCCCCNC(=O)c3ccc(-c4c5nc(c(-c6c(F)c(F)c(F)c(F)c6F)c6ccc([nH]6)c(-c6c(F)c(F)c(F)c(F)c6F)c6nc(c(-c7c(F)c(F)c(F)c(F)c7F)c7ccc4[nH]7)C=C6)C=C5)cc3)c2)c1
REMARK SMILES IDX 24 1 23 2 22 3 20 4 21 5 19 7 13 8 14 9 95 10 15 11 16 12
REMARK SMILES IDX 17 13 18 14 10 15 11 16 12 17 8 18 9 19 7 20 3 21 4 22 96 23
REMARK SMILES IDX 5 24 6 25 2 26 1 27 25 28 26 29 27 30 28 31 29 32 30 33
REMARK SMILES IDX 31 35 32 36 33 37 94 38 34 39 93 40 35 41 36 42 37 43 87 44
REMARK SMILES IDX 38 45 92 46 86 47 88 48 39 49 91 50 85 51 84 52 40 54 72 55
REMARK SMILES IDX 52 56 71 57 53 58 56 59 70 60 89 61 54 62 55 63 69 65 90 66
REMARK SMILES IDX 57 67 41 68 42 69 50 70 43 71 44 72 48 73 51 74 45 75 46 76
REMARK SMILES IDX 49 77 47 78 73 79 74 80 82 81 75 82 76 83 80 84 83 85 77 86
REMARK SMILES IDX 78 87 81 88 79 89 58 90 59 91 67 92 60 93 61 94 65 95 68 96
REMARK SMILES IDX 62 97 63 98 66 99 64 100
REMARK H PARENT 22 6 29 34 88 53 56 64
REMARK Flexibility Score: inf
ROOT
ATOM      1  C   UNL A   1      37.419  22.816  25.215  1.00  0.00     0.021 C 
ENDROOT
BRANCH   1   2
ATOM      2  C   UNL A   1      36.376  23.403  26.155  1.00  0.00     0.116 C 
BRANCH   2   3
ATOM      3  N   UNL A   1      35.540  22.514  26.911  1.00  0.00    -0.352 N 
ATOM      4  C   UNL A   1      34.281  22.026  26.595  1.00  0.00     0.254 C 
ATOM      5  O   UNL A   1      33.787  21.208  27.367  1.00  0.00    -0.269 OA
ATOM      6  H   UNL A   1      35.911  22.208  27.771  1.00  0.00     0.163 HD
BRANCH   4   7
ATOM      7  C   UNL A   1      33.494  22.504  25.403  1.00  0.00     0.079 A 
ATOM      8  C   UNL A   1      32.087  24.141  24.243  1.00  0.00     0.091 A 
ATOM      9  C   UNL A   1      31.715  23.152  23.322  1.00  0.00     0.064 A 
ATOM     10  C   UNL A   1      33.064  23.841  25.206  1.00  0.00     0.039 A 
ATOM     11  C   UNL A   1      32.272  21.881  23.407  1.00  0.00     0.161 A 
ATOM     12  F   UNL A   1      31.936  20.959  22.493  1.00  0.00    -0.204 F 
ATOM     13  C   UNL A   1      33.121  21.541  24.456  1.00  0.00     0.171 A 
ATOM     14  F   UNL A   1      33.535  20.268  24.546  1.00  0.00    -0.203 F 
BRANCH   8  15
ATOM     15  S   UNL A   1      31.108  25.665  24.186  1.00  0.00     0.264 S 
ATOM     16  O   UNL A   1      30.698  25.872  25.563  1.00  0.00    -0.201 OA
ATOM     17  O   UNL A   1      30.132  25.457  23.139  1.00  0.00    -0.201 OA
BRANCH  15  18
ATOM     18  N   UNL A   1      32.077  27.028  23.757  1.00  0.00    -0.269 N 
ATOM     19  C   UNL A   1      33.120  26.792  22.752  1.00  0.00     0.164 C 
BRANCH  18  20
ATOM     20  C   UNL A   1      32.516  27.943  24.832  1.00  0.00     0.053 A 
ATOM     21  C   UNL A   1      32.383  29.968  26.186  1.00  0.00     0.026 A 
ATOM     22  C   UNL A   1      33.481  29.563  26.949  1.00  0.00     0.017 A 
ATOM     23  C   UNL A   1      31.901  29.162  25.139  1.00  0.00     0.044 A 
ATOM     24  C   UNL A   1      34.118  28.368  26.652  1.00  0.00     0.003 A 
ATOM     25  C   UNL A   1      33.658  27.589  25.586  1.00  0.00     0.027 A 
BRANCH  21  26
ATOM     26  C   UNL A   1      31.768  31.226  26.474  1.00  0.00    -0.070 C 
ATOM     27  C   UNL A   1      31.254  32.293  26.684  1.00  0.00     0.010 C 
ENDBRANCH  21  26
ENDBRANCH  18  20
ENDBRANCH  15  18
ENDBRANCH   8  15
ENDBRANCH   4   7
ENDBRANCH   2   3
ENDBRANCH   1   2
BRANCH   1  28
ATOM     28  C   UNL A   1      36.956  21.707  24.281  1.00  0.00     0.002 C 
BRANCH  28  29
ATOM     29  C   UNL A   1      36.901  20.298  24.881  1.00  0.00     0.002 C 
BRANCH  29  30
ATOM     30  C   UNL A   1      38.202  19.488  24.847  1.00  0.00     0.021 C 
BRANCH  30  31
ATOM     31  C   UNL A   1      39.304  19.970  25.786  1.00  0.00     0.116 C 
BRANCH  31  32
ATOM     32  N   UNL A   1      40.382  19.004  25.919  1.00  0.00    -0.352 N 
ATOM     33  C   UNL A   1      41.719  19.198  26.157  1.00  0.00     0.251 C 
ATOM     34  H   UNL A   1      40.110  18.063  25.821  1.00  0.00     0.163 HD
ATOM     35  O   UNL A   1      42.507  18.266  26.023  1.00  0.00    -0.269 OA
BRANCH  33  36
ATOM     36  C   UNL A   1      42.222  20.528  26.561  1.00  0.00     0.039 A 
ATOM     37  C   UNL A   1      42.733  21.384  25.580  1.00  0.00     0.014 A 
ATOM     38  C   UNL A   1      42.216  20.926  27.900  1.00  0.00     0.014 A 
ATOM     39  C   UNL A   1      43.180  22.657  25.937  1.00  0.00     0.010 A 
ATOM     40  C   UNL A   1      42.584  22.224  28.242  1.00  0.00     0.010 A 
ATOM     41  C   UNL A   1      43.073  23.103  27.264  1.00  0.00    -0.014 A 
BRANCH  41  42
ATOM     42  C   UNL A   1      43.458  24.488  27.643  1.00  0.00     0.031 A 
ATOM     43  C   UNL A   1      42.402  25.516  27.947  1.00  0.00     0.074 A 
ATOM     44  C   UNL A   1      44.762  24.830  27.668  1.00  0.00     0.049 A 
ATOM     45  N   UNL A   1      42.544  26.784  28.239  1.00  0.00    -0.248 NA
ATOM     46  C   UNL A   1      40.999  25.068  27.899  1.00  0.00     0.031 C 
ATOM     47  C   UNL A   1      45.875  23.931  27.363  1.00  0.00     0.029 A 
ATOM     48  N   UNL A   1      45.373  26.024  27.960  1.00  0.00    -0.354 N 
ATOM     49  C   UNL A   1      41.259  27.280  28.406  1.00  0.00     0.074 A 
ATOM     50  C   UNL A   1      40.344  26.198  28.124  1.00  0.00     0.031 C 
ATOM     51  C   UNL A   1      47.032  24.590  27.522  1.00  0.00     0.029 A 
ATOM     52  C   UNL A   1      46.746  25.975  27.886  1.00  0.00     0.049 A 
ATOM     53  H   UNL A   1      44.877  26.840  28.201  1.00  0.00     0.167 HD
ATOM     54  C   UNL A   1      40.879  28.521  28.792  1.00  0.00     0.037 A 
ATOM     55  C   UNL A   1      47.669  26.937  28.079  1.00  0.00     0.037 A 
ATOM     56  C   UNL A   1      41.797  29.590  29.094  1.00  0.00     0.049 A 
ATOM     57  C   UNL A   1      47.214  28.321  28.462  1.00  0.00     0.074 A 
ATOM     58  C   UNL A   1      41.508  30.870  29.532  1.00  0.00     0.029 A 
ATOM     59  N   UNL A   1      43.178  29.503  28.992  1.00  0.00    -0.354 N 
ATOM     60  N   UNL A   1      45.998  28.761  28.673  1.00  0.00    -0.248 NA
ATOM     61  C   UNL A   1      48.258  29.341  28.637  1.00  0.00     0.031 C 
ATOM     62  C   UNL A   1      42.706  31.579  29.629  1.00  0.00     0.029 A 
ATOM     63  C   UNL A   1      43.751  30.720  29.326  1.00  0.00     0.049 A 
ATOM     64  H   UNL A   1      43.676  28.699  28.721  1.00  0.00     0.167 HD
ATOM     65  C   UNL A   1      46.132  30.095  29.036  1.00  0.00     0.074 A 
ATOM     66  C   UNL A   1      47.548  30.388  29.035  1.00  0.00     0.031 C 
ATOM     67  C   UNL A   1      45.165  30.996  29.338  1.00  0.00     0.037 A 
BRANCH  54  68
ATOM     68  C   UNL A   1      39.412  28.806  28.938  1.00  0.00     0.064 A 
ATOM     69  C   UNL A   1      38.682  29.350  27.869  1.00  0.00     0.173 A 
ATOM     70  C   UNL A   1      38.756  28.653  30.169  1.00  0.00     0.173 A 
ATOM     71  F   UNL A   1      39.262  29.521  26.672  1.00  0.00    -0.203 F 
ATOM     72  C   UNL A   1      37.361  29.757  28.036  1.00  0.00     0.198 A 
ATOM     73  C   UNL A   1      37.425  29.032  30.323  1.00  0.00     0.198 A 
ATOM     74  F   UNL A   1      39.404  28.129  31.220  1.00  0.00    -0.203 F 
ATOM     75  F   UNL A   1      36.702  30.322  27.015  1.00  0.00    -0.200 F 
ATOM     76  C   UNL A   1      36.733  29.598  29.262  1.00  0.00     0.200 A 
ATOM     77  F   UNL A   1      36.812  28.855  31.502  1.00  0.00    -0.200 F 
ATOM     78  F   UNL A   1      35.463  29.993  29.422  1.00  0.00    -0.200 F 
ENDBRANCH  54  68
BRANCH  55  79
ATOM     79  C   UNL A   1      49.117  26.617  27.937  1.00  0.00     0.064 A 
ATOM     80  C   UNL A   1      49.902  26.258  29.043  1.00  0.00     0.173 A 
ATOM     81  C   UNL A   1      49.746  26.672  26.685  1.00  0.00     0.173 A 
ATOM     82  F   UNL A   1      49.352  26.195  30.265  1.00  0.00    -0.203 F 
ATOM     83  C   UNL A   1      51.261  25.987  28.906  1.00  0.00     0.198 A 
ATOM     84  C   UNL A   1      51.099  26.364  26.543  1.00  0.00     0.198 A 
ATOM     85  F   UNL A   1      49.038  26.992  25.592  1.00  0.00    -0.203 F 
ATOM     86  F   UNL A   1      51.994  25.687  29.986  1.00  0.00    -0.200 F 
ATOM     87  C   UNL A   1      51.857  26.031  27.654  1.00  0.00     0.200 A 
ATOM     88  F   UNL A   1      51.662  26.379  25.328  1.00  0.00    -0.200 F 
ATOM     89  F   UNL A   1      53.160  25.749  27.520  1.00  0.00    -0.200 F 
ENDBRANCH  55  79
BRANCH  67  90
ATOM     90  C   UNL A   1      45.591  32.384  29.727  1.00  0.00     0.064 A 
ATOM     91  C   UNL A   1      45.804  32.709  31.077  1.00  0.00     0.173 A 
ATOM     92  C   UNL A   1      45.690  33.415  28.782  1.00  0.00     0.173 A 
ATOM     93  F   UNL A   1      45.710  31.763  32.023  1.00  0.00    -0.203 F 
ATOM     94  C   UNL A   1      46.075  34.017  31.466  1.00  0.00     0.198 A 
ATOM     95  C   UNL A   1      46.000  34.716  29.171  1.00  0.00     0.198 A 
ATOM     96  F   UNL A   1      45.505  33.156  27.479  1.00  0.00    -0.203 F 
ATOM     97  F   UNL A   1      46.223  34.311  32.765  1.00  0.00    -0.200 F 
ATOM     98  C   UNL A   1      46.178  35.019  30.512  1.00  0.00     0.200 A 
ATOM     99  F   UNL A   1      46.125  35.676  28.246  1.00  0.00    -0.200 F 
ATOM    100  F   UNL A   1      46.447  36.276  30.888  1.00  0.00    -0.200 F 
ENDBRANCH  67  90
ENDBRANCH  41  42
ENDBRANCH  33  36
ENDBRANCH  31  32
ENDBRANCH  30  31
ENDBRANCH  29  30
ENDBRANCH  28  29
ENDBRANCH   1  28
TORSDOF 17
ENDMDL
MODEL 3
REMARK VINA RESULT:     -12.0      0.892      7.146
REMARK SMILES C#Cc1cccc(N(C)S(=O)(=O)c2cc(F)c(F)c(C(=O)NCCCCCCNC(=O)c3ccc(-c4c5nc(c(-c6c(F)c(F)c(F)c(F)c6F)c6ccc([nH]6)c(-c6c(F)c(F)c(F)c(F)c6F)c6nc(c(-c7c(F)c(F)c(F)c(F)c7F)c7ccc4[nH]7)C=C6)C=C5)cc3)c2)c1
REMARK SMILES IDX 24 1 23 2 22 3 20 4 21 5 19 7 13 8 14 9 95 10 15 11 16 12
REMARK SMILES IDX 17 13 18 14 10 15 11 16 12 17 8 18 9 19 7 20 3 21 4 22 96 23
REMARK SMILES IDX 5 24 6 25 2 26 1 27 25 28 26 29 27 30 28 31 29 32 30 33
REMARK SMILES IDX 31 35 32 36 33 37 94 38 34 39 93 40 35 41 36 42 37 43 87 44
REMARK SMILES IDX 38 45 92 46 86 47 88 48 39 49 91 50 85 51 84 52 40 54 72 55
REMARK SMILES IDX 52 56 71 57 53 58 56 59 70 60 89 61 54 62 55 63 69 65 90 66
REMARK SMILES IDX 57 67 41 68 42 69 50 70 43 71 44 72 48 73 51 74 45 75 46 76
REMARK SMILES IDX 49 77 47 78 73 79 74 80 82 81 75 82 76 83 80 84 83 85 77 86
REMARK SMILES IDX 78 87 81 88 79 89 58 90 59 91 67 92 60 93 61 94 65 95 68 96
REMARK SMILES IDX 62 97 63 98 66 99 64 100
REMARK H PARENT 22 6 29 34 88 53 56 64
REMARK Flexibility Score: inf
ROOT
ATOM      1  C   UNL A   1      36.485  23.103  24.512  1.00  0.00     0.021 C 
ENDROOT
BRANCH   1   2
ATOM      2  C   UNL A   1      36.404  23.520  25.973  1.00  0.00     0.116 C 
BRANCH   2   3
ATOM      3  N   UNL A   1      35.620  22.733  26.880  1.00  0.00    -0.352 N 
ATOM      4  C   UNL A   1      34.326  22.258  26.724  1.00  0.00     0.254 C 
ATOM      5  O   UNL A   1      33.885  21.532  27.611  1.00  0.00    -0.269 OA
ATOM      6  H   UNL A   1      36.059  22.496  27.729  1.00  0.00     0.163 HD
BRANCH   4   7
ATOM      7  C   UNL A   1      33.445  22.649  25.566  1.00  0.00     0.079 A 
ATOM      8  C   UNL A   1      31.847  24.139  24.458  1.00  0.00     0.091 A 
ATOM      9  C   UNL A   1      31.522  23.109  23.565  1.00  0.00     0.064 A 
ATOM     10  C   UNL A   1      32.889  23.939  25.378  1.00  0.00     0.039 A 
ATOM     11  C   UNL A   1      32.194  21.893  23.635  1.00  0.00     0.161 A 
ATOM     12  F   UNL A   1      31.901  20.934  22.746  1.00  0.00    -0.204 F 
ATOM     13  C   UNL A   1      33.117  21.644  24.646  1.00  0.00     0.171 A 
ATOM     14  F   UNL A   1      33.647  20.414  24.728  1.00  0.00    -0.203 F 
BRANCH   8  15
ATOM     15  S   UNL A   1      30.734  25.569  24.433  1.00  0.00     0.264 S 
ATOM     16  O   UNL A   1      30.441  25.812  25.834  1.00  0.00    -0.201 OA
ATOM     17  O   UNL A   1      29.684  25.225  23.500  1.00  0.00    -0.201 OA
BRANCH  15  18
ATOM     18  N   UNL A   1      31.531  26.985  23.851  1.00  0.00    -0.269 N 
ATOM     19  C   UNL A   1      32.337  26.823  22.635  1.00  0.00     0.164 C 
BRANCH  18  20
ATOM     20  C   UNL A   1      32.159  27.893  24.835  1.00  0.00     0.053 A 
ATOM     21  C   UNL A   1      32.311  29.939  26.155  1.00  0.00     0.026 A 
ATOM     22  C   UNL A   1      33.486  29.492  26.763  1.00  0.00     0.017 A 
ATOM     23  C   UNL A   1      31.649  29.144  25.202  1.00  0.00     0.044 A 
ATOM     24  C   UNL A   1      34.020  28.264  26.404  1.00  0.00     0.003 A 
ATOM     25  C   UNL A   1      33.379  27.494  25.429  1.00  0.00     0.027 A 
BRANCH  21  26
ATOM     26  C   UNL A   1      31.801  31.229  26.502  1.00  0.00    -0.070 C 
ATOM     27  C   UNL A   1      31.402  32.328  26.784  1.00  0.00     0.010 C 
ENDBRANCH  21  26
ENDBRANCH  18  20
ENDBRANCH  15  18
ENDBRANCH   8  15
ENDBRANCH   4   7
ENDBRANCH   2   3
ENDBRANCH   1   2
BRANCH   1  28
ATOM     28  C   UNL A   1      37.400  21.932  24.182  1.00  0.00     0.002 C 
BRANCH  28  29
ATOM     29  C   UNL A   1      36.969  20.565  24.721  1.00  0.00     0.002 C 
BRANCH  29  30
ATOM     30  C   UNL A   1      38.088  19.555  25.002  1.00  0.00     0.021 C 
BRANCH  30  31
ATOM     31  C   UNL A   1      39.272  20.089  25.803  1.00  0.00     0.116 C 
BRANCH  31  32
ATOM     32  N   UNL A   1      40.326  19.100  25.963  1.00  0.00    -0.352 N 
ATOM     33  C   UNL A   1      41.678  19.267  26.126  1.00  0.00     0.251 C 
ATOM     34  H   UNL A   1      40.021  18.164  25.950  1.00  0.00     0.163 HD
ATOM     35  O   UNL A   1      42.430  18.302  26.030  1.00  0.00    -0.269 OA
BRANCH  33  36
ATOM     36  C   UNL A   1      42.238  20.606  26.404  1.00  0.00     0.039 A 
ATOM     37  C   UNL A   1      42.733  21.366  25.340  1.00  0.00     0.014 A 
ATOM     38  C   UNL A   1      42.301  21.106  27.708  1.00  0.00     0.014 A 
ATOM     39  C   UNL A   1      43.235  22.646  25.578  1.00  0.00     0.010 A 
ATOM     40  C   UNL A   1      42.724  22.413  27.931  1.00  0.00     0.010 A 
ATOM     41  C   UNL A   1      43.198  23.197  26.869  1.00  0.00    -0.014 A 
BRANCH  41  42
ATOM     42  C   UNL A   1      43.642  24.593  27.122  1.00  0.00     0.031 A 
ATOM     43  C   UNL A   1      42.662  25.628  27.604  1.00  0.00     0.074 A 
ATOM     44  C   UNL A   1      44.921  24.937  26.873  1.00  0.00     0.049 A 
ATOM     45  N   UNL A   1      42.851  26.904  27.824  1.00  0.00    -0.248 NA
ATOM     46  C   UNL A   1      41.281  25.177  27.853  1.00  0.00     0.031 C 
ATOM     47  C   UNL A   1      45.956  24.030  26.376  1.00  0.00     0.029 A 
ATOM     48  N   UNL A   1      45.571  26.140  27.001  1.00  0.00    -0.354 N 
ATOM     49  C   UNL A   1      41.622  27.404  28.234  1.00  0.00     0.074 A 
ATOM     50  C   UNL A   1      40.677  26.312  28.173  1.00  0.00     0.031 C 
ATOM     51  C   UNL A   1      47.117  24.696  26.278  1.00  0.00     0.029 A 
ATOM     52  C   UNL A   1      46.901  26.091  26.653  1.00  0.00     0.049 A 
ATOM     53  H   UNL A   1      45.128  26.962  27.314  1.00  0.00     0.167 HD
ATOM     54  C   UNL A   1      41.320  28.655  28.652  1.00  0.00     0.037 A 
ATOM     55  C   UNL A   1      47.837  27.059  26.628  1.00  0.00     0.037 A 
ATOM     56  C   UNL A   1      42.272  29.733  28.732  1.00  0.00     0.049 A 
ATOM     57  C   UNL A   1      47.458  28.453  27.055  1.00  0.00     0.074 A 
ATOM     58  C   UNL A   1      42.068  31.025  29.182  1.00  0.00     0.029 A 
ATOM     59  N   UNL A   1      43.604  29.645  28.355  1.00  0.00    -0.354 N 
ATOM     60  N   UNL A   1      46.307  28.897  27.495  1.00  0.00    -0.248 NA
ATOM     61  C   UNL A   1      48.509  29.479  26.986  1.00  0.00     0.031 C 
ATOM     62  C   UNL A   1      43.256  31.738  29.015  1.00  0.00     0.029 A 
ATOM     63  C   UNL A   1      44.224  30.872  28.532  1.00  0.00     0.049 A 
ATOM     64  H   UNL A   1      44.043  28.834  28.013  1.00  0.00     0.167 HD
ATOM     65  C   UNL A   1      46.502  30.242  27.785  1.00  0.00     0.074 A 
ATOM     66  C   UNL A   1      47.887  30.536  27.489  1.00  0.00     0.031 C 
ATOM     67  C   UNL A   1      45.610  31.150  28.250  1.00  0.00     0.037 A 
BRANCH  54  68
ATOM     68  C   UNL A   1      39.910  28.943  29.083  1.00  0.00     0.064 A 
ATOM     69  C   UNL A   1      39.502  28.688  30.402  1.00  0.00     0.173 A 
ATOM     70  C   UNL A   1      38.934  29.358  28.165  1.00  0.00     0.173 A 
ATOM     71  F   UNL A   1      40.394  28.284  31.320  1.00  0.00    -0.203 F 
ATOM     72  C   UNL A   1      38.167  28.807  30.776  1.00  0.00     0.198 A 
ATOM     73  C   UNL A   1      37.605  29.507  28.551  1.00  0.00     0.198 A 
ATOM     74  F   UNL A   1      39.272  29.625  26.895  1.00  0.00    -0.203 F 
ATOM     75  F   UNL A   1      37.794  28.506  32.028  1.00  0.00    -0.200 F 
ATOM     76  C   UNL A   1      37.219  29.217  29.851  1.00  0.00     0.200 A 
ATOM     77  F   UNL A   1      36.694  29.927  27.661  1.00  0.00    -0.200 F 
ATOM     78  F   UNL A   1      35.933  29.329  30.211  1.00  0.00    -0.200 F 
ENDBRANCH  54  68
BRANCH  55  79
ATOM     79  C   UNL A   1      49.228  26.736  26.205  1.00  0.00     0.064 A 
ATOM     80  C   UNL A   1      50.183  26.265  27.119  1.00  0.00     0.173 A 
ATOM     81  C   UNL A   1      49.632  26.902  24.873  1.00  0.00     0.173 A 
ATOM     82  F   UNL A   1      49.852  26.092  28.408  1.00  0.00    -0.203 F 
ATOM     83  C   UNL A   1      51.490  25.991  26.722  1.00  0.00     0.198 A 
ATOM     84  C   UNL A   1      50.930  26.593  24.468  1.00  0.00     0.198 A 
ATOM     85  F   UNL A   1      48.755  27.332  23.955  1.00  0.00    -0.203 F 
ATOM     86  F   UNL A   1      52.390  25.582  27.625  1.00  0.00    -0.200 F 
ATOM     87  C   UNL A   1      51.860  26.147  25.395  1.00  0.00     0.200 A 
ATOM     88  F   UNL A   1      51.275  26.716  23.180  1.00  0.00    -0.200 F 
ATOM     89  F   UNL A   1      53.111  25.863  25.009  1.00  0.00    -0.200 F 
ENDBRANCH  55  79
BRANCH  67  90
ATOM     90  C   UNL A   1      46.095  32.549  28.505  1.00  0.00     0.064 A 
ATOM     91  C   UNL A   1      46.070  33.507  27.478  1.00  0.00     0.173 A 
ATOM     92  C   UNL A   1      46.676  32.916  29.727  1.00  0.00     0.173 A 
ATOM     93  F   UNL A   1      45.536  33.206  26.285  1.00  0.00    -0.203 F 
ATOM     94  C   UNL A   1      46.629  34.768  27.658  1.00  0.00     0.198 A 
ATOM     95  C   UNL A   1      47.201  34.192  29.917  1.00  0.00     0.198 A 
ATOM     96  F   UNL A   1      46.718  32.042  30.744  1.00  0.00    -0.203 F 
ATOM     97  F   UNL A   1      46.640  35.647  26.646  1.00  0.00    -0.200 F 
ATOM     98  C   UNL A   1      47.190  35.111  28.879  1.00  0.00     0.200 A 
ATOM     99  F   UNL A   1      47.718  34.530  31.105  1.00  0.00    -0.200 F 
ATOM    100  F   UNL A   1      47.722  36.329  29.054  1.00  0.00    -0.200 F 
ENDBRANCH  67  90
ENDBRANCH  41  42
ENDBRANCH  33  36
ENDBRANCH  31  32
ENDBRANCH  30  31
ENDBRANCH  29  30
ENDBRANCH  28  29
ENDBRANCH   1  28
TORSDOF 17
ENDMDL
