MODEL 1
REMARK VINA RESULT:     -12.4      0.000      0.000
REMARK SMILES O=C(NCCCCCCNC(=O)C(Cl)(c1ccccc1)c1ccccc1)c1ccc(-c2c3nc(c(-c4c(F)c(F)c(F)c(F)c4F)c4ccc([nH]4)c(-c4c(F)c(F)c(F)c(F)c4F)c4nc(c(-c5c(F)c(F)c(F)c(F)c5F)c5ccc2[nH]5)C=C4)C=C3)cc1
REMARK SMILES IDX 6 1 5 2 4 3 3 4 1 5 2 6 27 8 28 9 89 10 29 11 88 12 30 13
REMARK SMILES IDX 31 14 32 15 82 16 33 17 87 18 81 19 83 20 34 21 86 22 80 23
REMARK SMILES IDX 79 24 35 26 67 27 47 28 66 29 48 30 51 31 65 32 84 33 49 34
REMARK SMILES IDX 50 35 64 37 85 38 52 39 36 40 37 41 45 42 38 43 39 44 43 45
REMARK SMILES IDX 46 46 40 47 41 48 44 49 42 50 68 51 69 52 77 53 70 54 71 55
REMARK SMILES IDX 75 56 78 57 72 58 73 59 76 60 74 61 53 62 54 63 62 64 55 65
REMARK SMILES IDX 56 66 60 67 63 68 57 69 58 70 61 71 59 72 7 73 8 74 9 75
REMARK SMILES IDX 10 76 11 77 12 79 13 80 14 81 15 82 16 83 20 84 17 85 19 86
REMARK SMILES IDX 18 87 21 88 22 89 26 90 23 91 25 92 24 93
REMARK H PARENT 3 7 83 25 51 36 10 78
REMARK Flexibility Score: inf
ROOT
ATOM      1  C   UNL A   1      31.528  30.750  26.108  1.00  0.00     0.002 C 
ENDROOT
BRANCH   1   2
ATOM      2  C   UNL A   1      31.352  32.220  26.487  1.00  0.00     0.021 C 
BRANCH   2   3
ATOM      3  C   UNL A   1      32.524  32.798  27.265  1.00  0.00     0.116 C 
BRANCH   3   4
ATOM      4  N   UNL A   1      32.313  34.197  27.597  1.00  0.00    -0.352 N 
ATOM      5  O   UNL A   1      32.506  36.050  28.876  1.00  0.00    -0.269 OA
ATOM      6  C   UNL A   1      32.934  34.942  28.563  1.00  0.00     0.251 C 
ATOM      7  H   UNL A   1      31.637  34.668  27.059  1.00  0.00     0.163 HD
BRANCH   6   8
ATOM      8  C   UNL A   1      34.130  34.394  29.231  1.00  0.00     0.039 A 
ATOM      9  C   UNL A   1      33.993  33.653  30.409  1.00  0.00     0.014 A 
ATOM     10  C   UNL A   1      35.390  34.606  28.667  1.00  0.00     0.014 A 
ATOM     11  C   UNL A   1      35.123  33.207  31.079  1.00  0.00     0.010 A 
ATOM     12  C   UNL A   1      36.520  34.078  29.294  1.00  0.00     0.010 A 
ATOM     13  C   UNL A   1      36.392  33.373  30.502  1.00  0.00    -0.014 A 
BRANCH  13  14
ATOM     14  C   UNL A   1      37.549  32.662  31.096  1.00  0.00     0.031 A 
ATOM     15  C   UNL A   1      38.211  31.516  30.394  1.00  0.00     0.074 A 
ATOM     16  C   UNL A   1      37.977  33.071  32.308  1.00  0.00     0.049 A 
ATOM     17  N   UNL A   1      39.204  30.769  30.805  1.00  0.00    -0.248 NA
ATOM     18  C   UNL A   1      37.695  31.152  29.065  1.00  0.00     0.031 C 
ATOM     19  C   UNL A   1      37.384  34.166  33.083  1.00  0.00     0.029 A 
ATOM     20  N   UNL A   1      39.000  32.622  33.101  1.00  0.00    -0.354 N 
ATOM     21  C   UNL A   1      39.420  29.836  29.800  1.00  0.00     0.074 A 
ATOM     22  C   UNL A   1      38.448  30.101  28.761  1.00  0.00     0.031 C 
ATOM     23  C   UNL A   1      38.065  34.318  34.226  1.00  0.00     0.029 A 
ATOM     24  C   UNL A   1      39.089  33.285  34.302  1.00  0.00     0.049 A 
ATOM     25  H   UNL A   1      39.610  31.896  32.838  1.00  0.00     0.167 HD
ATOM     26  C   UNL A   1      40.349  28.851  29.762  1.00  0.00     0.037 A 
ATOM     27  C   UNL A   1      39.878  33.059  35.367  1.00  0.00     0.037 A 
ATOM     28  C   UNL A   1      41.322  28.616  30.800  1.00  0.00     0.049 A 
ATOM     29  C   UNL A   1      40.867  31.931  35.301  1.00  0.00     0.074 A 
ATOM     30  C   UNL A   1      42.356  27.697  30.816  1.00  0.00     0.029 A 
ATOM     31  N   UNL A   1      41.368  29.291  32.011  1.00  0.00    -0.354 N 
ATOM     32  N   UNL A   1      41.117  31.107  34.312  1.00  0.00    -0.248 NA
ATOM     33  C   UNL A   1      41.679  31.694  36.501  1.00  0.00     0.031 C 
ATOM     34  C   UNL A   1      42.984  27.766  32.063  1.00  0.00     0.029 A 
ATOM     35  C   UNL A   1      42.382  28.771  32.802  1.00  0.00     0.049 A 
ATOM     36  H   UNL A   1      40.771  30.029  32.271  1.00  0.00     0.167 HD
ATOM     37  C   UNL A   1      42.119  30.263  34.766  1.00  0.00     0.074 A 
ATOM     38  C   UNL A   1      42.456  30.697  36.106  1.00  0.00     0.031 C 
ATOM     39  C   UNL A   1      42.699  29.214  34.135  1.00  0.00     0.037 A 
BRANCH  26  40
ATOM     40  C   UNL A   1      40.366  27.928  28.580  1.00  0.00     0.064 A 
ATOM     41  C   UNL A   1      41.106  28.215  27.425  1.00  0.00     0.173 A 
ATOM     42  C   UNL A   1      39.722  26.681  28.654  1.00  0.00     0.173 A 
ATOM     43  F   UNL A   1      41.735  29.394  27.302  1.00  0.00    -0.203 F 
ATOM     44  C   UNL A   1      41.201  27.290  26.387  1.00  0.00     0.198 A 
ATOM     45  C   UNL A   1      39.838  25.750  27.626  1.00  0.00     0.198 A 
ATOM     46  F   UNL A   1      39.007  26.354  29.740  1.00  0.00    -0.203 F 
ATOM     47  F   UNL A   1      41.901  27.592  25.285  1.00  0.00    -0.200 F 
ATOM     48  C   UNL A   1      40.578  26.056  26.494  1.00  0.00     0.200 A 
ATOM     49  F   UNL A   1      39.250  24.552  27.738  1.00  0.00    -0.200 F 
ATOM     50  F   UNL A   1      40.692  25.158  25.505  1.00  0.00    -0.200 F 
ENDBRANCH  26  40
BRANCH  27  51
ATOM     51  C   UNL A   1      39.724  33.877  36.598  1.00  0.00     0.064 A 
ATOM     52  C   UNL A   1      38.895  33.460  37.647  1.00  0.00     0.173 A 
ATOM     53  C   UNL A   1      40.380  35.110  36.737  1.00  0.00     0.173 A 
ATOM     54  F   UNL A   1      38.232  32.297  37.556  1.00  0.00    -0.203 F 
ATOM     55  C   UNL A   1      38.703  34.259  38.773  1.00  0.00     0.198 A 
ATOM     56  C   UNL A   1      40.219  35.889  37.879  1.00  0.00     0.198 A 
ATOM     57  F   UNL A   1      41.191  35.554  35.764  1.00  0.00    -0.203 F 
ATOM     58  F   UNL A   1      37.854  33.865  39.732  1.00  0.00    -0.200 F 
ATOM     59  C   UNL A   1      39.368  35.470  38.890  1.00  0.00     0.200 A 
ATOM     60  F   UNL A   1      40.881  37.048  37.995  1.00  0.00    -0.200 F 
ATOM     61  F   UNL A   1      39.181  36.239  39.970  1.00  0.00    -0.200 F 
ENDBRANCH  27  51
BRANCH  39  62
ATOM     62  C   UNL A   1      43.763  28.472  34.887  1.00  0.00     0.064 A 
ATOM     63  C   UNL A   1      45.102  28.894  34.869  1.00  0.00     0.173 A 
ATOM     64  C   UNL A   1      43.439  27.347  35.661  1.00  0.00     0.173 A 
ATOM     65  F   UNL A   1      45.465  29.952  34.127  1.00  0.00    -0.203 F 
ATOM     66  C   UNL A   1      46.078  28.204  35.581  1.00  0.00     0.198 A 
ATOM     67  C   UNL A   1      44.413  26.681  36.398  1.00  0.00     0.198 A 
ATOM     68  F   UNL A   1      42.173  26.905  35.714  1.00  0.00    -0.203 F 
ATOM     69  F   UNL A   1      47.358  28.596  35.508  1.00  0.00    -0.200 F 
ATOM     70  C   UNL A   1      45.733  27.105  36.351  1.00  0.00     0.200 A 
ATOM     71  F   UNL A   1      44.074  25.629  37.154  1.00  0.00    -0.200 F 
ATOM     72  F   UNL A   1      46.673  26.449  37.044  1.00  0.00    -0.200 F 
ENDBRANCH  39  62
ENDBRANCH  13  14
ENDBRANCH   6   8
ENDBRANCH   3   4
ENDBRANCH   2   3
ENDBRANCH   1   2
BRANCH   1  73
ATOM     73  C   UNL A   1      32.387  29.937  27.084  1.00  0.00     0.002 C 
BRANCH  73  74
ATOM     74  C   UNL A   1      31.788  28.587  27.494  1.00  0.00     0.021 C 
BRANCH  74  75
ATOM     75  C   UNL A   1      32.435  27.391  26.799  1.00  0.00     0.116 C 
BRANCH  75  76
ATOM     76  N   UNL A   1      31.640  26.194  26.994  1.00  0.00    -0.354 N 
ATOM     77  C   UNL A   1      31.241  25.222  26.115  1.00  0.00     0.250 C 
ATOM     78  H   UNL A   1      31.334  26.056  27.921  1.00  0.00     0.163 HD
ATOM     79  O   UNL A   1      30.478  24.375  26.597  1.00  0.00    -0.272 OA
BRANCH  77  80
ATOM     80  C   UNL A   1      31.766  25.169  24.617  1.00  0.00     0.173 C 
ATOM     81  Cl  UNL A   1      30.589  23.987  23.819  1.00  0.00    -0.098 Cl
BRANCH  80  82
ATOM     82  C   UNL A   1      31.677  26.588  23.978  1.00  0.00    -0.013 A 
ATOM     83  C   UNL A   1      32.790  27.294  23.479  1.00  0.00     0.006 A 
ATOM     84  C   UNL A   1      30.415  27.206  23.815  1.00  0.00     0.006 A 
ATOM     85  C   UNL A   1      32.641  28.521  22.819  1.00  0.00     0.000 A 
ATOM     86  C   UNL A   1      30.272  28.451  23.197  1.00  0.00     0.000 A 
ATOM     87  C   UNL A   1      31.385  29.104  22.685  1.00  0.00     0.000 A 
ENDBRANCH  80  82
BRANCH  80  88
ATOM     88  C   UNL A   1      33.207  24.567  24.545  1.00  0.00    -0.013 A 
ATOM     89  C   UNL A   1      34.162  24.709  25.574  1.00  0.00     0.006 A 
ATOM     90  C   UNL A   1      33.637  23.878  23.390  1.00  0.00     0.006 A 
ATOM     91  C   UNL A   1      35.472  24.231  25.435  1.00  0.00     0.000 A 
ATOM     92  C   UNL A   1      34.937  23.380  23.260  1.00  0.00     0.000 A 
ATOM     93  C   UNL A   1      35.858  23.566  24.279  1.00  0.00     0.000 A 
ENDBRANCH  80  88
ENDBRANCH  77  80
ENDBRANCH  75  76
ENDBRANCH  74  75
ENDBRANCH  73  74
ENDBRANCH   1  73
TORSDOF 15
ENDMDL
MODEL 2
REMARK VINA RESULT:     -12.4      0.333      2.039
REMARK SMILES O=C(NCCCCCCNC(=O)C(Cl)(c1ccccc1)c1ccccc1)c1ccc(-c2c3nc(c(-c4c(F)c(F)c(F)c(F)c4F)c4ccc([nH]4)c(-c4c(F)c(F)c(F)c(F)c4F)c4nc(c(-c5c(F)c(F)c(F)c(F)c5F)c5ccc2[nH]5)C=C4)C=C3)cc1
REMARK SMILES IDX 6 1 5 2 4 3 3 4 1 5 2 6 27 8 28 9 89 10 29 11 88 12 30 13
REMARK SMILES IDX 31 14 32 15 82 16 33 17 87 18 81 19 83 20 34 21 86 22 80 23
REMARK SMILES IDX 79 24 35 26 67 27 47 28 66 29 48 30 51 31 65 32 84 33 49 34
REMARK SMILES IDX 50 35 64 37 85 38 52 39 36 40 37 41 45 42 38 43 39 44 43 45
REMARK SMILES IDX 46 46 40 47 41 48 44 49 42 50 68 51 69 52 77 53 70 54 71 55
REMARK SMILES IDX 75 56 78 57 72 58 73 59 76 60 74 61 53 62 54 63 62 64 55 65
REMARK SMILES IDX 56 66 60 67 63 68 57 69 58 70 61 71 59 72 7 73 8 74 9 75
REMARK SMILES IDX 10 76 11 77 12 79 13 80 14 81 15 82 16 83 20 84 17 85 19 86
REMARK SMILES IDX 18 87 21 88 22 89 26 90 23 91 25 92 24 93
REMARK H PARENT 3 7 83 25 51 36 10 78
REMARK Flexibility Score: inf
ROOT
ATOM      1  C   UNL A   1      31.675  30.524  26.035  1.00  0.00     0.002 C 
ENDROOT
BRANCH   1   2
ATOM      2  C   UNL A   1      31.405  31.934  26.558  1.00  0.00     0.021 C 
BRANCH   2   3
ATOM      3  C   UNL A   1      32.595  32.566  27.263  1.00  0.00     0.116 C 
BRANCH   3   4
ATOM      4  N   UNL A   1      32.373  33.976  27.536  1.00  0.00    -0.352 N 
ATOM      5  O   UNL A   1      32.527  35.876  28.751  1.00  0.00    -0.269 OA
ATOM      6  C   UNL A   1      32.964  34.758  28.493  1.00  0.00     0.251 C 
ATOM      7  H   UNL A   1      31.715  34.426  26.960  1.00  0.00     0.163 HD
BRANCH   6   8
ATOM      8  C   UNL A   1      34.139  34.236  29.217  1.00  0.00     0.039 A 
ATOM      9  C   UNL A   1      33.962  33.463  30.369  1.00  0.00     0.014 A 
ATOM     10  C   UNL A   1      35.421  34.506  28.733  1.00  0.00     0.014 A 
ATOM     11  C   UNL A   1      35.068  33.041  31.093  1.00  0.00     0.010 A 
ATOM     12  C   UNL A   1      36.532  34.004  29.412  1.00  0.00     0.010 A 
ATOM     13  C   UNL A   1      36.361  33.266  30.595  1.00  0.00    -0.014 A 
BRANCH  13  14
ATOM     14  C   UNL A   1      37.507  32.582  31.240  1.00  0.00     0.031 A 
ATOM     15  C   UNL A   1      38.204  31.429  30.584  1.00  0.00     0.074 A 
ATOM     16  C   UNL A   1      37.892  33.022  32.455  1.00  0.00     0.049 A 
ATOM     17  N   UNL A   1      39.192  30.704  31.041  1.00  0.00    -0.248 NA
ATOM     18  C   UNL A   1      37.734  31.031  29.248  1.00  0.00     0.031 C 
ATOM     19  C   UNL A   1      37.262  34.126  33.187  1.00  0.00     0.029 A 
ATOM     20  N   UNL A   1      38.895  32.603  33.289  1.00  0.00    -0.354 N 
ATOM     21  C   UNL A   1      39.450  29.752  30.064  1.00  0.00     0.074 A 
ATOM     22  C   UNL A   1      38.508  29.983  28.990  1.00  0.00     0.031 C 
ATOM     23  C   UNL A   1      37.906  34.310  34.348  1.00  0.00     0.029 A 
ATOM     24  C   UNL A   1      38.939  33.293  34.477  1.00  0.00     0.049 A 
ATOM     25  H   UNL A   1      39.521  31.879  33.061  1.00  0.00     0.167 HD
ATOM     26  C   UNL A   1      40.392  28.779  30.076  1.00  0.00     0.037 A 
ATOM     27  C   UNL A   1      39.697  33.099  35.570  1.00  0.00     0.037 A 
ATOM     28  C   UNL A   1      41.335  28.578  31.149  1.00  0.00     0.049 A 
ATOM     29  C   UNL A   1      40.702  31.982  35.560  1.00  0.00     0.074 A 
ATOM     30  C   UNL A   1      42.379  27.672  31.216  1.00  0.00     0.029 A 
ATOM     31  N   UNL A   1      41.335  29.279  32.345  1.00  0.00    -0.354 N 
ATOM     32  N   UNL A   1      40.991  31.141  34.598  1.00  0.00    -0.248 NA
ATOM     33  C   UNL A   1      41.479  31.781  36.790  1.00  0.00     0.031 C 
ATOM     34  C   UNL A   1      42.966  27.776  32.481  1.00  0.00     0.029 A 
ATOM     35  C   UNL A   1      42.330  28.789  33.178  1.00  0.00     0.049 A 
ATOM     36  H   UNL A   1      40.722  30.015  32.570  1.00  0.00     0.167 HD
ATOM     37  C   UNL A   1      41.988  30.319  35.100  1.00  0.00     0.074 A 
ATOM     38  C   UNL A   1      42.279  30.786  36.440  1.00  0.00     0.031 C 
ATOM     39  C   UNL A   1      42.600  29.264  34.510  1.00  0.00     0.037 A 
BRANCH  26  40
ATOM     40  C   UNL A   1      40.456  27.831  28.915  1.00  0.00     0.064 A 
ATOM     41  C   UNL A   1      39.665  26.676  28.857  1.00  0.00     0.173 A 
ATOM     42  C   UNL A   1      41.238  28.148  27.792  1.00  0.00     0.173 A 
ATOM     43  F   UNL A   1      38.903  26.325  29.904  1.00  0.00    -0.203 F 
ATOM     44  C   UNL A   1      39.654  25.872  27.718  1.00  0.00     0.198 A 
ATOM     45  C   UNL A   1      41.208  27.357  26.648  1.00  0.00     0.198 A 
ATOM     46  F   UNL A   1      42.009  29.247  27.794  1.00  0.00    -0.203 F 
ATOM     47  F   UNL A   1      38.902  24.763  27.690  1.00  0.00    -0.200 F 
ATOM     48  C   UNL A   1      40.416  26.220  26.612  1.00  0.00     0.200 A 
ATOM     49  F   UNL A   1      41.930  27.703  25.575  1.00  0.00    -0.200 F 
ATOM     50  F   UNL A   1      40.384  25.459  25.509  1.00  0.00    -0.200 F 
ENDBRANCH  26  40
BRANCH  27  51
ATOM     51  C   UNL A   1      39.495  33.942  36.778  1.00  0.00     0.064 A 
ATOM     52  C   UNL A   1      40.095  35.202  36.893  1.00  0.00     0.173 A 
ATOM     53  C   UNL A   1      38.719  33.489  37.857  1.00  0.00     0.173 A 
ATOM     54  F   UNL A   1      40.861  35.673  35.897  1.00  0.00    -0.203 F 
ATOM     55  C   UNL A   1      39.955  35.962  38.053  1.00  0.00     0.198 A 
ATOM     56  C   UNL A   1      38.547  34.266  38.999  1.00  0.00     0.198 A 
ATOM     57  F   UNL A   1      38.117  32.292  37.797  1.00  0.00    -0.203 F 
ATOM     58  F   UNL A   1      40.594  37.135  38.161  1.00  0.00    -0.200 F 
ATOM     59  C   UNL A   1      39.179  35.496  39.102  1.00  0.00     0.200 A 
ATOM     60  F   UNL A   1      37.779  33.819  40.001  1.00  0.00    -0.200 F 
ATOM     61  F   UNL A   1      39.047  36.226  40.218  1.00  0.00    -0.200 F 
ENDBRANCH  27  51
BRANCH  39  62
ATOM     62  C   UNL A   1      43.649  28.551  35.311  1.00  0.00     0.064 A 
ATOM     63  C   UNL A   1      43.316  27.506  36.186  1.00  0.00     0.173 A 
ATOM     64  C   UNL A   1      45.004  28.891  35.177  1.00  0.00     0.173 A 
ATOM     65  F   UNL A   1      42.033  27.158  36.363  1.00  0.00    -0.203 F 
ATOM     66  C   UNL A   1      44.300  26.844  36.915  1.00  0.00     0.198 A 
ATOM     67  C   UNL A   1      45.987  28.204  35.882  1.00  0.00     0.198 A 
ATOM     68  F   UNL A   1      45.375  29.881  34.351  1.00  0.00    -0.203 F 
ATOM     69  F   UNL A   1      43.953  25.883  37.783  1.00  0.00    -0.200 F 
ATOM     70  C   UNL A   1      45.634  27.186  36.756  1.00  0.00     0.200 A 
ATOM     71  F   UNL A   1      47.277  28.525  35.716  1.00  0.00    -0.200 F 
ATOM     72  F   UNL A   1      46.579  26.540  37.450  1.00  0.00    -0.200 F 
ENDBRANCH  39  62
ENDBRANCH  13  14
ENDBRANCH   6   8
ENDBRANCH   3   4
ENDBRANCH   2   3
ENDBRANCH   1   2
BRANCH   1  73
ATOM     73  C   UNL A   1      32.182  29.537  27.093  1.00  0.00     0.002 C 
BRANCH  73  74
ATOM     74  C   UNL A   1      31.429  28.203  27.137  1.00  0.00     0.021 C 
BRANCH  74  75
ATOM     75  C   UNL A   1      32.300  26.994  26.802  1.00  0.00     0.116 C 
BRANCH  75  76
ATOM     76  N   UNL A   1      31.527  25.769  26.876  1.00  0.00    -0.354 N 
ATOM     77  C   UNL A   1      31.168  24.868  25.909  1.00  0.00     0.250 C 
ATOM     78  H   UNL A   1      31.203  25.547  27.780  1.00  0.00     0.163 HD
ATOM     79  O   UNL A   1      30.413  23.969  26.299  1.00  0.00    -0.272 OA
BRANCH  77  80
ATOM     80  C   UNL A   1      31.727  24.952  24.424  1.00  0.00     0.173 C 
ATOM     81  Cl  UNL A   1      30.654  23.748  23.521  1.00  0.00    -0.098 Cl
BRANCH  80  82
ATOM     82  C   UNL A   1      31.551  26.402  23.878  1.00  0.00    -0.013 A 
ATOM     83  C   UNL A   1      32.614  27.192  23.397  1.00  0.00     0.006 A 
ATOM     84  C   UNL A   1      30.256  26.964  23.786  1.00  0.00     0.006 A 
ATOM     85  C   UNL A   1      32.387  28.449  22.819  1.00  0.00     0.000 A 
ATOM     86  C   UNL A   1      30.035  28.235  23.250  1.00  0.00     0.000 A 
ATOM     87  C   UNL A   1      31.100  28.974  22.753  1.00  0.00     0.000 A 
ENDBRANCH  80  82
BRANCH  80  88
ATOM     88  C   UNL A   1      33.208  24.459  24.351  1.00  0.00    -0.013 A 
ATOM     89  C   UNL A   1      33.757  23.808  23.227  1.00  0.00     0.006 A 
ATOM     90  C   UNL A   1      34.067  24.607  25.462  1.00  0.00     0.006 A 
ATOM     91  C   UNL A   1      35.064  23.301  23.232  1.00  0.00     0.000 A 
ATOM     92  C   UNL A   1      35.379  24.122  25.461  1.00  0.00     0.000 A 
ATOM     93  C   UNL A   1      35.874  23.460  24.349  1.00  0.00     0.000 A 
ENDBRANCH  80  88
ENDBRANCH  77  80
ENDBRANCH  75  76
ENDBRANCH  74  75
ENDBRANCH  73  74
ENDBRANCH   1  73
TORSDOF 15
ENDMDL
MODEL 3
REMARK VINA RESULT:     -12.3      5.612     11.007
REMARK SMILES O=C(NCCCCCCNC(=O)C(Cl)(c1ccccc1)c1ccccc1)c1ccc(-c2c3nc(c(-c4c(F)c(F)c(F)c(F)c4F)c4ccc([nH]4)c(-c4c(F)c(F)c(F)c(F)c4F)c4nc(c(-c5c(F)c(F)c(F)c(F)c5F)c5ccc2[nH]5)C=C4)C=C3)cc1
REMARK SMILES IDX 6 1 5 2 4 3 3 4 1 5 2 6 27 8 28 9 89 10 29 11 88 12 30 13
REMARK SMILES IDX 31 14 32 15 82 16 33 17 87 18 81 19 83 20 34 21 86 22 80 23
REMARK SMILES IDX 79 24 35 26 67 27 47 28 66 29 48 30 51 31 65 32 84 33 49 34
REMARK SMILES IDX 50 35 64 37 85 38 52 39 36 40 37 41 45 42 38 43 39 44 43 45
REMARK SMILES IDX 46 46 40 47 41 48 44 49 42 50 68 51 69 52 77 53 70 54 71 55
REMARK SMILES IDX 75 56 78 57 72 58 73 59 76 60 74 61 53 62 54 63 62 64 55 65
REMARK SMILES IDX 56 66 60 67 63 68 57 69 58 70 61 71 59 72 7 73 8 74 9 75
REMARK SMILES IDX 10 76 11 77 12 79 13 80 14 81 15 82 16 83 20 84 17 85 19 86
REMARK SMILES IDX 18 87 21 88 22 89 26 90 23 91 25 92 24 93
REMARK H PARENT 3 7 83 25 51 36 10 78
REMARK Flexibility Score: inf
ROOT
ATOM      1  C   UNL A   1      36.790  20.717  25.022  1.00  0.00     0.002 C 
ENDROOT
BRANCH   1   2
ATOM      2  C   UNL A   1      38.002  19.792  24.913  1.00  0.00     0.021 C 
BRANCH   2   3
ATOM      3  C   UNL A   1      39.195  20.245  25.740  1.00  0.00     0.116 C 
BRANCH   3   4
ATOM      4  N   UNL A   1      40.176  19.183  25.896  1.00  0.00    -0.352 N 
ATOM      5  O   UNL A   1      42.262  18.320  25.995  1.00  0.00    -0.269 OA
ATOM      6  C   UNL A   1      41.526  19.297  26.095  1.00  0.00     0.251 C 
ATOM      7  H   UNL A   1      39.824  18.265  25.854  1.00  0.00     0.163 HD
BRANCH   6   8
ATOM      8  C   UNL A   1      42.089  20.620  26.430  1.00  0.00     0.039 A 
ATOM      9  C   UNL A   1      42.509  21.478  25.409  1.00  0.00     0.014 A 
ATOM     10  C   UNL A   1      42.181  21.009  27.768  1.00  0.00     0.014 A 
ATOM     11  C   UNL A   1      43.113  22.686  25.728  1.00  0.00     0.010 A 
ATOM     12  C   UNL A   1      42.704  22.264  28.084  1.00  0.00     0.010 A 
ATOM     13  C   UNL A   1      43.171  23.110  27.065  1.00  0.00    -0.014 A 
BRANCH  13  14
ATOM     14  C   UNL A   1      43.573  24.506  27.357  1.00  0.00     0.031 A 
ATOM     15  C   UNL A   1      42.584  25.524  27.840  1.00  0.00     0.074 A 
ATOM     16  C   UNL A   1      44.864  24.839  27.156  1.00  0.00     0.049 A 
ATOM     17  N   UNL A   1      42.775  26.792  28.098  1.00  0.00    -0.248 NA
ATOM     18  C   UNL A   1      41.202  25.069  28.056  1.00  0.00     0.031 C 
ATOM     19  C   UNL A   1      45.901  23.923  26.668  1.00  0.00     0.029 A 
ATOM     20  N   UNL A   1      45.527  26.024  27.331  1.00  0.00    -0.354 N 
ATOM     21  C   UNL A   1      41.541  27.293  28.485  1.00  0.00     0.074 A 
ATOM     22  C   UNL A   1      40.600  26.195  28.420  1.00  0.00     0.031 C 
ATOM     23  C   UNL A   1      47.070  24.574  26.603  1.00  0.00     0.029 A 
ATOM     24  C   UNL A   1      46.852  25.966  26.969  1.00  0.00     0.049 A 
ATOM     25  H   UNL A   1      45.098  26.838  27.679  1.00  0.00     0.167 HD
ATOM     26  C   UNL A   1      41.234  28.558  28.859  1.00  0.00     0.037 A 
ATOM     27  C   UNL A   1      47.780  26.936  26.896  1.00  0.00     0.037 A 
ATOM     28  C   UNL A   1      42.191  29.634  28.936  1.00  0.00     0.049 A 
ATOM     29  C   UNL A   1      47.389  28.335  27.279  1.00  0.00     0.074 A 
ATOM     30  C   UNL A   1      41.994  30.929  29.383  1.00  0.00     0.029 A 
ATOM     31  N   UNL A   1      43.517  29.545  28.541  1.00  0.00    -0.354 N 
ATOM     32  N   UNL A   1      46.238  28.779  27.722  1.00  0.00    -0.248 NA
ATOM     33  C   UNL A   1      48.422  29.370  27.145  1.00  0.00     0.031 C 
ATOM     34  C   UNL A   1      43.181  31.643  29.191  1.00  0.00     0.029 A 
ATOM     35  C   UNL A   1      44.136  30.778  28.685  1.00  0.00     0.049 A 
ATOM     36  H   UNL A   1      43.955  28.728  28.208  1.00  0.00     0.167 HD
ATOM     37  C   UNL A   1      46.411  30.139  27.929  1.00  0.00     0.074 A 
ATOM     38  C   UNL A   1      47.787  30.441  27.597  1.00  0.00     0.031 C 
ATOM     39  C   UNL A   1      45.506  31.058  28.344  1.00  0.00     0.037 A 
BRANCH  26  40
ATOM     40  C   UNL A   1      39.808  28.878  29.198  1.00  0.00     0.064 A 
ATOM     41  C   UNL A   1      38.885  29.276  28.222  1.00  0.00     0.173 A 
ATOM     42  C   UNL A   1      39.333  28.670  30.504  1.00  0.00     0.173 A 
ATOM     43  F   UNL A   1      39.288  29.494  26.961  1.00  0.00    -0.203 F 
ATOM     44  C   UNL A   1      37.539  29.455  28.539  1.00  0.00     0.198 A 
ATOM     45  C   UNL A   1      37.985  28.827  30.813  1.00  0.00     0.198 A 
ATOM     46  F   UNL A   1      40.174  28.282  31.475  1.00  0.00    -0.203 F 
ATOM     47  F   UNL A   1      36.677  29.851  27.592  1.00  0.00    -0.200 F 
ATOM     48  C   UNL A   1      37.090  29.219  29.830  1.00  0.00     0.200 A 
ATOM     49  F   UNL A   1      37.550  28.581  32.055  1.00  0.00    -0.200 F 
ATOM     50  F   UNL A   1      35.791  29.367  30.126  1.00  0.00    -0.200 F 
ENDBRANCH  26  40
BRANCH  27  51
ATOM     51  C   UNL A   1      49.143  26.630  26.388  1.00  0.00     0.064 A 
ATOM     52  C   UNL A   1      50.145  26.154  27.243  1.00  0.00     0.173 A 
ATOM     53  C   UNL A   1      49.479  26.834  25.041  1.00  0.00     0.173 A 
ATOM     54  F   UNL A   1      49.880  25.959  28.544  1.00  0.00    -0.203 F 
ATOM     55  C   UNL A   1      51.440  25.928  26.778  1.00  0.00     0.198 A 
ATOM     56  C   UNL A   1      50.760  26.569  24.568  1.00  0.00     0.198 A 
ATOM     57  F   UNL A   1      48.554  27.282  24.178  1.00  0.00    -0.203 F 
ATOM     58  F   UNL A   1      52.395  25.536  27.631  1.00  0.00    -0.200 F 
ATOM     59  C   UNL A   1      51.745  26.131  25.440  1.00  0.00     0.200 A 
ATOM     60  F   UNL A   1      51.044  26.748  23.271  1.00  0.00    -0.200 F 
ATOM     61  F   UNL A   1      52.989  25.916  24.994  1.00  0.00    -0.200 F 
ENDBRANCH  27  51
BRANCH  39  62
ATOM     62  C   UNL A   1      45.985  32.475  28.469  1.00  0.00     0.064 A 
ATOM     63  C   UNL A   1      46.584  32.943  29.649  1.00  0.00     0.173 A 
ATOM     64  C   UNL A   1      45.876  33.363  27.389  1.00  0.00     0.173 A 
ATOM     65  F   UNL A   1      46.692  32.138  30.716  1.00  0.00    -0.203 F 
ATOM     66  C   UNL A   1      47.035  34.256  29.748  1.00  0.00     0.198 A 
ATOM     67  C   UNL A   1      46.359  34.665  27.481  1.00  0.00     0.198 A 
ATOM     68  F   UNL A   1      45.314  32.963  26.238  1.00  0.00    -0.203 F 
ATOM     69  F   UNL A   1      47.556  34.696  30.902  1.00  0.00    -0.200 F 
ATOM     70  C   UNL A   1      46.931  35.112  28.663  1.00  0.00     0.200 A 
ATOM     71  F   UNL A   1      46.271  35.486  26.427  1.00  0.00    -0.200 F 
ATOM     72  F   UNL A   1      47.375  36.372  28.758  1.00  0.00    -0.200 F 
ENDBRANCH  39  62
ENDBRANCH  13  14
ENDBRANCH   6   8
ENDBRANCH   3   4
ENDBRANCH   2   3
ENDBRANCH   1   2
BRANCH   1  73
ATOM     73  C   UNL A   1      37.050  22.164  24.589  1.00  0.00     0.002 C 
BRANCH  73  74
ATOM     74  C   UNL A   1      35.994  22.750  23.644  1.00  0.00     0.021 C 
BRANCH  74  75
ATOM     75  C   UNL A   1      35.427  24.089  24.110  1.00  0.00     0.116 C 
BRANCH  75  76
ATOM     76  N   UNL A   1      34.393  24.550  23.204  1.00  0.00    -0.354 N 
ATOM     77  C   UNL A   1      33.057  24.783  23.402  1.00  0.00     0.250 C 
ATOM     78  H   UNL A   1      34.706  24.727  22.287  1.00  0.00     0.163 HD
ATOM     79  O   UNL A   1      32.432  25.085  22.378  1.00  0.00    -0.272 OA
BRANCH  77  80
ATOM     80  C   UNL A   1      32.392  24.721  24.843  1.00  0.00     0.173 C 
ATOM     81  Cl  UNL A   1      30.595  24.537  24.449  1.00  0.00    -0.098 Cl
BRANCH  80  82
ATOM     82  C   UNL A   1      32.939  23.486  25.622  1.00  0.00    -0.013 A 
ATOM     83  C   UNL A   1      33.653  23.578  26.833  1.00  0.00     0.006 A 
ATOM     84  C   UNL A   1      32.667  22.182  25.148  1.00  0.00     0.006 A 
ATOM     85  C   UNL A   1      34.032  22.433  27.547  1.00  0.00     0.000 A 
ATOM     86  C   UNL A   1      33.083  21.040  25.838  1.00  0.00     0.000 A 
ATOM     87  C   UNL A   1      33.755  21.165  27.047  1.00  0.00     0.000 A 
ENDBRANCH  80  82
BRANCH  80  88
ATOM     88  C   UNL A   1      32.601  26.062  25.619  1.00  0.00    -0.013 A 
ATOM     89  C   UNL A   1      33.789  26.820  25.558  1.00  0.00     0.006 A 
ATOM     90  C   UNL A   1      31.593  26.556  26.476  1.00  0.00     0.006 A 
ATOM     91  C   UNL A   1      33.971  27.970  26.337  1.00  0.00     0.000 A 
ATOM     92  C   UNL A   1      31.764  27.717  27.237  1.00  0.00     0.000 A 
ATOM     93  C   UNL A   1      32.958  28.419  27.175  1.00  0.00     0.000 A 
ENDBRANCH  80  88
ENDBRANCH  77  80
ENDBRANCH  75  76
ENDBRANCH  74  75
ENDBRANCH  73  74
ENDBRANCH   1  73
TORSDOF 15
ENDMDL
