MODEL 1
REMARK VINA RESULT:     -12.9      0.000      0.000
REMARK SMILES O=C(NCCCCCCNC(=O)c1ccccc1NC(=O)c1ccncc1)c1ccc(-c2c3nc(c(-c4c(F)c(F)c(F)c(F)c4F)c4ccc([nH]4)c(-c4c(F)c(F)c(F)c(F)c4F)c4nc(c(-c5c(F)c(F)c(F)c(F)c5F)c5ccc2[nH]5)C=C4)C=C3)cc1
REMARK SMILES IDX 6 1 5 2 4 3 3 4 1 5 2 6 28 8 29 9 90 10 30 11 89 12 31 13
REMARK SMILES IDX 32 14 33 15 83 16 34 17 88 18 82 19 84 20 35 21 87 22 81 23
REMARK SMILES IDX 80 24 36 26 68 27 48 28 67 29 49 30 52 31 66 32 85 33 50 34
REMARK SMILES IDX 51 35 65 37 86 38 53 39 37 40 38 41 46 42 39 43 40 44 44 45
REMARK SMILES IDX 47 46 41 47 42 48 45 49 43 50 69 51 70 52 78 53 71 54 72 55
REMARK SMILES IDX 76 56 79 57 73 58 74 59 77 60 75 61 54 62 55 63 63 64 56 65
REMARK SMILES IDX 57 66 61 67 64 68 58 69 59 70 62 71 60 72 7 73 8 74 9 75
REMARK SMILES IDX 10 76 11 77 12 79 13 80 14 81 18 82 15 83 17 84 16 85 19 86
REMARK SMILES IDX 20 87 21 89 22 90 23 91 27 92 24 93 26 94 25 95
REMARK H PARENT 3 7 84 25 52 36 10 78 19 88
REMARK Flexibility Score: inf
ROOT
ATOM      1  C   UNL A   1      31.493  30.816  25.968  1.00  0.00     0.002 C 
ENDROOT
BRANCH   1   2
ATOM      2  C   UNL A   1      31.295  32.232  26.509  1.00  0.00     0.021 C 
BRANCH   2   3
ATOM      3  C   UNL A   1      32.513  32.829  27.203  1.00  0.00     0.116 C 
BRANCH   3   4
ATOM      4  N   UNL A   1      32.302  34.208  27.613  1.00  0.00    -0.352 N 
ATOM      5  O   UNL A   1      32.534  36.041  28.912  1.00  0.00    -0.269 OA
ATOM      6  C   UNL A   1      32.946  34.930  28.585  1.00  0.00     0.251 C 
ATOM      7  H   UNL A   1      31.598  34.691  27.124  1.00  0.00     0.163 HD
BRANCH   6   8
ATOM      8  C   UNL A   1      34.129  34.358  29.260  1.00  0.00     0.039 A 
ATOM      9  C   UNL A   1      35.416  34.601  28.774  1.00  0.00     0.014 A 
ATOM     10  C   UNL A   1      33.943  33.568  30.398  1.00  0.00     0.014 A 
ATOM     11  C   UNL A   1      36.504  33.946  29.340  1.00  0.00     0.010 A 
ATOM     12  C   UNL A   1      35.047  32.979  31.017  1.00  0.00     0.010 A 
ATOM     13  C   UNL A   1      36.333  33.140  30.477  1.00  0.00    -0.014 A 
BRANCH  13  14
ATOM     14  C   UNL A   1      37.512  32.512  31.123  1.00  0.00     0.031 A 
ATOM     15  C   UNL A   1      38.268  31.406  30.444  1.00  0.00     0.074 A 
ATOM     16  C   UNL A   1      37.890  32.941  32.342  1.00  0.00     0.049 A 
ATOM     17  N   UNL A   1      39.283  30.705  30.886  1.00  0.00    -0.248 NA
ATOM     18  C   UNL A   1      37.821  31.030  29.095  1.00  0.00     0.031 C 
ATOM     19  C   UNL A   1      37.231  34.007  33.099  1.00  0.00     0.029 A 
ATOM     20  N   UNL A   1      38.913  32.535  33.160  1.00  0.00    -0.354 N 
ATOM     21  C   UNL A   1      39.581  29.794  29.882  1.00  0.00     0.074 A 
ATOM     22  C   UNL A   1      38.622  30.011  28.819  1.00  0.00     0.031 C 
ATOM     23  C   UNL A   1      37.877  34.186  34.259  1.00  0.00     0.029 A 
ATOM     24  C   UNL A   1      38.951  33.205  34.357  1.00  0.00     0.049 A 
ATOM     25  H   UNL A   1      39.557  31.833  32.912  1.00  0.00     0.167 HD
ATOM     26  C   UNL A   1      40.570  28.868  29.850  1.00  0.00     0.037 A 
ATOM     27  C   UNL A   1      39.743  33.028  35.431  1.00  0.00     0.037 A 
ATOM     28  C   UNL A   1      41.520  28.663  30.915  1.00  0.00     0.049 A 
ATOM     29  C   UNL A   1      40.800  31.961  35.392  1.00  0.00     0.074 A 
ATOM     30  C   UNL A   1      42.581  27.774  30.967  1.00  0.00     0.029 A 
ATOM     31  N   UNL A   1      41.518  29.350  32.122  1.00  0.00    -0.354 N 
ATOM     32  N   UNL A   1      41.098  31.129  34.423  1.00  0.00    -0.248 NA
ATOM     33  C   UNL A   1      41.632  31.811  36.591  1.00  0.00     0.031 C 
ATOM     34  C   UNL A   1      43.179  27.879  32.227  1.00  0.00     0.029 A 
ATOM     35  C   UNL A   1      42.539  28.883  32.936  1.00  0.00     0.049 A 
ATOM     36  H   UNL A   1      40.884  30.063  32.364  1.00  0.00     0.167 HD
ATOM     37  C   UNL A   1      42.168  30.375  34.884  1.00  0.00     0.074 A 
ATOM     38  C   UNL A   1      42.474  30.858  36.216  1.00  0.00     0.031 C 
ATOM     39  C   UNL A   1      42.838  29.377  34.258  1.00  0.00     0.037 A 
BRANCH  26  40
ATOM     40  C   UNL A   1      40.655  27.980  28.640  1.00  0.00     0.064 A 
ATOM     41  C   UNL A   1      39.971  26.757  28.565  1.00  0.00     0.173 A 
ATOM     42  C   UNL A   1      41.412  28.373  27.524  1.00  0.00     0.173 A 
ATOM     43  F   UNL A   1      39.238  26.329  29.604  1.00  0.00    -0.203 F 
ATOM     44  C   UNL A   1      40.073  25.944  27.438  1.00  0.00     0.198 A 
ATOM     45  C   UNL A   1      41.484  27.573  26.386  1.00  0.00     0.198 A 
ATOM     46  F   UNL A   1      42.079  29.536  27.533  1.00  0.00    -0.203 F 
ATOM     47  F   UNL A   1      39.457  24.753  27.415  1.00  0.00    -0.200 F 
ATOM     48  C   UNL A   1      40.824  26.356  26.347  1.00  0.00     0.200 A 
ATOM     49  F   UNL A   1      42.197  27.981  25.326  1.00  0.00    -0.200 F 
ATOM     50  F   UNL A   1      40.918  25.573  25.263  1.00  0.00    -0.200 F 
ENDBRANCH  26  40
BRANCH  27  51
ATOM     51  C   UNL A   1      39.552  33.883  36.630  1.00  0.00     0.064 A 
ATOM     52  C   UNL A   1      38.776  33.448  37.711  1.00  0.00     0.173 A 
ATOM     53  C   UNL A   1      40.167  35.141  36.732  1.00  0.00     0.173 A 
ATOM     54  F   UNL A   1      38.156  32.259  37.654  1.00  0.00    -0.203 F 
ATOM     55  C   UNL A   1      38.609  34.242  38.844  1.00  0.00     0.198 A 
ATOM     56  C   UNL A   1      40.026  35.920  37.877  1.00  0.00     0.198 A 
ATOM     57  F   UNL A   1      40.928  35.600  35.727  1.00  0.00    -0.203 F 
ATOM     58  F   UNL A   1      37.832  33.818  39.848  1.00  0.00    -0.200 F 
ATOM     59  C   UNL A   1      39.243  35.473  38.929  1.00  0.00     0.200 A 
ATOM     60  F   UNL A   1      40.657  37.100  37.963  1.00  0.00    -0.200 F 
ATOM     61  F   UNL A   1      39.093  36.230  40.024  1.00  0.00    -0.200 F 
ENDBRANCH  27  51
BRANCH  39  62
ATOM     62  C   UNL A   1      44.006  28.771  34.982  1.00  0.00     0.064 A 
ATOM     63  C   UNL A   1      45.300  29.301  34.880  1.00  0.00     0.173 A 
ATOM     64  C   UNL A   1      43.815  27.666  35.826  1.00  0.00     0.173 A 
ATOM     65  F   UNL A   1      45.540  30.346  34.072  1.00  0.00    -0.203 F 
ATOM     66  C   UNL A   1      46.364  28.734  35.577  1.00  0.00     0.198 A 
ATOM     67  C   UNL A   1      44.873  27.123  36.549  1.00  0.00     0.198 A 
ATOM     68  F   UNL A   1      42.596  27.123  35.965  1.00  0.00    -0.203 F 
ATOM     69  F   UNL A   1      47.601  29.226  35.425  1.00  0.00    -0.200 F 
ATOM     70  C   UNL A   1      46.148  27.652  36.418  1.00  0.00     0.200 A 
ATOM     71  F   UNL A   1      44.659  26.087  37.372  1.00  0.00    -0.200 F 
ATOM     72  F   UNL A   1      47.170  27.114  37.097  1.00  0.00    -0.200 F 
ENDBRANCH  39  62
ENDBRANCH  13  14
ENDBRANCH   6   8
ENDBRANCH   3   4
ENDBRANCH   2   3
ENDBRANCH   1   2
BRANCH   1  73
ATOM     73  C   UNL A   1      32.276  29.870  26.883  1.00  0.00     0.002 C 
BRANCH  73  74
ATOM     74  C   UNL A   1      31.478  28.697  27.470  1.00  0.00     0.021 C 
BRANCH  74  75
ATOM     75  C   UNL A   1      31.977  27.312  27.071  1.00  0.00     0.116 C 
BRANCH  75  76
ATOM     76  N   UNL A   1      30.917  26.503  26.497  1.00  0.00    -0.352 N 
ATOM     77  C   UNL A   1      30.346  26.561  25.254  1.00  0.00     0.253 C 
ATOM     78  H   UNL A   1      30.554  25.808  27.091  1.00  0.00     0.163 HD
ATOM     79  O   UNL A   1      29.318  25.928  25.030  1.00  0.00    -0.269 OA
BRANCH  77  80
ATOM     80  C   UNL A   1      30.951  27.361  24.168  1.00  0.00     0.063 A 
ATOM     81  C   UNL A   1      32.353  27.331  24.093  1.00  0.00     0.016 A 
ATOM     82  C   UNL A   1      30.198  28.190  23.308  1.00  0.00     0.054 A 
ATOM     83  C   UNL A   1      33.024  28.128  23.171  1.00  0.00     0.001 A 
ATOM     84  C   UNL A   1      30.903  29.053  22.463  1.00  0.00     0.027 A 
ATOM     85  C   UNL A   1      32.300  29.005  22.373  1.00  0.00     0.002 A 
BRANCH  82  86
ATOM     86  N   UNL A   1      28.786  28.125  23.338  1.00  0.00    -0.321 N 
ATOM     87  C   UNL A   1      27.793  29.048  23.102  1.00  0.00     0.255 C 
ATOM     88  H   UNL A   1      28.441  27.234  23.577  1.00  0.00     0.170 HD
ATOM     89  O   UNL A   1      26.614  28.710  23.184  1.00  0.00    -0.269 OA
BRANCH  87  90
ATOM     90  C   UNL A   1      28.086  30.436  22.716  1.00  0.00     0.043 A 
ATOM     91  C   UNL A   1      28.428  31.405  23.659  1.00  0.00     0.034 A 
ATOM     92  C   UNL A   1      27.989  30.762  21.367  1.00  0.00     0.034 A 
ATOM     93  C   UNL A   1      28.555  32.706  23.208  1.00  0.00     0.112 A 
ATOM     94  C   UNL A   1      28.152  32.088  21.020  1.00  0.00     0.112 A 
ATOM     95  N   UNL A   1      28.410  33.067  21.914  1.00  0.00    -0.265 NA
ENDBRANCH  87  90
ENDBRANCH  82  86
ENDBRANCH  77  80
ENDBRANCH  75  76
ENDBRANCH  74  75
ENDBRANCH  73  74
ENDBRANCH   1  73
TORSDOF 15
ENDMDL
MODEL 2
REMARK VINA RESULT:     -12.8      0.399      7.285
REMARK SMILES O=C(NCCCCCCNC(=O)c1ccccc1NC(=O)c1ccncc1)c1ccc(-c2c3nc(c(-c4c(F)c(F)c(F)c(F)c4F)c4ccc([nH]4)c(-c4c(F)c(F)c(F)c(F)c4F)c4nc(c(-c5c(F)c(F)c(F)c(F)c5F)c5ccc2[nH]5)C=C4)C=C3)cc1
REMARK SMILES IDX 6 1 5 2 4 3 3 4 1 5 2 6 28 8 29 9 90 10 30 11 89 12 31 13
REMARK SMILES IDX 32 14 33 15 83 16 34 17 88 18 82 19 84 20 35 21 87 22 81 23
REMARK SMILES IDX 80 24 36 26 68 27 48 28 67 29 49 30 52 31 66 32 85 33 50 34
REMARK SMILES IDX 51 35 65 37 86 38 53 39 37 40 38 41 46 42 39 43 40 44 44 45
REMARK SMILES IDX 47 46 41 47 42 48 45 49 43 50 69 51 70 52 78 53 71 54 72 55
REMARK SMILES IDX 76 56 79 57 73 58 74 59 77 60 75 61 54 62 55 63 63 64 56 65
REMARK SMILES IDX 57 66 61 67 64 68 58 69 59 70 62 71 60 72 7 73 8 74 9 75
REMARK SMILES IDX 10 76 11 77 12 79 13 80 14 81 18 82 15 83 17 84 16 85 19 86
REMARK SMILES IDX 20 87 21 89 22 90 23 91 27 92 24 93 26 94 25 95
REMARK H PARENT 3 7 84 25 52 36 10 78 19 88
REMARK Flexibility Score: inf
ROOT
ATOM      1  C   UNL A   1      31.386  30.825  25.981  1.00  0.00     0.002 C 
ENDROOT
BRANCH   1   2
ATOM      2  C   UNL A   1      31.280  32.271  26.464  1.00  0.00     0.021 C 
BRANCH   2   3
ATOM      3  C   UNL A   1      32.507  32.791  27.202  1.00  0.00     0.116 C 
BRANCH   3   4
ATOM      4  N   UNL A   1      32.354  34.170  27.639  1.00  0.00    -0.352 N 
ATOM      5  O   UNL A   1      32.659  35.965  28.975  1.00  0.00    -0.269 OA
ATOM      6  C   UNL A   1      33.024  34.844  28.627  1.00  0.00     0.251 C 
ATOM      7  H   UNL A   1      31.674  34.692  27.157  1.00  0.00     0.163 HD
BRANCH   6   8
ATOM      8  C   UNL A   1      34.177  34.208  29.295  1.00  0.00     0.039 A 
ATOM      9  C   UNL A   1      35.485  34.510  28.905  1.00  0.00     0.014 A 
ATOM     10  C   UNL A   1      33.944  33.297  30.329  1.00  0.00     0.014 A 
ATOM     11  C   UNL A   1      36.551  33.803  29.451  1.00  0.00     0.010 A 
ATOM     12  C   UNL A   1      35.023  32.651  30.936  1.00  0.00     0.010 A 
ATOM     13  C   UNL A   1      36.332  32.877  30.483  1.00  0.00    -0.014 A 
BRANCH  13  14
ATOM     14  C   UNL A   1      37.484  32.189  31.116  1.00  0.00     0.031 A 
ATOM     15  C   UNL A   1      37.955  32.574  32.488  1.00  0.00     0.074 A 
ATOM     16  C   UNL A   1      38.114  31.214  30.433  1.00  0.00     0.049 A 
ATOM     17  N   UNL A   1      38.978  32.122  33.170  1.00  0.00    -0.248 NA
ATOM     18  C   UNL A   1      37.183  33.614  33.185  1.00  0.00     0.031 C 
ATOM     19  C   UNL A   1      37.746  30.754  29.093  1.00  0.00     0.029 A 
ATOM     20  N   UNL A   1      39.194  30.438  30.766  1.00  0.00    -0.354 N 
ATOM     21  C   UNL A   1      38.986  32.832  34.362  1.00  0.00     0.074 A 
ATOM     22  C   UNL A   1      37.882  33.768  34.301  1.00  0.00     0.031 C 
ATOM     23  C   UNL A   1      38.571  29.764  28.726  1.00  0.00     0.029 A 
ATOM     24  C   UNL A   1      39.564  29.565  29.774  1.00  0.00     0.049 A 
ATOM     25  H   UNL A   1      39.658  30.501  31.633  1.00  0.00     0.167 HD
ATOM     26  C   UNL A   1      39.833  32.708  35.413  1.00  0.00     0.037 A 
ATOM     27  C   UNL A   1      40.609  28.720  29.701  1.00  0.00     0.037 A 
ATOM     28  C   UNL A   1      40.927  31.770  35.462  1.00  0.00     0.049 A 
ATOM     29  C   UNL A   1      41.563  28.635  30.858  1.00  0.00     0.074 A 
ATOM     30  C   UNL A   1      41.823  31.542  36.494  1.00  0.00     0.029 A 
ATOM     31  N   UNL A   1      41.283  30.913  34.430  1.00  0.00    -0.354 N 
ATOM     32  N   UNL A   1      41.540  29.285  31.996  1.00  0.00    -0.248 NA
ATOM     33  C   UNL A   1      42.685  27.698  30.722  1.00  0.00     0.031 C 
ATOM     34  C   UNL A   1      42.756  30.593  36.062  1.00  0.00     0.029 A 
ATOM     35  C   UNL A   1      42.402  30.176  34.788  1.00  0.00     0.049 A 
ATOM     36  H   UNL A   1      40.810  30.838  33.570  1.00  0.00     0.167 HD
ATOM     37  C   UNL A   1      42.626  28.817  32.724  1.00  0.00     0.074 A 
ATOM     38  C   UNL A   1      43.280  27.820  31.900  1.00  0.00     0.031 C 
ATOM     39  C   UNL A   1      43.039  29.180  33.963  1.00  0.00     0.037 A 
BRANCH  26  40
ATOM     40  C   UNL A   1      39.632  33.630  36.583  1.00  0.00     0.064 A 
ATOM     41  C   UNL A   1      38.828  33.279  37.678  1.00  0.00     0.173 A 
ATOM     42  C   UNL A   1      40.277  34.878  36.622  1.00  0.00     0.173 A 
ATOM     43  F   UNL A   1      38.183  32.102  37.691  1.00  0.00    -0.203 F 
ATOM     44  C   UNL A   1      38.645  34.154  38.747  1.00  0.00     0.198 A 
ATOM     45  C   UNL A   1      40.119  35.735  37.708  1.00  0.00     0.198 A 
ATOM     46  F   UNL A   1      41.066  35.264  35.608  1.00  0.00    -0.203 F 
ATOM     47  F   UNL A   1      37.825  33.817  39.752  1.00  0.00    -0.200 F 
ATOM     48  C   UNL A   1      39.296  35.378  38.763  1.00  0.00     0.200 A 
ATOM     49  F   UNL A   1      40.763  36.911  37.730  1.00  0.00    -0.200 F 
ATOM     50  F   UNL A   1      39.121  36.217  39.794  1.00  0.00    -0.200 F 
ENDBRANCH  26  40
BRANCH  27  51
ATOM     51  C   UNL A   1      40.799  27.895  28.480  1.00  0.00     0.064 A 
ATOM     52  C   UNL A   1      40.209  26.630  28.363  1.00  0.00     0.173 A 
ATOM     53  C   UNL A   1      41.548  28.370  27.392  1.00  0.00     0.173 A 
ATOM     54  F   UNL A   1      39.496  26.128  29.383  1.00  0.00    -0.203 F 
ATOM     55  C   UNL A   1      40.373  25.864  27.212  1.00  0.00     0.198 A 
ATOM     56  C   UNL A   1      41.684  27.617  26.229  1.00  0.00     0.198 A 
ATOM     57  F   UNL A   1      42.125  29.579  27.449  1.00  0.00    -0.203 F 
ATOM     58  F   UNL A   1      39.829  24.642  27.140  1.00  0.00    -0.200 F 
ATOM     59  C   UNL A   1      41.103  26.362  26.142  1.00  0.00     0.200 A 
ATOM     60  F   UNL A   1      42.372  28.111  25.190  1.00  0.00    -0.200 F 
ATOM     61  F   UNL A   1      41.248  25.630  25.030  1.00  0.00    -0.200 F 
ENDBRANCH  27  51
BRANCH  39  62
ATOM     62  C   UNL A   1      44.227  28.457  34.532  1.00  0.00     0.064 A 
ATOM     63  C   UNL A   1      44.096  27.251  35.235  1.00  0.00     0.173 A 
ATOM     64  C   UNL A   1      45.521  28.962  34.330  1.00  0.00     0.173 A 
ATOM     65  F   UNL A   1      42.880  26.735  35.470  1.00  0.00    -0.203 F 
ATOM     66  C   UNL A   1      45.214  26.589  35.735  1.00  0.00     0.198 A 
ATOM     67  C   UNL A   1      46.639  28.280  34.801  1.00  0.00     0.198 A 
ATOM     68  F   UNL A   1      45.704  30.110  33.660  1.00  0.00    -0.203 F 
ATOM     69  F   UNL A   1      45.061  25.464  36.447  1.00  0.00    -0.200 F 
ATOM     70  C   UNL A   1      46.484  27.099  35.510  1.00  0.00     0.200 A 
ATOM     71  F   UNL A   1      47.866  28.767  34.570  1.00  0.00    -0.200 F 
ATOM     72  F   UNL A   1      47.561  26.454  35.983  1.00  0.00    -0.200 F 
ENDBRANCH  39  62
ENDBRANCH  13  14
ENDBRANCH   6   8
ENDBRANCH   3   4
ENDBRANCH   2   3
ENDBRANCH   1   2
BRANCH   1  73
ATOM     73  C   UNL A   1      32.262  29.910  26.840  1.00  0.00     0.002 C 
BRANCH  73  74
ATOM     74  C   UNL A   1      31.544  28.723  27.499  1.00  0.00     0.021 C 
BRANCH  74  75
ATOM     75  C   UNL A   1      32.046  27.347  27.074  1.00  0.00     0.116 C 
BRANCH  75  76
ATOM     76  N   UNL A   1      30.981  26.534  26.518  1.00  0.00    -0.352 N 
ATOM     77  C   UNL A   1      30.395  26.582  25.283  1.00  0.00     0.253 C 
ATOM     78  H   UNL A   1      30.626  25.841  27.121  1.00  0.00     0.163 HD
ATOM     79  O   UNL A   1      29.365  25.946  25.075  1.00  0.00    -0.269 OA
BRANCH  77  80
ATOM     80  C   UNL A   1      30.985  27.375  24.183  1.00  0.00     0.063 A 
ATOM     81  C   UNL A   1      32.386  27.350  24.094  1.00  0.00     0.016 A 
ATOM     82  C   UNL A   1      30.220  28.194  23.325  1.00  0.00     0.054 A 
ATOM     83  C   UNL A   1      33.044  28.142  23.159  1.00  0.00     0.001 A 
ATOM     84  C   UNL A   1      30.913  29.054  22.466  1.00  0.00     0.027 A 
ATOM     85  C   UNL A   1      32.308  29.010  22.362  1.00  0.00     0.002 A 
BRANCH  82  86
ATOM     86  N   UNL A   1      28.809  28.125  23.371  1.00  0.00    -0.321 N 
ATOM     87  C   UNL A   1      27.810  29.041  23.132  1.00  0.00     0.255 C 
ATOM     88  H   UNL A   1      28.470  27.236  23.624  1.00  0.00     0.170 HD
ATOM     89  O   UNL A   1      26.632  28.699  23.230  1.00  0.00    -0.269 OA
BRANCH  87  90
ATOM     90  C   UNL A   1      28.093  30.424  22.725  1.00  0.00     0.043 A 
ATOM     91  C   UNL A   1      28.424  31.412  23.652  1.00  0.00     0.034 A 
ATOM     92  C   UNL A   1      27.998  30.728  21.370  1.00  0.00     0.034 A 
ATOM     93  C   UNL A   1      28.542  32.706  23.181  1.00  0.00     0.112 A 
ATOM     94  C   UNL A   1      28.152  32.049  21.001  1.00  0.00     0.112 A 
ATOM     95  N   UNL A   1      28.399  33.045  21.881  1.00  0.00    -0.265 NA
ENDBRANCH  87  90
ENDBRANCH  82  86
ENDBRANCH  77  80
ENDBRANCH  75  76
ENDBRANCH  74  75
ENDBRANCH  73  74
ENDBRANCH   1  73
TORSDOF 15
ENDMDL
MODEL 3
REMARK VINA RESULT:     -12.7      0.555      7.292
REMARK SMILES O=C(NCCCCCCNC(=O)c1ccccc1NC(=O)c1ccncc1)c1ccc(-c2c3nc(c(-c4c(F)c(F)c(F)c(F)c4F)c4ccc([nH]4)c(-c4c(F)c(F)c(F)c(F)c4F)c4nc(c(-c5c(F)c(F)c(F)c(F)c5F)c5ccc2[nH]5)C=C4)C=C3)cc1
REMARK SMILES IDX 6 1 5 2 4 3 3 4 1 5 2 6 28 8 29 9 90 10 30 11 89 12 31 13
REMARK SMILES IDX 32 14 33 15 83 16 34 17 88 18 82 19 84 20 35 21 87 22 81 23
REMARK SMILES IDX 80 24 36 26 68 27 48 28 67 29 49 30 52 31 66 32 85 33 50 34
REMARK SMILES IDX 51 35 65 37 86 38 53 39 37 40 38 41 46 42 39 43 40 44 44 45
REMARK SMILES IDX 47 46 41 47 42 48 45 49 43 50 69 51 70 52 78 53 71 54 72 55
REMARK SMILES IDX 76 56 79 57 73 58 74 59 77 60 75 61 54 62 55 63 63 64 56 65
REMARK SMILES IDX 57 66 61 67 64 68 58 69 59 70 62 71 60 72 7 73 8 74 9 75
REMARK SMILES IDX 10 76 11 77 12 79 13 80 14 81 18 82 15 83 17 84 16 85 19 86
REMARK SMILES IDX 20 87 21 89 22 90 23 91 27 92 24 93 26 94 25 95
REMARK H PARENT 3 7 84 25 52 36 10 78 19 88
REMARK Flexibility Score: inf
ROOT
ATOM      1  C   UNL A   1      31.403  30.861  26.020  1.00  0.00     0.002 C 
ENDROOT
BRANCH   1   2
ATOM      2  C   UNL A   1      31.336  32.307  26.508  1.00  0.00     0.021 C 
BRANCH   2   3
ATOM      3  C   UNL A   1      32.609  32.820  27.167  1.00  0.00     0.116 C 
BRANCH   3   4
ATOM      4  N   UNL A   1      32.487  34.195  27.626  1.00  0.00    -0.352 N 
ATOM      5  O   UNL A   1      32.824  35.959  28.995  1.00  0.00    -0.269 OA
ATOM      6  C   UNL A   1      33.164  34.836  28.631  1.00  0.00     0.251 C 
ATOM      7  H   UNL A   1      31.825  34.742  27.146  1.00  0.00     0.163 HD
BRANCH   6   8
ATOM      8  C   UNL A   1      34.295  34.160  29.299  1.00  0.00     0.039 A 
ATOM      9  C   UNL A   1      35.605  34.348  28.850  1.00  0.00     0.014 A 
ATOM     10  C   UNL A   1      34.038  33.328  30.392  1.00  0.00     0.014 A 
ATOM     11  C   UNL A   1      36.639  33.601  29.404  1.00  0.00     0.010 A 
ATOM     12  C   UNL A   1      35.091  32.643  31.001  1.00  0.00     0.010 A 
ATOM     13  C   UNL A   1      36.396  32.751  30.494  1.00  0.00    -0.014 A 
BRANCH  13  14
ATOM     14  C   UNL A   1      37.520  32.022  31.131  1.00  0.00     0.031 A 
ATOM     15  C   UNL A   1      37.967  32.355  32.524  1.00  0.00     0.074 A 
ATOM     16  C   UNL A   1      38.147  31.057  30.431  1.00  0.00     0.049 A 
ATOM     17  N   UNL A   1      38.966  31.862  33.213  1.00  0.00    -0.248 NA
ATOM     18  C   UNL A   1      37.199  33.387  33.237  1.00  0.00     0.031 C 
ATOM     19  C   UNL A   1      37.801  30.647  29.069  1.00  0.00     0.029 A 
ATOM     20  N   UNL A   1      39.204  30.250  30.763  1.00  0.00    -0.354 N 
ATOM     21  C   UNL A   1      38.960  32.534  34.427  1.00  0.00     0.074 A 
ATOM     22  C   UNL A   1      37.876  33.492  34.372  1.00  0.00     0.031 C 
ATOM     23  C   UNL A   1      38.615  29.652  28.689  1.00  0.00     0.029 A 
ATOM     24  C   UNL A   1      39.581  29.402  29.752  1.00  0.00     0.049 A 
ATOM     25  H   UNL A   1      39.650  30.277  31.641  1.00  0.00     0.167 HD
ATOM     26  C   UNL A   1      39.781  32.361  35.492  1.00  0.00     0.037 A 
ATOM     27  C   UNL A   1      40.611  28.539  29.675  1.00  0.00     0.037 A 
ATOM     28  C   UNL A   1      40.856  31.401  35.535  1.00  0.00     0.049 A 
ATOM     29  C   UNL A   1      41.537  28.400  30.849  1.00  0.00     0.074 A 
ATOM     30  C   UNL A   1      41.724  31.123  36.578  1.00  0.00     0.029 A 
ATOM     31  N   UNL A   1      41.219  30.570  34.485  1.00  0.00    -0.354 N 
ATOM     32  N   UNL A   1      41.501  29.014  32.006  1.00  0.00    -0.248 NA
ATOM     33  C   UNL A   1      42.644  27.447  30.708  1.00  0.00     0.031 C 
ATOM     34  C   UNL A   1      42.649  30.171  36.137  1.00  0.00     0.029 A 
ATOM     35  C   UNL A   1      42.316  29.801  34.844  1.00  0.00     0.049 A 
ATOM     36  H   UNL A   1      40.765  30.531  33.612  1.00  0.00     0.167 HD
ATOM     37  C   UNL A   1      42.561  28.503  32.743  1.00  0.00     0.074 A 
ATOM     38  C   UNL A   1      43.215  27.520  31.902  1.00  0.00     0.031 C 
ATOM     39  C   UNL A   1      42.953  28.819  34.001  1.00  0.00     0.037 A 
BRANCH  26  40
ATOM     40  C   UNL A   1      39.571  33.250  36.686  1.00  0.00     0.064 A 
ATOM     41  C   UNL A   1      38.707  32.896  37.734  1.00  0.00     0.173 A 
ATOM     42  C   UNL A   1      40.266  34.465  36.797  1.00  0.00     0.173 A 
ATOM     43  F   UNL A   1      38.012  31.750  37.678  1.00  0.00    -0.203 F 
ATOM     44  C   UNL A   1      38.518  33.741  38.826  1.00  0.00     0.198 A 
ATOM     45  C   UNL A   1      40.100  35.290  37.906  1.00  0.00     0.198 A 
ATOM     46  F   UNL A   1      41.114  34.851  35.831  1.00  0.00    -0.203 F 
ATOM     47  F   UNL A   1      37.642  33.406  39.785  1.00  0.00    -0.200 F 
ATOM     48  C   UNL A   1      39.219  34.934  38.914  1.00  0.00     0.200 A 
ATOM     49  F   UNL A   1      40.793  36.435  37.998  1.00  0.00    -0.200 F 
ATOM     50  F   UNL A   1      39.038  35.743  39.967  1.00  0.00    -0.200 F 
ENDBRANCH  26  40
BRANCH  27  51
ATOM     51  C   UNL A   1      40.813  27.750  28.432  1.00  0.00     0.064 A 
ATOM     52  C   UNL A   1      41.622  28.231  27.396  1.00  0.00     0.173 A 
ATOM     53  C   UNL A   1      40.226  26.486  28.271  1.00  0.00     0.173 A 
ATOM     54  F   UNL A   1      42.194  29.441  27.498  1.00  0.00    -0.203 F 
ATOM     55  C   UNL A   1      41.827  27.484  26.237  1.00  0.00     0.198 A 
ATOM     56  C   UNL A   1      40.456  25.727  27.126  1.00  0.00     0.198 A 
ATOM     57  F   UNL A   1      39.449  25.976  29.238  1.00  0.00    -0.203 F 
ATOM     58  F   UNL A   1      42.575  27.983  25.245  1.00  0.00    -0.200 F 
ATOM     59  C   UNL A   1      41.250  26.229  26.108  1.00  0.00     0.200 A 
ATOM     60  F   UNL A   1      39.914  24.506  27.015  1.00  0.00    -0.200 F 
ATOM     61  F   UNL A   1      41.458  25.506  24.999  1.00  0.00    -0.200 F 
ENDBRANCH  27  51
BRANCH  39  62
ATOM     62  C   UNL A   1      44.114  28.056  34.572  1.00  0.00     0.064 A 
ATOM     63  C   UNL A   1      45.429  28.540  34.501  1.00  0.00     0.173 A 
ATOM     64  C   UNL A   1      43.899  26.841  35.241  1.00  0.00     0.173 A 
ATOM     65  F   UNL A   1      45.691  29.688  33.857  1.00  0.00    -0.203 F 
ATOM     66  C   UNL A   1      46.486  27.824  35.055  1.00  0.00     0.198 A 
ATOM     67  C   UNL A   1      44.953  26.145  35.824  1.00  0.00     0.198 A 
ATOM     68  F   UNL A   1      42.660  26.335  35.343  1.00  0.00    -0.203 F 
ATOM     69  F   UNL A   1      47.740  28.282  34.931  1.00  0.00    -0.200 F 
ATOM     70  C   UNL A   1      46.247  26.633  35.725  1.00  0.00     0.200 A 
ATOM     71  F   UNL A   1      44.717  25.002  36.484  1.00  0.00    -0.200 F 
ATOM     72  F   UNL A   1      47.265  25.951  36.268  1.00  0.00    -0.200 F 
ENDBRANCH  39  62
ENDBRANCH  13  14
ENDBRANCH   6   8
ENDBRANCH   3   4
ENDBRANCH   2   3
ENDBRANCH   1   2
BRANCH   1  73
ATOM     73  C   UNL A   1      32.278  29.926  26.859  1.00  0.00     0.002 C 
BRANCH  73  74
ATOM     74  C   UNL A   1      31.556  28.733  27.501  1.00  0.00     0.021 C 
BRANCH  74  75
ATOM     75  C   UNL A   1      32.075  27.361  27.082  1.00  0.00     0.116 C 
BRANCH  75  76
ATOM     76  N   UNL A   1      31.023  26.536  26.518  1.00  0.00    -0.352 N 
ATOM     77  C   UNL A   1      30.442  26.581  25.280  1.00  0.00     0.253 C 
ATOM     78  H   UNL A   1      30.674  25.837  27.117  1.00  0.00     0.163 HD
ATOM     79  O   UNL A   1      29.422  25.933  25.065  1.00  0.00    -0.269 OA
BRANCH  77  80
ATOM     80  C   UNL A   1      31.027  27.386  24.186  1.00  0.00     0.063 A 
ATOM     81  C   UNL A   1      32.429  27.376  24.101  1.00  0.00     0.016 A 
ATOM     82  C   UNL A   1      30.257  28.202  23.330  1.00  0.00     0.054 A 
ATOM     83  C   UNL A   1      33.081  28.179  23.171  1.00  0.00     0.001 A 
ATOM     84  C   UNL A   1      30.943  29.072  22.477  1.00  0.00     0.027 A 
ATOM     85  C   UNL A   1      32.339  29.044  22.376  1.00  0.00     0.002 A 
BRANCH  82  86
ATOM     86  N   UNL A   1      28.846  28.118  23.371  1.00  0.00    -0.321 N 
ATOM     87  C   UNL A   1      27.838  29.019  23.118  1.00  0.00     0.255 C 
ATOM     88  H   UNL A   1      28.515  27.228  23.635  1.00  0.00     0.170 HD
ATOM     89  O   UNL A   1      26.664  28.666  23.216  1.00  0.00    -0.269 OA
BRANCH  87  90
ATOM     90  C   UNL A   1      28.107  30.400  22.693  1.00  0.00     0.043 A 
ATOM     91  C   UNL A   1      28.412  31.406  23.611  1.00  0.00     0.034 A 
ATOM     92  C   UNL A   1      28.028  30.683  21.333  1.00  0.00     0.034 A 
ATOM     93  C   UNL A   1      28.519  32.695  23.122  1.00  0.00     0.112 A 
ATOM     94  C   UNL A   1      28.169  32.000  20.947  1.00  0.00     0.112 A 
ATOM     95  N   UNL A   1      28.390  33.013  21.815  1.00  0.00    -0.265 NA
ENDBRANCH  87  90
ENDBRANCH  82  86
ENDBRANCH  77  80
ENDBRANCH  75  76
ENDBRANCH  74  75
ENDBRANCH  73  74
ENDBRANCH   1  73
TORSDOF 15
ENDMDL
