MODEL 1
REMARK VINA RESULT:     -14.2      0.000      0.000
REMARK SMILES Cc1ccc(-c2cc(Cl)cc3c2O[C@@H](C(F)(F)F)C(C(=O)NCCCCCCNC(=O)c2ccc(-c4c5nc(c(-c6c(F)c(F)c(F)c(F)c6F)c6ccc([nH]6)c(-c6c(F)c(F)c(F)c(F)c6F)c6nc(c(-c7c(F)c(F)c(F)c(F)c7F)c7ccc4[nH]7)C=C6)C=C5)cc2)=C3)cc1
REMARK SMILES IDX 26 1 25 2 24 3 23 4 22 5 20 6 21 7 19 9 6 10 7 11 12 12 8 13
REMARK SMILES IDX 11 14 13 15 9 16 10 17 95 18 14 19 5 20 1 21 2 22 3 23 97 24
REMARK SMILES IDX 4 25 96 26 15 27 16 28 17 29 18 30 27 31 28 32 29 33 30 34
REMARK SMILES IDX 31 36 32 37 33 38 94 39 34 40 93 41 35 42 36 43 37 44 87 45
REMARK SMILES IDX 38 46 92 47 86 48 88 49 39 50 91 51 85 52 84 53 40 55 72 56
REMARK SMILES IDX 52 57 71 58 53 59 56 60 70 61 89 62 54 63 55 64 69 66 90 67
REMARK SMILES IDX 57 68 41 69 42 70 50 71 43 72 44 73 48 74 51 75 45 76 46 77
REMARK SMILES IDX 49 78 47 79 73 80 74 81 82 82 75 83 76 84 80 85 83 86 77 87
REMARK SMILES IDX 78 88 81 89 79 90 58 91 59 92 67 93 60 94 61 95 65 96 68 97
REMARK SMILES IDX 62 98 63 99 66 100 64 101
REMARK H PARENT 22 8 29 35 88 54 56 65
REMARK Flexibility Score: inf
ROOT
ATOM      1  C   UNL A   1      36.396  21.450  24.616  1.00  0.00     0.002 C 
ENDROOT
BRANCH   1   2
ATOM      2  C   UNL A   1      35.268  21.121  25.595  1.00  0.00     0.002 C 
BRANCH   2   3
ATOM      3  C   UNL A   1      34.554  22.260  26.317  1.00  0.00     0.021 C 
BRANCH   3   4
ATOM      4  C   UNL A   1      34.613  23.695  25.795  1.00  0.00     0.116 C 
BRANCH   4   5
ATOM      5  N   UNL A   1      33.679  24.681  26.286  1.00  0.00    -0.352 N 
ATOM      6  C   UNL A   1      32.342  24.871  26.027  1.00  0.00     0.251 C 
ATOM      7  O   UNL A   1      31.715  25.519  26.872  1.00  0.00    -0.270 OA
ATOM      8  H   UNL A   1      34.067  25.330  26.916  1.00  0.00     0.163 HD
BRANCH   6   9
ATOM      9  C   UNL A   1      31.608  24.398  24.757  1.00  0.00     0.067 C 
ATOM     10  C   UNL A   1      31.507  28.284  23.893  1.00  0.00     0.026 A 
ATOM     11  C   UNL A   1      30.347  28.896  23.377  1.00  0.00     0.033 A 
ATOM     12  C   UNL A   1      31.491  26.890  23.888  1.00  0.00     0.135 A 
ATOM     13  C   UNL A   1      29.157  28.167  23.260  1.00  0.00     0.042 A 
ATOM     14  C   UNL A   1      30.262  26.219  24.111  1.00  0.00     0.019 A 
ATOM     15  O   UNL A   1      32.647  26.146  23.560  1.00  0.00    -0.475 OA
ATOM     16  Cl  UNL A   1      27.734  28.955  22.701  1.00  0.00    -0.084 Cl
ATOM     17  C   UNL A   1      29.086  26.853  23.727  1.00  0.00     0.032 A 
ATOM     18  C   UNL A   1      30.320  24.837  24.714  1.00  0.00     0.025 C 
ATOM     19  C   UNL A   1      32.246  24.742  23.427  1.00  0.00     0.314 C 
BRANCH  10  20
ATOM     20  C   UNL A   1      32.067  28.986  25.087  1.00  0.00    -0.015 A 
ATOM     21  C   UNL A   1      33.784  31.622  28.080  1.00  0.00     0.044 C 
ATOM     22  C   UNL A   1      33.162  30.683  27.088  1.00  0.00    -0.051 A 
ATOM     23  C   UNL A   1      33.791  29.479  26.727  1.00  0.00     0.004 A 
ATOM     24  C   UNL A   1      31.946  31.004  26.494  1.00  0.00     0.004 A 
ATOM     25  C   UNL A   1      33.252  28.639  25.732  1.00  0.00     0.009 A 
ATOM     26  C   UNL A   1      31.409  30.165  25.520  1.00  0.00     0.009 A 
ENDBRANCH  10  20
BRANCH  19  27
ATOM     27  C   UNL A   1      33.138  23.645  22.817  1.00  0.00     0.429 C 
ATOM     28  F   UNL A   1      32.906  22.457  23.442  1.00  0.00    -0.167 F 
ATOM     29  F   UNL A   1      32.900  23.444  21.503  1.00  0.00    -0.167 F 
ATOM     30  F   UNL A   1      34.463  23.876  22.972  1.00  0.00    -0.167 F 
ENDBRANCH  19  27
ENDBRANCH   6   9
ENDBRANCH   4   5
ENDBRANCH   3   4
ENDBRANCH   2   3
ENDBRANCH   1   2
BRANCH   1  31
ATOM     31  C   UNL A   1      37.832  21.327  25.117  1.00  0.00     0.021 C 
BRANCH  31  32
ATOM     32  C   UNL A   1      38.417  22.563  25.786  1.00  0.00     0.116 C 
BRANCH  32  33
ATOM     33  N   UNL A   1      39.852  22.493  26.033  1.00  0.00    -0.352 N 
ATOM     34  C   UNL A   1      40.715  23.480  26.488  1.00  0.00     0.251 C 
ATOM     35  H   UNL A   1      40.268  21.621  25.851  1.00  0.00     0.163 HD
ATOM     36  O   UNL A   1      41.900  23.254  26.619  1.00  0.00    -0.269 OA
BRANCH  34  37
ATOM     37  C   UNL A   1      40.151  24.784  26.927  1.00  0.00     0.039 A 
ATOM     38  C   UNL A   1      40.653  25.950  26.337  1.00  0.00     0.014 A 
ATOM     39  C   UNL A   1      39.285  24.868  28.013  1.00  0.00     0.014 A 
ATOM     40  C   UNL A   1      40.481  27.172  26.985  1.00  0.00     0.010 A 
ATOM     41  C   UNL A   1      39.191  26.058  28.708  1.00  0.00     0.010 A 
ATOM     42  C   UNL A   1      39.845  27.195  28.227  1.00  0.00    -0.014 A 
BRANCH  42  43
ATOM     43  C   UNL A   1      39.941  28.323  29.145  1.00  0.00     0.031 A 
ATOM     44  C   UNL A   1      38.898  29.364  29.197  1.00  0.00     0.074 A 
ATOM     45  C   UNL A   1      40.979  28.384  30.011  1.00  0.00     0.049 A 
ATOM     46  N   UNL A   1      39.134  30.594  29.515  1.00  0.00    -0.248 NA
ATOM     47  C   UNL A   1      37.500  29.105  28.879  1.00  0.00     0.031 C 
ATOM     48  C   UNL A   1      41.130  29.295  31.143  1.00  0.00     0.029 A 
ATOM     49  N   UNL A   1      42.223  27.739  29.913  1.00  0.00    -0.354 N 
ATOM     50  C   UNL A   1      37.921  31.208  29.712  1.00  0.00     0.074 A 
ATOM     51  C   UNL A   1      36.933  30.263  29.237  1.00  0.00     0.031 C 
ATOM     52  C   UNL A   1      42.433  29.393  31.446  1.00  0.00     0.029 A 
ATOM     53  C   UNL A   1      43.167  28.646  30.442  1.00  0.00     0.049 A 
ATOM     54  H   UNL A   1      42.399  26.839  29.552  1.00  0.00     0.167 HD
ATOM     55  C   UNL A   1      37.858  32.389  30.391  1.00  0.00     0.037 A 
ATOM     56  C   UNL A   1      44.187  29.142  29.685  1.00  0.00     0.037 A 
ATOM     57  C   UNL A   1      39.173  32.834  30.833  1.00  0.00     0.049 A 
ATOM     58  C   UNL A   1      44.196  30.647  29.575  1.00  0.00     0.074 A 
ATOM     59  C   UNL A   1      39.834  32.716  32.046  1.00  0.00     0.029 A 
ATOM     60  N   UNL A   1      40.131  33.212  29.900  1.00  0.00    -0.354 N 
ATOM     61  N   UNL A   1      43.160  31.397  29.827  1.00  0.00    -0.248 NA
ATOM     62  C   UNL A   1      45.354  31.421  29.142  1.00  0.00     0.031 C 
ATOM     63  C   UNL A   1      41.201  33.005  31.837  1.00  0.00     0.029 A 
ATOM     64  C   UNL A   1      41.374  33.308  30.498  1.00  0.00     0.049 A 
ATOM     65  H   UNL A   1      39.951  33.387  28.948  1.00  0.00     0.167 HD
ATOM     66  C   UNL A   1      43.476  32.710  29.587  1.00  0.00     0.074 A 
ATOM     67  C   UNL A   1      44.867  32.675  29.179  1.00  0.00     0.031 C 
ATOM     68  C   UNL A   1      42.552  33.705  29.744  1.00  0.00     0.037 A 
BRANCH  55  69
ATOM     69  C   UNL A   1      36.556  32.950  30.905  1.00  0.00     0.064 A 
ATOM     70  C   UNL A   1      35.770  33.827  30.129  1.00  0.00     0.173 A 
ATOM     71  C   UNL A   1      36.062  32.688  32.196  1.00  0.00     0.173 A 
ATOM     72  F   UNL A   1      36.069  34.094  28.852  1.00  0.00    -0.203 F 
ATOM     73  C   UNL A   1      34.651  34.482  30.645  1.00  0.00     0.198 A 
ATOM     74  C   UNL A   1      34.971  33.380  32.730  1.00  0.00     0.198 A 
ATOM     75  F   UNL A   1      36.623  31.743  32.966  1.00  0.00    -0.203 F 
ATOM     76  F   UNL A   1      33.953  35.321  29.866  1.00  0.00    -0.200 F 
ATOM     77  C   UNL A   1      34.273  34.288  31.958  1.00  0.00     0.200 A 
ATOM     78  F   UNL A   1      34.609  33.172  34.004  1.00  0.00    -0.200 F 
ATOM     79  F   UNL A   1      33.236  34.963  32.471  1.00  0.00    -0.200 F 
ENDBRANCH  55  69
BRANCH  56  80
ATOM     80  C   UNL A   1      44.647  28.201  28.633  1.00  0.00     0.064 A 
ATOM     81  C   UNL A   1      45.322  27.033  29.039  1.00  0.00     0.173 A 
ATOM     82  C   UNL A   1      44.113  28.225  27.339  1.00  0.00     0.173 A 
ATOM     83  F   UNL A   1      45.847  26.959  30.272  1.00  0.00    -0.203 F 
ATOM     84  C   UNL A   1      45.356  25.899  28.232  1.00  0.00     0.198 A 
ATOM     85  C   UNL A   1      44.163  27.091  26.527  1.00  0.00     0.198 A 
ATOM     86  F   UNL A   1      43.443  29.302  26.904  1.00  0.00    -0.203 F 
ATOM     87  F   UNL A   1      45.907  24.767  28.693  1.00  0.00    -0.200 F 
ATOM     88  C   UNL A   1      44.752  25.919  26.987  1.00  0.00     0.200 A 
ATOM     89  F   UNL A   1      43.559  27.101  25.330  1.00  0.00    -0.200 F 
ATOM     90  F   UNL A   1      44.702  24.803  26.247  1.00  0.00    -0.200 F 
ENDBRANCH  56  80
BRANCH  68  91
ATOM     91  C   UNL A   1      42.686  35.153  29.327  1.00  0.00     0.064 A 
ATOM     92  C   UNL A   1      42.030  35.723  28.225  1.00  0.00     0.173 A 
ATOM     93  C   UNL A   1      43.402  36.068  30.142  1.00  0.00     0.173 A 
ATOM     94  F   UNL A   1      41.222  34.999  27.440  1.00  0.00    -0.203 F 
ATOM     95  C   UNL A   1      42.132  37.086  27.925  1.00  0.00     0.198 A 
ATOM     96  C   UNL A   1      43.452  37.435  29.873  1.00  0.00     0.198 A 
ATOM     97  F   UNL A   1      44.055  35.669  31.243  1.00  0.00    -0.203 F 
ATOM     98  F   UNL A   1      41.519  37.572  26.835  1.00  0.00    -0.200 F 
ATOM     99  C   UNL A   1      42.832  37.943  28.754  1.00  0.00     0.200 A 
ATOM    100  F   UNL A   1      44.092  38.256  30.719  1.00  0.00    -0.200 F 
ATOM    101  F   UNL A   1      42.887  39.254  28.488  1.00  0.00    -0.200 F 
ENDBRANCH  68  91
ENDBRANCH  42  43
ENDBRANCH  34  37
ENDBRANCH  32  33
ENDBRANCH  31  32
ENDBRANCH   1  31
TORSDOF 15
ENDMDL
MODEL 2
REMARK VINA RESULT:     -13.1      3.727      9.860
REMARK SMILES Cc1ccc(-c2cc(Cl)cc3c2O[C@@H](C(F)(F)F)C(C(=O)NCCCCCCNC(=O)c2ccc(-c4c5nc(c(-c6c(F)c(F)c(F)c(F)c6F)c6ccc([nH]6)c(-c6c(F)c(F)c(F)c(F)c6F)c6nc(c(-c7c(F)c(F)c(F)c(F)c7F)c7ccc4[nH]7)C=C6)C=C5)cc2)=C3)cc1
REMARK SMILES IDX 26 1 25 2 24 3 23 4 22 5 20 6 21 7 19 9 6 10 7 11 12 12 8 13
REMARK SMILES IDX 11 14 13 15 9 16 10 17 95 18 14 19 5 20 1 21 2 22 3 23 97 24
REMARK SMILES IDX 4 25 96 26 15 27 16 28 17 29 18 30 27 31 28 32 29 33 30 34
REMARK SMILES IDX 31 36 32 37 33 38 94 39 34 40 93 41 35 42 36 43 37 44 87 45
REMARK SMILES IDX 38 46 92 47 86 48 88 49 39 50 91 51 85 52 84 53 40 55 72 56
REMARK SMILES IDX 52 57 71 58 53 59 56 60 70 61 89 62 54 63 55 64 69 66 90 67
REMARK SMILES IDX 57 68 41 69 42 70 50 71 43 72 44 73 48 74 51 75 45 76 46 77
REMARK SMILES IDX 49 78 47 79 73 80 74 81 82 82 75 83 76 84 80 85 83 86 77 87
REMARK SMILES IDX 78 88 81 89 79 90 58 91 59 92 67 93 60 94 61 95 65 96 68 97
REMARK SMILES IDX 62 98 63 99 66 100 64 101
REMARK H PARENT 22 8 29 35 88 54 56 65
REMARK Flexibility Score: inf
ROOT
ATOM      1  C   UNL A   1      33.348  30.041  26.494  1.00  0.00     0.002 C 
ENDROOT
BRANCH   1   2
ATOM      2  C   UNL A   1      33.366  28.847  25.538  1.00  0.00     0.002 C 
BRANCH   2   3
ATOM      3  C   UNL A   1      32.684  28.972  24.179  1.00  0.00     0.021 C 
BRANCH   3   4
ATOM      4  C   UNL A   1      33.057  28.057  23.014  1.00  0.00     0.116 C 
BRANCH   4   5
ATOM      5  N   UNL A   1      33.818  26.853  23.256  1.00  0.00    -0.352 N 
ATOM      6  C   UNL A   1      33.502  25.529  23.068  1.00  0.00     0.251 C 
ATOM      7  O   UNL A   1      34.461  24.753  22.976  1.00  0.00    -0.270 OA
ATOM      8  H   UNL A   1      34.719  27.009  23.619  1.00  0.00     0.163 HD
BRANCH   6   9
ATOM      9  C   UNL A   1      32.073  24.953  23.029  1.00  0.00     0.067 C 
ATOM     10  C   UNL A   1      33.626  22.101  25.333  1.00  0.00     0.026 A 
ATOM     11  C   UNL A   1      33.328  20.739  25.125  1.00  0.00     0.033 A 
ATOM     12  C   UNL A   1      32.810  22.996  24.643  1.00  0.00     0.135 A 
ATOM     13  C   UNL A   1      32.560  20.345  24.023  1.00  0.00     0.042 A 
ATOM     14  C   UNL A   1      32.335  22.636  23.357  1.00  0.00     0.019 A 
ATOM     15  O   UNL A   1      32.366  24.196  25.245  1.00  0.00    -0.475 OA
ATOM     16  Cl  UNL A   1      32.274  18.672  23.745  1.00  0.00    -0.084 Cl
ATOM     17  C   UNL A   1      32.150  21.287  23.076  1.00  0.00     0.032 A 
ATOM     18  C   UNL A   1      32.020  23.752  22.390  1.00  0.00     0.025 C 
ATOM     19  C   UNL A   1      31.362  24.790  24.357  1.00  0.00     0.314 C 
BRANCH  10  20
ATOM     20  C   UNL A   1      35.091  22.383  25.409  1.00  0.00    -0.015 A 
ATOM     21  C   UNL A   1      39.366  22.623  26.125  1.00  0.00     0.044 C 
ATOM     22  C   UNL A   1      37.897  22.562  25.824  1.00  0.00    -0.051 A 
ATOM     23  C   UNL A   1      37.044  23.637  26.127  1.00  0.00     0.004 A 
ATOM     24  C   UNL A   1      37.352  21.420  25.248  1.00  0.00     0.004 A 
ATOM     25  C   UNL A   1      35.652  23.549  25.926  1.00  0.00     0.009 A 
ATOM     26  C   UNL A   1      35.977  21.340  25.037  1.00  0.00     0.009 A 
ENDBRANCH  10  20
BRANCH  19  27
ATOM     27  C   UNL A   1      30.436  25.954  24.759  1.00  0.00     0.429 C 
ATOM     28  F   UNL A   1      30.181  26.740  23.676  1.00  0.00    -0.167 F 
ATOM     29  F   UNL A   1      29.240  25.536  25.224  1.00  0.00    -0.167 F 
ATOM     30  F   UNL A   1      30.978  26.783  25.682  1.00  0.00    -0.167 F 
ENDBRANCH  19  27
ENDBRANCH   6   9
ENDBRANCH   4   5
ENDBRANCH   3   4
ENDBRANCH   2   3
ENDBRANCH   1   2
BRANCH   1  31
ATOM     31  C   UNL A   1      34.383  30.069  27.616  1.00  0.00     0.021 C 
BRANCH  31  32
ATOM     32  C   UNL A   1      35.005  31.425  27.919  1.00  0.00     0.116 C 
BRANCH  32  33
ATOM     33  N   UNL A   1      35.190  31.700  29.339  1.00  0.00    -0.352 N 
ATOM     34  C   UNL A   1      36.051  31.099  30.246  1.00  0.00     0.251 C 
ATOM     35  H   UNL A   1      34.623  32.415  29.707  1.00  0.00     0.163 HD
ATOM     36  O   UNL A   1      36.062  31.441  31.410  1.00  0.00    -0.269 OA
BRANCH  34  37
ATOM     37  C   UNL A   1      37.046  30.112  29.750  1.00  0.00     0.039 A 
ATOM     38  C   UNL A   1      37.232  28.937  30.488  1.00  0.00     0.014 A 
ATOM     39  C   UNL A   1      37.898  30.413  28.692  1.00  0.00     0.014 A 
ATOM     40  C   UNL A   1      38.405  28.203  30.321  1.00  0.00     0.010 A 
ATOM     41  C   UNL A   1      39.103  29.746  28.587  1.00  0.00     0.010 A 
ATOM     42  C   UNL A   1      39.383  28.682  29.447  1.00  0.00    -0.014 A 
BRANCH  42  43
ATOM     43  C   UNL A   1      40.764  28.218  29.473  1.00  0.00     0.031 A 
ATOM     44  C   UNL A   1      41.159  26.939  28.854  1.00  0.00     0.074 A 
ATOM     45  C   UNL A   1      41.716  29.005  30.026  1.00  0.00     0.049 A 
ATOM     46  N   UNL A   1      42.138  26.212  29.280  1.00  0.00    -0.248 NA
ATOM     47  C   UNL A   1      40.468  26.365  27.706  1.00  0.00     0.031 C 
ATOM     48  C   UNL A   1      43.163  28.825  29.947  1.00  0.00     0.029 A 
ATOM     49  N   UNL A   1      41.543  30.047  30.952  1.00  0.00    -0.354 N 
ATOM     50  C   UNL A   1      42.381  25.251  28.330  1.00  0.00     0.074 A 
ATOM     51  C   UNL A   1      41.273  25.340  27.404  1.00  0.00     0.031 C 
ATOM     52  C   UNL A   1      43.735  29.474  30.972  1.00  0.00     0.029 A 
ATOM     53  C   UNL A   1      42.665  29.988  31.808  1.00  0.00     0.049 A 
ATOM     54  H   UNL A   1      40.795  30.686  30.994  1.00  0.00     0.167 HD
ATOM     55  C   UNL A   1      43.564  24.572  28.334  1.00  0.00     0.037 A 
ATOM     56  C   UNL A   1      42.535  29.758  33.145  1.00  0.00     0.037 A 
ATOM     57  C   UNL A   1      44.440  25.012  29.412  1.00  0.00     0.049 A 
ATOM     58  C   UNL A   1      43.270  28.535  33.633  1.00  0.00     0.074 A 
ATOM     59  C   UNL A   1      45.497  25.909  29.443  1.00  0.00     0.029 A 
ATOM     60  N   UNL A   1      44.090  24.775  30.736  1.00  0.00    -0.354 N 
ATOM     61  N   UNL A   1      43.669  27.571  32.852  1.00  0.00    -0.248 NA
ATOM     62  C   UNL A   1      43.584  28.284  35.037  1.00  0.00     0.031 C 
ATOM     63  C   UNL A   1      45.771  26.228  30.792  1.00  0.00     0.029 A 
ATOM     64  C   UNL A   1      44.886  25.520  31.586  1.00  0.00     0.049 A 
ATOM     65  H   UNL A   1      43.376  24.162  31.028  1.00  0.00     0.167 HD
ATOM     66  C   UNL A   1      44.259  26.586  33.605  1.00  0.00     0.074 A 
ATOM     67  C   UNL A   1      44.198  27.089  34.963  1.00  0.00     0.031 C 
ATOM     68  C   UNL A   1      44.738  25.442  33.030  1.00  0.00     0.037 A 
BRANCH  55  69
ATOM     69  C   UNL A   1      44.017  23.741  27.160  1.00  0.00     0.064 A 
ATOM     70  C   UNL A   1      44.962  24.225  26.232  1.00  0.00     0.173 A 
ATOM     71  C   UNL A   1      43.501  22.464  26.878  1.00  0.00     0.173 A 
ATOM     72  F   UNL A   1      45.604  25.384  26.422  1.00  0.00    -0.203 F 
ATOM     73  C   UNL A   1      45.272  23.540  25.056  1.00  0.00     0.198 A 
ATOM     74  C   UNL A   1      43.773  21.800  25.678  1.00  0.00     0.198 A 
ATOM     75  F   UNL A   1      42.728  21.824  27.769  1.00  0.00    -0.203 F 
ATOM     76  F   UNL A   1      46.164  24.059  24.200  1.00  0.00    -0.200 F 
ATOM     77  C   UNL A   1      44.649  22.345  24.760  1.00  0.00     0.200 A 
ATOM     78  F   UNL A   1      43.168  20.634  25.409  1.00  0.00    -0.200 F 
ATOM     79  F   UNL A   1      44.901  21.719  23.603  1.00  0.00    -0.200 F 
ENDBRANCH  55  69
BRANCH  56  80
ATOM     80  C   UNL A   1      41.263  30.278  33.707  1.00  0.00     0.064 A 
ATOM     81  C   UNL A   1      41.180  31.654  33.995  1.00  0.00     0.173 A 
ATOM     82  C   UNL A   1      40.064  29.565  33.596  1.00  0.00     0.173 A 
ATOM     83  F   UNL A   1      42.302  32.382  34.108  1.00  0.00    -0.203 F 
ATOM     84  C   UNL A   1      39.953  32.310  34.050  1.00  0.00     0.198 A 
ATOM     85  C   UNL A   1      38.835  30.224  33.666  1.00  0.00     0.198 A 
ATOM     86  F   UNL A   1      40.078  28.257  33.304  1.00  0.00    -0.203 F 
ATOM     87  F   UNL A   1      39.913  33.640  34.212  1.00  0.00    -0.200 F 
ATOM     88  C   UNL A   1      38.781  31.599  33.857  1.00  0.00     0.200 A 
ATOM     89  F   UNL A   1      37.700  29.541  33.459  1.00  0.00    -0.200 F 
ATOM     90  F   UNL A   1      37.605  32.241  33.817  1.00  0.00    -0.200 F 
ENDBRANCH  56  80
BRANCH  68  91
ATOM     91  C   UNL A   1      45.219  24.195  33.738  1.00  0.00     0.064 A 
ATOM     92  C   UNL A   1      44.437  23.048  33.940  1.00  0.00     0.173 A 
ATOM     93  C   UNL A   1      46.579  24.073  34.125  1.00  0.00     0.173 A 
ATOM     94  F   UNL A   1      43.169  22.980  33.513  1.00  0.00    -0.203 F 
ATOM     95  C   UNL A   1      44.954  21.893  34.538  1.00  0.00     0.198 A 
ATOM     96  C   UNL A   1      47.106  22.901  34.666  1.00  0.00     0.198 A 
ATOM     97  F   UNL A   1      47.450  25.080  33.966  1.00  0.00    -0.203 F 
ATOM     98  F   UNL A   1      44.152  20.839  34.747  1.00  0.00    -0.200 F 
ATOM     99  C   UNL A   1      46.289  21.815  34.890  1.00  0.00     0.200 A 
ATOM    100  F   UNL A   1      48.414  22.829  34.950  1.00  0.00    -0.200 F 
ATOM    101  F   UNL A   1      46.790  20.691  35.417  1.00  0.00    -0.200 F 
ENDBRANCH  68  91
ENDBRANCH  42  43
ENDBRANCH  34  37
ENDBRANCH  32  33
ENDBRANCH  31  32
ENDBRANCH   1  31
TORSDOF 15
ENDMDL
MODEL 3
REMARK VINA RESULT:     -12.9      2.175      3.252
REMARK SMILES Cc1ccc(-c2cc(Cl)cc3c2O[C@@H](C(F)(F)F)C(C(=O)NCCCCCCNC(=O)c2ccc(-c4c5nc(c(-c6c(F)c(F)c(F)c(F)c6F)c6ccc([nH]6)c(-c6c(F)c(F)c(F)c(F)c6F)c6nc(c(-c7c(F)c(F)c(F)c(F)c7F)c7ccc4[nH]7)C=C6)C=C5)cc2)=C3)cc1
REMARK SMILES IDX 26 1 25 2 24 3 23 4 22 5 20 6 21 7 19 9 6 10 7 11 12 12 8 13
REMARK SMILES IDX 11 14 13 15 9 16 10 17 95 18 14 19 5 20 1 21 2 22 3 23 97 24
REMARK SMILES IDX 4 25 96 26 15 27 16 28 17 29 18 30 27 31 28 32 29 33 30 34
REMARK SMILES IDX 31 36 32 37 33 38 94 39 34 40 93 41 35 42 36 43 37 44 87 45
REMARK SMILES IDX 38 46 92 47 86 48 88 49 39 50 91 51 85 52 84 53 40 55 72 56
REMARK SMILES IDX 52 57 71 58 53 59 56 60 70 61 89 62 54 63 55 64 69 66 90 67
REMARK SMILES IDX 57 68 41 69 42 70 50 71 43 72 44 73 48 74 51 75 45 76 46 77
REMARK SMILES IDX 49 78 47 79 73 80 74 81 82 82 75 83 76 84 80 85 83 86 77 87
REMARK SMILES IDX 78 88 81 89 79 90 58 91 59 92 67 93 60 94 61 95 65 96 68 97
REMARK SMILES IDX 62 98 63 99 66 100 64 101
REMARK H PARENT 22 8 29 35 88 54 56 65
REMARK Flexibility Score: inf
ROOT
ATOM      1  C   UNL A   1      37.978  24.066  26.421  1.00  0.00     0.002 C 
ENDROOT
BRANCH   1   2
ATOM      2  C   UNL A   1      37.013  23.532  25.361  1.00  0.00     0.002 C 
BRANCH   2   3
ATOM      3  C   UNL A   1      36.159  22.309  25.682  1.00  0.00     0.021 C 
BRANCH   3   4
ATOM      4  C   UNL A   1      34.667  22.436  25.984  1.00  0.00     0.116 C 
BRANCH   4   5
ATOM      5  N   UNL A   1      34.088  23.737  26.225  1.00  0.00    -0.352 N 
ATOM      6  C   UNL A   1      32.874  24.271  25.862  1.00  0.00     0.251 C 
ATOM      7  O   UNL A   1      32.485  25.234  26.532  1.00  0.00    -0.270 OA
ATOM      8  H   UNL A   1      34.662  24.348  26.740  1.00  0.00     0.163 HD
BRANCH   6   9
ATOM      9  C   UNL A   1      32.020  23.801  24.667  1.00  0.00     0.067 C 
ATOM     10  C   UNL A   1      31.752  27.697  23.888  1.00  0.00     0.026 A 
ATOM     11  C   UNL A   1      30.532  28.292  23.507  1.00  0.00     0.033 A 
ATOM     12  C   UNL A   1      31.763  26.304  23.860  1.00  0.00     0.135 A 
ATOM     13  C   UNL A   1      29.351  27.540  23.502  1.00  0.00     0.042 A 
ATOM     14  C   UNL A   1      30.578  25.603  24.199  1.00  0.00     0.019 A 
ATOM     15  O   UNL A   1      32.893  25.590  23.399  1.00  0.00    -0.475 OA
ATOM     16  Cl  UNL A   1      27.862  28.306  23.109  1.00  0.00    -0.084 Cl
ATOM     17  C   UNL A   1      29.356  26.217  23.951  1.00  0.00     0.032 A 
ATOM     18  C   UNL A   1      30.726  24.214  24.768  1.00  0.00     0.025 C 
ATOM     19  C   UNL A   1      32.508  24.180  23.284  1.00  0.00     0.314 C 
BRANCH  10  20
ATOM     20  C   UNL A   1      32.420  28.393  25.028  1.00  0.00    -0.015 A 
ATOM     21  C   UNL A   1      34.377  31.023  27.876  1.00  0.00     0.044 C 
ATOM     22  C   UNL A   1      33.679  30.084  26.936  1.00  0.00    -0.051 A 
ATOM     23  C   UNL A   1      34.302  28.912  26.475  1.00  0.00     0.004 A 
ATOM     24  C   UNL A   1      32.392  30.373  26.493  1.00  0.00     0.004 A 
ATOM     25  C   UNL A   1      33.682  28.075  25.525  1.00  0.00     0.009 A 
ATOM     26  C   UNL A   1      31.776  29.537  25.565  1.00  0.00     0.009 A 
ENDBRANCH  10  20
BRANCH  19  27
ATOM     27  C   UNL A   1      33.353  23.112  22.565  1.00  0.00     0.429 C 
ATOM     28  F   UNL A   1      34.674  23.312  22.825  1.00  0.00    -0.167 F 
ATOM     29  F   UNL A   1      33.065  21.856  22.969  1.00  0.00    -0.167 F 
ATOM     30  F   UNL A   1      33.245  23.153  21.216  1.00  0.00    -0.167 F 
ENDBRANCH  19  27
ENDBRANCH   6   9
ENDBRANCH   4   5
ENDBRANCH   3   4
ENDBRANCH   2   3
ENDBRANCH   1   2
BRANCH   1  31
ATOM     31  C   UNL A   1      39.435  23.615  26.348  1.00  0.00     0.021 C 
BRANCH  31  32
ATOM     32  C   UNL A   1      39.757  22.283  27.011  1.00  0.00     0.116 C 
BRANCH  32  33
ATOM     33  N   UNL A   1      40.676  21.441  26.256  1.00  0.00    -0.352 N 
ATOM     34  C   UNL A   1      42.042  21.585  26.059  1.00  0.00     0.251 C 
ATOM     35  H   UNL A   1      40.269  20.656  25.822  1.00  0.00     0.163 HD
ATOM     36  O   UNL A   1      42.657  20.793  25.377  1.00  0.00    -0.269 OA
BRANCH  34  37
ATOM     37  C   UNL A   1      42.767  22.656  26.794  1.00  0.00     0.039 A 
ATOM     38  C   UNL A   1      42.927  22.511  28.177  1.00  0.00     0.014 A 
ATOM     39  C   UNL A   1      43.119  23.849  26.172  1.00  0.00     0.014 A 
ATOM     40  C   UNL A   1      43.205  23.634  28.954  1.00  0.00     0.010 A 
ATOM     41  C   UNL A   1      43.301  24.981  26.942  1.00  0.00     0.010 A 
ATOM     42  C   UNL A   1      43.278  24.883  28.335  1.00  0.00    -0.014 A 
BRANCH  42  43
ATOM     43  C   UNL A   1      43.189  26.138  29.070  1.00  0.00     0.031 A 
ATOM     44  C   UNL A   1      41.939  26.920  29.109  1.00  0.00     0.074 A 
ATOM     45  C   UNL A   1      44.257  26.565  29.783  1.00  0.00     0.049 A 
ATOM     46  N   UNL A   1      41.906  28.207  29.223  1.00  0.00    -0.248 NA
ATOM     47  C   UNL A   1      40.618  26.313  29.006  1.00  0.00     0.031 C 
ATOM     48  C   UNL A   1      44.290  27.657  30.752  1.00  0.00     0.029 A 
ATOM     49  N   UNL A   1      45.603  26.199  29.620  1.00  0.00    -0.354 N 
ATOM     50  C   UNL A   1      40.606  28.564  29.484  1.00  0.00     0.074 A 
ATOM     51  C   UNL A   1      39.829  27.362  29.270  1.00  0.00     0.031 C 
ATOM     52  C   UNL A   1      45.555  28.086  30.874  1.00  0.00     0.029 A 
ATOM     53  C   UNL A   1      46.351  27.365  29.898  1.00  0.00     0.049 A 
ATOM     54  H   UNL A   1      45.953  25.314  29.367  1.00  0.00     0.167 HD
ATOM     55  C   UNL A   1      40.328  29.796  29.997  1.00  0.00     0.037 A 
ATOM     56  C   UNL A   1      47.153  27.943  28.959  1.00  0.00     0.037 A 
ATOM     57  C   UNL A   1      41.536  30.584  30.207  1.00  0.00     0.049 A 
ATOM     58  C   UNL A   1      46.798  29.375  28.644  1.00  0.00     0.074 A 
ATOM     59  C   UNL A   1      42.313  30.811  31.333  1.00  0.00     0.029 A 
ATOM     60  N   UNL A   1      42.290  31.006  29.119  1.00  0.00    -0.354 N 
ATOM     61  N   UNL A   1      45.642  29.911  28.918  1.00  0.00    -0.248 NA
ATOM     62  C   UNL A   1      47.698  30.303  27.967  1.00  0.00     0.031 C 
ATOM     63  C   UNL A   1      43.549  31.355  30.917  1.00  0.00     0.029 A 
ATOM     64  C   UNL A   1      43.524  31.467  29.539  1.00  0.00     0.049 A 
ATOM     65  H   UNL A   1      41.989  30.981  28.181  1.00  0.00     0.167 HD
ATOM     66  C   UNL A   1      45.618  31.205  28.462  1.00  0.00     0.074 A 
ATOM     67  C   UNL A   1      46.935  31.409  27.893  1.00  0.00     0.031 C 
ATOM     68  C   UNL A   1      44.503  31.985  28.596  1.00  0.00     0.037 A 
BRANCH  55  69
ATOM     69  C   UNL A   1      38.983  30.135  30.588  1.00  0.00     0.064 A 
ATOM     70  C   UNL A   1      38.122  31.072  29.980  1.00  0.00     0.173 A 
ATOM     71  C   UNL A   1      38.515  29.591  31.798  1.00  0.00     0.173 A 
ATOM     72  F   UNL A   1      38.394  31.601  28.781  1.00  0.00    -0.203 F 
ATOM     73  C   UNL A   1      36.950  31.517  30.593  1.00  0.00     0.198 A 
ATOM     74  C   UNL A   1      37.368  30.072  32.437  1.00  0.00     0.198 A 
ATOM     75  F   UNL A   1      39.158  28.569  32.385  1.00  0.00    -0.203 F 
ATOM     76  F   UNL A   1      36.180  32.426  29.975  1.00  0.00    -0.200 F 
ATOM     77  C   UNL A   1      36.592  31.046  31.839  1.00  0.00     0.200 A 
ATOM     78  F   UNL A   1      37.027  29.596  33.642  1.00  0.00    -0.200 F 
ATOM     79  F   UNL A   1      35.500  31.519  32.454  1.00  0.00    -0.200 F 
ENDBRANCH  55  69
BRANCH  56  80
ATOM     80  C   UNL A   1      47.725  26.967  27.997  1.00  0.00     0.064 A 
ATOM     81  C   UNL A   1      47.089  26.815  26.750  1.00  0.00     0.173 A 
ATOM     82  C   UNL A   1      49.040  26.504  28.115  1.00  0.00     0.173 A 
ATOM     83  F   UNL A   1      45.828  27.248  26.586  1.00  0.00    -0.203 F 
ATOM     84  C   UNL A   1      47.776  26.333  25.640  1.00  0.00     0.198 A 
ATOM     85  C   UNL A   1      49.722  26.007  27.002  1.00  0.00     0.198 A 
ATOM     86  F   UNL A   1      49.705  26.639  29.271  1.00  0.00    -0.203 F 
ATOM     87  F   UNL A   1      47.176  26.307  24.441  1.00  0.00    -0.200 F 
ATOM     88  C   UNL A   1      49.102  25.955  25.760  1.00  0.00     0.200 A 
ATOM     89  F   UNL A   1      51.013  25.660  27.112  1.00  0.00    -0.200 F 
ATOM     90  F   UNL A   1      49.794  25.578  24.675  1.00  0.00    -0.200 F 
ENDBRANCH  56  80
BRANCH  68  91
ATOM     91  C   UNL A   1      44.255  33.340  27.971  1.00  0.00     0.064 A 
ATOM     92  C   UNL A   1      43.907  33.540  26.626  1.00  0.00     0.173 A 
ATOM     93  C   UNL A   1      44.228  34.506  28.780  1.00  0.00     0.173 A 
ATOM     94  F   UNL A   1      43.775  32.512  25.778  1.00  0.00    -0.203 F 
ATOM     95  C   UNL A   1      43.617  34.810  26.115  1.00  0.00     0.198 A 
ATOM     96  C   UNL A   1      43.881  35.761  28.281  1.00  0.00     0.198 A 
ATOM     97  F   UNL A   1      44.511  34.462  30.090  1.00  0.00    -0.203 F 
ATOM     98  F   UNL A   1      43.332  34.951  24.813  1.00  0.00    -0.200 F 
ATOM     99  C   UNL A   1      43.593  35.917  26.943  1.00  0.00     0.200 A 
ATOM    100  F   UNL A   1      43.811  36.811  29.112  1.00  0.00    -0.200 F 
ATOM    101  F   UNL A   1      43.268  37.122  26.459  1.00  0.00    -0.200 F 
ENDBRANCH  68  91
ENDBRANCH  42  43
ENDBRANCH  34  37
ENDBRANCH  32  33
ENDBRANCH  31  32
ENDBRANCH   1  31
TORSDOF 15
ENDMDL
