MODEL 1
REMARK VINA RESULT:     -11.6      0.000      0.000
REMARK SMILES Cc1cc(C(=O)N2CCC[C@@H]2C)sc1/C=C/C(=O)NCCCCCCNC(=O)c1ccc(-c2c3nc(c(-c4c(F)c(F)c(F)c(F)c4F)c4ccc([nH]4)c(-c4c(F)c(F)c(F)c(F)c4F)c4nc(c(-c5c(F)c(F)c(F)c(F)c5F)c5ccc2[nH]5)C=C4)C=C3)cc1
REMARK SMILES IDX 22 1 21 2 20 3 19 4 17 5 18 6 16 8 15 9 14 10 1 11 2 12 3 13
REMARK SMILES IDX 4 14 13 15 5 16 6 17 7 18 8 19 11 20 9 21 10 22 12 23 23 24
REMARK SMILES IDX 24 25 25 26 26 27 27 28 28 30 29 31 30 32 91 33 31 34 90 35
REMARK SMILES IDX 32 36 33 37 34 38 84 39 35 40 89 41 83 42 85 43 36 44 88 45
REMARK SMILES IDX 82 46 81 47 37 49 69 50 49 51 68 52 50 53 53 54 67 55 86 56
REMARK SMILES IDX 51 57 52 58 66 60 87 61 54 62 38 63 39 64 47 65 40 66 41 67
REMARK SMILES IDX 45 68 48 69 42 70 43 71 46 72 44 73 70 74 71 75 79 76 72 77
REMARK SMILES IDX 73 78 77 79 80 80 74 81 75 82 78 83 76 84 55 85 56 86 64 87
REMARK SMILES IDX 57 88 58 89 62 90 65 91 59 92 60 93 63 94 61 95
REMARK H PARENT 19 7 26 29 85 48 53 59
REMARK Flexibility Score: inf
ROOT
ATOM      1  C   UNL A   1      35.149  33.210  28.008  1.00  0.00     0.002 C 
ENDROOT
BRANCH   1   2
ATOM      2  C   UNL A   1      35.528  31.727  28.106  1.00  0.00     0.021 C 
BRANCH   2   3
ATOM      3  C   UNL A   1      34.396  30.787  27.689  1.00  0.00     0.116 C 
BRANCH   3   4
ATOM      4  N   UNL A   1      33.246  31.553  27.251  1.00  0.00    -0.353 N 
ATOM      5  C   UNL A   1      32.056  31.148  26.739  1.00  0.00     0.244 C 
ATOM      6  O   UNL A   1      31.187  31.977  26.483  1.00  0.00    -0.270 OA
ATOM      7  H   UNL A   1      33.344  32.529  27.339  1.00  0.00     0.163 HD
BRANCH   5   8
ATOM      8  C   UNL A   1      31.755  29.710  26.584  1.00  0.00     0.072 C 
ATOM      9  C   UNL A   1      31.531  29.100  25.410  1.00  0.00     0.025 C 
BRANCH   9  10
ATOM     10  C   UNL A   1      31.253  27.703  25.320  1.00  0.00     0.031 A 
ATOM     11  C   UNL A   1      29.925  27.595  23.116  1.00  0.00     0.046 C 
ATOM     12  C   UNL A   1      30.515  27.015  24.363  1.00  0.00    -0.032 A 
ATOM     13  C   UNL A   1      30.412  25.617  24.686  1.00  0.00     0.029 A 
ATOM     14  C   UNL A   1      31.100  25.257  25.831  1.00  0.00     0.093 A 
ATOM     15  S   UNL A   1      31.866  26.619  26.498  1.00  0.00    -0.130 S 
BRANCH  14  16
ATOM     16  C   UNL A   1      31.347  23.892  26.293  1.00  0.00     0.264 C 
ATOM     17  O   UNL A   1      30.717  23.438  27.253  1.00  0.00    -0.268 OA
BRANCH  16  18
ATOM     18  N   UNL A   1      32.217  23.055  25.607  1.00  0.00    -0.335 N 
ATOM     19  C   UNL A   1      31.824  21.687  25.345  1.00  0.00     0.120 C 
ATOM     20  C   UNL A   1      33.569  23.303  25.094  1.00  0.00     0.082 C 
ATOM     21  C   UNL A   1      32.531  21.386  24.037  1.00  0.00     0.024 C 
ATOM     22  C   UNL A   1      33.878  22.081  24.211  1.00  0.00     0.026 C 
ATOM     23  C   UNL A   1      34.580  23.433  26.231  1.00  0.00     0.031 C 
ENDBRANCH  16  18
ENDBRANCH  14  16
ENDBRANCH   9  10
ENDBRANCH   5   8
ENDBRANCH   3   4
ENDBRANCH   2   3
ENDBRANCH   1   2
BRANCH   1  24
ATOM     24  C   UNL A   1      34.570  33.812  29.294  1.00  0.00     0.002 C 
BRANCH  24  25
ATOM     25  C   UNL A   1      33.286  34.624  29.108  1.00  0.00     0.021 C 
BRANCH  25  26
ATOM     26  C   UNL A   1      33.377  36.063  29.605  1.00  0.00     0.116 C 
BRANCH  26  27
ATOM     27  N   UNL A   1      32.502  36.296  30.743  1.00  0.00    -0.352 N 
ATOM     28  C   UNL A   1      32.568  35.779  32.012  1.00  0.00     0.251 C 
ATOM     29  H   UNL A   1      31.753  36.914  30.579  1.00  0.00     0.163 HD
ATOM     30  O   UNL A   1      31.622  35.904  32.781  1.00  0.00    -0.269 OA
BRANCH  28  31
ATOM     31  C   UNL A   1      33.780  35.057  32.450  1.00  0.00     0.039 A 
ATOM     32  C   UNL A   1      33.657  33.739  32.899  1.00  0.00     0.014 A 
ATOM     33  C   UNL A   1      35.030  35.684  32.441  1.00  0.00     0.014 A 
ATOM     34  C   UNL A   1      34.797  33.033  33.290  1.00  0.00     0.010 A 
ATOM     35  C   UNL A   1      36.171  34.958  32.766  1.00  0.00     0.010 A 
ATOM     36  C   UNL A   1      36.065  33.629  33.200  1.00  0.00    -0.014 A 
BRANCH  36  37
ATOM     37  C   UNL A   1      37.293  32.877  33.560  1.00  0.00     0.031 A 
ATOM     38  C   UNL A   1      38.004  33.169  34.852  1.00  0.00     0.074 A 
ATOM     39  C   UNL A   1      37.800  31.978  32.696  1.00  0.00     0.049 A 
ATOM     40  N   UNL A   1      39.124  32.669  35.313  1.00  0.00    -0.248 NA
ATOM     41  C   UNL A   1      37.392  34.177  35.730  1.00  0.00     0.031 C 
ATOM     42  C   UNL A   1      37.226  31.643  31.393  1.00  0.00     0.029 A 
ATOM     43  N   UNL A   1      38.922  31.192  32.779  1.00  0.00    -0.354 N 
ATOM     44  C   UNL A   1      39.354  33.311  36.522  1.00  0.00     0.074 A 
ATOM     45  C   UNL A   1      38.289  34.275  36.699  1.00  0.00     0.031 C 
ATOM     46  C   UNL A   1      37.986  30.703  30.807  1.00  0.00     0.029 A 
ATOM     47  C   UNL A   1      39.119  30.398  31.675  1.00  0.00     0.049 A 
ATOM     48  H   UNL A   1      39.527  31.195  33.555  1.00  0.00     0.167 HD
ATOM     49  C   UNL A   1      40.350  33.099  37.415  1.00  0.00     0.037 A 
ATOM     50  C   UNL A   1      40.106  29.527  31.394  1.00  0.00     0.037 A 
ATOM     51  C   UNL A   1      41.394  32.121  37.245  1.00  0.00     0.049 A 
ATOM     52  C   UNL A   1      41.205  29.314  32.399  1.00  0.00     0.074 A 
ATOM     53  C   UNL A   1      42.412  31.785  38.119  1.00  0.00     0.029 A 
ATOM     54  N   UNL A   1      41.553  31.325  36.120  1.00  0.00    -0.354 N 
ATOM     55  N   UNL A   1      41.375  29.876  33.571  1.00  0.00    -0.248 NA
ATOM     56  C   UNL A   1      42.247  28.340  32.045  1.00  0.00     0.031 C 
ATOM     57  C   UNL A   1      43.215  30.819  37.503  1.00  0.00     0.029 A 
ATOM     58  C   UNL A   1      42.668  30.515  36.267  1.00  0.00     0.049 A 
ATOM     59  H   UNL A   1      40.961  31.334  35.333  1.00  0.00     0.167 HD
ATOM     60  C   UNL A   1      42.524  29.307  34.105  1.00  0.00     0.074 A 
ATOM     61  C   UNL A   1      43.001  28.344  33.134  1.00  0.00     0.031 C 
ATOM     62  C   UNL A   1      43.128  29.559  35.292  1.00  0.00     0.037 A 
BRANCH  49  63
ATOM     63  C   UNL A   1      40.359  33.942  38.657  1.00  0.00     0.064 A 
ATOM     64  C   UNL A   1      39.662  33.558  39.813  1.00  0.00     0.173 A 
ATOM     65  C   UNL A   1      41.095  35.136  38.704  1.00  0.00     0.173 A 
ATOM     66  F   UNL A   1      38.934  32.431  39.819  1.00  0.00    -0.203 F 
ATOM     67  C   UNL A   1      39.674  34.354  40.956  1.00  0.00     0.198 A 
ATOM     68  C   UNL A   1      41.129  35.913  39.859  1.00  0.00     0.198 A 
ATOM     69  F   UNL A   1      41.785  35.548  37.629  1.00  0.00    -0.203 F 
ATOM     70  F   UNL A   1      38.956  33.993  42.029  1.00  0.00    -0.200 F 
ATOM     71  C   UNL A   1      40.412  35.527  40.981  1.00  0.00     0.200 A 
ATOM     72  F   UNL A   1      41.855  37.040  39.885  1.00  0.00    -0.200 F 
ATOM     73  F   UNL A   1      40.426  36.289  42.082  1.00  0.00    -0.200 F 
ENDBRANCH  49  63
BRANCH  50  74
ATOM     74  C   UNL A   1      40.085  28.772  30.115  1.00  0.00     0.064 A 
ATOM     75  C   UNL A   1      40.686  29.296  28.962  1.00  0.00     0.173 A 
ATOM     76  C   UNL A   1      39.474  27.513  30.018  1.00  0.00     0.173 A 
ATOM     77  F   UNL A   1      41.265  30.505  29.000  1.00  0.00    -0.203 F 
ATOM     78  C   UNL A   1      40.660  28.598  27.756  1.00  0.00     0.198 A 
ATOM     79  C   UNL A   1      39.472  26.804  28.819  1.00  0.00     0.198 A 
ATOM     80  F   UNL A   1      38.891  26.965  31.094  1.00  0.00    -0.203 F 
ATOM     81  F   UNL A   1      41.205  29.141  26.659  1.00  0.00    -0.200 F 
ATOM     82  C   UNL A   1      40.059  27.350  27.687  1.00  0.00     0.200 A 
ATOM     83  F   UNL A   1      38.905  25.592  28.760  1.00  0.00    -0.200 F 
ATOM     84  F   UNL A   1      40.040  26.677  26.529  1.00  0.00    -0.200 F 
ENDBRANCH  50  74
BRANCH  62  85
ATOM     85  C   UNL A   1      44.355  28.761  35.621  1.00  0.00     0.064 A 
ATOM     86  C   UNL A   1      45.637  29.196  35.255  1.00  0.00     0.173 A 
ATOM     87  C   UNL A   1      44.250  27.563  36.346  1.00  0.00     0.173 A 
ATOM     88  F   UNL A   1      45.790  30.326  34.548  1.00  0.00    -0.203 F 
ATOM     89  C   UNL A   1      46.766  28.448  35.581  1.00  0.00     0.198 A 
ATOM     90  C   UNL A   1      45.383  26.835  36.696  1.00  0.00     0.198 A 
ATOM     91  F   UNL A   1      43.047  27.106  36.726  1.00  0.00    -0.203 F 
ATOM     92  F   UNL A   1      47.977  28.859  35.179  1.00  0.00    -0.200 F 
ATOM     93  C   UNL A   1      46.639  27.273  36.307  1.00  0.00     0.200 A 
ATOM     94  F   UNL A   1      45.259  25.707  37.410  1.00  0.00    -0.200 F 
ATOM     95  F   UNL A   1      47.727  26.560  36.626  1.00  0.00    -0.200 F 
ENDBRANCH  62  85
ENDBRANCH  36  37
ENDBRANCH  28  31
ENDBRANCH  26  27
ENDBRANCH  25  26
ENDBRANCH  24  25
ENDBRANCH   1  24
TORSDOF 16
ENDMDL
MODEL 2
REMARK VINA RESULT:     -11.3      1.058      2.316
REMARK SMILES Cc1cc(C(=O)N2CCC[C@@H]2C)sc1/C=C/C(=O)NCCCCCCNC(=O)c1ccc(-c2c3nc(c(-c4c(F)c(F)c(F)c(F)c4F)c4ccc([nH]4)c(-c4c(F)c(F)c(F)c(F)c4F)c4nc(c(-c5c(F)c(F)c(F)c(F)c5F)c5ccc2[nH]5)C=C4)C=C3)cc1
REMARK SMILES IDX 22 1 21 2 20 3 19 4 17 5 18 6 16 8 15 9 14 10 1 11 2 12 3 13
REMARK SMILES IDX 4 14 13 15 5 16 6 17 7 18 8 19 11 20 9 21 10 22 12 23 23 24
REMARK SMILES IDX 24 25 25 26 26 27 27 28 28 30 29 31 30 32 91 33 31 34 90 35
REMARK SMILES IDX 32 36 33 37 34 38 84 39 35 40 89 41 83 42 85 43 36 44 88 45
REMARK SMILES IDX 82 46 81 47 37 49 69 50 49 51 68 52 50 53 53 54 67 55 86 56
REMARK SMILES IDX 51 57 52 58 66 60 87 61 54 62 38 63 39 64 47 65 40 66 41 67
REMARK SMILES IDX 45 68 48 69 42 70 43 71 46 72 44 73 70 74 71 75 79 76 72 77
REMARK SMILES IDX 73 78 77 79 80 80 74 81 75 82 78 83 76 84 55 85 56 86 64 87
REMARK SMILES IDX 57 88 58 89 62 90 65 91 59 92 60 93 63 94 61 95
REMARK H PARENT 19 7 26 29 85 48 53 59
REMARK Flexibility Score: inf
ROOT
ATOM      1  C   UNL A   1      35.078  33.097  27.954  1.00  0.00     0.002 C 
ENDROOT
BRANCH   1   2
ATOM      2  C   UNL A   1      35.492  31.628  28.101  1.00  0.00     0.021 C 
BRANCH   2   3
ATOM      3  C   UNL A   1      34.428  30.649  27.603  1.00  0.00     0.116 C 
BRANCH   3   4
ATOM      4  N   UNL A   1      33.164  31.335  27.420  1.00  0.00    -0.353 N 
ATOM      5  C   UNL A   1      32.165  31.125  26.526  1.00  0.00     0.244 C 
ATOM      6  O   UNL A   1      31.140  31.798  26.587  1.00  0.00    -0.270 OA
ATOM      7  H   UNL A   1      33.005  32.077  28.048  1.00  0.00     0.163 HD
BRANCH   5   8
ATOM      8  C   UNL A   1      32.252  30.022  25.548  1.00  0.00     0.072 C 
ATOM      9  C   UNL A   1      31.391  28.995  25.477  1.00  0.00     0.025 C 
BRANCH   9  10
ATOM     10  C   UNL A   1      31.520  27.960  24.502  1.00  0.00     0.031 A 
ATOM     11  C   UNL A   1      29.330  28.238  23.177  1.00  0.00     0.046 C 
ATOM     12  C   UNL A   1      30.623  27.567  23.515  1.00  0.00    -0.032 A 
ATOM     13  C   UNL A   1      31.110  26.423  22.790  1.00  0.00     0.029 A 
ATOM     14  C   UNL A   1      32.365  26.002  23.191  1.00  0.00     0.093 A 
ATOM     15  S   UNL A   1      32.941  27.001  24.439  1.00  0.00    -0.130 S 
BRANCH  14  16
ATOM     16  C   UNL A   1      33.196  25.009  22.513  1.00  0.00     0.264 C 
ATOM     17  O   UNL A   1      33.601  25.218  21.365  1.00  0.00    -0.268 OA
BRANCH  16  18
ATOM     18  N   UNL A   1      33.623  23.865  23.175  1.00  0.00    -0.335 N 
ATOM     19  C   UNL A   1      35.033  23.692  23.452  1.00  0.00     0.120 C 
ATOM     20  C   UNL A   1      32.865  22.701  23.648  1.00  0.00     0.082 C 
ATOM     21  C   UNL A   1      35.020  22.891  24.739  1.00  0.00     0.024 C 
ATOM     22  C   UNL A   1      33.861  21.922  24.524  1.00  0.00     0.026 C 
ATOM     23  C   UNL A   1      32.371  21.849  22.481  1.00  0.00     0.031 C 
ENDBRANCH  16  18
ENDBRANCH  14  16
ENDBRANCH   9  10
ENDBRANCH   5   8
ENDBRANCH   3   4
ENDBRANCH   2   3
ENDBRANCH   1   2
BRANCH   1  24
ATOM     24  C   UNL A   1      34.568  33.754  29.244  1.00  0.00     0.002 C 
BRANCH  24  25
ATOM     25  C   UNL A   1      33.278  34.563  29.091  1.00  0.00     0.021 C 
BRANCH  25  26
ATOM     26  C   UNL A   1      33.382  36.006  29.574  1.00  0.00     0.116 C 
BRANCH  26  27
ATOM     27  N   UNL A   1      32.521  36.253  30.719  1.00  0.00    -0.352 N 
ATOM     28  C   UNL A   1      32.603  35.754  31.995  1.00  0.00     0.251 C 
ATOM     29  H   UNL A   1      31.769  36.868  30.556  1.00  0.00     0.163 HD
ATOM     30  O   UNL A   1      31.667  35.889  32.774  1.00  0.00    -0.269 OA
BRANCH  28  31
ATOM     31  C   UNL A   1      33.823  35.041  32.428  1.00  0.00     0.039 A 
ATOM     32  C   UNL A   1      33.707  33.730  32.899  1.00  0.00     0.014 A 
ATOM     33  C   UNL A   1      35.071  35.669  32.393  1.00  0.00     0.014 A 
ATOM     34  C   UNL A   1      34.853  33.031  33.286  1.00  0.00     0.010 A 
ATOM     35  C   UNL A   1      36.218  34.949  32.713  1.00  0.00     0.010 A 
ATOM     36  C   UNL A   1      36.119  33.627  33.170  1.00  0.00    -0.014 A 
BRANCH  36  37
ATOM     37  C   UNL A   1      37.353  32.882  33.525  1.00  0.00     0.031 A 
ATOM     38  C   UNL A   1      38.071  33.183  34.811  1.00  0.00     0.074 A 
ATOM     39  C   UNL A   1      37.859  31.982  32.661  1.00  0.00     0.049 A 
ATOM     40  N   UNL A   1      39.196  32.689  35.267  1.00  0.00    -0.248 NA
ATOM     41  C   UNL A   1      37.460  34.192  35.688  1.00  0.00     0.031 C 
ATOM     42  C   UNL A   1      37.278  31.639  31.363  1.00  0.00     0.029 A 
ATOM     43  N   UNL A   1      38.984  31.201  32.740  1.00  0.00    -0.354 N 
ATOM     44  C   UNL A   1      39.430  33.337  36.472  1.00  0.00     0.074 A 
ATOM     45  C   UNL A   1      38.362  34.297  36.652  1.00  0.00     0.031 C 
ATOM     46  C   UNL A   1      38.038  30.700  30.777  1.00  0.00     0.029 A 
ATOM     47  C   UNL A   1      39.178  30.404  31.639  1.00  0.00     0.049 A 
ATOM     48  H   UNL A   1      39.594  31.211  33.512  1.00  0.00     0.167 HD
ATOM     49  C   UNL A   1      40.433  33.134  37.359  1.00  0.00     0.037 A 
ATOM     50  C   UNL A   1      40.167  29.536  31.354  1.00  0.00     0.037 A 
ATOM     51  C   UNL A   1      41.480  32.160  37.187  1.00  0.00     0.049 A 
ATOM     52  C   UNL A   1      41.273  29.332  32.354  1.00  0.00     0.074 A 
ATOM     53  C   UNL A   1      42.505  31.832  38.056  1.00  0.00     0.029 A 
ATOM     54  N   UNL A   1      41.636  31.359  36.064  1.00  0.00    -0.354 N 
ATOM     55  N   UNL A   1      41.448  29.900  33.522  1.00  0.00    -0.248 NA
ATOM     56  C   UNL A   1      42.317  28.361  31.996  1.00  0.00     0.031 C 
ATOM     57  C   UNL A   1      43.309  30.867  37.439  1.00  0.00     0.029 A 
ATOM     58  C   UNL A   1      42.755  30.556  36.207  1.00  0.00     0.049 A 
ATOM     59  H   UNL A   1      41.038  31.363  35.281  1.00  0.00     0.167 HD
ATOM     60  C   UNL A   1      42.603  29.338  34.051  1.00  0.00     0.074 A 
ATOM     61  C   UNL A   1      43.079  28.373  33.081  1.00  0.00     0.031 C 
ATOM     62  C   UNL A   1      43.213  29.598  35.233  1.00  0.00     0.037 A 
BRANCH  49  63
ATOM     63  C   UNL A   1      40.446  33.982  38.598  1.00  0.00     0.064 A 
ATOM     64  C   UNL A   1      41.147  35.197  38.652  1.00  0.00     0.173 A 
ATOM     65  C   UNL A   1      39.727  33.591  39.738  1.00  0.00     0.173 A 
ATOM     66  F   UNL A   1      41.860  35.612  37.593  1.00  0.00    -0.203 F 
ATOM     67  C   UNL A   1      41.156  35.970  39.810  1.00  0.00     0.198 A 
ATOM     68  C   UNL A   1      39.713  34.383  40.883  1.00  0.00     0.198 A 
ATOM     69  F   UNL A   1      39.034  32.443  39.740  1.00  0.00    -0.203 F 
ATOM     70  F   UNL A   1      41.878  37.099  39.855  1.00  0.00    -0.200 F 
ATOM     71  C   UNL A   1      40.434  35.567  40.922  1.00  0.00     0.200 A 
ATOM     72  F   UNL A   1      39.003  33.998  41.953  1.00  0.00    -0.200 F 
ATOM     73  F   UNL A   1      40.440  36.314  42.034  1.00  0.00    -0.200 F 
ENDBRANCH  49  63
BRANCH  50  74
ATOM     74  C   UNL A   1      40.141  28.775  30.079  1.00  0.00     0.064 A 
ATOM     75  C   UNL A   1      39.529  27.517  30.006  1.00  0.00     0.173 A 
ATOM     76  C   UNL A   1      40.717  29.290  28.908  1.00  0.00     0.173 A 
ATOM     77  F   UNL A   1      38.981  26.975  31.104  1.00  0.00    -0.203 F 
ATOM     78  C   UNL A   1      39.510  26.793  28.816  1.00  0.00     0.198 A 
ATOM     79  C   UNL A   1      40.674  28.577  27.712  1.00  0.00     0.198 A 
ATOM     80  F   UNL A   1      41.309  30.493  28.923  1.00  0.00    -0.203 F 
ATOM     81  F   UNL A   1      38.956  25.573  28.785  1.00  0.00    -0.200 F 
ATOM     82  C   UNL A   1      40.077  27.326  27.669  1.00  0.00     0.200 A 
ATOM     83  F   UNL A   1      41.209  29.102  26.602  1.00  0.00    -0.200 F 
ATOM     84  F   UNL A   1      40.053  26.632  26.523  1.00  0.00    -0.200 F 
ENDBRANCH  50  74
BRANCH  62  85
ATOM     85  C   UNL A   1      44.446  28.806  35.558  1.00  0.00     0.064 A 
ATOM     86  C   UNL A   1      44.377  27.587  36.248  1.00  0.00     0.173 A 
ATOM     87  C   UNL A   1      45.709  29.255  35.140  1.00  0.00     0.173 A 
ATOM     88  F   UNL A   1      43.196  27.123  36.683  1.00  0.00    -0.203 F 
ATOM     89  C   UNL A   1      45.531  26.859  36.529  1.00  0.00     0.198 A 
ATOM     90  C   UNL A   1      46.855  28.508  35.397  1.00  0.00     0.198 A 
ATOM     91  F   UNL A   1      45.829  30.411  34.471  1.00  0.00    -0.203 F 
ATOM     92  F   UNL A   1      45.446  25.720  37.232  1.00  0.00    -0.200 F 
ATOM     93  C   UNL A   1      46.767  27.316  36.097  1.00  0.00     0.200 A 
ATOM     94  F   UNL A   1      48.047  28.945  34.966  1.00  0.00    -0.200 F 
ATOM     95  F   UNL A   1      47.874  26.609  36.362  1.00  0.00    -0.200 F 
ENDBRANCH  62  85
ENDBRANCH  36  37
ENDBRANCH  28  31
ENDBRANCH  26  27
ENDBRANCH  25  26
ENDBRANCH  24  25
ENDBRANCH   1  24
TORSDOF 16
ENDMDL
MODEL 3
REMARK VINA RESULT:     -11.3      7.853     15.592
REMARK SMILES Cc1cc(C(=O)N2CCC[C@@H]2C)sc1/C=C/C(=O)NCCCCCCNC(=O)c1ccc(-c2c3nc(c(-c4c(F)c(F)c(F)c(F)c4F)c4ccc([nH]4)c(-c4c(F)c(F)c(F)c(F)c4F)c4nc(c(-c5c(F)c(F)c(F)c(F)c5F)c5ccc2[nH]5)C=C4)C=C3)cc1
REMARK SMILES IDX 22 1 21 2 20 3 19 4 17 5 18 6 16 8 15 9 14 10 1 11 2 12 3 13
REMARK SMILES IDX 4 14 13 15 5 16 6 17 7 18 8 19 11 20 9 21 10 22 12 23 23 24
REMARK SMILES IDX 24 25 25 26 26 27 27 28 28 30 29 31 30 32 91 33 31 34 90 35
REMARK SMILES IDX 32 36 33 37 34 38 84 39 35 40 89 41 83 42 85 43 36 44 88 45
REMARK SMILES IDX 82 46 81 47 37 49 69 50 49 51 68 52 50 53 53 54 67 55 86 56
REMARK SMILES IDX 51 57 52 58 66 60 87 61 54 62 38 63 39 64 47 65 40 66 41 67
REMARK SMILES IDX 45 68 48 69 42 70 43 71 46 72 44 73 70 74 71 75 79 76 72 77
REMARK SMILES IDX 73 78 77 79 80 80 74 81 75 82 78 83 76 84 55 85 56 86 64 87
REMARK SMILES IDX 57 88 58 89 62 90 65 91 59 92 60 93 63 94 61 95
REMARK H PARENT 19 7 26 29 85 48 53 59
REMARK Flexibility Score: inf
ROOT
ATOM      1  C   UNL A   1      45.722  21.803  36.331  1.00  0.00     0.002 C 
ENDROOT
BRANCH   1   2
ATOM      2  C   UNL A   1      46.794  21.389  37.347  1.00  0.00     0.021 C 
BRANCH   2   3
ATOM      3  C   UNL A   1      46.362  20.222  38.235  1.00  0.00     0.116 C 
BRANCH   3   4
ATOM      4  N   UNL A   1      47.204  20.152  39.414  1.00  0.00    -0.353 N 
ATOM      5  C   UNL A   1      47.023  19.505  40.593  1.00  0.00     0.244 C 
ATOM      6  O   UNL A   1      47.904  19.534  41.447  1.00  0.00    -0.270 OA
ATOM      7  H   UNL A   1      48.046  20.657  39.348  1.00  0.00     0.163 HD
BRANCH   5   8
ATOM      8  C   UNL A   1      45.821  18.677  40.819  1.00  0.00     0.072 C 
ATOM      9  C   UNL A   1      45.744  17.360  40.572  1.00  0.00     0.025 C 
BRANCH   9  10
ATOM     10  C   UNL A   1      44.556  16.607  40.817  1.00  0.00     0.031 A 
ATOM     11  C   UNL A   1      43.789  16.079  38.416  1.00  0.00     0.046 C 
ATOM     12  C   UNL A   1      43.651  16.074  39.906  1.00  0.00    -0.032 A 
ATOM     13  C   UNL A   1      42.541  15.449  40.576  1.00  0.00     0.029 A 
ATOM     14  C   UNL A   1      42.639  15.469  41.955  1.00  0.00     0.093 A 
ATOM     15  S   UNL A   1      44.079  16.242  42.423  1.00  0.00    -0.130 S 
BRANCH  14  16
ATOM     16  C   UNL A   1      41.781  14.743  42.889  1.00  0.00     0.264 C 
ATOM     17  O   UNL A   1      40.706  15.231  43.252  1.00  0.00    -0.268 OA
BRANCH  16  18
ATOM     18  N   UNL A   1      42.107  13.459  43.307  1.00  0.00    -0.335 N 
ATOM     19  C   UNL A   1      41.142  12.394  43.140  1.00  0.00     0.120 C 
ATOM     20  C   UNL A   1      43.317  12.952  43.964  1.00  0.00     0.082 C 
ATOM     21  C   UNL A   1      42.026  11.178  42.936  1.00  0.00     0.024 C 
ATOM     22  C   UNL A   1      43.170  11.421  43.916  1.00  0.00     0.026 C 
ATOM     23  C   UNL A   1      43.420  13.453  45.402  1.00  0.00     0.031 C 
ENDBRANCH  16  18
ENDBRANCH  14  16
ENDBRANCH   9  10
ENDBRANCH   5   8
ENDBRANCH   3   4
ENDBRANCH   2   3
ENDBRANCH   1   2
BRANCH   1  24
ATOM     24  C   UNL A   1      46.265  22.214  34.956  1.00  0.00     0.002 C 
BRANCH  24  25
ATOM     25  C   UNL A   1      47.770  22.490  34.911  1.00  0.00     0.021 C 
BRANCH  25  26
ATOM     26  C   UNL A   1      48.135  23.970  34.844  1.00  0.00     0.116 C 
BRANCH  26  27
ATOM     27  N   UNL A   1      48.148  24.580  36.164  1.00  0.00    -0.352 N 
ATOM     28  C   UNL A   1      47.460  25.675  36.624  1.00  0.00     0.251 C 
ATOM     29  H   UNL A   1      48.736  24.146  36.823  1.00  0.00     0.163 HD
ATOM     30  O   UNL A   1      47.759  26.188  37.696  1.00  0.00    -0.269 OA
BRANCH  28  31
ATOM     31  C   UNL A   1      46.360  26.244  35.818  1.00  0.00     0.039 A 
ATOM     32  C   UNL A   1      45.113  25.611  35.833  1.00  0.00     0.014 A 
ATOM     33  C   UNL A   1      46.561  27.382  35.033  1.00  0.00     0.014 A 
ATOM     34  C   UNL A   1      44.055  26.152  35.100  1.00  0.00     0.010 A 
ATOM     35  C   UNL A   1      45.489  27.958  34.358  1.00  0.00     0.010 A 
ATOM     36  C   UNL A   1      44.228  27.344  34.379  1.00  0.00    -0.014 A 
BRANCH  36  37
ATOM     37  C   UNL A   1      43.102  27.963  33.637  1.00  0.00     0.031 A 
ATOM     38  C   UNL A   1      42.903  27.661  32.178  1.00  0.00     0.074 A 
ATOM     39  C   UNL A   1      42.298  28.844  34.262  1.00  0.00     0.049 A 
ATOM     40  N   UNL A   1      42.021  28.152  31.343  1.00  0.00    -0.248 NA
ATOM     41  C   UNL A   1      43.837  26.702  31.569  1.00  0.00     0.031 C 
ATOM     42  C   UNL A   1      42.419  29.252  35.662  1.00  0.00     0.029 A 
ATOM     43  N   UNL A   1      41.227  29.564  33.796  1.00  0.00    -0.354 N 
ATOM     44  C   UNL A   1      42.305  27.573  30.114  1.00  0.00     0.074 A 
ATOM     45  C   UNL A   1      43.471  26.737  30.297  1.00  0.00     0.031 C 
ATOM     46  C   UNL A   1      41.447  30.133  35.948  1.00  0.00     0.029 A 
ATOM     47  C   UNL A   1      40.659  30.380  34.744  1.00  0.00     0.049 A 
ATOM     48  H   UNL A   1      40.896  29.502  32.871  1.00  0.00     0.167 HD
ATOM     49  C   UNL A   1      41.637  27.709  28.942  1.00  0.00     0.037 A 
ATOM     50  C   UNL A   1      39.623  31.235  34.651  1.00  0.00     0.037 A 
ATOM     51  C   UNL A   1      40.462  28.524  28.771  1.00  0.00     0.049 A 
ATOM     52  C   UNL A   1      38.903  31.372  33.337  1.00  0.00     0.074 A 
ATOM     53  C   UNL A   1      39.676  28.678  27.643  1.00  0.00     0.029 A 
ATOM     54  N   UNL A   1      39.907  29.325  29.758  1.00  0.00    -0.354 N 
ATOM     55  N   UNL A   1      39.135  30.767  32.198  1.00  0.00    -0.248 NA
ATOM     56  C   UNL A   1      37.770  32.308  33.298  1.00  0.00     0.031 C 
ATOM     57  C   UNL A   1      38.674  29.610  27.933  1.00  0.00     0.029 A 
ATOM     58  C   UNL A   1      38.803  29.996  29.258  1.00  0.00     0.049 A 
ATOM     59  H   UNL A   1      40.248  29.405  30.679  1.00  0.00     0.167 HD
ATOM     60  C   UNL A   1      38.166  31.226  31.316  1.00  0.00     0.074 A 
ATOM     61  C   UNL A   1      37.332  32.150  32.058  1.00  0.00     0.031 C 
ATOM     62  C   UNL A   1      37.982  30.911  30.011  1.00  0.00     0.037 A 
BRANCH  49  63
ATOM     63  C   UNL A   1      42.164  26.959  27.753  1.00  0.00     0.064 A 
ATOM     64  C   UNL A   1      41.728  25.660  27.449  1.00  0.00     0.173 A 
ATOM     65  C   UNL A   1      43.097  27.554  26.890  1.00  0.00     0.173 A 
ATOM     66  F   UNL A   1      40.844  25.040  28.247  1.00  0.00    -0.203 F 
ATOM     67  C   UNL A   1      42.230  24.973  26.346  1.00  0.00     0.198 A 
ATOM     68  C   UNL A   1      43.573  26.876  25.771  1.00  0.00     0.198 A 
ATOM     69  F   UNL A   1      43.544  28.796  27.130  1.00  0.00    -0.203 F 
ATOM     70  F   UNL A   1      41.839  23.714  26.108  1.00  0.00    -0.200 F 
ATOM     71  C   UNL A   1      43.147  25.584  25.505  1.00  0.00     0.200 A 
ATOM     72  F   UNL A   1      44.450  27.473  24.951  1.00  0.00    -0.200 F 
ATOM     73  F   UNL A   1      43.627  24.924  24.442  1.00  0.00    -0.200 F 
ENDBRANCH  49  63
BRANCH  50  74
ATOM     74  C   UNL A   1      39.190  32.007  35.844  1.00  0.00     0.064 A 
ATOM     75  C   UNL A   1      38.295  31.454  36.769  1.00  0.00     0.173 A 
ATOM     76  C   UNL A   1      39.664  33.303  36.088  1.00  0.00     0.173 A 
ATOM     77  F   UNL A   1      37.798  30.224  36.568  1.00  0.00    -0.203 F 
ATOM     78  C   UNL A   1      37.875  32.176  37.884  1.00  0.00     0.198 A 
ATOM     79  C   UNL A   1      39.266  34.014  37.218  1.00  0.00     0.198 A 
ATOM     80  F   UNL A   1      40.528  33.875  35.236  1.00  0.00    -0.203 F 
ATOM     81  F   UNL A   1      36.985  31.640  38.731  1.00  0.00    -0.200 F 
ATOM     82  C   UNL A   1      38.366  33.453  38.111  1.00  0.00     0.200 A 
ATOM     83  F   UNL A   1      39.754  35.241  37.442  1.00  0.00    -0.200 F 
ATOM     84  F   UNL A   1      37.967  34.145  39.187  1.00  0.00    -0.200 F 
ENDBRANCH  50  74
BRANCH  62  85
ATOM     85  C   UNL A   1      36.818  31.546  29.308  1.00  0.00     0.064 A 
ATOM     86  C   UNL A   1      35.681  30.806  28.953  1.00  0.00     0.173 A 
ATOM     87  C   UNL A   1      36.826  32.920  29.020  1.00  0.00     0.173 A 
ATOM     88  F   UNL A   1      35.631  29.487  29.192  1.00  0.00    -0.203 F 
ATOM     89  C   UNL A   1      34.604  31.415  28.312  1.00  0.00     0.198 A 
ATOM     90  C   UNL A   1      35.735  33.529  28.407  1.00  0.00     0.198 A 
ATOM     91  F   UNL A   1      37.887  33.673  29.345  1.00  0.00    -0.203 F 
ATOM     92  F   UNL A   1      33.547  30.680  27.939  1.00  0.00    -0.200 F 
ATOM     93  C   UNL A   1      34.629  32.776  28.047  1.00  0.00     0.200 A 
ATOM     94  F   UNL A   1      35.756  34.848  28.165  1.00  0.00    -0.200 F 
ATOM     95  F   UNL A   1      33.588  33.361  27.439  1.00  0.00    -0.200 F 
ENDBRANCH  62  85
ENDBRANCH  36  37
ENDBRANCH  28  31
ENDBRANCH  26  27
ENDBRANCH  25  26
ENDBRANCH  24  25
ENDBRANCH   1  24
TORSDOF 16
ENDMDL
