MODEL 1
REMARK VINA RESULT:     -11.9      0.000      0.000
REMARK SMILES O=C(Cc1ccccc1C(=O)NCCCCCCNC(=O)c1ccc(-c2c3nc(c(-c4c(F)c(F)c(F)c(F)c4F)c4ccc([nH]4)c(-c4c(F)c(F)c(F)c(F)c4F)c4nc(c(-c5c(F)c(F)c(F)c(F)c5F)c5ccc2[nH]5)C=C4)C=C3)cc1)Nc1ccc(S(=O)(=O)N2CCCC2)cc1
REMARK SMILES IDX 14 1 13 2 12 3 10 4 11 5 9 7 4 8 5 9 6 10 8 11 7 12 3 13
REMARK SMILES IDX 2 14 1 15 85 16 86 18 87 19 99 20 88 21 98 22 89 23 90 24
REMARK SMILES IDX 91 25 92 26 93 27 94 28 97 29 95 30 96 31 15 32 16 33 17 34
REMARK SMILES IDX 18 35 19 36 20 37 21 39 22 40 23 41 84 42 24 43 83 44 25 45
REMARK SMILES IDX 26 46 27 47 77 48 28 49 82 50 76 51 78 52 29 53 81 54 75 55
REMARK SMILES IDX 74 56 30 58 62 59 42 60 61 61 43 62 46 63 60 64 79 65 44 66
REMARK SMILES IDX 45 67 59 69 80 70 47 71 31 72 32 73 40 74 33 75 34 76 38 77
REMARK SMILES IDX 41 78 35 79 36 80 39 81 37 82 63 83 64 84 72 85 65 86 66 87
REMARK SMILES IDX 70 88 73 89 67 90 68 91 71 92 69 93 48 94 49 95 57 96 50 97
REMARK SMILES IDX 51 98 55 99 58 100 52 101 53 102 56 103 54 104
REMARK H PARENT 12 6 85 17 19 38 78 57 46 68
REMARK Flexibility Score: inf
ROOT
ATOM      1  C   UNL A   1      36.810  23.453  24.809  1.00  0.00     0.021 C 
ENDROOT
BRANCH   1   2
ATOM      2  C   UNL A   1      36.075  22.209  24.273  1.00  0.00     0.116 C 
BRANCH   2   3
ATOM      3  N   UNL A   1      35.142  21.711  25.264  1.00  0.00    -0.352 N 
ATOM      4  C   UNL A   1      34.237  20.696  25.413  1.00  0.00     0.251 C 
ATOM      5  O   UNL A   1      33.661  20.723  26.509  1.00  0.00    -0.269 OA
ATOM      6  H   UNL A   1      35.167  22.271  26.074  1.00  0.00     0.163 HD
BRANCH   4   7
ATOM      7  C   UNL A   1      33.881  19.563  24.478  1.00  0.00     0.043 A 
ATOM      8  C   UNL A   1      32.780  19.400  23.603  1.00  0.00    -0.026 A 
ATOM      9  C   UNL A   1      32.614  18.163  22.929  1.00  0.00     0.005 A 
ATOM     10  C   UNL A   1      33.482  17.093  23.116  1.00  0.00     0.000 A 
ATOM     11  C   UNL A   1      34.749  18.452  24.632  1.00  0.00     0.014 A 
ATOM     12  C   UNL A   1      34.556  17.238  23.971  1.00  0.00     0.001 A 
BRANCH   8  13
ATOM     13  C   UNL A   1      31.788  20.486  23.326  1.00  0.00     0.136 C 
BRANCH  13  14
ATOM     14  C   UNL A   1      32.292  21.886  23.106  1.00  0.00     0.228 C 
ATOM     15  O   UNL A   1      32.901  22.164  22.072  1.00  0.00    -0.274 OA
ATOM     16  N   UNL A   1      31.954  22.791  24.105  1.00  0.00    -0.326 N 
ATOM     17  H   UNL A   1      31.606  22.448  24.959  1.00  0.00     0.169 HD
BRANCH  16  18
ATOM     18  C   UNL A   1      32.096  24.178  23.936  1.00  0.00     0.041 A 
ATOM     19  C   UNL A   1      31.086  24.929  23.330  1.00  0.00     0.027 A 
ATOM     20  C   UNL A   1      33.249  24.813  24.390  1.00  0.00     0.027 A 
ATOM     21  C   UNL A   1      31.204  26.326  23.264  1.00  0.00     0.024 A 
ATOM     22  C   UNL A   1      33.360  26.191  24.337  1.00  0.00     0.024 A 
ATOM     23  C   UNL A   1      32.342  26.957  23.784  1.00  0.00     0.082 A 
BRANCH  23  24
ATOM     24  S   UNL A   1      32.465  28.735  23.744  1.00  0.00     0.243 S 
ATOM     25  O   UNL A   1      33.771  29.038  23.197  1.00  0.00    -0.207 OA
ATOM     26  O   UNL A   1      31.252  29.212  23.116  1.00  0.00    -0.207 OA
BRANCH  24  27
ATOM     27  N   UNL A   1      32.466  29.252  25.348  1.00  0.00    -0.198 NA
ATOM     28  C   UNL A   1      33.728  29.542  26.042  1.00  0.00     0.102 C 
ATOM     29  C   UNL A   1      31.462  28.770  26.312  1.00  0.00     0.102 C 
ATOM     30  C   UNL A   1      33.715  28.618  27.247  1.00  0.00     0.018 C 
ATOM     31  C   UNL A   1      32.242  28.440  27.588  1.00  0.00     0.018 C 
ENDBRANCH  24  27
ENDBRANCH  23  24
ENDBRANCH  16  18
ENDBRANCH  13  14
ENDBRANCH   8  13
ENDBRANCH   4   7
ENDBRANCH   2   3
ENDBRANCH   1   2
BRANCH   1  32
ATOM     32  C   UNL A   1      37.571  23.218  26.115  1.00  0.00     0.002 C 
BRANCH  32  33
ATOM     33  C   UNL A   1      38.901  22.482  25.939  1.00  0.00     0.002 C 
BRANCH  33  34
ATOM     34  C   UNL A   1      38.907  21.024  26.411  1.00  0.00     0.021 C 
BRANCH  34  35
ATOM     35  C   UNL A   1      39.227  20.002  25.323  1.00  0.00     0.116 C 
BRANCH  35  36
ATOM     36  N   UNL A   1      40.251  19.062  25.751  1.00  0.00    -0.352 N 
ATOM     37  C   UNL A   1      41.553  19.295  26.116  1.00  0.00     0.251 C 
ATOM     38  H   UNL A   1      39.967  18.119  25.785  1.00  0.00     0.163 HD
ATOM     39  O   UNL A   1      42.352  18.368  26.194  1.00  0.00    -0.269 OA
BRANCH  37  40
ATOM     40  C   UNL A   1      41.992  20.672  26.415  1.00  0.00     0.039 A 
ATOM     41  C   UNL A   1      42.097  21.082  27.748  1.00  0.00     0.014 A 
ATOM     42  C   UNL A   1      42.270  21.566  25.378  1.00  0.00     0.014 A 
ATOM     43  C   UNL A   1      42.535  22.375  28.039  1.00  0.00     0.010 A 
ATOM     44  C   UNL A   1      42.776  22.828  25.669  1.00  0.00     0.010 A 
ATOM     45  C   UNL A   1      42.903  23.248  27.003  1.00  0.00    -0.014 A 
BRANCH  45  46
ATOM     46  C   UNL A   1      43.405  24.617  27.280  1.00  0.00     0.031 A 
ATOM     47  C   UNL A   1      42.466  25.661  27.815  1.00  0.00     0.074 A 
ATOM     48  C   UNL A   1      44.677  24.937  26.979  1.00  0.00     0.049 A 
ATOM     49  N   UNL A   1      42.670  26.938  28.008  1.00  0.00    -0.248 NA
ATOM     50  C   UNL A   1      41.102  25.214  28.144  1.00  0.00     0.031 C 
ATOM     51  C   UNL A   1      45.671  24.018  26.424  1.00  0.00     0.029 A 
ATOM     52  N   UNL A   1      45.348  26.129  27.084  1.00  0.00    -0.354 N 
ATOM     53  C   UNL A   1      41.462  27.448  28.466  1.00  0.00     0.074 A 
ATOM     54  C   UNL A   1      40.514  26.357  28.465  1.00  0.00     0.031 C 
ATOM     55  C   UNL A   1      46.830  24.675  26.254  1.00  0.00     0.029 A 
ATOM     56  C   UNL A   1      46.648  26.070  26.646  1.00  0.00     0.049 A 
ATOM     57  H   UNL A   1      44.936  26.951  27.439  1.00  0.00     0.167 HD
ATOM     58  C   UNL A   1      41.178  28.707  28.876  1.00  0.00     0.037 A 
ATOM     59  C   UNL A   1      47.583  27.035  26.559  1.00  0.00     0.037 A 
ATOM     60  C   UNL A   1      42.137  29.780  28.906  1.00  0.00     0.049 A 
ATOM     61  C   UNL A   1      47.236  28.431  27.004  1.00  0.00     0.074 A 
ATOM     62  C   UNL A   1      41.965  31.079  29.350  1.00  0.00     0.029 A 
ATOM     63  N   UNL A   1      43.451  29.677  28.473  1.00  0.00    -0.354 N 
ATOM     64  N   UNL A   1      46.104  28.890  27.483  1.00  0.00    -0.248 NA
ATOM     65  C   UNL A   1      48.299  29.441  26.902  1.00  0.00     0.031 C 
ATOM     66  C   UNL A   1      43.159  31.776  29.139  1.00  0.00     0.029 A 
ATOM     67  C   UNL A   1      44.094  30.897  28.618  1.00  0.00     0.049 A 
ATOM     68  H   UNL A   1      43.866  28.859  28.117  1.00  0.00     0.167 HD
ATOM     69  C   UNL A   1      46.329  30.231  27.770  1.00  0.00     0.074 A 
ATOM     70  C   UNL A   1      47.707  30.507  27.422  1.00  0.00     0.031 C 
ATOM     71  C   UNL A   1      45.471  31.150  28.276  1.00  0.00     0.037 A 
BRANCH  58  72
ATOM     72  C   UNL A   1      39.774  28.993  29.324  1.00  0.00     0.064 A 
ATOM     73  C   UNL A   1      39.379  28.841  30.662  1.00  0.00     0.173 A 
ATOM     74  C   UNL A   1      38.815  29.455  28.408  1.00  0.00     0.173 A 
ATOM     75  F   UNL A   1      40.252  28.389  31.575  1.00  0.00    -0.203 F 
ATOM     76  C   UNL A   1      38.072  29.110  31.060  1.00  0.00     0.198 A 
ATOM     77  C   UNL A   1      37.519  29.756  28.817  1.00  0.00     0.198 A 
ATOM     78  F   UNL A   1      39.140  29.620  27.117  1.00  0.00    -0.203 F 
ATOM     79  F   UNL A   1      37.705  28.904  32.332  1.00  0.00    -0.200 F 
ATOM     80  C   UNL A   1      37.146  29.575  30.139  1.00  0.00     0.200 A 
ATOM     81  F   UNL A   1      36.628  30.217  27.927  1.00  0.00    -0.200 F 
ATOM     82  F   UNL A   1      35.890  29.840  30.525  1.00  0.00    -0.200 F 
ENDBRANCH  58  72
BRANCH  59  83
ATOM     83  C   UNL A   1      48.940  26.714  26.043  1.00  0.00     0.064 A 
ATOM     84  C   UNL A   1      49.909  26.137  26.876  1.00  0.00     0.173 A 
ATOM     85  C   UNL A   1      49.299  26.982  24.713  1.00  0.00     0.173 A 
ATOM     86  F   UNL A   1      49.619  25.879  28.160  1.00  0.00    -0.203 F 
ATOM     87  C   UNL A   1      51.191  25.862  26.406  1.00  0.00     0.198 A 
ATOM     88  C   UNL A   1      50.572  26.679  24.237  1.00  0.00     0.198 A 
ATOM     89  F   UNL A   1      48.406  27.526  23.873  1.00  0.00    -0.203 F 
ATOM     90  F   UNL A   1      52.112  25.354  27.237  1.00  0.00    -0.200 F 
ATOM     91  C   UNL A   1      51.521  26.127  25.085  1.00  0.00     0.200 A 
ATOM     92  F   UNL A   1      50.879  26.919  22.954  1.00  0.00    -0.200 F 
ATOM     93  F   UNL A   1      52.752  25.858  24.632  1.00  0.00    -0.200 F 
ENDBRANCH  59  83
BRANCH  71  94
ATOM     94  C   UNL A   1      46.007  32.530  28.527  1.00  0.00     0.064 A 
ATOM     95  C   UNL A   1      45.909  33.546  27.565  1.00  0.00     0.173 A 
ATOM     96  C   UNL A   1      46.588  32.849  29.763  1.00  0.00     0.173 A 
ATOM     97  F   UNL A   1      45.376  33.286  26.361  1.00  0.00    -0.203 F 
ATOM     98  C   UNL A   1      46.398  34.824  27.822  1.00  0.00     0.198 A 
ATOM     99  C   UNL A   1      47.045  34.137  30.029  1.00  0.00     0.198 A 
ATOM    100  F   UNL A   1      46.699  31.916  30.720  1.00  0.00    -0.203 F 
ATOM    101  F   UNL A   1      46.340  35.766  26.870  1.00  0.00    -0.200 F 
ATOM    102  C   UNL A   1      46.958  35.121  29.056  1.00  0.00     0.200 A 
ATOM    103  F   UNL A   1      47.572  34.425  31.228  1.00  0.00    -0.200 F 
ATOM    104  F   UNL A   1      47.419  36.354  29.305  1.00  0.00    -0.200 F 
ENDBRANCH  71  94
ENDBRANCH  45  46
ENDBRANCH  37  40
ENDBRANCH  35  36
ENDBRANCH  34  35
ENDBRANCH  33  34
ENDBRANCH  32  33
ENDBRANCH   1  32
TORSDOF 18
ENDMDL
MODEL 2
REMARK VINA RESULT:     -11.6      4.781     11.474
REMARK SMILES O=C(Cc1ccccc1C(=O)NCCCCCCNC(=O)c1ccc(-c2c3nc(c(-c4c(F)c(F)c(F)c(F)c4F)c4ccc([nH]4)c(-c4c(F)c(F)c(F)c(F)c4F)c4nc(c(-c5c(F)c(F)c(F)c(F)c5F)c5ccc2[nH]5)C=C4)C=C3)cc1)Nc1ccc(S(=O)(=O)N2CCCC2)cc1
REMARK SMILES IDX 14 1 13 2 12 3 10 4 11 5 9 7 4 8 5 9 6 10 8 11 7 12 3 13
REMARK SMILES IDX 2 14 1 15 85 16 86 18 87 19 99 20 88 21 98 22 89 23 90 24
REMARK SMILES IDX 91 25 92 26 93 27 94 28 97 29 95 30 96 31 15 32 16 33 17 34
REMARK SMILES IDX 18 35 19 36 20 37 21 39 22 40 23 41 84 42 24 43 83 44 25 45
REMARK SMILES IDX 26 46 27 47 77 48 28 49 82 50 76 51 78 52 29 53 81 54 75 55
REMARK SMILES IDX 74 56 30 58 62 59 42 60 61 61 43 62 46 63 60 64 79 65 44 66
REMARK SMILES IDX 45 67 59 69 80 70 47 71 31 72 32 73 40 74 33 75 34 76 38 77
REMARK SMILES IDX 41 78 35 79 36 80 39 81 37 82 63 83 64 84 72 85 65 86 66 87
REMARK SMILES IDX 70 88 73 89 67 90 68 91 71 92 69 93 48 94 49 95 57 96 50 97
REMARK SMILES IDX 51 98 55 99 58 100 52 101 53 102 56 103 54 104
REMARK H PARENT 12 6 85 17 19 38 78 57 46 68
REMARK Flexibility Score: inf
ROOT
ATOM      1  C   UNL A   1      44.981  23.694  28.190  1.00  0.00     0.021 C 
ENDROOT
BRANCH   1   2
ATOM      2  C   UNL A   1      46.174  23.843  27.225  1.00  0.00     0.116 C 
BRANCH   2   3
ATOM      3  N   UNL A   1      47.237  24.602  27.854  1.00  0.00    -0.352 N 
ATOM      4  C   UNL A   1      48.247  25.452  27.500  1.00  0.00     0.251 C 
ATOM      5  O   UNL A   1      48.914  25.837  28.470  1.00  0.00    -0.269 OA
ATOM      6  H   UNL A   1      47.229  24.465  28.829  1.00  0.00     0.163 HD
BRANCH   4   7
ATOM      7  C   UNL A   1      48.630  26.000  26.144  1.00  0.00     0.043 A 
ATOM      8  C   UNL A   1      47.827  26.382  25.043  1.00  0.00    -0.026 A 
ATOM      9  C   UNL A   1      48.456  26.741  23.823  1.00  0.00     0.005 A 
ATOM     10  C   UNL A   1      49.837  26.709  23.662  1.00  0.00     0.000 A 
ATOM     11  C   UNL A   1      50.034  25.990  25.941  1.00  0.00     0.014 A 
ATOM     12  C   UNL A   1      50.630  26.333  24.728  1.00  0.00     0.001 A 
BRANCH   8  13
ATOM     13  C   UNL A   1      46.333  26.455  25.107  1.00  0.00     0.136 C 
BRANCH  13  14
ATOM     14  C   UNL A   1      45.698  27.451  26.039  1.00  0.00     0.228 C 
ATOM     15  O   UNL A   1      45.239  27.076  27.117  1.00  0.00    -0.274 OA
ATOM     16  N   UNL A   1      45.747  28.770  25.603  1.00  0.00    -0.326 N 
ATOM     17  H   UNL A   1      45.990  28.953  24.668  1.00  0.00     0.169 HD
BRANCH  16  18
ATOM     18  C   UNL A   1      45.459  29.849  26.454  1.00  0.00     0.041 A 
ATOM     19  C   UNL A   1      46.409  30.847  26.687  1.00  0.00     0.027 A 
ATOM     20  C   UNL A   1      44.210  29.933  27.062  1.00  0.00     0.027 A 
ATOM     21  C   UNL A   1      46.065  31.968  27.459  1.00  0.00     0.024 A 
ATOM     22  C   UNL A   1      43.865  31.044  27.811  1.00  0.00     0.024 A 
ATOM     23  C   UNL A   1      44.781  32.069  28.010  1.00  0.00     0.082 A 
BRANCH  23  24
ATOM     24  S   UNL A   1      44.331  33.517  28.947  1.00  0.00     0.243 S 
ATOM     25  O   UNL A   1      42.989  33.283  29.437  1.00  0.00    -0.207 OA
ATOM     26  O   UNL A   1      45.432  33.775  29.850  1.00  0.00    -0.207 OA
BRANCH  24  27
ATOM     27  N   UNL A   1      44.244  34.791  27.848  1.00  0.00    -0.198 NA
ATOM     28  C   UNL A   1      44.034  36.170  28.311  1.00  0.00     0.102 C 
ATOM     29  C   UNL A   1      43.649  34.616  26.512  1.00  0.00     0.102 C 
ATOM     30  C   UNL A   1      42.766  36.615  27.605  1.00  0.00     0.018 C 
ATOM     31  C   UNL A   1      42.755  35.840  26.294  1.00  0.00     0.018 C 
ENDBRANCH  24  27
ENDBRANCH  23  24
ENDBRANCH  16  18
ENDBRANCH  13  14
ENDBRANCH   8  13
ENDBRANCH   4   7
ENDBRANCH   2   3
ENDBRANCH   1   2
BRANCH   1  32
ATOM     32  C   UNL A   1      43.630  24.069  27.581  1.00  0.00     0.002 C 
BRANCH  32  33
ATOM     33  C   UNL A   1      43.570  23.925  26.058  1.00  0.00     0.002 C 
BRANCH  33  34
ATOM     34  C   UNL A   1      42.663  22.800  25.545  1.00  0.00     0.021 C 
BRANCH  34  35
ATOM     35  C   UNL A   1      41.598  22.338  26.536  1.00  0.00     0.116 C 
BRANCH  35  36
ATOM     36  N   UNL A   1      40.260  22.427  25.971  1.00  0.00    -0.352 N 
ATOM     37  C   UNL A   1      39.260  23.326  26.235  1.00  0.00     0.251 C 
ATOM     38  H   UNL A   1      40.042  21.739  25.300  1.00  0.00     0.163 HD
ATOM     39  O   UNL A   1      38.110  23.103  25.870  1.00  0.00    -0.269 OA
BRANCH  37  40
ATOM     40  C   UNL A   1      39.571  24.573  26.964  1.00  0.00     0.039 A 
ATOM     41  C   UNL A   1      39.167  24.705  28.296  1.00  0.00     0.014 A 
ATOM     42  C   UNL A   1      40.235  25.620  26.320  1.00  0.00     0.014 A 
ATOM     43  C   UNL A   1      39.478  25.870  28.998  1.00  0.00     0.010 A 
ATOM     44  C   UNL A   1      40.609  26.748  27.042  1.00  0.00     0.010 A 
ATOM     45  C   UNL A   1      40.225  26.888  28.385  1.00  0.00    -0.014 A 
BRANCH  45  46
ATOM     46  C   UNL A   1      40.602  28.124  29.115  1.00  0.00     0.031 A 
ATOM     47  C   UNL A   1      41.974  28.246  29.715  1.00  0.00     0.074 A 
ATOM     48  C   UNL A   1      39.690  29.096  29.302  1.00  0.00     0.049 A 
ATOM     49  N   UNL A   1      42.459  29.181  30.490  1.00  0.00    -0.248 NA
ATOM     50  C   UNL A   1      42.916  27.150  29.434  1.00  0.00     0.031 C 
ATOM     51  C   UNL A   1      38.317  29.075  28.796  1.00  0.00     0.029 A 
ATOM     52  N   UNL A   1      39.775  30.284  29.982  1.00  0.00    -0.354 N 
ATOM     53  C   UNL A   1      43.753  28.781  30.799  1.00  0.00     0.074 A 
ATOM     54  C   UNL A   1      43.957  27.491  30.179  1.00  0.00     0.031 C 
ATOM     55  C   UNL A   1      37.694  30.205  29.167  1.00  0.00     0.029 A 
ATOM     56  C   UNL A   1      38.609  31.009  29.974  1.00  0.00     0.049 A 
ATOM     57  H   UNL A   1      40.596  30.589  30.434  1.00  0.00     0.167 HD
ATOM     58  C   UNL A   1      44.694  29.443  31.513  1.00  0.00     0.037 A 
ATOM     59  C   UNL A   1      38.309  32.183  30.560  1.00  0.00     0.037 A 
ATOM     60  C   UNL A   1      44.494  30.743  32.100  1.00  0.00     0.049 A 
ATOM     61  C   UNL A   1      39.367  32.890  31.364  1.00  0.00     0.074 A 
ATOM     62  C   UNL A   1      45.398  31.522  32.799  1.00  0.00     0.029 A 
ATOM     63  N   UNL A   1      43.305  31.455  32.053  1.00  0.00    -0.354 N 
ATOM     64  N   UNL A   1      40.603  32.525  31.608  1.00  0.00    -0.248 NA
ATOM     65  C   UNL A   1      38.990  34.175  31.970  1.00  0.00     0.031 C 
ATOM     66  C   UNL A   1      44.742  32.683  33.220  1.00  0.00     0.029 A 
ATOM     67  C   UNL A   1      43.445  32.655  32.732  1.00  0.00     0.049 A 
ATOM     68  H   UNL A   1      42.483  31.154  31.603  1.00  0.00     0.167 HD
ATOM     69  C   UNL A   1      41.159  33.549  32.365  1.00  0.00     0.074 A 
ATOM     70  C   UNL A   1      40.130  34.553  32.529  1.00  0.00     0.031 C 
ATOM     71  C   UNL A   1      42.411  33.648  32.876  1.00  0.00     0.037 A 
BRANCH  58  72
ATOM     72  C   UNL A   1      46.024  28.773  31.703  1.00  0.00     0.064 A 
ATOM     73  C   UNL A   1      47.084  28.966  30.802  1.00  0.00     0.173 A 
ATOM     74  C   UNL A   1      46.254  27.949  32.816  1.00  0.00     0.173 A 
ATOM     75  F   UNL A   1      46.913  29.732  29.715  1.00  0.00    -0.203 F 
ATOM     76  C   UNL A   1      48.311  28.335  30.993  1.00  0.00     0.198 A 
ATOM     77  C   UNL A   1      47.493  27.348  33.020  1.00  0.00     0.198 A 
ATOM     78  F   UNL A   1      45.276  27.732  33.708  1.00  0.00    -0.203 F 
ATOM     79  F   UNL A   1      49.289  28.491  30.090  1.00  0.00    -0.200 F 
ATOM     80  C   UNL A   1      48.517  27.534  32.105  1.00  0.00     0.200 A 
ATOM     81  F   UNL A   1      47.694  26.584  34.103  1.00  0.00    -0.200 F 
ATOM     82  F   UNL A   1      49.701  26.934  32.290  1.00  0.00    -0.200 F 
ENDBRANCH  58  72
BRANCH  59  83
ATOM     83  C   UNL A   1      36.953  32.771  30.399  1.00  0.00     0.064 A 
ATOM     84  C   UNL A   1      36.612  33.489  29.244  1.00  0.00     0.173 A 
ATOM     85  C   UNL A   1      35.974  32.636  31.395  1.00  0.00     0.173 A 
ATOM     86  F   UNL A   1      37.520  33.660  28.271  1.00  0.00    -0.203 F 
ATOM     87  C   UNL A   1      35.353  34.068  29.101  1.00  0.00     0.198 A 
ATOM     88  C   UNL A   1      34.705  33.190  31.238  1.00  0.00     0.198 A 
ATOM     89  F   UNL A   1      36.246  31.953  32.517  1.00  0.00    -0.203 F 
ATOM     90  F   UNL A   1      35.071  34.788  28.007  1.00  0.00    -0.200 F 
ATOM     91  C   UNL A   1      34.398  33.913  30.095  1.00  0.00     0.200 A 
ATOM     92  F   UNL A   1      33.780  33.021  32.192  1.00  0.00    -0.200 F 
ATOM     93  F   UNL A   1      33.186  34.465  29.955  1.00  0.00    -0.200 F 
ENDBRANCH  59  83
BRANCH  71  94
ATOM     94  C   UNL A   1      42.753  34.904  33.626  1.00  0.00     0.064 A 
ATOM     95  C   UNL A   1      43.193  36.061  32.966  1.00  0.00     0.173 A 
ATOM     96  C   UNL A   1      42.597  34.962  35.018  1.00  0.00     0.173 A 
ATOM     97  F   UNL A   1      43.373  36.052  31.636  1.00  0.00    -0.203 F 
ATOM     98  C   UNL A   1      43.489  37.221  33.677  1.00  0.00     0.198 A 
ATOM     99  C   UNL A   1      42.862  36.133  35.722  1.00  0.00     0.198 A 
ATOM    100  F   UNL A   1      42.172  33.885  35.697  1.00  0.00    -0.203 F 
ATOM    101  F   UNL A   1      43.957  38.299  33.032  1.00  0.00    -0.200 F 
ATOM    102  C   UNL A   1      43.316  37.259  35.052  1.00  0.00     0.200 A 
ATOM    103  F   UNL A   1      42.679  36.171  37.050  1.00  0.00    -0.200 F 
ATOM    104  F   UNL A   1      43.592  38.379  35.734  1.00  0.00    -0.200 F 
ENDBRANCH  71  94
ENDBRANCH  45  46
ENDBRANCH  37  40
ENDBRANCH  35  36
ENDBRANCH  34  35
ENDBRANCH  33  34
ENDBRANCH  32  33
ENDBRANCH   1  32
TORSDOF 18
ENDMDL
MODEL 3
REMARK VINA RESULT:     -11.4      1.040      2.027
REMARK SMILES O=C(Cc1ccccc1C(=O)NCCCCCCNC(=O)c1ccc(-c2c3nc(c(-c4c(F)c(F)c(F)c(F)c4F)c4ccc([nH]4)c(-c4c(F)c(F)c(F)c(F)c4F)c4nc(c(-c5c(F)c(F)c(F)c(F)c5F)c5ccc2[nH]5)C=C4)C=C3)cc1)Nc1ccc(S(=O)(=O)N2CCCC2)cc1
REMARK SMILES IDX 14 1 13 2 12 3 10 4 11 5 9 7 4 8 5 9 6 10 8 11 7 12 3 13
REMARK SMILES IDX 2 14 1 15 85 16 86 18 87 19 99 20 88 21 98 22 89 23 90 24
REMARK SMILES IDX 91 25 92 26 93 27 94 28 97 29 95 30 96 31 15 32 16 33 17 34
REMARK SMILES IDX 18 35 19 36 20 37 21 39 22 40 23 41 84 42 24 43 83 44 25 45
REMARK SMILES IDX 26 46 27 47 77 48 28 49 82 50 76 51 78 52 29 53 81 54 75 55
REMARK SMILES IDX 74 56 30 58 62 59 42 60 61 61 43 62 46 63 60 64 79 65 44 66
REMARK SMILES IDX 45 67 59 69 80 70 47 71 31 72 32 73 40 74 33 75 34 76 38 77
REMARK SMILES IDX 41 78 35 79 36 80 39 81 37 82 63 83 64 84 72 85 65 86 66 87
REMARK SMILES IDX 70 88 73 89 67 90 68 91 71 92 69 93 48 94 49 95 57 96 50 97
REMARK SMILES IDX 51 98 55 99 58 100 52 101 53 102 56 103 54 104
REMARK H PARENT 12 6 85 17 19 38 78 57 46 68
REMARK Flexibility Score: inf
ROOT
ATOM      1  C   UNL A   1      36.980  23.376  25.243  1.00  0.00     0.021 C 
ENDROOT
BRANCH   1   2
ATOM      2  C   UNL A   1      36.305  22.118  24.664  1.00  0.00     0.116 C 
BRANCH   2   3
ATOM      3  N   UNL A   1      35.169  21.737  25.481  1.00  0.00    -0.352 N 
ATOM      4  C   UNL A   1      34.204  20.769  25.521  1.00  0.00     0.251 C 
ATOM      5  O   UNL A   1      33.423  20.908  26.471  1.00  0.00    -0.269 OA
ATOM      6  H   UNL A   1      35.059  22.363  26.233  1.00  0.00     0.163 HD
BRANCH   4   7
ATOM      7  C   UNL A   1      33.987  19.572  24.624  1.00  0.00     0.043 A 
ATOM      8  C   UNL A   1      32.923  19.259  23.744  1.00  0.00    -0.026 A 
ATOM      9  C   UNL A   1      32.902  17.988  23.114  1.00  0.00     0.005 A 
ATOM     10  C   UNL A   1      33.878  17.027  23.348  1.00  0.00     0.000 A 
ATOM     11  C   UNL A   1      34.968  18.567  24.827  1.00  0.00     0.014 A 
ATOM     12  C   UNL A   1      34.918  17.318  24.208  1.00  0.00     0.001 A 
BRANCH   8  13
ATOM     13  C   UNL A   1      31.823  20.220  23.417  1.00  0.00     0.136 C 
BRANCH  13  14
ATOM     14  C   UNL A   1      32.168  21.668  23.205  1.00  0.00     0.228 C 
ATOM     15  O   UNL A   1      32.814  22.007  22.213  1.00  0.00    -0.274 OA
ATOM     16  N   UNL A   1      31.650  22.537  24.158  1.00  0.00    -0.326 N 
ATOM     17  H   UNL A   1      31.283  22.164  24.992  1.00  0.00     0.169 HD
BRANCH  16  18
ATOM     18  C   UNL A   1      31.635  23.929  23.972  1.00  0.00     0.041 A 
ATOM     19  C   UNL A   1      30.640  24.533  23.199  1.00  0.00     0.027 A 
ATOM     20  C   UNL A   1      32.613  24.715  24.574  1.00  0.00     0.027 A 
ATOM     21  C   UNL A   1      30.585  25.933  23.111  1.00  0.00     0.024 A 
ATOM     22  C   UNL A   1      32.551  26.095  24.498  1.00  0.00     0.024 A 
ATOM     23  C   UNL A   1      31.539  26.714  23.777  1.00  0.00     0.082 A 
BRANCH  23  24
ATOM     24  S   UNL A   1      31.435  28.492  23.703  1.00  0.00     0.243 S 
ATOM     25  O   UNL A   1      31.111  28.936  25.042  1.00  0.00    -0.207 OA
ATOM     26  O   UNL A   1      32.633  28.942  23.026  1.00  0.00    -0.207 OA
BRANCH  24  27
ATOM     27  N   UNL A   1      30.111  28.855  22.725  1.00  0.00    -0.198 NA
ATOM     28  C   UNL A   1      30.216  29.868  21.666  1.00  0.00     0.102 C 
ATOM     29  C   UNL A   1      28.735  28.816  23.248  1.00  0.00     0.102 C 
ATOM     30  C   UNL A   1      29.141  30.884  22.009  1.00  0.00     0.018 C 
ATOM     31  C   UNL A   1      28.056  30.082  22.716  1.00  0.00     0.018 C 
ENDBRANCH  24  27
ENDBRANCH  23  24
ENDBRANCH  16  18
ENDBRANCH  13  14
ENDBRANCH   8  13
ENDBRANCH   4   7
ENDBRANCH   2   3
ENDBRANCH   1   2
BRANCH   1  32
ATOM     32  C   UNL A   1      38.034  23.088  26.313  1.00  0.00     0.002 C 
BRANCH  32  33
ATOM     33  C   UNL A   1      39.213  22.247  25.817  1.00  0.00     0.002 C 
BRANCH  33  34
ATOM     34  C   UNL A   1      39.299  20.835  26.407  1.00  0.00     0.021 C 
BRANCH  34  35
ATOM     35  C   UNL A   1      39.531  19.729  25.380  1.00  0.00     0.116 C 
BRANCH  35  36
ATOM     36  N   UNL A   1      40.595  18.826  25.792  1.00  0.00    -0.352 N 
ATOM     37  C   UNL A   1      41.896  19.105  26.127  1.00  0.00     0.251 C 
ATOM     38  H   UNL A   1      40.344  17.874  25.836  1.00  0.00     0.163 HD
ATOM     39  O   UNL A   1      42.728  18.206  26.193  1.00  0.00    -0.269 OA
BRANCH  37  40
ATOM     40  C   UNL A   1      42.294  20.499  26.410  1.00  0.00     0.039 A 
ATOM     41  C   UNL A   1      42.267  20.964  27.728  1.00  0.00     0.014 A 
ATOM     42  C   UNL A   1      42.665  21.352  25.367  1.00  0.00     0.014 A 
ATOM     43  C   UNL A   1      42.666  22.272  28.006  1.00  0.00     0.010 A 
ATOM     44  C   UNL A   1      43.131  22.630  25.654  1.00  0.00     0.010 A 
ATOM     45  C   UNL A   1      43.126  23.106  26.974  1.00  0.00    -0.014 A 
BRANCH  45  46
ATOM     46  C   UNL A   1      43.588  24.490  27.242  1.00  0.00     0.031 A 
ATOM     47  C   UNL A   1      42.616  25.516  27.750  1.00  0.00     0.074 A 
ATOM     48  C   UNL A   1      44.856  24.839  26.955  1.00  0.00     0.049 A 
ATOM     49  N   UNL A   1      42.784  26.801  27.929  1.00  0.00    -0.248 NA
ATOM     50  C   UNL A   1      41.259  25.039  28.065  1.00  0.00     0.031 C 
ATOM     51  C   UNL A   1      45.882  23.939  26.426  1.00  0.00     0.029 A 
ATOM     52  N   UNL A   1      45.495  26.049  27.054  1.00  0.00    -0.354 N 
ATOM     53  C   UNL A   1      41.557  27.285  28.364  1.00  0.00     0.074 A 
ATOM     54  C   UNL A   1      40.637  26.170  28.363  1.00  0.00     0.031 C 
ATOM     55  C   UNL A   1      47.026  24.623  26.264  1.00  0.00     0.029 A 
ATOM     56  C   UNL A   1      46.803  26.018  26.635  1.00  0.00     0.049 A 
ATOM     57  H   UNL A   1      45.057  26.864  27.393  1.00  0.00     0.167 HD
ATOM     58  C   UNL A   1      41.236  28.542  28.754  1.00  0.00     0.037 A 
ATOM     59  C   UNL A   1      47.714  27.005  26.550  1.00  0.00     0.037 A 
ATOM     60  C   UNL A   1      42.166  29.640  28.783  1.00  0.00     0.049 A 
ATOM     61  C   UNL A   1      47.326  28.397  26.972  1.00  0.00     0.074 A 
ATOM     62  C   UNL A   1      41.955  30.939  29.209  1.00  0.00     0.029 A 
ATOM     63  N   UNL A   1      43.489  29.564  28.371  1.00  0.00    -0.354 N 
ATOM     64  N   UNL A   1      46.176  28.833  27.429  1.00  0.00    -0.248 NA
ATOM     65  C   UNL A   1      48.363  29.433  26.873  1.00  0.00     0.031 C 
ATOM     66  C   UNL A   1      43.134  31.663  29.006  1.00  0.00     0.029 A 
ATOM     67  C   UNL A   1      44.098  30.802  28.509  1.00  0.00     0.049 A 
ATOM     68  H   UNL A   1      43.930  28.753  28.031  1.00  0.00     0.167 HD
ATOM     69  C   UNL A   1      46.362  30.183  27.702  1.00  0.00     0.074 A 
ATOM     70  C   UNL A   1      47.737  30.489  27.370  1.00  0.00     0.031 C 
ATOM     71  C   UNL A   1      45.473  31.086  28.184  1.00  0.00     0.037 A 
BRANCH  58  72
ATOM     72  C   UNL A   1      39.818  28.798  29.177  1.00  0.00     0.064 A 
ATOM     73  C   UNL A   1      39.406  28.644  30.511  1.00  0.00     0.173 A 
ATOM     74  C   UNL A   1      38.864  29.231  28.244  1.00  0.00     0.173 A 
ATOM     75  F   UNL A   1      40.274  28.219  31.440  1.00  0.00    -0.203 F 
ATOM     76  C   UNL A   1      38.087  28.885  30.886  1.00  0.00     0.198 A 
ATOM     77  C   UNL A   1      37.554  29.503  28.630  1.00  0.00     0.198 A 
ATOM     78  F   UNL A   1      39.204  29.396  26.957  1.00  0.00    -0.203 F 
ATOM     79  F   UNL A   1      37.704  28.678  32.154  1.00  0.00    -0.200 F 
ATOM     80  C   UNL A   1      37.164  29.322  29.947  1.00  0.00     0.200 A 
ATOM     81  F   UNL A   1      36.667  29.938  27.724  1.00  0.00    -0.200 F 
ATOM     82  F   UNL A   1      35.897  29.560  30.313  1.00  0.00    -0.200 F 
ENDBRANCH  58  72
BRANCH  59  83
ATOM     83  C   UNL A   1      49.086  26.713  26.057  1.00  0.00     0.064 A 
ATOM     84  C   UNL A   1      49.442  26.966  24.725  1.00  0.00     0.173 A 
ATOM     85  C   UNL A   1      50.066  26.170  26.902  1.00  0.00     0.173 A 
ATOM     86  F   UNL A   1      48.534  27.468  23.874  1.00  0.00    -0.203 F 
ATOM     87  C   UNL A   1      50.717  26.666  24.251  1.00  0.00     0.198 A 
ATOM     88  C   UNL A   1      51.349  25.898  26.434  1.00  0.00     0.198 A 
ATOM     89  F   UNL A   1      49.779  25.916  28.188  1.00  0.00    -0.203 F 
ATOM     90  F   UNL A   1      51.015  26.874  22.961  1.00  0.00    -0.200 F 
ATOM     91  C   UNL A   1      51.672  26.138  25.106  1.00  0.00     0.200 A 
ATOM     92  F   UNL A   1      52.274  25.406  27.270  1.00  0.00    -0.200 F 
ATOM     93  F   UNL A   1      52.899  25.854  24.652  1.00  0.00    -0.200 F 
ENDBRANCH  59  83
BRANCH  71  94
ATOM     94  C   UNL A   1      45.970  32.482  28.425  1.00  0.00     0.064 A 
ATOM     95  C   UNL A   1      46.554  32.857  29.644  1.00  0.00     0.173 A 
ATOM     96  C   UNL A   1      45.898  33.444  27.407  1.00  0.00     0.173 A 
ATOM     97  F   UNL A   1      46.632  31.978  30.654  1.00  0.00    -0.203 F 
ATOM     98  C   UNL A   1      47.024  34.153  29.842  1.00  0.00     0.198 A 
ATOM     99  C   UNL A   1      46.399  34.729  27.598  1.00  0.00     0.198 A 
ATOM    100  F   UNL A   1      45.355  33.135  26.220  1.00  0.00    -0.203 F 
ATOM    101  F   UNL A   1      47.533  34.505  31.032  1.00  0.00    -0.200 F 
ATOM    102  C   UNL A   1      46.954  35.085  28.817  1.00  0.00     0.200 A 
ATOM    103  F   UNL A   1      46.344  35.623  26.600  1.00  0.00    -0.200 F 
ATOM    104  F   UNL A   1      47.415  36.328  29.007  1.00  0.00    -0.200 F 
ENDBRANCH  71  94
ENDBRANCH  45  46
ENDBRANCH  37  40
ENDBRANCH  35  36
ENDBRANCH  34  35
ENDBRANCH  33  34
ENDBRANCH  32  33
ENDBRANCH   1  32
TORSDOF 18
ENDMDL
