MODEL 1
REMARK VINA RESULT:     -12.6      0.000      0.000
REMARK SMILES O=C(NCCCCCCNC(=O)c1cccc(Nc2ccc([N+](=O)[O-])cc2)c1)c1ccc(-c2c3nc(c(-c4c(F)c(F)c(F)c(F)c4F)c4ccc([nH]4)c(-c4c(F)c(F)c(F)c(F)c4F)c4nc(c(-c5c(F)c(F)c(F)c(F)c5F)c5ccc2[nH]5)C=C4)C=C3)cc1
REMARK SMILES IDX 7 1 6 2 5 3 4 4 3 5 1 6 2 7 29 9 30 10 91 11 31 12 90 13
REMARK SMILES IDX 32 14 33 15 34 16 84 17 35 18 89 19 83 20 85 21 36 22 88 23
REMARK SMILES IDX 82 24 81 25 37 27 69 28 49 29 68 30 50 31 53 32 67 33 86 34
REMARK SMILES IDX 51 35 52 36 66 38 87 39 54 40 38 41 39 42 47 43 40 44 41 45
REMARK SMILES IDX 45 46 48 47 42 48 43 49 46 50 44 51 70 52 71 53 79 54 72 55
REMARK SMILES IDX 73 56 77 57 80 58 74 59 75 60 78 61 76 62 55 63 56 64 64 65
REMARK SMILES IDX 57 66 58 67 62 68 65 69 59 70 60 71 63 72 61 73 8 74 9 75
REMARK SMILES IDX 10 76 11 77 12 79 13 80 14 81 28 82 15 83 17 84 16 85 18 86
REMARK SMILES IDX 19 88 20 89 27 90 21 91 26 92 22 93 23 94 24 95 25 96
REMARK H PARENT 3 8 85 26 53 37 10 78 18 87
REMARK Flexibility Score: inf
ROOT
ATOM      1  C   UNL A   1      32.801  30.264  26.792  1.00  0.00     0.002 C 
ENDROOT
BRANCH   1   2
ATOM      2  C   UNL A   1      31.498  30.930  26.341  1.00  0.00     0.002 C 
BRANCH   2   3
ATOM      3  C   UNL A   1      31.405  32.431  26.615  1.00  0.00     0.021 C 
BRANCH   3   4
ATOM      4  C   UNL A   1      32.650  33.039  27.239  1.00  0.00     0.116 C 
BRANCH   4   5
ATOM      5  N   UNL A   1      32.434  34.399  27.704  1.00  0.00    -0.352 N 
ATOM      6  O   UNL A   1      32.638  36.152  29.115  1.00  0.00    -0.269 OA
ATOM      7  C   UNL A   1      33.048  35.059  28.740  1.00  0.00     0.251 C 
ATOM      8  H   UNL A   1      31.757  34.915  27.211  1.00  0.00     0.163 HD
BRANCH   7   9
ATOM      9  C   UNL A   1      34.204  34.431  29.414  1.00  0.00     0.039 A 
ATOM     10  C   UNL A   1      34.017  33.664  30.567  1.00  0.00     0.014 A 
ATOM     11  C   UNL A   1      35.484  34.604  28.881  1.00  0.00     0.014 A 
ATOM     12  C   UNL A   1      35.118  33.171  31.253  1.00  0.00     0.010 A 
ATOM     13  C   UNL A   1      36.584  34.029  29.523  1.00  0.00     0.010 A 
ATOM     14  C   UNL A   1      36.409  33.318  30.720  1.00  0.00    -0.014 A 
BRANCH  14  15
ATOM     15  C   UNL A   1      37.539  32.608  31.370  1.00  0.00     0.031 A 
ATOM     16  C   UNL A   1      38.259  31.482  30.689  1.00  0.00     0.074 A 
ATOM     17  C   UNL A   1      37.911  33.013  32.602  1.00  0.00     0.049 A 
ATOM     18  N   UNL A   1      39.263  30.765  31.129  1.00  0.00    -0.248 NA
ATOM     19  C   UNL A   1      37.796  31.104  29.345  1.00  0.00     0.031 C 
ATOM     20  C   UNL A   1      37.263  34.086  33.364  1.00  0.00     0.029 A 
ATOM     21  N   UNL A   1      38.919  32.586  33.425  1.00  0.00    -0.354 N 
ATOM     22  C   UNL A   1      39.541  29.842  30.130  1.00  0.00     0.074 A 
ATOM     23  C   UNL A   1      38.590  30.076  29.064  1.00  0.00     0.031 C 
ATOM     24  C   UNL A   1      37.911  34.256  34.524  1.00  0.00     0.029 A 
ATOM     25  C   UNL A   1      38.971  33.262  34.621  1.00  0.00     0.049 A 
ATOM     26  H   UNL A   1      39.545  31.866  33.184  1.00  0.00     0.167 HD
ATOM     27  C   UNL A   1      40.506  28.891  30.112  1.00  0.00     0.037 A 
ATOM     28  C   UNL A   1      39.764  33.079  35.692  1.00  0.00     0.037 A 
ATOM     29  C   UNL A   1      41.457  28.681  31.174  1.00  0.00     0.049 A 
ATOM     30  C   UNL A   1      40.802  31.996  35.647  1.00  0.00     0.074 A 
ATOM     31  C   UNL A   1      42.512  27.784  31.221  1.00  0.00     0.029 A 
ATOM     32  N   UNL A   1      41.464  29.366  32.382  1.00  0.00    -0.354 N 
ATOM     33  N   UNL A   1      41.095  31.172  34.670  1.00  0.00    -0.248 NA
ATOM     34  C   UNL A   1      41.619  31.814  36.853  1.00  0.00     0.031 C 
ATOM     35  C   UNL A   1      43.118  27.885  32.477  1.00  0.00     0.029 A 
ATOM     36  C   UNL A   1      42.481  28.885  33.192  1.00  0.00     0.049 A 
ATOM     37  H   UNL A   1      40.840  30.087  32.625  1.00  0.00     0.167 HD
ATOM     38  C   UNL A   1      42.136  30.385  35.137  1.00  0.00     0.074 A 
ATOM     39  C   UNL A   1      42.446  30.851  36.472  1.00  0.00     0.031 C 
ATOM     40  C   UNL A   1      42.774  29.361  34.519  1.00  0.00     0.037 A 
BRANCH  27  41
ATOM     41  C   UNL A   1      40.589  27.984  28.919  1.00  0.00     0.064 A 
ATOM     42  C   UNL A   1      39.830  26.810  28.830  1.00  0.00     0.173 A 
ATOM     43  C   UNL A   1      41.361  28.352  27.805  1.00  0.00     0.173 A 
ATOM     44  F   UNL A   1      39.081  26.408  29.868  1.00  0.00    -0.203 F 
ATOM     45  C   UNL A   1      39.843  26.033  27.672  1.00  0.00     0.198 A 
ATOM     46  C   UNL A   1      41.353  27.588  26.641  1.00  0.00     0.198 A 
ATOM     47  F   UNL A   1      42.100  29.471  27.835  1.00  0.00    -0.203 F 
ATOM     48  F   UNL A   1      39.125  24.903  27.616  1.00  0.00    -0.200 F 
ATOM     49  C   UNL A   1      40.595  26.429  26.576  1.00  0.00     0.200 A 
ATOM     50  F   UNL A   1      42.068  27.981  25.578  1.00  0.00    -0.200 F 
ATOM     51  F   UNL A   1      40.588  25.694  25.455  1.00  0.00    -0.200 F 
ENDBRANCH  27  41
BRANCH  28  52
ATOM     52  C   UNL A   1      39.580  33.918  36.906  1.00  0.00     0.064 A 
ATOM     53  C   UNL A   1      38.800  33.475  37.981  1.00  0.00     0.173 A 
ATOM     54  C   UNL A   1      40.167  35.189  37.005  1.00  0.00     0.173 A 
ATOM     55  F   UNL A   1      38.204  32.275  37.928  1.00  0.00    -0.203 F 
ATOM     56  C   UNL A   1      38.588  34.284  39.096  1.00  0.00     0.198 A 
ATOM     57  C   UNL A   1      39.986  35.981  38.135  1.00  0.00     0.198 A 
ATOM     58  F   UNL A   1      40.930  35.657  36.006  1.00  0.00    -0.203 F 
ATOM     59  F   UNL A   1      37.788  33.862  40.084  1.00  0.00    -0.200 F 
ATOM     60  C   UNL A   1      39.186  35.534  39.175  1.00  0.00     0.200 A 
ATOM     61  F   UNL A   1      40.581  37.178  38.214  1.00  0.00    -0.200 F 
ATOM     62  F   UNL A   1      38.981  36.310  40.246  1.00  0.00    -0.200 F 
ENDBRANCH  28  52
BRANCH  40  63
ATOM     63  C   UNL A   1      43.883  28.694  35.280  1.00  0.00     0.064 A 
ATOM     64  C   UNL A   1      45.207  29.147  35.194  1.00  0.00     0.173 A 
ATOM     65  C   UNL A   1      43.613  27.603  36.119  1.00  0.00     0.173 A 
ATOM     66  F   UNL A   1      45.519  30.176  34.389  1.00  0.00    -0.203 F 
ATOM     67  C   UNL A   1      46.228  28.511  35.895  1.00  0.00     0.198 A 
ATOM     68  C   UNL A   1      44.630  26.991  36.845  1.00  0.00     0.198 A 
ATOM     69  F   UNL A   1      42.362  27.134  36.240  1.00  0.00    -0.203 F 
ATOM     70  F   UNL A   1      47.495  28.925  35.753  1.00  0.00    -0.200 F 
ATOM     71  C   UNL A   1      45.937  27.440  36.726  1.00  0.00     0.200 A 
ATOM     72  F   UNL A   1      44.346  25.964  37.657  1.00  0.00    -0.200 F 
ATOM     73  F   UNL A   1      46.920  26.831  37.405  1.00  0.00    -0.200 F 
ENDBRANCH  40  63
ENDBRANCH  14  15
ENDBRANCH   7   9
ENDBRANCH   4   5
ENDBRANCH   3   4
ENDBRANCH   2   3
ENDBRANCH   1   2
BRANCH   1  74
ATOM     74  C   UNL A   1      32.655  28.850  27.367  1.00  0.00     0.021 C 
BRANCH  74  75
ATOM     75  C   UNL A   1      33.460  27.775  26.643  1.00  0.00     0.116 C 
BRANCH  75  76
ATOM     76  N   UNL A   1      33.942  28.238  25.354  1.00  0.00    -0.352 N 
ATOM     77  C   UNL A   1      33.530  27.881  24.098  1.00  0.00     0.251 C 
ATOM     78  H   UNL A   1      34.668  28.903  25.389  1.00  0.00     0.163 HD
ATOM     79  O   UNL A   1      34.184  28.212  23.114  1.00  0.00    -0.269 OA
BRANCH  77  80
ATOM     80  C   UNL A   1      32.295  27.091  23.927  1.00  0.00     0.041 A 
ATOM     81  C   UNL A   1      32.376  25.701  23.973  1.00  0.00     0.014 A 
ATOM     82  C   UNL A   1      31.072  27.727  23.673  1.00  0.00     0.039 A 
ATOM     83  C   UNL A   1      31.219  24.946  23.813  1.00  0.00     0.003 A 
ATOM     84  C   UNL A   1      29.901  26.981  23.510  1.00  0.00     0.039 A 
ATOM     85  C   UNL A   1      29.993  25.585  23.596  1.00  0.00     0.026 A 
BRANCH  84  86
ATOM     86  N   UNL A   1      28.687  27.661  23.299  1.00  0.00    -0.356 N 
ATOM     87  H   UNL A   1      27.877  27.128  23.465  1.00  0.00     0.167 HD
BRANCH  86  88
ATOM     88  C   UNL A   1      28.455  28.983  22.888  1.00  0.00     0.039 A 
ATOM     89  C   UNL A   1      27.645  29.806  23.684  1.00  0.00     0.033 A 
ATOM     90  C   UNL A   1      29.095  29.541  21.774  1.00  0.00     0.033 A 
ATOM     91  C   UNL A   1      27.504  31.166  23.398  1.00  0.00     0.088 A 
ATOM     92  C   UNL A   1      28.955  30.898  21.468  1.00  0.00     0.088 A 
ATOM     93  C   UNL A   1      28.173  31.711  22.296  1.00  0.00     0.269 A 
BRANCH  93  94
ATOM     94  N   UNL A   1      28.076  33.149  22.025  1.00  0.00     0.062 N 
ATOM     95  O   UNL A   1      28.502  33.928  22.889  1.00  0.00    -0.258 OA
ATOM     96  O   UNL A   1      27.581  33.499  20.943  1.00  0.00    -0.258 OA
ENDBRANCH  93  94
ENDBRANCH  86  88
ENDBRANCH  84  86
ENDBRANCH  77  80
ENDBRANCH  75  76
ENDBRANCH  74  75
ENDBRANCH   1  74
TORSDOF 16
ENDMDL
MODEL 2
REMARK VINA RESULT:     -12.3      6.612     12.138
REMARK SMILES O=C(NCCCCCCNC(=O)c1cccc(Nc2ccc([N+](=O)[O-])cc2)c1)c1ccc(-c2c3nc(c(-c4c(F)c(F)c(F)c(F)c4F)c4ccc([nH]4)c(-c4c(F)c(F)c(F)c(F)c4F)c4nc(c(-c5c(F)c(F)c(F)c(F)c5F)c5ccc2[nH]5)C=C4)C=C3)cc1
REMARK SMILES IDX 7 1 6 2 5 3 4 4 3 5 1 6 2 7 29 9 30 10 91 11 31 12 90 13
REMARK SMILES IDX 32 14 33 15 34 16 84 17 35 18 89 19 83 20 85 21 36 22 88 23
REMARK SMILES IDX 82 24 81 25 37 27 69 28 49 29 68 30 50 31 53 32 67 33 86 34
REMARK SMILES IDX 51 35 52 36 66 38 87 39 54 40 38 41 39 42 47 43 40 44 41 45
REMARK SMILES IDX 45 46 48 47 42 48 43 49 46 50 44 51 70 52 71 53 79 54 72 55
REMARK SMILES IDX 73 56 77 57 80 58 74 59 75 60 78 61 76 62 55 63 56 64 64 65
REMARK SMILES IDX 57 66 58 67 62 68 65 69 59 70 60 71 63 72 61 73 8 74 9 75
REMARK SMILES IDX 10 76 11 77 12 79 13 80 14 81 28 82 15 83 17 84 16 85 18 86
REMARK SMILES IDX 19 88 20 89 27 90 21 91 26 92 22 93 23 94 24 95 25 96
REMARK H PARENT 3 8 85 26 53 37 10 78 18 87
REMARK Flexibility Score: inf
ROOT
ATOM      1  C   UNL A   1      36.474  21.170  25.433  1.00  0.00     0.002 C 
ENDROOT
BRANCH   1   2
ATOM      2  C   UNL A   1      37.278  20.232  24.528  1.00  0.00     0.002 C 
BRANCH   2   3
ATOM      3  C   UNL A   1      38.193  19.249  25.257  1.00  0.00     0.021 C 
BRANCH   3   4
ATOM      4  C   UNL A   1      39.474  19.861  25.802  1.00  0.00     0.116 C 
BRANCH   4   5
ATOM      5  N   UNL A   1      40.561  18.899  25.882  1.00  0.00    -0.352 N 
ATOM      6  O   UNL A   1      42.717  18.224  25.923  1.00  0.00    -0.269 OA
ATOM      7  C   UNL A   1      41.905  19.135  26.039  1.00  0.00     0.251 C 
ATOM      8  H   UNL A   1      40.299  17.953  25.815  1.00  0.00     0.163 HD
BRANCH   7   9
ATOM      9  C   UNL A   1      42.368  20.507  26.336  1.00  0.00     0.039 A 
ATOM     10  C   UNL A   1      42.800  21.345  25.304  1.00  0.00     0.014 A 
ATOM     11  C   UNL A   1      42.363  20.960  27.657  1.00  0.00     0.014 A 
ATOM     12  C   UNL A   1      43.335  22.589  25.605  1.00  0.00     0.010 A 
ATOM     13  C   UNL A   1      42.817  22.249  27.948  1.00  0.00     0.010 A 
ATOM     14  C   UNL A   1      43.317  23.069  26.924  1.00  0.00    -0.014 A 
BRANCH  14  15
ATOM     15  C   UNL A   1      43.710  24.476  27.182  1.00  0.00     0.031 A 
ATOM     16  C   UNL A   1      42.732  25.483  27.712  1.00  0.00     0.074 A 
ATOM     17  C   UNL A   1      44.987  24.829  26.932  1.00  0.00     0.049 A 
ATOM     18  N   UNL A   1      42.925  26.750  27.985  1.00  0.00    -0.248 NA
ATOM     19  C   UNL A   1      41.359  25.019  27.963  1.00  0.00     0.031 C 
ATOM     20  C   UNL A   1      46.016  23.932  26.394  1.00  0.00     0.029 A 
ATOM     21  N   UNL A   1      45.644  26.020  27.101  1.00  0.00    -0.354 N 
ATOM     22  C   UNL A   1      41.701  27.237  28.424  1.00  0.00     0.074 A 
ATOM     23  C   UNL A   1      40.763  26.136  28.365  1.00  0.00     0.031 C 
ATOM     24  C   UNL A   1      47.178  24.593  26.312  1.00  0.00     0.029 A 
ATOM     25  C   UNL A   1      46.963  25.974  26.720  1.00  0.00     0.049 A 
ATOM     26  H   UNL A   1      45.212  26.829  27.459  1.00  0.00     0.167 HD
ATOM     27  C   UNL A   1      41.399  28.492  28.838  1.00  0.00     0.037 A 
ATOM     28  C   UNL A   1      47.891  26.947  26.674  1.00  0.00     0.037 A 
ATOM     29  C   UNL A   1      42.348  29.574  28.907  1.00  0.00     0.049 A 
ATOM     30  C   UNL A   1      47.511  28.331  27.113  1.00  0.00     0.074 A 
ATOM     31  C   UNL A   1      42.151  30.863  29.372  1.00  0.00     0.029 A 
ATOM     32  N   UNL A   1      43.670  29.499  28.490  1.00  0.00    -0.354 N 
ATOM     33  N   UNL A   1      46.366  28.763  27.584  1.00  0.00    -0.248 NA
ATOM     34  C   UNL A   1      48.548  29.365  27.011  1.00  0.00     0.031 C 
ATOM     35  C   UNL A   1      43.334  31.584  29.182  1.00  0.00     0.029 A 
ATOM     36  C   UNL A   1      44.287  30.730  28.653  1.00  0.00     0.049 A 
ATOM     37  H   UNL A   1      44.104  28.692  28.132  1.00  0.00     0.167 HD
ATOM     38  C   UNL A   1      46.549  30.112  27.848  1.00  0.00     0.074 A 
ATOM     39  C   UNL A   1      47.925  30.419  27.514  1.00  0.00     0.031 C 
ATOM     40  C   UNL A   1      45.657  31.018  28.315  1.00  0.00     0.037 A 
BRANCH  27  41
ATOM     41  C   UNL A   1      39.983  28.786  29.239  1.00  0.00     0.064 A 
ATOM     42  C   UNL A   1      39.028  29.224  28.311  1.00  0.00     0.173 A 
ATOM     43  C   UNL A   1      39.551  28.523  30.549  1.00  0.00     0.173 A 
ATOM     44  F   UNL A   1      39.389  29.497  27.047  1.00  0.00    -0.203 F 
ATOM     45  C   UNL A   1      37.695  29.395  28.681  1.00  0.00     0.198 A 
ATOM     46  C   UNL A   1      38.214  28.671  30.909  1.00  0.00     0.198 A 
ATOM     47  F   UNL A   1      40.422  28.094  31.474  1.00  0.00    -0.203 F 
ATOM     48  F   UNL A   1      36.803  29.835  27.782  1.00  0.00    -0.200 F 
ATOM     49  C   UNL A   1      37.287  29.107  29.974  1.00  0.00     0.200 A 
ATOM     50  F   UNL A   1      37.820  28.377  32.155  1.00  0.00    -0.200 F 
ATOM     51  F   UNL A   1      36.001  29.250  30.321  1.00  0.00    -0.200 F 
ENDBRANCH  27  41
BRANCH  28  52
ATOM     52  C   UNL A   1      49.255  26.651  26.161  1.00  0.00     0.064 A 
ATOM     53  C   UNL A   1      49.606  26.925  24.833  1.00  0.00     0.173 A 
ATOM     54  C   UNL A   1      50.230  26.069  26.986  1.00  0.00     0.173 A 
ATOM     55  F   UNL A   1      48.705  27.465  24.000  1.00  0.00    -0.203 F 
ATOM     56  C   UNL A   1      50.868  26.600  24.341  1.00  0.00     0.198 A 
ATOM     57  C   UNL A   1      51.503  25.780  26.505  1.00  0.00     0.198 A 
ATOM     58  F   UNL A   1      49.948  25.794  28.268  1.00  0.00    -0.203 F 
ATOM     59  F   UNL A   1      51.158  26.817  23.051  1.00  0.00    -0.200 F 
ATOM     60  C   UNL A   1      51.818  26.033  25.179  1.00  0.00     0.200 A 
ATOM     61  F   UNL A   1      52.422  25.250  27.323  1.00  0.00    -0.200 F 
ATOM     62  F   UNL A   1      53.031  25.721  24.705  1.00  0.00    -0.200 F 
ENDBRANCH  28  52
BRANCH  40  63
ATOM     63  C   UNL A   1      46.153  32.421  28.511  1.00  0.00     0.064 A 
ATOM     64  C   UNL A   1      46.752  32.826  29.712  1.00  0.00     0.173 A 
ATOM     65  C   UNL A   1      46.044  33.364  27.479  1.00  0.00     0.173 A 
ATOM     66  F   UNL A   1      46.862  31.966  30.737  1.00  0.00    -0.203 F 
ATOM     67  C   UNL A   1      47.196  34.134  29.885  1.00  0.00     0.198 A 
ATOM     68  C   UNL A   1      46.520  34.662  27.642  1.00  0.00     0.198 A 
ATOM     69  F   UNL A   1      45.483  33.026  26.308  1.00  0.00    -0.203 F 
ATOM     70  F   UNL A   1      47.713  34.514  31.062  1.00  0.00    -0.200 F 
ATOM     71  C   UNL A   1      47.087  35.047  28.847  1.00  0.00     0.200 A 
ATOM     72  F   UNL A   1      46.425  35.539  26.634  1.00  0.00    -0.200 F 
ATOM     73  F   UNL A   1      47.519  36.305  29.012  1.00  0.00    -0.200 F 
ENDBRANCH  40  63
ENDBRANCH  14  15
ENDBRANCH   7   9
ENDBRANCH   4   5
ENDBRANCH   3   4
ENDBRANCH   2   3
ENDBRANCH   1   2
BRANCH   1  74
ATOM     74  C   UNL A   1      37.169  22.486  25.802  1.00  0.00     0.021 C 
BRANCH  74  75
ATOM     75  C   UNL A   1      36.696  23.705  25.018  1.00  0.00     0.116 C 
BRANCH  75  76
ATOM     76  N   UNL A   1      35.639  24.417  25.713  1.00  0.00    -0.352 N 
ATOM     77  C   UNL A   1      34.320  24.557  25.370  1.00  0.00     0.251 C 
ATOM     78  H   UNL A   1      35.909  24.863  26.548  1.00  0.00     0.163 HD
ATOM     79  O   UNL A   1      33.609  25.364  25.960  1.00  0.00    -0.269 OA
BRANCH  77  80
ATOM     80  C   UNL A   1      33.752  23.733  24.285  1.00  0.00     0.041 A 
ATOM     81  C   UNL A   1      33.816  24.210  22.977  1.00  0.00     0.014 A 
ATOM     82  C   UNL A   1      33.116  22.517  24.572  1.00  0.00     0.039 A 
ATOM     83  C   UNL A   1      33.284  23.443  21.947  1.00  0.00     0.003 A 
ATOM     84  C   UNL A   1      32.577  21.736  23.545  1.00  0.00     0.039 A 
ATOM     85  C   UNL A   1      32.682  22.212  22.231  1.00  0.00     0.026 A 
BRANCH  84  86
ATOM     86  N   UNL A   1      31.985  20.502  23.872  1.00  0.00    -0.356 N 
ATOM     87  H   UNL A   1      31.001  20.510  23.910  1.00  0.00     0.167 HD
BRANCH  86  88
ATOM     88  C   UNL A   1      32.581  19.262  24.151  1.00  0.00     0.039 A 
ATOM     89  C   UNL A   1      32.764  18.885  25.489  1.00  0.00     0.033 A 
ATOM     90  C   UNL A   1      32.895  18.342  23.142  1.00  0.00     0.033 A 
ATOM     91  C   UNL A   1      33.215  17.605  25.818  1.00  0.00     0.088 A 
ATOM     92  C   UNL A   1      33.358  17.061  23.455  1.00  0.00     0.088 A 
ATOM     93  C   UNL A   1      33.498  16.691  24.797  1.00  0.00     0.269 A 
BRANCH  93  94
ATOM     94  N   UNL A   1      33.916  15.327  25.138  1.00  0.00     0.062 N 
ATOM     95  O   UNL A   1      35.132  15.091  25.183  1.00  0.00    -0.258 OA
ATOM     96  O   UNL A   1      33.028  14.493  25.369  1.00  0.00    -0.258 OA
ENDBRANCH  93  94
ENDBRANCH  86  88
ENDBRANCH  84  86
ENDBRANCH  77  80
ENDBRANCH  75  76
ENDBRANCH  74  75
ENDBRANCH   1  74
TORSDOF 16
ENDMDL
MODEL 3
REMARK VINA RESULT:     -12.3      0.570      7.346
REMARK SMILES O=C(NCCCCCCNC(=O)c1cccc(Nc2ccc([N+](=O)[O-])cc2)c1)c1ccc(-c2c3nc(c(-c4c(F)c(F)c(F)c(F)c4F)c4ccc([nH]4)c(-c4c(F)c(F)c(F)c(F)c4F)c4nc(c(-c5c(F)c(F)c(F)c(F)c5F)c5ccc2[nH]5)C=C4)C=C3)cc1
REMARK SMILES IDX 7 1 6 2 5 3 4 4 3 5 1 6 2 7 29 9 30 10 91 11 31 12 90 13
REMARK SMILES IDX 32 14 33 15 34 16 84 17 35 18 89 19 83 20 85 21 36 22 88 23
REMARK SMILES IDX 82 24 81 25 37 27 69 28 49 29 68 30 50 31 53 32 67 33 86 34
REMARK SMILES IDX 51 35 52 36 66 38 87 39 54 40 38 41 39 42 47 43 40 44 41 45
REMARK SMILES IDX 45 46 48 47 42 48 43 49 46 50 44 51 70 52 71 53 79 54 72 55
REMARK SMILES IDX 73 56 77 57 80 58 74 59 75 60 78 61 76 62 55 63 56 64 64 65
REMARK SMILES IDX 57 66 58 67 62 68 65 69 59 70 60 71 63 72 61 73 8 74 9 75
REMARK SMILES IDX 10 76 11 77 12 79 13 80 14 81 28 82 15 83 17 84 16 85 18 86
REMARK SMILES IDX 19 88 20 89 27 90 21 91 26 92 22 93 23 94 24 95 25 96
REMARK H PARENT 3 8 85 26 53 37 10 78 18 87
REMARK Flexibility Score: inf
ROOT
ATOM      1  C   UNL A   1      32.723  30.442  26.464  1.00  0.00     0.002 C 
ENDROOT
BRANCH   1   2
ATOM      2  C   UNL A   1      31.402  31.162  26.177  1.00  0.00     0.002 C 
BRANCH   2   3
ATOM      3  C   UNL A   1      31.379  32.647  26.536  1.00  0.00     0.021 C 
BRANCH   3   4
ATOM      4  C   UNL A   1      32.559  33.115  27.373  1.00  0.00     0.116 C 
BRANCH   4   5
ATOM      5  N   UNL A   1      32.436  34.504  27.782  1.00  0.00    -0.352 N 
ATOM      6  O   UNL A   1      32.796  36.304  29.100  1.00  0.00    -0.269 OA
ATOM      7  C   UNL A   1      33.130  35.174  28.759  1.00  0.00     0.251 C 
ATOM      8  H   UNL A   1      31.767  35.035  27.294  1.00  0.00     0.163 HD
BRANCH   7   9
ATOM      9  C   UNL A   1      34.279  34.513  29.413  1.00  0.00     0.039 A 
ATOM     10  C   UNL A   1      34.097  33.782  30.590  1.00  0.00     0.014 A 
ATOM     11  C   UNL A   1      35.548  34.620  28.838  1.00  0.00     0.014 A 
ATOM     12  C   UNL A   1      35.198  33.259  31.254  1.00  0.00     0.010 A 
ATOM     13  C   UNL A   1      36.643  34.014  29.460  1.00  0.00     0.010 A 
ATOM     14  C   UNL A   1      36.477  33.338  30.679  1.00  0.00    -0.014 A 
BRANCH  14  15
ATOM     15  C   UNL A   1      37.595  32.597  31.311  1.00  0.00     0.031 A 
ATOM     16  C   UNL A   1      38.093  32.940  32.684  1.00  0.00     0.074 A 
ATOM     17  C   UNL A   1      38.155  31.588  30.614  1.00  0.00     0.049 A 
ATOM     18  N   UNL A   1      39.062  32.385  33.369  1.00  0.00    -0.248 NA
ATOM     19  C   UNL A   1      37.427  34.051  33.382  1.00  0.00     0.031 C 
ATOM     20  C   UNL A   1      37.760  31.184  29.260  1.00  0.00     0.029 A 
ATOM     21  N   UNL A   1      39.159  30.714  30.939  1.00  0.00    -0.354 N 
ATOM     22  C   UNL A   1      39.135  33.085  34.566  1.00  0.00     0.074 A 
ATOM     23  C   UNL A   1      38.123  34.119  34.511  1.00  0.00     0.031 C 
ATOM     24  C   UNL A   1      38.489  30.123  28.886  1.00  0.00     0.029 A 
ATOM     25  C   UNL A   1      39.447  29.816  29.939  1.00  0.00     0.049 A 
ATOM     26  H   UNL A   1      39.629  30.729  31.804  1.00  0.00     0.167 HD
ATOM     27  C   UNL A   1      39.972  32.874  35.610  1.00  0.00     0.037 A 
ATOM     28  C   UNL A   1      40.400  28.870  29.865  1.00  0.00     0.037 A 
ATOM     29  C   UNL A   1      40.963  31.829  35.657  1.00  0.00     0.049 A 
ATOM     30  C   UNL A   1      41.328  28.686  31.030  1.00  0.00     0.074 A 
ATOM     31  C   UNL A   1      41.816  31.497  36.696  1.00  0.00     0.029 A 
ATOM     32  N   UNL A   1      41.245  30.954  34.617  1.00  0.00    -0.354 N 
ATOM     33  N   UNL A   1      41.345  29.314  32.181  1.00  0.00    -0.248 NA
ATOM     34  C   UNL A   1      42.373  27.664  30.887  1.00  0.00     0.031 C 
ATOM     35  C   UNL A   1      42.652  30.462  36.265  1.00  0.00     0.029 A 
ATOM     36  C   UNL A   1      42.282  30.108  34.978  1.00  0.00     0.049 A 
ATOM     37  H   UNL A   1      40.776  30.936  33.751  1.00  0.00     0.167 HD
ATOM     38  C   UNL A   1      42.388  28.756  32.903  1.00  0.00     0.074 A 
ATOM     39  C   UNL A   1      42.961  27.716  32.072  1.00  0.00     0.031 C 
ATOM     40  C   UNL A   1      42.840  29.080  34.138  1.00  0.00     0.037 A 
BRANCH  27  41
ATOM     41  C   UNL A   1      39.877  33.792  36.794  1.00  0.00     0.064 A 
ATOM     42  C   UNL A   1      40.535  35.030  36.823  1.00  0.00     0.173 A 
ATOM     43  C   UNL A   1      39.032  33.474  37.869  1.00  0.00     0.173 A 
ATOM     44  F   UNL A   1      41.361  35.381  35.825  1.00  0.00    -0.203 F 
ATOM     45  C   UNL A   1      40.354  35.913  37.886  1.00  0.00     0.198 A 
ATOM     46  C   UNL A   1      38.834  34.368  38.917  1.00  0.00     0.198 A 
ATOM     47  F   UNL A   1      38.373  32.306  37.887  1.00  0.00    -0.203 F 
ATOM     48  F   UNL A   1      41.009  37.082  37.903  1.00  0.00    -0.200 F 
ATOM     49  C   UNL A   1      39.496  35.586  38.925  1.00  0.00     0.200 A 
ATOM     50  F   UNL A   1      37.992  34.057  39.912  1.00  0.00    -0.200 F 
ATOM     51  F   UNL A   1      39.305  36.447  39.935  1.00  0.00    -0.200 F 
ENDBRANCH  27  41
BRANCH  28  52
ATOM     52  C   UNL A   1      40.544  28.053  28.631  1.00  0.00     0.064 A 
ATOM     53  C   UNL A   1      39.911  26.810  28.507  1.00  0.00     0.173 A 
ATOM     54  C   UNL A   1      41.336  28.492  27.559  1.00  0.00     0.173 A 
ATOM     55  F   UNL A   1      39.158  26.338  29.511  1.00  0.00    -0.203 F 
ATOM     56  C   UNL A   1      40.089  26.023  27.371  1.00  0.00     0.198 A 
ATOM     57  C   UNL A   1      41.482  27.722  26.408  1.00  0.00     0.198 A 
ATOM     58  F   UNL A   1      41.958  29.678  27.624  1.00  0.00    -0.203 F 
ATOM     59  F   UNL A   1      39.521  24.811  27.302  1.00  0.00    -0.200 F 
ATOM     60  C   UNL A   1      40.869  26.483  26.320  1.00  0.00     0.200 A 
ATOM     61  F   UNL A   1      42.221  28.180  25.389  1.00  0.00    -0.200 F 
ATOM     62  F   UNL A   1      41.040  25.725  25.228  1.00  0.00    -0.200 F 
ENDBRANCH  28  52
BRANCH  40  63
ATOM     63  C   UNL A   1      43.996  28.284  34.670  1.00  0.00     0.064 A 
ATOM     64  C   UNL A   1      43.803  27.069  35.342  1.00  0.00     0.173 A 
ATOM     65  C   UNL A   1      45.312  28.733  34.487  1.00  0.00     0.173 A 
ATOM     66  F   UNL A   1      42.562  26.606  35.559  1.00  0.00    -0.203 F 
ATOM     67  C   UNL A   1      44.884  26.347  35.840  1.00  0.00     0.198 A 
ATOM     68  C   UNL A   1      46.393  27.993  34.957  1.00  0.00     0.198 A 
ATOM     69  F   UNL A   1      45.551  29.888  33.846  1.00  0.00    -0.203 F 
ATOM     70  F   UNL A   1      44.673  25.218  36.530  1.00  0.00    -0.200 F 
ATOM     71  C   UNL A   1      46.177  26.806  35.640  1.00  0.00     0.200 A 
ATOM     72  F   UNL A   1      47.642  28.431  34.751  1.00  0.00    -0.200 F 
ATOM     73  F   UNL A   1      47.218  26.108  36.116  1.00  0.00    -0.200 F 
ENDBRANCH  40  63
ENDBRANCH  14  15
ENDBRANCH   7   9
ENDBRANCH   4   5
ENDBRANCH   3   4
ENDBRANCH   2   3
ENDBRANCH   1   2
BRANCH   1  74
ATOM     74  C   UNL A   1      32.606  29.147  27.276  1.00  0.00     0.021 C 
BRANCH  74  75
ATOM     75  C   UNL A   1      33.659  28.089  26.956  1.00  0.00     0.116 C 
BRANCH  75  76
ATOM     76  N   UNL A   1      34.046  28.120  25.557  1.00  0.00    -0.352 N 
ATOM     77  C   UNL A   1      33.431  27.545  24.477  1.00  0.00     0.251 C 
ATOM     78  H   UNL A   1      34.867  28.625  25.357  1.00  0.00     0.163 HD
ATOM     79  O   UNL A   1      34.003  27.495  23.393  1.00  0.00    -0.269 OA
BRANCH  77  80
ATOM     80  C   UNL A   1      32.074  26.983  24.617  1.00  0.00     0.041 A 
ATOM     81  C   UNL A   1      31.888  25.878  25.447  1.00  0.00     0.014 A 
ATOM     82  C   UNL A   1      31.001  27.519  23.892  1.00  0.00     0.039 A 
ATOM     83  C   UNL A   1      30.614  25.340  25.587  1.00  0.00     0.003 A 
ATOM     84  C   UNL A   1      29.715  26.987  24.024  1.00  0.00     0.039 A 
ATOM     85  C   UNL A   1      29.538  25.899  24.890  1.00  0.00     0.026 A 
BRANCH  84  86
ATOM     86  N   UNL A   1      28.658  27.582  23.309  1.00  0.00    -0.356 N 
ATOM     87  H   UNL A   1      27.935  26.968  23.047  1.00  0.00     0.167 HD
BRANCH  86  88
ATOM     88  C   UNL A   1      28.478  28.917  22.913  1.00  0.00     0.039 A 
ATOM     89  C   UNL A   1      27.564  29.713  23.618  1.00  0.00     0.033 A 
ATOM     90  C   UNL A   1      29.259  29.509  21.913  1.00  0.00     0.033 A 
ATOM     91  C   UNL A   1      27.457  31.082  23.359  1.00  0.00     0.088 A 
ATOM     92  C   UNL A   1      29.155  30.875  21.635  1.00  0.00     0.088 A 
ATOM     93  C   UNL A   1      28.266  31.661  22.375  1.00  0.00     0.269 A 
BRANCH  93  94
ATOM     94  N   UNL A   1      28.199  33.108  22.139  1.00  0.00     0.062 N 
ATOM     95  O   UNL A   1      27.639  33.498  21.104  1.00  0.00    -0.258 OA
ATOM     96  O   UNL A   1      28.699  33.854  22.993  1.00  0.00    -0.258 OA
ENDBRANCH  93  94
ENDBRANCH  86  88
ENDBRANCH  84  86
ENDBRANCH  77  80
ENDBRANCH  75  76
ENDBRANCH  74  75
ENDBRANCH   1  74
TORSDOF 16
ENDMDL
