MODEL 1
REMARK VINA RESULT:     -12.5      0.000      0.000
REMARK SMILES O=C(NCCCCCCNC(=O)c1[nH]ncc1C[NH+]1CCC([N@H+]2CCC[C@@H](C(=O)N3CCCC3)C2)CC1)c1ccc(-c2c3nc(c(-c4c(F)c(F)c(F)c(F)c4F)c4ccc([nH]4)c(-c4c(F)c(F)c(F)c(F)c4F)c4nc(c(-c5c(F)c(F)c(F)c(F)c5F)c5ccc2[nH]5)C=C4)C=C3)cc1
REMARK SMILES IDX 7 1 6 2 5 3 4 4 3 5 1 6 2 7 38 9 39 10 100 11 40 12 99 13
REMARK SMILES IDX 41 14 42 15 43 16 93 17 44 18 98 19 92 20 94 21 45 22 97 23
REMARK SMILES IDX 91 24 90 25 46 27 78 28 58 29 77 30 59 31 62 32 76 33 95 34
REMARK SMILES IDX 60 35 61 36 75 38 96 39 63 40 47 41 48 42 56 43 49 44 50 45
REMARK SMILES IDX 54 46 57 47 51 48 52 49 55 50 53 51 79 52 80 53 88 54 81 55
REMARK SMILES IDX 82 56 86 57 89 58 83 59 84 60 87 61 85 62 64 63 65 64 73 65
REMARK SMILES IDX 66 66 67 67 71 68 74 69 68 70 69 71 72 72 70 73 8 74 9 75
REMARK SMILES IDX 10 76 11 77 12 79 13 80 14 81 17 82 15 83 16 85 18 86 19 87
REMARK SMILES IDX 20 88 37 89 21 91 36 92 22 93 23 94 24 95 35 96 25 98 27 99
REMARK SMILES IDX 26 100 28 101 29 102 30 103 31 104 34 105 32 106 33 107
REMARK H PARENT 3 8 94 26 62 37 10 78 14 84 19 90 23 97
REMARK Flexibility Score: inf
ROOT
ATOM      1  C   UNL A   1      33.459  26.714  23.527  1.00  0.00     0.002 C 
ENDROOT
BRANCH   1   2
ATOM      2  C   UNL A   1      33.323  26.260  24.983  1.00  0.00     0.002 C 
BRANCH   2   3
ATOM      3  C   UNL A   1      33.523  27.338  26.050  1.00  0.00     0.021 C 
BRANCH   3   4
ATOM      4  C   UNL A   1      34.150  28.642  25.566  1.00  0.00     0.116 C 
BRANCH   4   5
ATOM      5  N   UNL A   1      33.399  29.812  25.978  1.00  0.00    -0.352 N 
ATOM      6  O   UNL A   1      32.834  31.574  27.262  1.00  0.00    -0.269 OA
ATOM      7  C   UNL A   1      33.668  30.722  26.968  1.00  0.00     0.251 C 
ATOM      8  H   UNL A   1      32.571  29.978  25.472  1.00  0.00     0.163 HD
BRANCH   7   9
ATOM      9  C   UNL A   1      34.949  30.668  27.704  1.00  0.00     0.039 A 
ATOM     10  C   UNL A   1      35.815  31.765  27.746  1.00  0.00     0.014 A 
ATOM     11  C   UNL A   1      35.261  29.502  28.409  1.00  0.00     0.014 A 
ATOM     12  C   UNL A   1      37.036  31.663  28.410  1.00  0.00     0.010 A 
ATOM     13  C   UNL A   1      36.459  29.420  29.121  1.00  0.00     0.010 A 
ATOM     14  C   UNL A   1      37.363  30.492  29.110  1.00  0.00    -0.014 A 
BRANCH  14  15
ATOM     15  C   UNL A   1      38.627  30.400  29.879  1.00  0.00     0.031 A 
ATOM     16  C   UNL A   1      39.808  29.662  29.321  1.00  0.00     0.074 A 
ATOM     17  C   UNL A   1      38.687  30.942  31.109  1.00  0.00     0.049 A 
ATOM     18  N   UNL A   1      40.955  29.385  29.888  1.00  0.00    -0.248 NA
ATOM     19  C   UNL A   1      39.679  29.156  27.947  1.00  0.00     0.031 C 
ATOM     20  C   UNL A   1      37.599  31.673  31.758  1.00  0.00     0.029 A 
ATOM     21  N   UNL A   1      39.695  30.945  32.039  1.00  0.00    -0.354 N 
ATOM     22  C   UNL A   1      41.674  28.654  28.954  1.00  0.00     0.074 A 
ATOM     23  C   UNL A   1      40.828  28.514  27.787  1.00  0.00     0.031 C 
ATOM     24  C   UNL A   1      37.995  32.050  32.983  1.00  0.00     0.029 A 
ATOM     25  C   UNL A   1      39.344  31.546  33.222  1.00  0.00     0.049 A 
ATOM     26  H   UNL A   1      40.584  30.553  31.874  1.00  0.00     0.167 HD
ATOM     27  C   UNL A   1      42.925  28.149  29.063  1.00  0.00     0.037 A 
ATOM     28  C   UNL A   1      40.018  31.649  34.381  1.00  0.00     0.037 A 
ATOM     29  C   UNL A   1      43.766  28.305  30.222  1.00  0.00     0.049 A 
ATOM     30  C   UNL A   1      41.396  31.065  34.487  1.00  0.00     0.074 A 
ATOM     31  C   UNL A   1      45.069  27.877  30.408  1.00  0.00     0.029 A 
ATOM     32  N   UNL A   1      43.378  28.931  31.398  1.00  0.00    -0.354 N 
ATOM     33  N   UNL A   1      42.084  30.411  33.583  1.00  0.00    -0.248 NA
ATOM     34  C   UNL A   1      42.092  31.230  35.770  1.00  0.00     0.031 C 
ATOM     35  C   UNL A   1      45.457  28.209  31.711  1.00  0.00     0.029 A 
ATOM     36  C   UNL A   1      44.410  28.881  32.323  1.00  0.00     0.049 A 
ATOM     37  H   UNL A   1      42.502  29.351  31.553  1.00  0.00     0.167 HD
ATOM     38  C   UNL A   1      43.298  30.101  34.177  1.00  0.00     0.074 A 
ATOM     39  C   UNL A   1      43.256  30.645  35.520  1.00  0.00     0.031 C 
ATOM     40  C   UNL A   1      44.353  29.431  33.653  1.00  0.00     0.037 A 
BRANCH  27  41
ATOM     41  C   UNL A   1      43.456  27.357  27.904  1.00  0.00     0.064 A 
ATOM     42  C   UNL A   1      43.363  25.958  27.862  1.00  0.00     0.173 A 
ATOM     43  C   UNL A   1      44.046  28.008  26.811  1.00  0.00     0.173 A 
ATOM     44  F   UNL A   1      42.818  25.286  28.888  1.00  0.00    -0.203 F 
ATOM     45  C   UNL A   1      43.866  25.239  26.781  1.00  0.00     0.198 A 
ATOM     46  C   UNL A   1      44.526  27.288  25.720  1.00  0.00     0.198 A 
ATOM     47  F   UNL A   1      44.156  29.345  26.799  1.00  0.00    -0.203 F 
ATOM     48  F   UNL A   1      43.808  23.900  26.783  1.00  0.00    -0.200 F 
ATOM     49  C   UNL A   1      44.443  25.904  25.710  1.00  0.00     0.200 A 
ATOM     50  F   UNL A   1      45.075  27.933  24.682  1.00  0.00    -0.200 F 
ATOM     51  F   UNL A   1      44.928  25.211  24.670  1.00  0.00    -0.200 F 
ENDBRANCH  27  41
BRANCH  28  52
ATOM     52  C   UNL A   1      39.374  32.334  35.529  1.00  0.00     0.064 A 
ATOM     53  C   UNL A   1      38.572  31.627  36.432  1.00  0.00     0.173 A 
ATOM     54  C   UNL A   1      39.601  33.696  35.778  1.00  0.00     0.173 A 
ATOM     55  F   UNL A   1      38.314  30.327  36.223  1.00  0.00    -0.203 F 
ATOM     56  C   UNL A   1      38.021  32.256  37.546  1.00  0.00     0.198 A 
ATOM     57  C   UNL A   1      39.068  34.317  36.905  1.00  0.00     0.198 A 
ATOM     58  F   UNL A   1      40.370  34.412  34.944  1.00  0.00    -0.203 F 
ATOM     59  F   UNL A   1      37.243  31.562  38.388  1.00  0.00    -0.200 F 
ATOM     60  C   UNL A   1      38.278  33.598  37.787  1.00  0.00     0.200 A 
ATOM     61  F   UNL A   1      39.334  35.610  37.142  1.00  0.00    -0.200 F 
ATOM     62  F   UNL A   1      37.765  34.196  38.871  1.00  0.00    -0.200 F 
ENDBRANCH  28  52
BRANCH  40  63
ATOM     63  C   UNL A   1      45.565  29.271  34.520  1.00  0.00     0.064 A 
ATOM     64  C   UNL A   1      45.766  28.117  35.292  1.00  0.00     0.173 A 
ATOM     65  C   UNL A   1      46.565  30.253  34.528  1.00  0.00     0.173 A 
ATOM     66  F   UNL A   1      44.829  27.158  35.328  1.00  0.00    -0.203 F 
ATOM     67  C   UNL A   1      46.924  27.959  36.048  1.00  0.00     0.198 A 
ATOM     68  C   UNL A   1      47.730  30.082  35.268  1.00  0.00     0.198 A 
ATOM     69  F   UNL A   1      46.418  31.372  33.803  1.00  0.00    -0.203 F 
ATOM     70  F   UNL A   1      47.086  26.861  36.801  1.00  0.00    -0.200 F 
ATOM     71  C   UNL A   1      47.909  28.937  36.029  1.00  0.00     0.200 A 
ATOM     72  F   UNL A   1      48.684  31.023  35.242  1.00  0.00    -0.200 F 
ATOM     73  F   UNL A   1      49.028  28.776  36.748  1.00  0.00    -0.200 F 
ENDBRANCH  40  63
ENDBRANCH  14  15
ENDBRANCH   7   9
ENDBRANCH   4   5
ENDBRANCH   3   4
ENDBRANCH   2   3
ENDBRANCH   1   2
BRANCH   1  74
ATOM     74  C   UNL A   1      33.303  25.625  22.461  1.00  0.00     0.021 C 
BRANCH  74  75
ATOM     75  C   UNL A   1      33.889  24.265  22.821  1.00  0.00     0.116 C 
BRANCH  75  76
ATOM     76  N   UNL A   1      33.174  23.162  22.208  1.00  0.00    -0.351 N 
ATOM     77  C   UNL A   1      32.214  22.347  22.751  1.00  0.00     0.269 C 
ATOM     78  H   UNL A   1      33.409  22.972  21.271  1.00  0.00     0.163 HD
ATOM     79  O   UNL A   1      31.878  21.344  22.121  1.00  0.00    -0.268 OA
BRANCH  77  80
ATOM     80  C   UNL A   1      31.691  22.638  24.055  1.00  0.00     0.131 A 
ATOM     81  N   UNL A   1      30.814  23.671  24.246  1.00  0.00    -0.272 N 
ATOM     82  C   UNL A   1      31.922  22.110  25.323  1.00  0.00     0.057 A 
ATOM     83  N   UNL A   1      30.321  23.743  25.490  1.00  0.00    -0.183 NA
ATOM     84  H   UNL A   1      30.567  24.304  23.533  1.00  0.00     0.190 HD
ATOM     85  C   UNL A   1      30.998  22.800  26.145  1.00  0.00     0.145 A 
BRANCH  82  86
ATOM     86  C   UNL A   1      32.872  21.031  25.732  1.00  0.00     0.303 C 
BRANCH  86  87
ATOM     87  N   UNL A   1      34.272  21.446  25.841  1.00  0.00    -0.331 N 
ATOM     88  C   UNL A   1      35.121  20.933  24.768  1.00  0.00     0.268 C 
ATOM     89  C   UNL A   1      34.472  22.873  26.081  1.00  0.00     0.268 C 
ATOM     90  H   UNL A   1      34.588  20.989  26.697  1.00  0.00     0.348 HD
ATOM     91  C   UNL A   1      36.598  21.158  25.095  1.00  0.00     0.126 C 
ATOM     92  C   UNL A   1      35.925  23.149  26.474  1.00  0.00     0.126 C 
ATOM     93  C   UNL A   1      36.886  22.646  25.383  1.00  0.00     0.195 C 
BRANCH  93  94
ATOM     94  N   UNL A   1      38.306  22.992  25.659  1.00  0.00    -0.331 N 
ATOM     95  C   UNL A   1      38.497  24.084  26.622  1.00  0.00     0.262 C 
ATOM     96  C   UNL A   1      39.061  21.797  26.082  1.00  0.00     0.275 C 
ATOM     97  H   UNL A   1      38.673  23.342  24.774  1.00  0.00     0.348 HD
ATOM     98  C   UNL A   1      39.982  24.423  26.767  1.00  0.00     0.062 C 
ATOM     99  C   UNL A   1      40.560  22.012  26.255  1.00  0.00     0.134 C 
ATOM    100  C   UNL A   1      40.801  23.209  27.189  1.00  0.00     0.025 C 
BRANCH  99 101
ATOM    101  C   UNL A   1      41.357  20.827  26.826  1.00  0.00     0.231 C 
ATOM    102  O   UNL A   1      40.875  20.185  27.766  1.00  0.00    -0.274 OA
ATOM    103  N   UNL A   1      42.433  20.329  26.124  1.00  0.00    -0.342 N 
ATOM    104  C   UNL A   1      43.684  21.002  25.816  1.00  0.00     0.119 C 
ATOM    105  C   UNL A   1      42.636  18.892  26.040  1.00  0.00     0.119 C 
ATOM    106  C   UNL A   1      44.279  20.109  24.745  1.00  0.00     0.023 C 
ATOM    107  C   UNL A   1      43.928  18.710  25.243  1.00  0.00     0.023 C 
ENDBRANCH  99 101
ENDBRANCH  93  94
ENDBRANCH  86  87
ENDBRANCH  82  86
ENDBRANCH  77  80
ENDBRANCH  75  76
ENDBRANCH  74  75
ENDBRANCH   1  74
TORSDOF 17
ENDMDL
MODEL 2
REMARK VINA RESULT:     -12.2      3.033      5.223
REMARK SMILES O=C(NCCCCCCNC(=O)c1[nH]ncc1C[NH+]1CCC([N@H+]2CCC[C@@H](C(=O)N3CCCC3)C2)CC1)c1ccc(-c2c3nc(c(-c4c(F)c(F)c(F)c(F)c4F)c4ccc([nH]4)c(-c4c(F)c(F)c(F)c(F)c4F)c4nc(c(-c5c(F)c(F)c(F)c(F)c5F)c5ccc2[nH]5)C=C4)C=C3)cc1
REMARK SMILES IDX 7 1 6 2 5 3 4 4 3 5 1 6 2 7 38 9 39 10 100 11 40 12 99 13
REMARK SMILES IDX 41 14 42 15 43 16 93 17 44 18 98 19 92 20 94 21 45 22 97 23
REMARK SMILES IDX 91 24 90 25 46 27 78 28 58 29 77 30 59 31 62 32 76 33 95 34
REMARK SMILES IDX 60 35 61 36 75 38 96 39 63 40 47 41 48 42 56 43 49 44 50 45
REMARK SMILES IDX 54 46 57 47 51 48 52 49 55 50 53 51 79 52 80 53 88 54 81 55
REMARK SMILES IDX 82 56 86 57 89 58 83 59 84 60 87 61 85 62 64 63 65 64 73 65
REMARK SMILES IDX 66 66 67 67 71 68 74 69 68 70 69 71 72 72 70 73 8 74 9 75
REMARK SMILES IDX 10 76 11 77 12 79 13 80 14 81 17 82 15 83 16 85 18 86 19 87
REMARK SMILES IDX 20 88 37 89 21 91 36 92 22 93 23 94 24 95 35 96 25 98 27 99
REMARK SMILES IDX 26 100 28 101 29 102 30 103 31 104 34 105 32 106 33 107
REMARK H PARENT 3 8 94 26 62 37 10 78 14 84 19 90 23 97
REMARK Flexibility Score: inf
ROOT
ATOM      1  C   UNL A   1      33.795  29.852  27.188  1.00  0.00     0.002 C 
ENDROOT
BRANCH   1   2
ATOM      2  C   UNL A   1      34.071  31.237  27.781  1.00  0.00     0.002 C 
BRANCH   2   3
ATOM      3  C   UNL A   1      32.863  32.163  27.929  1.00  0.00     0.021 C 
BRANCH   3   4
ATOM      4  C   UNL A   1      32.927  33.467  27.139  1.00  0.00     0.116 C 
BRANCH   4   5
ATOM      5  N   UNL A   1      32.565  34.623  27.937  1.00  0.00    -0.352 N 
ATOM      6  O   UNL A   1      32.558  35.997  29.721  1.00  0.00    -0.269 OA
ATOM      7  C   UNL A   1      33.093  35.070  29.121  1.00  0.00     0.251 C 
ATOM      8  H   UNL A   1      31.831  35.169  27.575  1.00  0.00     0.163 HD
BRANCH   7   9
ATOM      9  C   UNL A   1      34.293  34.423  29.696  1.00  0.00     0.039 A 
ATOM     10  C   UNL A   1      35.556  34.578  29.116  1.00  0.00     0.014 A 
ATOM     11  C   UNL A   1      34.148  33.684  30.874  1.00  0.00     0.014 A 
ATOM     12  C   UNL A   1      36.656  33.916  29.657  1.00  0.00     0.010 A 
ATOM     13  C   UNL A   1      35.260  33.067  31.447  1.00  0.00     0.010 A 
ATOM     14  C   UNL A   1      36.518  33.162  30.832  1.00  0.00    -0.014 A 
BRANCH  14  15
ATOM     15  C   UNL A   1      37.695  32.512  31.456  1.00  0.00     0.031 A 
ATOM     16  C   UNL A   1      38.380  31.362  30.779  1.00  0.00     0.074 A 
ATOM     17  C   UNL A   1      38.112  32.932  32.665  1.00  0.00     0.049 A 
ATOM     18  N   UNL A   1      39.352  30.603  31.218  1.00  0.00    -0.248 NA
ATOM     19  C   UNL A   1      37.902  31.009  29.435  1.00  0.00     0.031 C 
ATOM     20  C   UNL A   1      37.517  34.033  33.422  1.00  0.00     0.029 A 
ATOM     21  N   UNL A   1      39.117  32.471  33.476  1.00  0.00    -0.354 N 
ATOM     22  C   UNL A   1      39.586  29.670  30.218  1.00  0.00     0.074 A 
ATOM     23  C   UNL A   1      38.642  29.946  29.155  1.00  0.00     0.031 C 
ATOM     24  C   UNL A   1      38.164  34.161  34.589  1.00  0.00     0.029 A 
ATOM     25  C   UNL A   1      39.185  33.121  34.682  1.00  0.00     0.049 A 
ATOM     26  H   UNL A   1      39.730  31.744  33.218  1.00  0.00     0.167 HD
ATOM     27  C   UNL A   1      40.505  28.675  30.193  1.00  0.00     0.037 A 
ATOM     28  C   UNL A   1      39.958  32.885  35.758  1.00  0.00     0.037 A 
ATOM     29  C   UNL A   1      41.450  28.416  31.249  1.00  0.00     0.049 A 
ATOM     30  C   UNL A   1      40.957  31.766  35.716  1.00  0.00     0.074 A 
ATOM     31  C   UNL A   1      42.457  27.468  31.294  1.00  0.00     0.029 A 
ATOM     32  N   UNL A   1      41.495  29.105  32.453  1.00  0.00    -0.354 N 
ATOM     33  N   UNL A   1      41.198  30.915  34.750  1.00  0.00    -0.248 NA
ATOM     34  C   UNL A   1      41.789  31.573  36.911  1.00  0.00     0.031 C 
ATOM     35  C   UNL A   1      43.085  27.555  32.541  1.00  0.00     0.029 A 
ATOM     36  C   UNL A   1      42.498  28.587  33.257  1.00  0.00     0.049 A 
ATOM     37  H   UNL A   1      40.904  29.852  32.699  1.00  0.00     0.167 HD
ATOM     38  C   UNL A   1      42.219  30.097  35.208  1.00  0.00     0.074 A 
ATOM     39  C   UNL A   1      42.558  30.557  36.540  1.00  0.00     0.031 C 
ATOM     40  C   UNL A   1      42.824  29.060  34.578  1.00  0.00     0.037 A 
BRANCH  27  41
ATOM     41  C   UNL A   1      40.519  27.775  28.993  1.00  0.00     0.064 A 
ATOM     42  C   UNL A   1      41.349  28.027  27.891  1.00  0.00     0.173 A 
ATOM     43  C   UNL A   1      39.705  26.633  28.954  1.00  0.00     0.173 A 
ATOM     44  F   UNL A   1      42.137  29.113  27.873  1.00  0.00    -0.203 F 
ATOM     45  C   UNL A   1      41.344  27.183  26.783  1.00  0.00     0.198 A 
ATOM     46  C   UNL A   1      39.721  25.777  27.856  1.00  0.00     0.198 A 
ATOM     47  F   UNL A   1      38.896  26.344  29.985  1.00  0.00    -0.203 F 
ATOM     48  F   UNL A   1      42.110  27.468  25.721  1.00  0.00    -0.200 F 
ATOM     49  C   UNL A   1      40.534  26.058  26.768  1.00  0.00     0.200 A 
ATOM     50  F   UNL A   1      38.944  24.686  27.847  1.00  0.00    -0.200 F 
ATOM     51  F   UNL A   1      40.529  25.247  25.701  1.00  0.00    -0.200 F 
ENDBRANCH  27  41
BRANCH  28  52
ATOM     52  C   UNL A   1      39.795  33.737  36.961  1.00  0.00     0.064 A 
ATOM     53  C   UNL A   1      40.466  34.961  37.074  1.00  0.00     0.173 A 
ATOM     54  C   UNL A   1      38.918  33.372  37.993  1.00  0.00     0.173 A 
ATOM     55  F   UNL A   1      41.328  35.342  36.119  1.00  0.00    -0.203 F 
ATOM     56  C   UNL A   1      40.262  35.792  38.173  1.00  0.00     0.198 A 
ATOM     57  C   UNL A   1      38.698  34.214  39.080  1.00  0.00     0.198 A 
ATOM     58  F   UNL A   1      38.248  32.212  37.925  1.00  0.00    -0.203 F 
ATOM     59  F   UNL A   1      40.927  36.951  38.266  1.00  0.00    -0.200 F 
ATOM     60  C   UNL A   1      39.371  35.423  39.170  1.00  0.00     0.200 A 
ATOM     61  F   UNL A   1      37.823  33.861  40.033  1.00  0.00    -0.200 F 
ATOM     62  F   UNL A   1      39.161  36.233  40.217  1.00  0.00    -0.200 F 
ENDBRANCH  28  52
BRANCH  40  63
ATOM     63  C   UNL A   1      43.936  28.367  35.306  1.00  0.00     0.064 A 
ATOM     64  C   UNL A   1      43.695  27.252  36.121  1.00  0.00     0.173 A 
ATOM     65  C   UNL A   1      45.263  28.786  35.135  1.00  0.00     0.173 A 
ATOM     66  F   UNL A   1      42.440  26.825  36.326  1.00  0.00    -0.203 F 
ATOM     67  C   UNL A   1      44.746  26.585  36.745  1.00  0.00     0.198 A 
ATOM     68  C   UNL A   1      46.312  28.104  35.743  1.00  0.00     0.198 A 
ATOM     69  F   UNL A   1      45.543  29.846  34.363  1.00  0.00    -0.203 F 
ATOM     70  F   UNL A   1      44.493  25.536  37.541  1.00  0.00    -0.200 F 
ATOM     71  C   UNL A   1      46.053  27.006  36.549  1.00  0.00     0.200 A 
ATOM     72  F   UNL A   1      47.576  28.507  35.547  1.00  0.00    -0.200 F 
ATOM     73  F   UNL A   1      47.064  26.355  37.141  1.00  0.00    -0.200 F 
ENDBRANCH  40  63
ENDBRANCH  14  15
ENDBRANCH   7   9
ENDBRANCH   4   5
ENDBRANCH   3   4
ENDBRANCH   2   3
ENDBRANCH   1   2
BRANCH   1  74
ATOM     74  C   UNL A   1      32.348  29.569  26.772  1.00  0.00     0.021 C 
BRANCH  74  75
ATOM     75  C   UNL A   1      31.971  30.012  25.362  1.00  0.00     0.116 C 
BRANCH  75  76
ATOM     76  N   UNL A   1      32.763  29.362  24.336  1.00  0.00    -0.351 N 
ATOM     77  C   UNL A   1      32.366  28.880  23.115  1.00  0.00     0.269 C 
ATOM     78  H   UNL A   1      33.719  29.253  24.543  1.00  0.00     0.163 HD
ATOM     79  O   UNL A   1      33.157  28.186  22.478  1.00  0.00    -0.268 OA
BRANCH  77  80
ATOM     80  C   UNL A   1      31.030  29.130  22.655  1.00  0.00     0.131 A 
ATOM     81  N   UNL A   1      30.785  30.052  21.673  1.00  0.00    -0.272 N 
ATOM     82  C   UNL A   1      29.777  28.656  23.038  1.00  0.00     0.057 A 
ATOM     83  N   UNL A   1      29.509  30.086  21.265  1.00  0.00    -0.183 NA
ATOM     84  H   UNL A   1      31.484  30.638  21.301  1.00  0.00     0.190 HD
ATOM     85  C   UNL A   1      28.897  29.244  22.097  1.00  0.00     0.145 A 
BRANCH  82  86
ATOM     86  C   UNL A   1      29.428  27.709  24.139  1.00  0.00     0.303 C 
BRANCH  86  87
ATOM     87  N   UNL A   1      30.339  26.573  24.293  1.00  0.00    -0.331 N 
ATOM     88  C   UNL A   1      30.900  26.448  25.636  1.00  0.00     0.268 C 
ATOM     89  C   UNL A   1      29.829  25.304  23.777  1.00  0.00     0.268 C 
ATOM     90  H   UNL A   1      31.119  26.811  23.679  1.00  0.00     0.348 HD
ATOM     91  C   UNL A   1      32.045  25.435  25.650  1.00  0.00     0.126 C 
ATOM     92  C   UNL A   1      30.952  24.266  23.712  1.00  0.00     0.126 C 
ATOM     93  C   UNL A   1      31.589  24.068  25.098  1.00  0.00     0.195 C 
BRANCH  93  94
ATOM     94  N   UNL A   1      32.609  22.986  25.117  1.00  0.00    -0.331 N 
ATOM     95  C   UNL A   1      33.090  22.617  26.454  1.00  0.00     0.262 C 
ATOM     96  C   UNL A   1      32.117  21.793  24.402  1.00  0.00     0.275 C 
ATOM     97  H   UNL A   1      33.419  23.374  24.633  1.00  0.00     0.348 HD
ATOM     98  C   UNL A   1      34.197  21.566  26.360  1.00  0.00     0.062 C 
ATOM     99  C   UNL A   1      33.139  20.674  24.241  1.00  0.00     0.134 C 
ATOM    100  C   UNL A   1      33.733  20.321  25.614  1.00  0.00     0.025 C 
BRANCH  99 101
ATOM    101  C   UNL A   1      32.622  19.363  23.624  1.00  0.00     0.231 C 
ATOM    102  O   UNL A   1      32.154  19.388  22.480  1.00  0.00    -0.274 OA
ATOM    103  N   UNL A   1      32.938  18.160  24.218  1.00  0.00    -0.342 N 
ATOM    104  C   UNL A   1      32.536  17.683  25.531  1.00  0.00     0.119 C 
ATOM    105  C   UNL A   1      33.301  17.021  23.392  1.00  0.00     0.119 C 
ATOM    106  C   UNL A   1      33.470  16.510  25.752  1.00  0.00     0.023 C 
ATOM    107  C   UNL A   1      33.533  15.868  24.368  1.00  0.00     0.023 C 
ENDBRANCH  99 101
ENDBRANCH  93  94
ENDBRANCH  86  87
ENDBRANCH  82  86
ENDBRANCH  77  80
ENDBRANCH  75  76
ENDBRANCH  74  75
ENDBRANCH   1  74
TORSDOF 17
ENDMDL
MODEL 3
REMARK VINA RESULT:     -12.1      3.359      9.987
REMARK SMILES O=C(NCCCCCCNC(=O)c1[nH]ncc1C[NH+]1CCC([N@H+]2CCC[C@@H](C(=O)N3CCCC3)C2)CC1)c1ccc(-c2c3nc(c(-c4c(F)c(F)c(F)c(F)c4F)c4ccc([nH]4)c(-c4c(F)c(F)c(F)c(F)c4F)c4nc(c(-c5c(F)c(F)c(F)c(F)c5F)c5ccc2[nH]5)C=C4)C=C3)cc1
REMARK SMILES IDX 7 1 6 2 5 3 4 4 3 5 1 6 2 7 38 9 39 10 100 11 40 12 99 13
REMARK SMILES IDX 41 14 42 15 43 16 93 17 44 18 98 19 92 20 94 21 45 22 97 23
REMARK SMILES IDX 91 24 90 25 46 27 78 28 58 29 77 30 59 31 62 32 76 33 95 34
REMARK SMILES IDX 60 35 61 36 75 38 96 39 63 40 47 41 48 42 56 43 49 44 50 45
REMARK SMILES IDX 54 46 57 47 51 48 52 49 55 50 53 51 79 52 80 53 88 54 81 55
REMARK SMILES IDX 82 56 86 57 89 58 83 59 84 60 87 61 85 62 64 63 65 64 73 65
REMARK SMILES IDX 66 66 67 67 71 68 74 69 68 70 69 71 72 72 70 73 8 74 9 75
REMARK SMILES IDX 10 76 11 77 12 79 13 80 14 81 17 82 15 83 16 85 18 86 19 87
REMARK SMILES IDX 20 88 37 89 21 91 36 92 22 93 23 94 24 95 35 96 25 98 27 99
REMARK SMILES IDX 26 100 28 101 29 102 30 103 31 104 34 105 32 106 33 107
REMARK H PARENT 3 8 94 26 62 37 10 78 14 84 19 90 23 97
REMARK Flexibility Score: inf
ROOT
ATOM      1  C   UNL A   1      33.855  22.915  23.428  1.00  0.00     0.002 C 
ENDROOT
BRANCH   1   2
ATOM      2  C   UNL A   1      34.407  23.996  24.362  1.00  0.00     0.002 C 
BRANCH   2   3
ATOM      3  C   UNL A   1      34.829  23.533  25.758  1.00  0.00     0.021 C 
BRANCH   3   4
ATOM      4  C   UNL A   1      36.312  23.684  26.085  1.00  0.00     0.116 C 
BRANCH   4   5
ATOM      5  N   UNL A   1      37.055  22.453  25.895  1.00  0.00    -0.352 N 
ATOM      6  O   UNL A   1      38.864  21.125  25.707  1.00  0.00    -0.269 OA
ATOM      7  C   UNL A   1      38.394  22.205  26.053  1.00  0.00     0.251 C 
ATOM      8  H   UNL A   1      36.518  21.679  25.609  1.00  0.00     0.163 HD
BRANCH   7   9
ATOM      9  C   UNL A   1      39.285  23.243  26.615  1.00  0.00     0.039 A 
ATOM     10  C   UNL A   1      40.225  22.941  27.605  1.00  0.00     0.014 A 
ATOM     11  C   UNL A   1      39.205  24.539  26.096  1.00  0.00     0.014 A 
ATOM     12  C   UNL A   1      41.016  23.953  28.145  1.00  0.00     0.010 A 
ATOM     13  C   UNL A   1      40.036  25.541  26.599  1.00  0.00     0.010 A 
ATOM     14  C   UNL A   1      40.933  25.259  27.640  1.00  0.00    -0.014 A 
BRANCH  14  15
ATOM     15  C   UNL A   1      41.820  26.328  28.160  1.00  0.00     0.031 A 
ATOM     16  C   UNL A   1      41.295  27.362  29.111  1.00  0.00     0.074 A 
ATOM     17  C   UNL A   1      43.092  26.392  27.725  1.00  0.00     0.049 A 
ATOM     18  N   UNL A   1      41.888  28.428  29.586  1.00  0.00    -0.248 NA
ATOM     19  C   UNL A   1      39.914  27.181  29.583  1.00  0.00     0.031 C 
ATOM     20  C   UNL A   1      43.710  25.449  26.792  1.00  0.00     0.029 A 
ATOM     21  N   UNL A   1      44.086  27.298  27.993  1.00  0.00    -0.354 N 
ATOM     22  C   UNL A   1      40.949  29.057  30.391  1.00  0.00     0.074 A 
ATOM     23  C   UNL A   1      39.740  28.263  30.328  1.00  0.00     0.031 C 
ATOM     24  C   UNL A   1      44.975  25.827  26.561  1.00  0.00     0.029 A 
ATOM     25  C   UNL A   1      45.241  27.064  27.291  1.00  0.00     0.049 A 
ATOM     26  H   UNL A   1      43.980  28.044  28.627  1.00  0.00     0.167 HD
ATOM     27  C   UNL A   1      41.089  30.192  31.115  1.00  0.00     0.037 A 
ATOM     28  C   UNL A   1      46.376  27.783  27.213  1.00  0.00     0.037 A 
ATOM     29  C   UNL A   1      42.300  30.969  31.184  1.00  0.00     0.049 A 
ATOM     30  C   UNL A   1      46.502  29.048  28.009  1.00  0.00     0.074 A 
ATOM     31  C   UNL A   1      42.558  32.104  31.933  1.00  0.00     0.029 A 
ATOM     32  N   UNL A   1      43.455  30.692  30.466  1.00  0.00    -0.354 N 
ATOM     33  N   UNL A   1      45.623  29.614  28.800  1.00  0.00    -0.248 NA
ATOM     34  C   UNL A   1      47.773  29.777  27.903  1.00  0.00     0.031 C 
ATOM     35  C   UNL A   1      43.855  32.538  31.637  1.00  0.00     0.029 A 
ATOM     36  C   UNL A   1      44.420  31.649  30.736  1.00  0.00     0.049 A 
ATOM     37  H   UNL A   1      43.572  29.929  29.855  1.00  0.00     0.167 HD
ATOM     38  C   UNL A   1      46.237  30.752  29.300  1.00  0.00     0.074 A 
ATOM     39  C   UNL A   1      47.568  30.795  28.728  1.00  0.00     0.031 C 
ATOM     40  C   UNL A   1      45.742  31.675  30.161  1.00  0.00     0.037 A 
BRANCH  27  41
ATOM     41  C   UNL A   1      39.891  30.680  31.876  1.00  0.00     0.064 A 
ATOM     42  C   UNL A   1      39.024  31.647  31.347  1.00  0.00     0.173 A 
ATOM     43  C   UNL A   1      39.595  30.156  33.143  1.00  0.00     0.173 A 
ATOM     44  F   UNL A   1      39.270  32.189  30.145  1.00  0.00    -0.203 F 
ATOM     45  C   UNL A   1      37.920  32.091  32.071  1.00  0.00     0.198 A 
ATOM     46  C   UNL A   1      38.476  30.584  33.853  1.00  0.00     0.198 A 
ATOM     47  F   UNL A   1      40.389  29.225  33.693  1.00  0.00    -0.203 F 
ATOM     48  F   UNL A   1      37.131  33.050  31.566  1.00  0.00    -0.200 F 
ATOM     49  C   UNL A   1      37.644  31.557  33.320  1.00  0.00     0.200 A 
ATOM     50  F   UNL A   1      38.207  30.060  35.057  1.00  0.00    -0.200 F 
ATOM     51  F   UNL A   1      36.582  31.987  34.016  1.00  0.00    -0.200 F 
ENDBRANCH  27  41
BRANCH  28  52
ATOM     52  C   UNL A   1      47.471  27.305  26.334  1.00  0.00     0.064 A 
ATOM     53  C   UNL A   1      47.559  27.722  25.000  1.00  0.00     0.173 A 
ATOM     54  C   UNL A   1      48.486  26.472  26.830  1.00  0.00     0.173 A 
ATOM     55  F   UNL A   1      46.601  28.504  24.480  1.00  0.00    -0.203 F 
ATOM     56  C   UNL A   1      48.623  27.326  24.194  1.00  0.00     0.198 A 
ATOM     57  C   UNL A   1      49.561  26.096  26.030  1.00  0.00     0.198 A 
ATOM     58  F   UNL A   1      48.447  26.054  28.104  1.00  0.00    -0.203 F 
ATOM     59  F   UNL A   1      48.677  27.725  22.916  1.00  0.00    -0.200 F 
ATOM     60  C   UNL A   1      49.629  26.522  24.712  1.00  0.00     0.200 A 
ATOM     61  F   UNL A   1      50.539  25.333  26.539  1.00  0.00    -0.200 F 
ATOM     62  F   UNL A   1      50.663  26.159  23.941  1.00  0.00    -0.200 F 
ENDBRANCH  28  52
BRANCH  40  63
ATOM     63  C   UNL A   1      46.649  32.797  30.563  1.00  0.00     0.064 A 
ATOM     64  C   UNL A   1      47.515  32.682  31.660  1.00  0.00     0.173 A 
ATOM     65  C   UNL A   1      46.697  33.975  29.805  1.00  0.00     0.173 A 
ATOM     66  F   UNL A   1      47.494  31.580  32.424  1.00  0.00    -0.203 F 
ATOM     67  C   UNL A   1      48.392  33.713  31.987  1.00  0.00     0.198 A 
ATOM     68  C   UNL A   1      47.589  34.995  30.122  1.00  0.00     0.198 A 
ATOM     69  F   UNL A   1      45.889  34.130  28.745  1.00  0.00    -0.203 F 
ATOM     70  F   UNL A   1      49.194  33.595  33.055  1.00  0.00    -0.200 F 
ATOM     71  C   UNL A   1      48.434  34.864  31.213  1.00  0.00     0.200 A 
ATOM     72  F   UNL A   1      47.635  36.102  29.368  1.00  0.00    -0.200 F 
ATOM     73  F   UNL A   1      49.288  35.849  31.522  1.00  0.00    -0.200 F 
ENDBRANCH  40  63
ENDBRANCH  14  15
ENDBRANCH   7   9
ENDBRANCH   4   5
ENDBRANCH   3   4
ENDBRANCH   2   3
ENDBRANCH   1   2
BRANCH   1  74
ATOM     74  C   UNL A   1      32.344  22.672  23.489  1.00  0.00     0.021 C 
BRANCH  74  75
ATOM     75  C   UNL A   1      31.482  23.925  23.601  1.00  0.00     0.116 C 
BRANCH  75  76
ATOM     76  N   UNL A   1      31.010  24.167  24.950  1.00  0.00    -0.351 N 
ATOM     77  C   UNL A   1      30.268  25.215  25.431  1.00  0.00     0.269 C 
ATOM     78  H   UNL A   1      31.256  23.483  25.614  1.00  0.00     0.163 HD
ATOM     79  O   UNL A   1      30.144  25.330  26.650  1.00  0.00    -0.268 OA
BRANCH  77  80
ATOM     80  C   UNL A   1      29.730  26.181  24.516  1.00  0.00     0.131 A 
ATOM     81  N   UNL A   1      28.380  26.281  24.313  1.00  0.00    -0.272 N 
ATOM     82  C   UNL A   1      30.305  27.105  23.646  1.00  0.00     0.057 A 
ATOM     83  N   UNL A   1      28.023  27.306  23.526  1.00  0.00    -0.183 NA
ATOM     84  H   UNL A   1      27.730  25.657  24.709  1.00  0.00     0.190 HD
ATOM     85  C   UNL A   1      29.190  27.801  23.117  1.00  0.00     0.145 A 
BRANCH  82  86
ATOM     86  C   UNL A   1      31.750  27.358  23.365  1.00  0.00     0.303 C 
BRANCH  86  87
ATOM     87  N   UNL A   1      32.473  28.066  24.423  1.00  0.00    -0.331 N 
ATOM     88  C   UNL A   1      31.708  29.151  25.032  1.00  0.00     0.268 C 
ATOM     89  C   UNL A   1      33.109  27.202  25.415  1.00  0.00     0.268 C 
ATOM     90  H   UNL A   1      33.247  28.508  23.925  1.00  0.00     0.348 HD
ATOM     91  C   UNL A   1      32.609  30.019  25.911  1.00  0.00     0.126 C 
ATOM     92  C   UNL A   1      34.073  28.010  26.286  1.00  0.00     0.126 C 
ATOM     93  C   UNL A   1      33.335  29.171  26.977  1.00  0.00     0.195 C 
BRANCH  93  94
ATOM     94  N   UNL A   1      34.199  29.922  27.927  1.00  0.00    -0.331 N 
ATOM     95  C   UNL A   1      35.634  29.629  27.817  1.00  0.00     0.262 C 
ATOM     96  C   UNL A   1      33.961  31.373  27.813  1.00  0.00     0.275 C 
ATOM     97  H   UNL A   1      33.925  29.594  28.853  1.00  0.00     0.348 HD
ATOM     98  C   UNL A   1      36.423  30.377  28.892  1.00  0.00     0.062 C 
ATOM     99  C   UNL A   1      34.694  32.226  28.841  1.00  0.00     0.134 C 
ATOM    100  C   UNL A   1      36.193  31.882  28.818  1.00  0.00     0.025 C 
BRANCH  99 101
ATOM    101  C   UNL A   1      34.580  33.751  28.667  1.00  0.00     0.231 C 
ATOM    102  O   UNL A   1      34.768  34.237  27.547  1.00  0.00    -0.274 OA
ATOM    103  N   UNL A   1      34.007  34.509  29.666  1.00  0.00    -0.342 N 
ATOM    104  C   UNL A   1      34.496  34.714  31.019  1.00  0.00     0.119 C 
ATOM    105  C   UNL A   1      33.103  35.593  29.320  1.00  0.00     0.119 C 
ATOM    106  C   UNL A   1      33.287  35.307  31.716  1.00  0.00     0.023 C 
ATOM    107  C   UNL A   1      32.707  36.233  30.650  1.00  0.00     0.023 C 
ENDBRANCH  99 101
ENDBRANCH  93  94
ENDBRANCH  86  87
ENDBRANCH  82  86
ENDBRANCH  77  80
ENDBRANCH  75  76
ENDBRANCH  74  75
ENDBRANCH   1  74
TORSDOF 17
ENDMDL
