MODEL 1
REMARK VINA RESULT:     -12.0      0.000      0.000
REMARK SMILES CC(C)[C@@H]([NH3+])C(=O)N[C@@H](Cc1ccccc1)C(=O)NCCCCCCNC(=O)c1ccc(-c2c3nc(c(-c4c(F)c(F)c(F)c(F)c4F)c4ccc([nH]4)c(-c4c(F)c(F)c(F)c(F)c4F)c4nc(c(-c5c(F)c(F)c(F)c(F)c5F)c5ccc2[nH]5)C=C4)C=C3)cc1
REMARK SMILES IDX 22 1 21 2 20 3 19 4 17 5 18 6 9 8 8 9 6 10 7 11 4 13 2 14
REMARK SMILES IDX 1 15 3 16 5 17 10 21 11 22 12 23 16 24 13 25 15 26 14 27
REMARK SMILES IDX 23 28 24 29 25 30 26 31 27 32 28 34 29 35 30 36 91 37 31 38
REMARK SMILES IDX 90 39 32 40 33 41 34 42 84 43 35 44 89 45 83 46 85 47 36 48
REMARK SMILES IDX 88 49 82 50 81 51 37 53 69 54 49 55 68 56 50 57 53 58 67 59
REMARK SMILES IDX 86 60 51 61 52 62 66 64 87 65 54 66 38 67 39 68 47 69 40 70
REMARK SMILES IDX 41 71 45 72 48 73 42 74 43 75 46 76 44 77 70 78 71 79 79 80
REMARK SMILES IDX 72 81 73 82 77 83 80 84 74 85 75 86 78 87 76 88 55 89 56 90
REMARK SMILES IDX 64 91 57 92 58 93 62 94 65 95 59 96 60 97 63 98 61 99
REMARK H PARENT 19 7 8 12 5 18 5 19 5 20 26 33 85 52 53 63
REMARK Flexibility Score: inf
ROOT
ATOM      1  C   UNL A   1      32.864  29.831  27.198  1.00  0.00     0.002 C 
ENDROOT
BRANCH   1   2
ATOM      2  C   UNL A   1      32.782  28.302  27.264  1.00  0.00     0.021 C 
BRANCH   2   3
ATOM      3  C   UNL A   1      31.979  27.654  26.144  1.00  0.00     0.116 C 
BRANCH   3   4
ATOM      4  N   UNL A   1      30.921  26.788  26.617  1.00  0.00    -0.354 N 
ATOM      5  C   UNL A   1      30.176  25.864  25.945  1.00  0.00     0.242 C 
ATOM      6  O   UNL A   1      29.736  24.926  26.624  1.00  0.00    -0.273 OA
ATOM      7  H   UNL A   1      30.705  26.880  27.573  1.00  0.00     0.163 HD
BRANCH   5   8
ATOM      8  C   UNL A   1      29.993  25.858  24.408  1.00  0.00     0.175 C 
BRANCH   8   9
ATOM      9  N   UNL A   1      30.227  24.567  23.752  1.00  0.00    -0.339 N 
ATOM     10  C   UNL A   1      31.403  23.941  23.465  1.00  0.00     0.279 C 
ATOM     11  O   UNL A   1      31.354  22.742  23.169  1.00  0.00    -0.268 OA
ATOM     12  H   UNL A   1      29.416  24.082  23.478  1.00  0.00     0.164 HD
BRANCH  10  13
ATOM     13  C   UNL A   1      32.748  24.705  23.434  1.00  0.00     0.273 C 
BRANCH  13  14
ATOM     14  C   UNL A   1      33.830  23.989  24.284  1.00  0.00     0.051 C 
ATOM     15  C   UNL A   1      35.010  23.498  23.441  1.00  0.00     0.014 C 
ATOM     16  C   UNL A   1      34.356  24.912  25.393  1.00  0.00     0.014 C 
ENDBRANCH  13  14
BRANCH  13  17
ATOM     17  N   UNL A   1      33.148  24.940  22.034  1.00  0.00    -0.347 N 
ATOM     18  H   UNL A   1      32.316  24.998  21.448  1.00  0.00     0.345 HD
ATOM     19  H   UNL A   1      33.736  24.170  21.714  1.00  0.00     0.345 HD
ATOM     20  H   UNL A   1      33.671  25.814  21.972  1.00  0.00     0.345 HD
ENDBRANCH  13  17
ENDBRANCH  10  13
ENDBRANCH   8   9
BRANCH   8  21
ATOM     21  C   UNL A   1      28.695  26.546  23.941  1.00  0.00     0.070 C 
BRANCH  21  22
ATOM     22  C   UNL A   1      28.828  27.876  23.241  1.00  0.00    -0.045 A 
ATOM     23  C   UNL A   1      30.078  28.354  22.828  1.00  0.00     0.004 A 
ATOM     24  C   UNL A   1      27.688  28.658  23.003  1.00  0.00     0.004 A 
ATOM     25  C   UNL A   1      30.181  29.582  22.169  1.00  0.00     0.000 A 
ATOM     26  C   UNL A   1      27.792  29.882  22.340  1.00  0.00     0.000 A 
ATOM     27  C   UNL A   1      29.038  30.342  21.920  1.00  0.00     0.000 A 
ENDBRANCH  21  22
ENDBRANCH   8  21
ENDBRANCH   5   8
ENDBRANCH   3   4
ENDBRANCH   2   3
ENDBRANCH   1   2
BRANCH   1  28
ATOM     28  C   UNL A   1      31.814  30.528  26.324  1.00  0.00     0.002 C 
BRANCH  28  29
ATOM     29  C   UNL A   1      31.556  32.004  26.635  1.00  0.00     0.021 C 
BRANCH  29  30
ATOM     30  C   UNL A   1      32.678  32.719  27.371  1.00  0.00     0.116 C 
BRANCH  30  31
ATOM     31  N   UNL A   1      32.370  34.110  27.658  1.00  0.00    -0.352 N 
ATOM     32  C   UNL A   1      32.969  34.949  28.565  1.00  0.00     0.251 C 
ATOM     33  H   UNL A   1      31.634  34.502  27.133  1.00  0.00     0.163 HD
ATOM     34  O   UNL A   1      32.511  36.066  28.786  1.00  0.00    -0.269 OA
BRANCH  32  35
ATOM     35  C   UNL A   1      34.159  34.481  29.303  1.00  0.00     0.039 A 
ATOM     36  C   UNL A   1      33.987  33.803  30.513  1.00  0.00     0.014 A 
ATOM     37  C   UNL A   1      35.441  34.687  28.784  1.00  0.00     0.014 A 
ATOM     38  C   UNL A   1      35.098  33.272  31.173  1.00  0.00     0.010 A 
ATOM     39  C   UNL A   1      36.536  34.098  29.405  1.00  0.00     0.010 A 
ATOM     40  C   UNL A   1      36.375  33.386  30.605  1.00  0.00    -0.014 A 
BRANCH  40  41
ATOM     41  C   UNL A   1      37.579  32.799  31.245  1.00  0.00     0.031 A 
ATOM     42  C   UNL A   1      38.287  31.658  30.569  1.00  0.00     0.074 A 
ATOM     43  C   UNL A   1      37.966  33.211  32.467  1.00  0.00     0.049 A 
ATOM     44  N   UNL A   1      39.223  30.870  31.032  1.00  0.00    -0.248 NA
ATOM     45  C   UNL A   1      37.855  31.340  29.199  1.00  0.00     0.031 C 
ATOM     46  C   UNL A   1      37.347  34.295  33.231  1.00  0.00     0.029 A 
ATOM     47  N   UNL A   1      38.958  32.745  33.294  1.00  0.00    -0.354 N 
ATOM     48  C   UNL A   1      39.467  29.947  30.024  1.00  0.00     0.074 A 
ATOM     49  C   UNL A   1      38.555  30.246  28.942  1.00  0.00     0.031 C 
ATOM     50  C   UNL A   1      37.974  34.412  34.413  1.00  0.00     0.029 A 
ATOM     51  C   UNL A   1      39.004  33.380  34.511  1.00  0.00     0.049 A 
ATOM     52  H   UNL A   1      39.577  32.022  33.040  1.00  0.00     0.167 HD
ATOM     53  C   UNL A   1      40.382  28.949  30.001  1.00  0.00     0.037 A 
ATOM     54  C   UNL A   1      39.773  33.140  35.591  1.00  0.00     0.037 A 
ATOM     55  C   UNL A   1      41.310  28.682  31.067  1.00  0.00     0.049 A 
ATOM     56  C   UNL A   1      40.773  32.016  35.545  1.00  0.00     0.074 A 
ATOM     57  C   UNL A   1      42.313  27.731  31.118  1.00  0.00     0.029 A 
ATOM     58  N   UNL A   1      41.349  29.374  32.269  1.00  0.00    -0.354 N 
ATOM     59  N   UNL A   1      41.026  31.173  34.573  1.00  0.00    -0.248 NA
ATOM     60  C   UNL A   1      41.594  31.805  36.746  1.00  0.00     0.031 C 
ATOM     61  C   UNL A   1      42.932  27.819  32.368  1.00  0.00     0.029 A 
ATOM     62  C   UNL A   1      42.349  28.858  33.076  1.00  0.00     0.049 A 
ATOM     63  H   UNL A   1      40.754  30.119  32.512  1.00  0.00     0.167 HD
ATOM     64  C   UNL A   1      42.057  30.363  35.028  1.00  0.00     0.074 A 
ATOM     65  C   UNL A   1      42.384  30.812  36.365  1.00  0.00     0.031 C 
ATOM     66  C   UNL A   1      42.678  29.339  34.393  1.00  0.00     0.037 A 
BRANCH  53  67
ATOM     67  C   UNL A   1      40.421  28.070  28.785  1.00  0.00     0.064 A 
ATOM     68  C   UNL A   1      41.168  28.417  27.649  1.00  0.00     0.173 A 
ATOM     69  C   UNL A   1      39.731  26.849  28.768  1.00  0.00     0.173 A 
ATOM     70  F   UNL A   1      41.838  29.579  27.609  1.00  0.00    -0.203 F 
ATOM     71  C   UNL A   1      41.197  27.589  26.530  1.00  0.00     0.198 A 
ATOM     72  C   UNL A   1      39.788  26.009  27.660  1.00  0.00     0.198 A 
ATOM     73  F   UNL A   1      39.006  26.466  29.831  1.00  0.00    -0.203 F 
ATOM     74  F   UNL A   1      41.875  27.965  25.438  1.00  0.00    -0.200 F 
ATOM     75  C   UNL A   1      40.513  26.382  26.540  1.00  0.00     0.200 A 
ATOM     76  F   UNL A   1      39.137  24.836  27.676  1.00  0.00    -0.200 F 
ATOM     77  F   UNL A   1      40.549  25.583  25.464  1.00  0.00    -0.200 F 
ENDBRANCH  53  67
BRANCH  54  78
ATOM     78  C   UNL A   1      39.633  33.986  36.805  1.00  0.00     0.064 A 
ATOM     79  C   UNL A   1      38.831  33.572  37.879  1.00  0.00     0.173 A 
ATOM     80  C   UNL A   1      40.288  35.221  36.920  1.00  0.00     0.173 A 
ATOM     81  F   UNL A   1      38.168  32.409  37.808  1.00  0.00    -0.203 F 
ATOM     82  C   UNL A   1      38.676  34.368  39.011  1.00  0.00     0.198 A 
ATOM     83  C   UNL A   1      40.153  36.003  38.065  1.00  0.00     0.198 A 
ATOM     84  F   UNL A   1      41.070  35.661  35.923  1.00  0.00    -0.203 F 
ATOM     85  F   UNL A   1      37.868  33.967  40.003  1.00  0.00    -0.200 F 
ATOM     86  C   UNL A   1      39.341  35.581  39.106  1.00  0.00     0.200 A 
ATOM     87  F   UNL A   1      40.809  37.169  38.157  1.00  0.00    -0.200 F 
ATOM     88  F   UNL A   1      39.194  36.345  40.197  1.00  0.00    -0.200 F 
ENDBRANCH  54  78
BRANCH  66  89
ATOM     89  C   UNL A   1      43.816  28.668  35.101  1.00  0.00     0.064 A 
ATOM     90  C   UNL A   1      43.621  27.533  35.900  1.00  0.00     0.173 A 
ATOM     91  C   UNL A   1      45.131  29.118  34.905  1.00  0.00     0.173 A 
ATOM     92  F   UNL A   1      42.382  27.074  36.130  1.00  0.00    -0.203 F 
ATOM     93  C   UNL A   1      44.702  26.877  36.483  1.00  0.00     0.198 A 
ATOM     94  C   UNL A   1      46.211  28.445  35.466  1.00  0.00     0.198 A 
ATOM     95  F   UNL A   1      45.369  30.197  34.143  1.00  0.00    -0.203 F 
ATOM     96  F   UNL A   1      44.493  25.808  37.265  1.00  0.00    -0.200 F 
ATOM     97  C   UNL A   1      45.995  27.326  36.256  1.00  0.00     0.200 A 
ATOM     98  F   UNL A   1      47.460  28.871  35.234  1.00  0.00    -0.200 F 
ATOM     99  F   UNL A   1      47.036  26.680  36.801  1.00  0.00    -0.200 F 
ENDBRANCH  66  89
ENDBRANCH  40  41
ENDBRANCH  32  35
ENDBRANCH  30  31
ENDBRANCH  29  30
ENDBRANCH  28  29
ENDBRANCH   1  28
TORSDOF 19
ENDMDL
MODEL 2
REMARK VINA RESULT:     -11.7      0.595      2.206
REMARK SMILES CC(C)[C@@H]([NH3+])C(=O)N[C@@H](Cc1ccccc1)C(=O)NCCCCCCNC(=O)c1ccc(-c2c3nc(c(-c4c(F)c(F)c(F)c(F)c4F)c4ccc([nH]4)c(-c4c(F)c(F)c(F)c(F)c4F)c4nc(c(-c5c(F)c(F)c(F)c(F)c5F)c5ccc2[nH]5)C=C4)C=C3)cc1
REMARK SMILES IDX 22 1 21 2 20 3 19 4 17 5 18 6 9 8 8 9 6 10 7 11 4 13 2 14
REMARK SMILES IDX 1 15 3 16 5 17 10 21 11 22 12 23 16 24 13 25 15 26 14 27
REMARK SMILES IDX 23 28 24 29 25 30 26 31 27 32 28 34 29 35 30 36 91 37 31 38
REMARK SMILES IDX 90 39 32 40 33 41 34 42 84 43 35 44 89 45 83 46 85 47 36 48
REMARK SMILES IDX 88 49 82 50 81 51 37 53 69 54 49 55 68 56 50 57 53 58 67 59
REMARK SMILES IDX 86 60 51 61 52 62 66 64 87 65 54 66 38 67 39 68 47 69 40 70
REMARK SMILES IDX 41 71 45 72 48 73 42 74 43 75 46 76 44 77 70 78 71 79 79 80
REMARK SMILES IDX 72 81 73 82 77 83 80 84 74 85 75 86 78 87 76 88 55 89 56 90
REMARK SMILES IDX 64 91 57 92 58 93 62 94 65 95 59 96 60 97 63 98 61 99
REMARK H PARENT 19 7 8 12 5 18 5 19 5 20 26 33 85 52 53 63
REMARK Flexibility Score: inf
ROOT
ATOM      1  C   UNL A   1      32.307  30.009  26.836  1.00  0.00     0.002 C 
ENDROOT
BRANCH   1   2
ATOM      2  C   UNL A   1      31.628  28.738  27.357  1.00  0.00     0.021 C 
BRANCH   2   3
ATOM      3  C   UNL A   1      31.649  27.559  26.393  1.00  0.00     0.116 C 
BRANCH   3   4
ATOM      4  N   UNL A   1      30.762  26.482  26.776  1.00  0.00    -0.354 N 
ATOM      5  C   UNL A   1      30.212  25.487  26.023  1.00  0.00     0.242 C 
ATOM      6  O   UNL A   1      29.943  24.439  26.624  1.00  0.00    -0.273 OA
ATOM      7  H   UNL A   1      30.518  26.464  27.729  1.00  0.00     0.163 HD
BRANCH   5   8
ATOM      8  C   UNL A   1      30.056  25.557  24.484  1.00  0.00     0.175 C 
BRANCH   8   9
ATOM      9  N   UNL A   1      30.301  24.299  23.770  1.00  0.00    -0.339 N 
ATOM     10  C   UNL A   1      31.481  23.691  23.462  1.00  0.00     0.279 C 
ATOM     11  O   UNL A   1      31.439  22.507  23.111  1.00  0.00    -0.268 OA
ATOM     12  H   UNL A   1      29.493  23.824  23.468  1.00  0.00     0.164 HD
BRANCH  10  13
ATOM     13  C   UNL A   1      32.823  24.461  23.477  1.00  0.00     0.273 C 
BRANCH  13  14
ATOM     14  C   UNL A   1      32.677  25.875  22.857  1.00  0.00     0.051 C 
ATOM     15  C   UNL A   1      33.687  26.874  23.428  1.00  0.00     0.014 C 
ATOM     16  C   UNL A   1      32.831  25.823  21.330  1.00  0.00     0.014 C 
ENDBRANCH  13  14
BRANCH  13  17
ATOM     17  N   UNL A   1      33.373  24.463  24.846  1.00  0.00    -0.347 N 
ATOM     18  H   UNL A   1      33.366  25.414  25.213  1.00  0.00     0.345 HD
ATOM     19  H   UNL A   1      34.330  24.112  24.828  1.00  0.00     0.345 HD
ATOM     20  H   UNL A   1      32.803  23.863  25.442  1.00  0.00     0.345 HD
ENDBRANCH  13  17
ENDBRANCH  10  13
ENDBRANCH   8   9
BRANCH   8  21
ATOM     21  C   UNL A   1      28.769  26.270  24.028  1.00  0.00     0.070 C 
BRANCH  21  22
ATOM     22  C   UNL A   1      28.918  27.623  23.378  1.00  0.00    -0.045 A 
ATOM     23  C   UNL A   1      27.798  28.411  23.080  1.00  0.00     0.004 A 
ATOM     24  C   UNL A   1      30.195  28.108  23.055  1.00  0.00     0.004 A 
ATOM     25  C   UNL A   1      27.956  29.668  22.491  1.00  0.00     0.000 A 
ATOM     26  C   UNL A   1      30.350  29.366  22.471  1.00  0.00     0.000 A 
ATOM     27  C   UNL A   1      29.231  30.147  22.193  1.00  0.00     0.000 A 
ENDBRANCH  21  22
ENDBRANCH   8  21
ENDBRANCH   5   8
ENDBRANCH   3   4
ENDBRANCH   2   3
ENDBRANCH   1   2
BRANCH   1  28
ATOM     28  C   UNL A   1      31.424  30.966  26.026  1.00  0.00     0.002 C 
BRANCH  28  29
ATOM     29  C   UNL A   1      31.262  32.376  26.598  1.00  0.00     0.021 C 
BRANCH  29  30
ATOM     30  C   UNL A   1      32.530  32.999  27.160  1.00  0.00     0.116 C 
BRANCH  30  31
ATOM     31  N   UNL A   1      32.306  34.307  27.750  1.00  0.00    -0.352 N 
ATOM     32  C   UNL A   1      33.001  34.920  28.763  1.00  0.00     0.251 C 
ATOM     33  H   UNL A   1      31.555  34.822  27.374  1.00  0.00     0.163 HD
ATOM     34  O   UNL A   1      32.609  35.979  29.243  1.00  0.00    -0.269 OA
BRANCH  32  35
ATOM     35  C   UNL A   1      34.216  34.273  29.298  1.00  0.00     0.039 A 
ATOM     36  C   UNL A   1      35.467  34.674  28.821  1.00  0.00     0.014 A 
ATOM     37  C   UNL A   1      34.118  33.293  30.290  1.00  0.00     0.014 A 
ATOM     38  C   UNL A   1      36.627  34.138  29.386  1.00  0.00     0.010 A 
ATOM     39  C   UNL A   1      35.272  32.814  30.899  1.00  0.00     0.010 A 
ATOM     40  C   UNL A   1      36.537  33.231  30.453  1.00  0.00    -0.014 A 
BRANCH  40  41
ATOM     41  C   UNL A   1      37.741  32.670  31.116  1.00  0.00     0.031 A 
ATOM     42  C   UNL A   1      38.488  31.547  30.454  1.00  0.00     0.074 A 
ATOM     43  C   UNL A   1      38.094  33.091  32.346  1.00  0.00     0.049 A 
ATOM     44  N   UNL A   1      39.433  30.781  30.935  1.00  0.00    -0.248 NA
ATOM     45  C   UNL A   1      38.091  31.221  29.075  1.00  0.00     0.031 C 
ATOM     46  C   UNL A   1      37.435  34.159  33.098  1.00  0.00     0.029 A 
ATOM     47  N   UNL A   1      39.079  32.646  33.192  1.00  0.00    -0.354 N 
ATOM     48  C   UNL A   1      39.718  29.865  29.931  1.00  0.00     0.074 A 
ATOM     49  C   UNL A   1      38.821  30.144  28.832  1.00  0.00     0.031 C 
ATOM     50  C   UNL A   1      38.035  34.288  34.292  1.00  0.00     0.029 A 
ATOM     51  C   UNL A   1      39.086  33.281  34.411  1.00  0.00     0.049 A 
ATOM     52  H   UNL A   1      39.719  31.938  32.950  1.00  0.00     0.167 HD
ATOM     53  C   UNL A   1      40.656  28.888  29.926  1.00  0.00     0.037 A 
ATOM     54  C   UNL A   1      39.839  33.057  35.505  1.00  0.00     0.037 A 
ATOM     55  C   UNL A   1      41.569  28.641  31.010  1.00  0.00     0.049 A 
ATOM     56  C   UNL A   1      40.865  31.957  35.479  1.00  0.00     0.074 A 
ATOM     57  C   UNL A   1      42.592  27.714  31.081  1.00  0.00     0.029 A 
ATOM     58  N   UNL A   1      41.567  29.333  32.213  1.00  0.00    -0.354 N 
ATOM     59  N   UNL A   1      41.157  31.122  34.511  1.00  0.00    -0.248 NA
ATOM     60  C   UNL A   1      41.667  31.764  36.696  1.00  0.00     0.031 C 
ATOM     61  C   UNL A   1      43.184  27.815  32.343  1.00  0.00     0.029 A 
ATOM     62  C   UNL A   1      42.563  28.839  33.039  1.00  0.00     0.049 A 
ATOM     63  H   UNL A   1      40.950  30.064  32.444  1.00  0.00     0.167 HD
ATOM     64  C   UNL A   1      42.197  30.335  34.986  1.00  0.00     0.074 A 
ATOM     65  C   UNL A   1      42.487  30.789  36.330  1.00  0.00     0.031 C 
ATOM     66  C   UNL A   1      42.855  29.327  34.363  1.00  0.00     0.037 A 
BRANCH  53  67
ATOM     67  C   UNL A   1      40.740  28.012  28.710  1.00  0.00     0.064 A 
ATOM     68  C   UNL A   1      40.009  26.819  28.610  1.00  0.00     0.173 A 
ATOM     69  C   UNL A   1      41.535  28.389  27.617  1.00  0.00     0.173 A 
ATOM     70  F   UNL A   1      39.243  26.407  29.631  1.00  0.00    -0.203 F 
ATOM     71  C   UNL A   1      40.095  26.019  27.473  1.00  0.00     0.198 A 
ATOM     72  C   UNL A   1      41.594  27.603  26.470  1.00  0.00     0.198 A 
ATOM     73  F   UNL A   1      42.249  29.524  27.658  1.00  0.00    -0.203 F 
ATOM     74  F   UNL A   1      39.429  24.858  27.421  1.00  0.00    -0.200 F 
ATOM     75  C   UNL A   1      40.881  26.416  26.401  1.00  0.00     0.200 A 
ATOM     76  F   UNL A   1      42.343  27.995  25.429  1.00  0.00    -0.200 F 
ATOM     77  F   UNL A   1      40.957  25.648  25.305  1.00  0.00    -0.200 F 
ENDBRANCH  53  67
BRANCH  54  78
ATOM     78  C   UNL A   1      39.655  33.898  36.717  1.00  0.00     0.064 A 
ATOM     79  C   UNL A   1      40.300  35.137  36.836  1.00  0.00     0.173 A 
ATOM     80  C   UNL A   1      38.839  33.484  37.781  1.00  0.00     0.173 A 
ATOM     81  F   UNL A   1      41.106  35.567  35.854  1.00  0.00    -0.203 F 
ATOM     82  C   UNL A   1      40.152  35.921  37.978  1.00  0.00     0.198 A 
ATOM     83  C   UNL A   1      38.670  34.281  38.911  1.00  0.00     0.198 A 
ATOM     84  F   UNL A   1      38.196  32.309  37.717  1.00  0.00    -0.203 F 
ATOM     85  F   UNL A   1      40.816  37.081  38.082  1.00  0.00    -0.200 F 
ATOM     86  C   UNL A   1      39.333  35.495  39.013  1.00  0.00     0.200 A 
ATOM     87  F   UNL A   1      37.867  33.872  39.903  1.00  0.00    -0.200 F 
ATOM     88  F   UNL A   1      39.188  36.251  40.109  1.00  0.00    -0.200 F 
ENDBRANCH  54  78
BRANCH  66  89
ATOM     89  C   UNL A   1      43.994  28.680  35.094  1.00  0.00     0.064 A 
ATOM     90  C   UNL A   1      45.299  29.186  35.020  1.00  0.00     0.173 A 
ATOM     91  C   UNL A   1      43.754  27.593  35.948  1.00  0.00     0.173 A 
ATOM     92  F   UNL A   1      45.580  30.214  34.206  1.00  0.00    -0.203 F 
ATOM     93  C   UNL A   1      46.326  28.620  35.771  1.00  0.00     0.198 A 
ATOM     94  C   UNL A   1      44.776  27.047  36.717  1.00  0.00     0.198 A 
ATOM     95  F   UNL A   1      42.519  27.078  36.057  1.00  0.00    -0.203 F 
ATOM     96  F   UNL A   1      47.573  29.100  35.667  1.00  0.00    -0.200 F 
ATOM     97  C   UNL A   1      46.061  27.560  36.627  1.00  0.00     0.200 A 
ATOM     98  F   UNL A   1      44.517  26.033  37.554  1.00  0.00    -0.200 F 
ATOM     99  F   UNL A   1      47.048  27.030  37.364  1.00  0.00    -0.200 F 
ENDBRANCH  66  89
ENDBRANCH  40  41
ENDBRANCH  32  35
ENDBRANCH  30  31
ENDBRANCH  29  30
ENDBRANCH  28  29
ENDBRANCH   1  28
TORSDOF 19
ENDMDL
MODEL 3
REMARK VINA RESULT:     -11.7      2.245      4.347
REMARK SMILES CC(C)[C@@H]([NH3+])C(=O)N[C@@H](Cc1ccccc1)C(=O)NCCCCCCNC(=O)c1ccc(-c2c3nc(c(-c4c(F)c(F)c(F)c(F)c4F)c4ccc([nH]4)c(-c4c(F)c(F)c(F)c(F)c4F)c4nc(c(-c5c(F)c(F)c(F)c(F)c5F)c5ccc2[nH]5)C=C4)C=C3)cc1
REMARK SMILES IDX 22 1 21 2 20 3 19 4 17 5 18 6 9 8 8 9 6 10 7 11 4 13 2 14
REMARK SMILES IDX 1 15 3 16 5 17 10 21 11 22 12 23 16 24 13 25 15 26 14 27
REMARK SMILES IDX 23 28 24 29 25 30 26 31 27 32 28 34 29 35 30 36 91 37 31 38
REMARK SMILES IDX 90 39 32 40 33 41 34 42 84 43 35 44 89 45 83 46 85 47 36 48
REMARK SMILES IDX 88 49 82 50 81 51 37 53 69 54 49 55 68 56 50 57 53 58 67 59
REMARK SMILES IDX 86 60 51 61 52 62 66 64 87 65 54 66 38 67 39 68 47 69 40 70
REMARK SMILES IDX 41 71 45 72 48 73 42 74 43 75 46 76 44 77 70 78 71 79 79 80
REMARK SMILES IDX 72 81 73 82 77 83 80 84 74 85 75 86 78 87 76 88 55 89 56 90
REMARK SMILES IDX 64 91 57 92 58 93 62 94 65 95 59 96 60 97 63 98 61 99
REMARK H PARENT 19 7 8 12 5 18 5 19 5 20 26 33 85 52 53 63
REMARK Flexibility Score: inf
ROOT
ATOM      1  C   UNL A   1      30.935  26.231  26.045  1.00  0.00     0.002 C 
ENDROOT
BRANCH   1   2
ATOM      2  C   UNL A   1      30.367  25.963  24.647  1.00  0.00     0.021 C 
BRANCH   2   3
ATOM      3  C   UNL A   1      30.905  24.712  23.966  1.00  0.00     0.116 C 
BRANCH   3   4
ATOM      4  N   UNL A   1      31.866  24.991  22.920  1.00  0.00    -0.354 N 
ATOM      5  C   UNL A   1      32.941  24.264  22.499  1.00  0.00     0.242 C 
ATOM      6  O   UNL A   1      33.272  24.424  21.317  1.00  0.00    -0.273 OA
ATOM      7  H   UNL A   1      31.722  25.837  22.438  1.00  0.00     0.163 HD
BRANCH   5   8
ATOM      8  C   UNL A   1      33.640  23.182  23.358  1.00  0.00     0.175 C 
BRANCH   8   9
ATOM      9  N   UNL A   1      32.882  21.940  23.544  1.00  0.00    -0.339 N 
ATOM     10  C   UNL A   1      32.698  21.197  24.671  1.00  0.00     0.279 C 
ATOM     11  O   UNL A   1      31.795  20.353  24.657  1.00  0.00    -0.268 OA
ATOM     12  H   UNL A   1      32.442  21.592  22.735  1.00  0.00     0.164 HD
BRANCH  10  13
ATOM     13  C   UNL A   1      33.621  21.342  25.904  1.00  0.00     0.273 C 
BRANCH  13  14
ATOM     14  C   UNL A   1      33.343  22.660  26.673  1.00  0.00     0.051 C 
ATOM     15  C   UNL A   1      31.855  22.868  26.965  1.00  0.00     0.014 C 
ATOM     16  C   UNL A   1      34.124  22.701  27.994  1.00  0.00     0.014 C 
ENDBRANCH  13  14
BRANCH  13  17
ATOM     17  N   UNL A   1      33.518  20.131  26.740  1.00  0.00    -0.347 N 
ATOM     18  H   UNL A   1      33.111  20.374  27.642  1.00  0.00     0.345 HD
ATOM     19  H   UNL A   1      34.448  19.736  26.882  1.00  0.00     0.345 HD
ATOM     20  H   UNL A   1      32.926  19.444  26.272  1.00  0.00     0.345 HD
ENDBRANCH  13  17
ENDBRANCH  10  13
ENDBRANCH   8   9
BRANCH   8  21
ATOM     21  C   UNL A   1      35.110  22.940  22.964  1.00  0.00     0.070 C 
BRANCH  21  22
ATOM     22  C   UNL A   1      36.129  22.900  24.076  1.00  0.00    -0.045 A 
ATOM     23  C   UNL A   1      36.260  23.966  24.976  1.00  0.00     0.004 A 
ATOM     24  C   UNL A   1      36.969  21.785  24.216  1.00  0.00     0.004 A 
ATOM     25  C   UNL A   1      37.200  23.907  26.008  1.00  0.00     0.000 A 
ATOM     26  C   UNL A   1      37.904  21.726  25.251  1.00  0.00     0.000 A 
ATOM     27  C   UNL A   1      38.016  22.785  26.149  1.00  0.00     0.000 A 
ENDBRANCH  21  22
ENDBRANCH   8  21
ENDBRANCH   5   8
ENDBRANCH   3   4
ENDBRANCH   2   3
ENDBRANCH   1   2
BRANCH   1  28
ATOM     28  C   UNL A   1      32.251  27.015  26.104  1.00  0.00     0.002 C 
BRANCH  28  29
ATOM     29  C   UNL A   1      32.515  27.973  24.940  1.00  0.00     0.021 C 
BRANCH  29  30
ATOM     30  C   UNL A   1      33.458  29.125  25.247  1.00  0.00     0.116 C 
BRANCH  30  31
ATOM     31  N   UNL A   1      32.779  30.276  25.819  1.00  0.00    -0.352 N 
ATOM     32  C   UNL A   1      33.158  31.049  26.889  1.00  0.00     0.251 C 
ATOM     33  H   UNL A   1      31.935  30.534  25.383  1.00  0.00     0.163 HD
ATOM     34  O   UNL A   1      32.410  31.912  27.336  1.00  0.00    -0.269 OA
BRANCH  32  35
ATOM     35  C   UNL A   1      34.470  30.809  27.523  1.00  0.00     0.039 A 
ATOM     36  C   UNL A   1      35.349  31.882  27.698  1.00  0.00     0.014 A 
ATOM     37  C   UNL A   1      34.818  29.530  27.969  1.00  0.00     0.014 A 
ATOM     38  C   UNL A   1      36.551  31.687  28.381  1.00  0.00     0.010 A 
ATOM     39  C   UNL A   1      35.982  29.354  28.709  1.00  0.00     0.010 A 
ATOM     40  C   UNL A   1      36.859  30.430  28.921  1.00  0.00    -0.014 A 
BRANCH  40  41
ATOM     41  C   UNL A   1      38.102  30.186  29.695  1.00  0.00     0.031 A 
ATOM     42  C   UNL A   1      39.132  29.237  29.149  1.00  0.00     0.074 A 
ATOM     43  C   UNL A   1      38.255  30.725  30.919  1.00  0.00     0.049 A 
ATOM     44  N   UNL A   1      40.184  28.726  29.735  1.00  0.00    -0.248 NA
ATOM     45  C   UNL A   1      38.927  28.773  27.768  1.00  0.00     0.031 C 
ATOM     46  C   UNL A   1      37.317  31.644  31.563  1.00  0.00     0.029 A 
ATOM     47  N   UNL A   1      39.246  30.551  31.854  1.00  0.00    -0.354 N 
ATOM     48  C   UNL A   1      40.744  27.859  28.807  1.00  0.00     0.074 A 
ATOM     49  C   UNL A   1      39.897  27.881  27.636  1.00  0.00     0.031 C 
ATOM     50  C   UNL A   1      37.777  31.955  32.786  1.00  0.00     0.029 A 
ATOM     51  C   UNL A   1      39.015  31.220  33.032  1.00  0.00     0.049 A 
ATOM     52  H   UNL A   1      40.045  29.998  31.696  1.00  0.00     0.167 HD
ATOM     53  C   UNL A   1      41.876  27.122  28.920  1.00  0.00     0.037 A 
ATOM     54  C   UNL A   1      39.711  31.218  34.185  1.00  0.00     0.037 A 
ATOM     55  C   UNL A   1      42.733  27.134  30.075  1.00  0.00     0.049 A 
ATOM     56  C   UNL A   1      40.956  30.380  34.290  1.00  0.00     0.074 A 
ATOM     57  C   UNL A   1      43.930  26.468  30.267  1.00  0.00     0.029 A 
ATOM     58  N   UNL A   1      42.482  27.855  31.234  1.00  0.00    -0.354 N 
ATOM     59  N   UNL A   1      41.503  29.595  33.394  1.00  0.00    -0.248 NA
ATOM     60  C   UNL A   1      41.684  30.424  35.567  1.00  0.00     0.031 C 
ATOM     61  C   UNL A   1      44.383  26.752  31.558  1.00  0.00     0.029 A 
ATOM     62  C   UNL A   1      43.496  27.635  32.152  1.00  0.00     0.049 A 
ATOM     63  H   UNL A   1      41.701  28.435  31.381  1.00  0.00     0.167 HD
ATOM     64  C   UNL A   1      42.653  29.086  33.981  1.00  0.00     0.074 A 
ATOM     65  C   UNL A   1      42.727  29.648  35.313  1.00  0.00     0.031 C 
ATOM     66  C   UNL A   1      43.566  28.229  33.462  1.00  0.00     0.037 A 
BRANCH  53  67
ATOM     67  C   UNL A   1      42.249  26.240  27.765  1.00  0.00     0.064 A 
ATOM     68  C   UNL A   1      43.219  26.624  26.827  1.00  0.00     0.173 A 
ATOM     69  C   UNL A   1      41.653  24.979  27.613  1.00  0.00     0.173 A 
ATOM     70  F   UNL A   1      43.811  27.824  26.921  1.00  0.00    -0.203 F 
ATOM     71  C   UNL A   1      43.556  25.792  25.763  1.00  0.00     0.198 A 
ATOM     72  C   UNL A   1      42.015  24.137  26.566  1.00  0.00     0.198 A 
ATOM     73  F   UNL A   1      40.723  24.560  28.485  1.00  0.00    -0.203 F 
ATOM     74  F   UNL A   1      44.448  26.202  24.851  1.00  0.00    -0.200 F 
ATOM     75  C   UNL A   1      42.960  24.546  25.638  1.00  0.00     0.200 A 
ATOM     76  F   UNL A   1      41.447  22.927  26.454  1.00  0.00    -0.200 F 
ATOM     77  F   UNL A   1      43.291  23.744  24.617  1.00  0.00    -0.200 F 
ENDBRANCH  53  67
BRANCH  54  78
ATOM     78  C   UNL A   1      39.249  32.043  35.332  1.00  0.00     0.064 A 
ATOM     79  C   UNL A   1      39.614  33.392  35.439  1.00  0.00     0.173 A 
ATOM     80  C   UNL A   1      38.441  31.505  36.346  1.00  0.00     0.173 A 
ATOM     81  F   UNL A   1      40.402  33.946  34.506  1.00  0.00    -0.203 F 
ATOM     82  C   UNL A   1      39.205  34.166  36.522  1.00  0.00     0.198 A 
ATOM     83  C   UNL A   1      38.010  32.288  37.414  1.00  0.00     0.198 A 
ATOM     84  F   UNL A   1      38.060  30.220  36.290  1.00  0.00    -0.203 F 
ATOM     85  F   UNL A   1      39.606  35.442  36.620  1.00  0.00    -0.200 F 
ATOM     86  C   UNL A   1      38.399  33.616  37.507  1.00  0.00     0.200 A 
ATOM     87  F   UNL A   1      37.220  31.754  38.356  1.00  0.00    -0.200 F 
ATOM     88  F   UNL A   1      38.003  34.362  38.546  1.00  0.00    -0.200 F 
ENDBRANCH  54  78
BRANCH  66  89
ATOM     89  C   UNL A   1      44.761  27.890  34.303  1.00  0.00     0.064 A 
ATOM     90  C   UNL A   1      44.780  26.762  35.136  1.00  0.00     0.173 A 
ATOM     91  C   UNL A   1      45.931  28.658  34.205  1.00  0.00     0.173 A 
ATOM     92  F   UNL A   1      43.681  26.006  35.273  1.00  0.00    -0.203 F 
ATOM     93  C   UNL A   1      45.928  26.420  35.846  1.00  0.00     0.198 A 
ATOM     94  C   UNL A   1      47.084  28.298  34.894  1.00  0.00     0.198 A 
ATOM     95  F   UNL A   1      45.963  29.743  33.416  1.00  0.00    -0.203 F 
ATOM     96  F   UNL A   1      45.919  25.353  36.656  1.00  0.00    -0.200 F 
ATOM     97  C   UNL A   1      47.081  27.181  35.715  1.00  0.00     0.200 A 
ATOM     98  F   UNL A   1      48.201  29.026  34.756  1.00  0.00    -0.200 F 
ATOM     99  F   UNL A   1      48.192  26.838  36.383  1.00  0.00    -0.200 F 
ENDBRANCH  66  89
ENDBRANCH  40  41
ENDBRANCH  32  35
ENDBRANCH  30  31
ENDBRANCH  29  30
ENDBRANCH  28  29
ENDBRANCH   1  28
TORSDOF 19
ENDMDL
