MODEL 1
REMARK VINA RESULT:     -11.0      0.000      0.000
REMARK SMILES CCN(CC)C(=O)CN(CC(=O)NCCCCCCNC(=O)c1ccc(-c2c3nc(c(-c4c(F)c(F)c(F)c(F)c4F)c4ccc([nH]4)c(-c4c(F)c(F)c(F)c(F)c4F)c4nc(c(-c5c(F)c(F)c(F)c(F)c5F)c5ccc2[nH]5)C=C4)C=C3)cc1)c1ccccc1
REMARK SMILES IDX 15 1 14 2 13 3 11 4 12 5 10 7 9 8 8 9 6 10 3 11 7 12 2 13
REMARK SMILES IDX 1 14 4 15 5 16 86 17 87 18 91 19 88 20 90 21 89 22 16 23
REMARK SMILES IDX 17 24 18 25 19 26 20 27 21 28 22 30 23 31 24 32 85 33 25 34
REMARK SMILES IDX 84 35 26 36 27 37 28 38 78 39 29 40 83 41 77 42 79 43 30 44
REMARK SMILES IDX 82 45 76 46 75 47 31 49 63 50 43 51 62 52 44 53 47 54 61 55
REMARK SMILES IDX 80 56 45 57 46 58 60 60 81 61 48 62 32 63 33 64 41 65 34 66
REMARK SMILES IDX 35 67 39 68 42 69 36 70 37 71 40 72 38 73 64 74 65 75 73 76
REMARK SMILES IDX 66 77 67 78 71 79 74 80 68 81 69 82 72 83 70 84 49 85 50 86
REMARK SMILES IDX 58 87 51 88 52 89 56 90 59 91 53 92 54 93 57 94 55 95
REMARK H PARENT 13 6 20 29 79 48 47 59
REMARK Flexibility Score: inf
ROOT
ATOM      1  C   UNL A   1      33.086  28.384  26.646  1.00  0.00     0.021 C 
ENDROOT
BRANCH   1   2
ATOM      2  C   UNL A   1      33.664  27.992  25.289  1.00  0.00     0.116 C 
BRANCH   2   3
ATOM      3  N   UNL A   1      32.654  28.016  24.261  1.00  0.00    -0.355 N 
ATOM      4  C   UNL A   1      32.602  27.315  23.096  1.00  0.00     0.239 C 
ATOM      5  O   UNL A   1      31.639  27.530  22.351  1.00  0.00    -0.273 OA
ATOM      6  H   UNL A   1      31.897  28.624  24.425  1.00  0.00     0.163 HD
BRANCH   4   7
ATOM      7  C   UNL A   1      33.627  26.229  22.765  1.00  0.00     0.217 C 
BRANCH   7   8
ATOM      8  N   UNL A   1      33.496  24.905  23.427  1.00  0.00    -0.353 N 
BRANCH   8   9
ATOM      9  C   UNL A   1      32.144  24.290  23.466  1.00  0.00     0.217 C 
BRANCH   9  10
ATOM     10  C   UNL A   1      31.306  24.376  24.751  1.00  0.00     0.242 C 
ATOM     11  N   UNL A   1      31.210  23.305  25.633  1.00  0.00    -0.342 N 
ATOM     12  O   UNL A   1      30.670  25.419  24.964  1.00  0.00    -0.273 OA
BRANCH  11  13
ATOM     13  C   UNL A   1      30.522  23.537  26.906  1.00  0.00     0.116 C 
ATOM     14  C   UNL A   1      29.379  22.551  27.118  1.00  0.00     0.027 C 
ENDBRANCH  11  13
BRANCH  11  15
ATOM     15  C   UNL A   1      31.754  21.971  25.408  1.00  0.00     0.116 C 
ATOM     16  C   UNL A   1      33.016  21.713  26.219  1.00  0.00     0.027 C 
ENDBRANCH  11  15
ENDBRANCH   9  10
ENDBRANCH   8   9
BRANCH   8  17
ATOM     17  C   UNL A   1      34.624  24.240  23.905  1.00  0.00     0.038 A 
ATOM     18  C   UNL A   1      35.148  24.478  25.187  1.00  0.00     0.026 A 
ATOM     19  C   UNL A   1      35.331  23.298  23.141  1.00  0.00     0.026 A 
ATOM     20  C   UNL A   1      36.308  23.847  25.662  1.00  0.00     0.002 A 
ATOM     21  C   UNL A   1      36.506  22.679  23.592  1.00  0.00     0.002 A 
ATOM     22  C   UNL A   1      36.999  22.956  24.856  1.00  0.00     0.000 A 
ENDBRANCH   8  17
ENDBRANCH   7   8
ENDBRANCH   4   7
ENDBRANCH   2   3
ENDBRANCH   1   2
BRANCH   1  23
ATOM     23  C   UNL A   1      32.966  29.900  26.842  1.00  0.00     0.002 C 
BRANCH  23  24
ATOM     24  C   UNL A   1      31.575  30.478  26.560  1.00  0.00     0.002 C 
BRANCH  24  25
ATOM     25  C   UNL A   1      31.496  32.006  26.598  1.00  0.00     0.021 C 
BRANCH  25  26
ATOM     26  C   UNL A   1      32.666  32.670  27.315  1.00  0.00     0.116 C 
BRANCH  26  27
ATOM     27  N   UNL A   1      32.410  34.078  27.576  1.00  0.00    -0.352 N 
ATOM     28  C   UNL A   1      32.965  34.899  28.523  1.00  0.00     0.251 C 
ATOM     29  H   UNL A   1      31.743  34.502  26.988  1.00  0.00     0.163 HD
ATOM     30  O   UNL A   1      32.477  36.002  28.757  1.00  0.00    -0.269 OA
BRANCH  28  31
ATOM     31  C   UNL A   1      34.145  34.440  29.283  1.00  0.00     0.039 A 
ATOM     32  C   UNL A   1      33.959  33.836  30.528  1.00  0.00     0.014 A 
ATOM     33  C   UNL A   1      35.431  34.596  28.756  1.00  0.00     0.014 A 
ATOM     34  C   UNL A   1      35.060  33.319  31.214  1.00  0.00     0.010 A 
ATOM     35  C   UNL A   1      36.515  34.015  29.404  1.00  0.00     0.010 A 
ATOM     36  C   UNL A   1      36.340  33.366  30.636  1.00  0.00    -0.014 A 
BRANCH  36  37
ATOM     37  C   UNL A   1      37.508  32.725  31.290  1.00  0.00     0.031 A 
ATOM     38  C   UNL A   1      38.194  31.561  30.633  1.00  0.00     0.074 A 
ATOM     39  C   UNL A   1      37.894  33.138  32.512  1.00  0.00     0.049 A 
ATOM     40  N   UNL A   1      39.159  30.804  31.091  1.00  0.00    -0.248 NA
ATOM     41  C   UNL A   1      37.718  31.182  29.293  1.00  0.00     0.031 C 
ATOM     42  C   UNL A   1      37.282  34.233  33.266  1.00  0.00     0.029 A 
ATOM     43  N   UNL A   1      38.883  32.675  33.343  1.00  0.00    -0.354 N 
ATOM     44  C   UNL A   1      39.394  29.855  30.104  1.00  0.00     0.074 A 
ATOM     45  C   UNL A   1      38.438  30.098  29.046  1.00  0.00     0.031 C 
ATOM     46  C   UNL A   1      37.918  34.368  34.441  1.00  0.00     0.029 A 
ATOM     47  C   UNL A   1      38.949  33.340  34.544  1.00  0.00     0.049 A 
ATOM     48  H   UNL A   1      39.489  31.937  33.102  1.00  0.00     0.167 HD
ATOM     49  C   UNL A   1      40.336  28.883  30.076  1.00  0.00     0.037 A 
ATOM     50  C   UNL A   1      39.736  33.130  35.616  1.00  0.00     0.037 A 
ATOM     51  C   UNL A   1      41.294  28.655  31.128  1.00  0.00     0.049 A 
ATOM     52  C   UNL A   1      40.748  32.016  35.575  1.00  0.00     0.074 A 
ATOM     53  C   UNL A   1      42.326  27.733  31.168  1.00  0.00     0.029 A 
ATOM     54  N   UNL A   1      41.329  29.349  32.328  1.00  0.00    -0.354 N 
ATOM     55  N   UNL A   1      41.009  31.170  34.609  1.00  0.00    -0.248 NA
ATOM     56  C   UNL A   1      41.575  31.827  36.775  1.00  0.00     0.031 C 
ATOM     57  C   UNL A   1      42.947  27.830  32.417  1.00  0.00     0.029 A 
ATOM     58  C   UNL A   1      42.344  28.852  33.131  1.00  0.00     0.049 A 
ATOM     59  H   UNL A   1      40.724  30.086  32.573  1.00  0.00     0.167 HD
ATOM     60  C   UNL A   1      42.046  30.370  35.070  1.00  0.00     0.074 A 
ATOM     61  C   UNL A   1      42.377  30.841  36.399  1.00  0.00     0.031 C 
ATOM     62  C   UNL A   1      42.667  29.337  34.449  1.00  0.00     0.037 A 
BRANCH  49  63
ATOM     63  C   UNL A   1      40.377  27.986  28.872  1.00  0.00     0.064 A 
ATOM     64  C   UNL A   1      39.665  26.778  28.826  1.00  0.00     0.173 A 
ATOM     65  C   UNL A   1      41.103  28.361  27.730  1.00  0.00     0.173 A 
ATOM     66  F   UNL A   1      38.961  26.369  29.892  1.00  0.00    -0.203 F 
ATOM     67  C   UNL A   1      39.704  25.964  27.696  1.00  0.00     0.198 A 
ATOM     68  C   UNL A   1      41.112  27.562  26.590  1.00  0.00     0.198 A 
ATOM     69  F   UNL A   1      41.796  29.510  27.716  1.00  0.00    -0.203 F 
ATOM     70  F   UNL A   1      39.057  24.791  27.696  1.00  0.00    -0.200 F 
ATOM     71  C   UNL A   1      40.420  26.360  26.577  1.00  0.00     0.200 A 
ATOM     72  F   UNL A   1      41.791  27.954  25.503  1.00  0.00    -0.200 F 
ATOM     73  F   UNL A   1      40.447  25.581  25.487  1.00  0.00    -0.200 F 
ENDBRANCH  49  63
BRANCH  50  74
ATOM     74  C   UNL A   1      39.603  33.995  36.818  1.00  0.00     0.064 A 
ATOM     75  C   UNL A   1      40.265  35.229  36.894  1.00  0.00     0.173 A 
ATOM     76  C   UNL A   1      38.822  33.606  37.917  1.00  0.00     0.173 A 
ATOM     77  F   UNL A   1      41.041  35.636  35.878  1.00  0.00    -0.203 F 
ATOM     78  C   UNL A   1      40.169  36.029  38.030  1.00  0.00     0.198 A 
ATOM     79  C   UNL A   1      38.700  34.423  39.039  1.00  0.00     0.198 A 
ATOM     80  F   UNL A   1      38.164  32.438  37.895  1.00  0.00    -0.203 F 
ATOM     81  F   UNL A   1      40.852  37.180  38.096  1.00  0.00    -0.200 F 
ATOM     82  C   UNL A   1      39.382  35.629  39.099  1.00  0.00     0.200 A 
ATOM     83  F   UNL A   1      37.925  34.040  40.063  1.00  0.00    -0.200 F 
ATOM     84  F   UNL A   1      39.286  36.400  40.191  1.00  0.00    -0.200 F 
ENDBRANCH  50  74
BRANCH  62  85
ATOM     85  C   UNL A   1      43.790  28.663  35.183  1.00  0.00     0.064 A 
ATOM     86  C   UNL A   1      43.564  27.578  36.042  1.00  0.00     0.173 A 
ATOM     87  C   UNL A   1      45.117  29.072  34.978  1.00  0.00     0.173 A 
ATOM     88  F   UNL A   1      42.313  27.159  36.286  1.00  0.00    -0.203 F 
ATOM     89  C   UNL A   1      44.622  26.940  36.684  1.00  0.00     0.198 A 
ATOM     90  C   UNL A   1      46.175  28.410  35.595  1.00  0.00     0.198 A 
ATOM     91  F   UNL A   1      45.389  30.100  34.160  1.00  0.00    -0.203 F 
ATOM     92  F   UNL A   1      44.378  25.934  37.535  1.00  0.00    -0.200 F 
ATOM     93  C   UNL A   1      45.927  27.350  36.451  1.00  0.00     0.200 A 
ATOM     94  F   UNL A   1      47.436  28.798  35.355  1.00  0.00    -0.200 F 
ATOM     95  F   UNL A   1      46.945  26.725  37.058  1.00  0.00    -0.200 F 
ENDBRANCH  62  85
ENDBRANCH  36  37
ENDBRANCH  28  31
ENDBRANCH  26  27
ENDBRANCH  25  26
ENDBRANCH  24  25
ENDBRANCH  23  24
ENDBRANCH   1  23
TORSDOF 19
ENDMDL
MODEL 2
REMARK VINA RESULT:     -10.9      1.631      2.710
REMARK SMILES CCN(CC)C(=O)CN(CC(=O)NCCCCCCNC(=O)c1ccc(-c2c3nc(c(-c4c(F)c(F)c(F)c(F)c4F)c4ccc([nH]4)c(-c4c(F)c(F)c(F)c(F)c4F)c4nc(c(-c5c(F)c(F)c(F)c(F)c5F)c5ccc2[nH]5)C=C4)C=C3)cc1)c1ccccc1
REMARK SMILES IDX 15 1 14 2 13 3 11 4 12 5 10 7 9 8 8 9 6 10 3 11 7 12 2 13
REMARK SMILES IDX 1 14 4 15 5 16 86 17 87 18 91 19 88 20 90 21 89 22 16 23
REMARK SMILES IDX 17 24 18 25 19 26 20 27 21 28 22 30 23 31 24 32 85 33 25 34
REMARK SMILES IDX 84 35 26 36 27 37 28 38 78 39 29 40 83 41 77 42 79 43 30 44
REMARK SMILES IDX 82 45 76 46 75 47 31 49 63 50 43 51 62 52 44 53 47 54 61 55
REMARK SMILES IDX 80 56 45 57 46 58 60 60 81 61 48 62 32 63 33 64 41 65 34 66
REMARK SMILES IDX 35 67 39 68 42 69 36 70 37 71 40 72 38 73 64 74 65 75 73 76
REMARK SMILES IDX 66 77 67 78 71 79 74 80 68 81 69 82 72 83 70 84 49 85 50 86
REMARK SMILES IDX 58 87 51 88 52 89 56 90 59 91 53 92 54 93 57 94 55 95
REMARK H PARENT 13 6 20 29 79 48 47 59
REMARK Flexibility Score: inf
ROOT
ATOM      1  C   UNL A   1      32.364  27.437  26.234  1.00  0.00     0.021 C 
ENDROOT
BRANCH   1   2
ATOM      2  C   UNL A   1      31.318  26.351  25.996  1.00  0.00     0.116 C 
BRANCH   2   3
ATOM      3  N   UNL A   1      31.502  25.239  26.894  1.00  0.00    -0.355 N 
ATOM      4  C   UNL A   1      31.813  23.947  26.603  1.00  0.00     0.239 C 
ATOM      5  O   UNL A   1      31.887  23.158  27.552  1.00  0.00    -0.273 OA
ATOM      6  H   UNL A   1      31.386  25.443  27.850  1.00  0.00     0.163 HD
BRANCH   4   7
ATOM      7  C   UNL A   1      32.163  23.505  25.181  1.00  0.00     0.217 C 
BRANCH   7   8
ATOM      8  N   UNL A   1      32.858  22.206  24.993  1.00  0.00    -0.353 N 
BRANCH   8   9
ATOM      9  C   UNL A   1      32.020  20.979  24.963  1.00  0.00     0.217 C 
BRANCH   9  10
ATOM     10  C   UNL A   1      32.277  19.909  23.890  1.00  0.00     0.242 C 
ATOM     11  N   UNL A   1      32.625  18.606  24.228  1.00  0.00    -0.342 N 
ATOM     12  O   UNL A   1      32.214  20.249  22.700  1.00  0.00    -0.273 OA
BRANCH  11  13
ATOM     13  C   UNL A   1      32.691  17.621  23.145  1.00  0.00     0.116 C 
ATOM     14  C   UNL A   1      34.103  17.075  22.964  1.00  0.00     0.027 C 
ENDBRANCH  11  13
BRANCH  11  15
ATOM     15  C   UNL A   1      32.913  18.127  25.576  1.00  0.00     0.116 C 
ATOM     16  C   UNL A   1      32.435  16.700  25.800  1.00  0.00     0.027 C 
ENDBRANCH  11  15
ENDBRANCH   9  10
ENDBRANCH   8   9
BRANCH   8  17
ATOM     17  C   UNL A   1      34.232  22.167  24.763  1.00  0.00     0.038 A 
ATOM     18  C   UNL A   1      34.847  22.936  23.761  1.00  0.00     0.026 A 
ATOM     19  C   UNL A   1      35.103  21.348  25.499  1.00  0.00     0.026 A 
ATOM     20  C   UNL A   1      36.223  22.873  23.491  1.00  0.00     0.002 A 
ATOM     21  C   UNL A   1      36.475  21.254  25.224  1.00  0.00     0.002 A 
ATOM     22  C   UNL A   1      37.038  22.017  24.214  1.00  0.00     0.000 A 
ENDBRANCH   8  17
ENDBRANCH   7   8
ENDBRANCH   4   7
ENDBRANCH   2   3
ENDBRANCH   1   2
BRANCH   1  23
ATOM     23  C   UNL A   1      31.778  28.732  26.811  1.00  0.00     0.002 C 
BRANCH  23  24
ATOM     24  C   UNL A   1      31.888  29.954  25.893  1.00  0.00     0.002 C 
BRANCH  24  25
ATOM     25  C   UNL A   1      31.546  31.288  26.561  1.00  0.00     0.021 C 
BRANCH  25  26
ATOM     26  C   UNL A   1      32.755  32.025  27.129  1.00  0.00     0.116 C 
BRANCH  26  27
ATOM     27  N   UNL A   1      32.467  33.432  27.364  1.00  0.00    -0.352 N 
ATOM     28  C   UNL A   1      32.999  34.281  28.300  1.00  0.00     0.251 C 
ATOM     29  H   UNL A   1      31.794  33.831  26.766  1.00  0.00     0.163 HD
ATOM     30  O   UNL A   1      32.487  35.377  28.512  1.00  0.00    -0.269 OA
BRANCH  28  31
ATOM     31  C   UNL A   1      34.185  33.860  29.073  1.00  0.00     0.039 A 
ATOM     32  C   UNL A   1      34.022  32.975  30.141  1.00  0.00     0.014 A 
ATOM     33  C   UNL A   1      35.456  34.331  28.731  1.00  0.00     0.014 A 
ATOM     34  C   UNL A   1      35.146  32.503  30.821  1.00  0.00     0.010 A 
ATOM     35  C   UNL A   1      36.578  33.802  29.361  1.00  0.00     0.010 A 
ATOM     36  C   UNL A   1      36.434  32.879  30.407  1.00  0.00    -0.014 A 
BRANCH  36  37
ATOM     37  C   UNL A   1      37.648  32.304  31.039  1.00  0.00     0.031 A 
ATOM     38  C   UNL A   1      38.415  31.215  30.344  1.00  0.00     0.074 A 
ATOM     39  C   UNL A   1      38.008  32.706  32.273  1.00  0.00     0.049 A 
ATOM     40  N   UNL A   1      39.434  30.516  30.776  1.00  0.00    -0.248 NA
ATOM     41  C   UNL A   1      37.962  30.845  28.994  1.00  0.00     0.031 C 
ATOM     42  C   UNL A   1      37.320  33.729  33.062  1.00  0.00     0.029 A 
ATOM     43  N   UNL A   1      39.032  32.290  33.087  1.00  0.00    -0.354 N 
ATOM     44  C   UNL A   1      39.733  29.618  29.760  1.00  0.00     0.074 A 
ATOM     45  C   UNL A   1      38.758  29.824  28.712  1.00  0.00     0.031 C 
ATOM     46  C   UNL A   1      37.950  33.873  34.239  1.00  0.00     0.029 A 
ATOM     47  C   UNL A   1      39.053  32.920  34.308  1.00  0.00     0.049 A 
ATOM     48  H   UNL A   1      39.688  31.606  32.822  1.00  0.00     0.167 HD
ATOM     49  C   UNL A   1      40.744  28.718  29.700  1.00  0.00     0.037 A 
ATOM     50  C   UNL A   1      39.857  32.734  35.372  1.00  0.00     0.037 A 
ATOM     51  C   UNL A   1      41.719  28.528  30.742  1.00  0.00     0.049 A 
ATOM     52  C   UNL A   1      40.948  31.699  35.294  1.00  0.00     0.074 A 
ATOM     53  C   UNL A   1      42.816  27.683  30.751  1.00  0.00     0.029 A 
ATOM     54  N   UNL A   1      41.709  29.185  31.963  1.00  0.00    -0.354 N 
ATOM     55  N   UNL A   1      41.266  30.905  34.301  1.00  0.00    -0.248 NA
ATOM     56  C   UNL A   1      41.791  31.533  36.487  1.00  0.00     0.031 C 
ATOM     57  C   UNL A   1      43.433  27.785  32.002  1.00  0.00     0.029 A 
ATOM     58  C   UNL A   1      42.760  28.738  32.749  1.00  0.00     0.049 A 
ATOM     59  H   UNL A   1      41.052  29.867  32.233  1.00  0.00     0.167 HD
ATOM     60  C   UNL A   1      42.360  30.169  34.735  1.00  0.00     0.074 A 
ATOM     61  C   UNL A   1      42.661  30.621  36.078  1.00  0.00     0.031 C 
ATOM     62  C   UNL A   1      43.052  29.204  34.081  1.00  0.00     0.037 A 
BRANCH  49  63
ATOM     63  C   UNL A   1      40.845  27.866  28.467  1.00  0.00     0.064 A 
ATOM     64  C   UNL A   1      41.614  28.257  27.360  1.00  0.00     0.173 A 
ATOM     65  C   UNL A   1      40.201  26.620  28.408  1.00  0.00     0.173 A 
ATOM     66  F   UNL A   1      42.244  29.442  27.361  1.00  0.00    -0.203 F 
ATOM     67  C   UNL A   1      41.708  27.449  26.230  1.00  0.00     0.198 A 
ATOM     68  C   UNL A   1      40.324  25.800  27.290  1.00  0.00     0.198 A 
ATOM     69  F   UNL A   1      39.459  26.192  29.441  1.00  0.00    -0.203 F 
ATOM     70  F   UNL A   1      42.406  27.868  25.166  1.00  0.00    -0.200 F 
ATOM     71  C   UNL A   1      41.070  26.218  26.199  1.00  0.00     0.200 A 
ATOM     72  F   UNL A   1      39.721  24.603  27.268  1.00  0.00    -0.200 F 
ATOM     73  F   UNL A   1      41.171  25.437  25.114  1.00  0.00    -0.200 F 
ENDBRANCH  49  63
BRANCH  50  74
ATOM     74  C   UNL A   1      39.667  33.549  36.601  1.00  0.00     0.064 A 
ATOM     75  C   UNL A   1      38.793  33.130  37.614  1.00  0.00     0.173 A 
ATOM     76  C   UNL A   1      40.345  34.763  36.786  1.00  0.00     0.173 A 
ATOM     77  F   UNL A   1      38.106  31.986  37.475  1.00  0.00    -0.203 F 
ATOM     78  C   UNL A   1      38.587  33.904  38.754  1.00  0.00     0.198 A 
ATOM     79  C   UNL A   1      40.163  35.521  37.942  1.00  0.00     0.198 A 
ATOM     80  F   UNL A   1      41.196  35.209  35.851  1.00  0.00    -0.203 F 
ATOM     81  F   UNL A   1      37.708  33.504  39.683  1.00  0.00    -0.200 F 
ATOM     82  C   UNL A   1      39.276  35.096  38.920  1.00  0.00     0.200 A 
ATOM     83  F   UNL A   1      40.844  36.663  38.105  1.00  0.00    -0.200 F 
ATOM     84  F   UNL A   1      39.082  35.839  40.018  1.00  0.00    -0.200 F 
ENDBRANCH  50  74
BRANCH  62  85
ATOM     85  C   UNL A   1      44.224  28.590  34.791  1.00  0.00     0.064 A 
ATOM     86  C   UNL A   1      44.099  27.409  35.536  1.00  0.00     0.173 A 
ATOM     87  C   UNL A   1      45.501  29.162  34.676  1.00  0.00     0.173 A 
ATOM     88  F   UNL A   1      42.898  26.832  35.692  1.00  0.00    -0.203 F 
ATOM     89  C   UNL A   1      45.206  26.833  36.156  1.00  0.00     0.198 A 
ATOM     90  C   UNL A   1      46.610  28.565  35.269  1.00  0.00     0.198 A 
ATOM     91  F   UNL A   1      45.676  30.288  33.969  1.00  0.00    -0.203 F 
ATOM     92  F   UNL A   1      45.055  25.729  36.900  1.00  0.00    -0.200 F 
ATOM     93  C   UNL A   1      46.461  27.406  36.013  1.00  0.00     0.200 A 
ATOM     94  F   UNL A   1      47.825  29.112  35.115  1.00  0.00    -0.200 F 
ATOM     95  F   UNL A   1      47.527  26.841  36.597  1.00  0.00    -0.200 F 
ENDBRANCH  62  85
ENDBRANCH  36  37
ENDBRANCH  28  31
ENDBRANCH  26  27
ENDBRANCH  25  26
ENDBRANCH  24  25
ENDBRANCH  23  24
ENDBRANCH   1  23
TORSDOF 19
ENDMDL
MODEL 3
REMARK VINA RESULT:     -10.6      1.969      8.123
REMARK SMILES CCN(CC)C(=O)CN(CC(=O)NCCCCCCNC(=O)c1ccc(-c2c3nc(c(-c4c(F)c(F)c(F)c(F)c4F)c4ccc([nH]4)c(-c4c(F)c(F)c(F)c(F)c4F)c4nc(c(-c5c(F)c(F)c(F)c(F)c5F)c5ccc2[nH]5)C=C4)C=C3)cc1)c1ccccc1
REMARK SMILES IDX 15 1 14 2 13 3 11 4 12 5 10 7 9 8 8 9 6 10 3 11 7 12 2 13
REMARK SMILES IDX 1 14 4 15 5 16 86 17 87 18 91 19 88 20 90 21 89 22 16 23
REMARK SMILES IDX 17 24 18 25 19 26 20 27 21 28 22 30 23 31 24 32 85 33 25 34
REMARK SMILES IDX 84 35 26 36 27 37 28 38 78 39 29 40 83 41 77 42 79 43 30 44
REMARK SMILES IDX 82 45 76 46 75 47 31 49 63 50 43 51 62 52 44 53 47 54 61 55
REMARK SMILES IDX 80 56 45 57 46 58 60 60 81 61 48 62 32 63 33 64 41 65 34 66
REMARK SMILES IDX 35 67 39 68 42 69 36 70 37 71 40 72 38 73 64 74 65 75 73 76
REMARK SMILES IDX 66 77 67 78 71 79 74 80 68 81 69 82 72 83 70 84 49 85 50 86
REMARK SMILES IDX 58 87 51 88 52 89 56 90 59 91 53 92 54 93 57 94 55 95
REMARK H PARENT 13 6 20 29 79 48 47 59
REMARK Flexibility Score: inf
ROOT
ATOM      1  C   UNL A   1      34.704  30.966  27.951  1.00  0.00     0.021 C 
ENDROOT
BRANCH   1   2
ATOM      2  C   UNL A   1      33.423  30.531  27.246  1.00  0.00     0.116 C 
BRANCH   2   3
ATOM      3  N   UNL A   1      33.681  30.134  25.885  1.00  0.00    -0.355 N 
ATOM      4  C   UNL A   1      32.834  29.571  24.982  1.00  0.00     0.239 C 
ATOM      5  O   UNL A   1      33.299  29.286  23.873  1.00  0.00    -0.273 OA
ATOM      6  H   UNL A   1      34.599  30.292  25.564  1.00  0.00     0.163 HD
BRANCH   4   7
ATOM      7  C   UNL A   1      31.343  29.394  25.281  1.00  0.00     0.217 C 
BRANCH   7   8
ATOM      8  N   UNL A   1      30.438  29.007  24.168  1.00  0.00    -0.353 N 
BRANCH   8   9
ATOM      9  C   UNL A   1      30.192  27.556  23.960  1.00  0.00     0.217 C 
BRANCH   9  10
ATOM     10  C   UNL A   1      31.050  26.524  24.708  1.00  0.00     0.242 C 
ATOM     11  N   UNL A   1      31.993  25.744  24.048  1.00  0.00    -0.342 N 
ATOM     12  O   UNL A   1      30.848  26.366  25.921  1.00  0.00    -0.273 OA
BRANCH  11  13
ATOM     13  C   UNL A   1      32.872  24.907  24.870  1.00  0.00     0.116 C 
ATOM     14  C   UNL A   1      34.024  25.709  25.463  1.00  0.00     0.027 C 
ENDBRANCH  11  13
BRANCH  11  15
ATOM     15  C   UNL A   1      32.197  25.700  22.605  1.00  0.00     0.116 C 
ATOM     16  C   UNL A   1      33.458  26.434  22.173  1.00  0.00     0.027 C 
ENDBRANCH  11  15
ENDBRANCH   9  10
ENDBRANCH   8   9
BRANCH   8  17
ATOM     17  C   UNL A   1      29.783  29.982  23.419  1.00  0.00     0.038 A 
ATOM     18  C   UNL A   1      29.325  31.183  23.987  1.00  0.00     0.026 A 
ATOM     19  C   UNL A   1      29.514  29.835  22.049  1.00  0.00     0.026 A 
ATOM     20  C   UNL A   1      28.625  32.152  23.253  1.00  0.00     0.002 A 
ATOM     21  C   UNL A   1      28.794  30.783  21.307  1.00  0.00     0.002 A 
ATOM     22  C   UNL A   1      28.344  31.945  21.912  1.00  0.00     0.000 A 
ENDBRANCH   8  17
ENDBRANCH   7   8
ENDBRANCH   4   7
ENDBRANCH   2   3
ENDBRANCH   1   2
BRANCH   1  23
ATOM     23  C   UNL A   1      34.902  32.488  27.972  1.00  0.00     0.002 C 
BRANCH  23  24
ATOM     24  C   UNL A   1      34.286  33.201  29.181  1.00  0.00     0.002 C 
BRANCH  24  25
ATOM     25  C   UNL A   1      33.241  34.263  28.834  1.00  0.00     0.021 C 
BRANCH  25  26
ATOM     26  C   UNL A   1      33.585  35.660  29.337  1.00  0.00     0.116 C 
BRANCH  26  27
ATOM     27  N   UNL A   1      32.687  36.087  30.400  1.00  0.00    -0.352 N 
ATOM     28  C   UNL A   1      32.700  35.756  31.730  1.00  0.00     0.251 C 
ATOM     29  H   UNL A   1      31.968  36.700  30.124  1.00  0.00     0.163 HD
ATOM     30  O   UNL A   1      31.741  36.024  32.449  1.00  0.00    -0.269 OA
BRANCH  28  31
ATOM     31  C   UNL A   1      33.871  35.055  32.294  1.00  0.00     0.039 A 
ATOM     32  C   UNL A   1      33.697  33.791  32.862  1.00  0.00     0.014 A 
ATOM     33  C   UNL A   1      35.139  35.641  32.246  1.00  0.00     0.014 A 
ATOM     34  C   UNL A   1      34.809  33.081  33.317  1.00  0.00     0.010 A 
ATOM     35  C   UNL A   1      36.253  34.903  32.631  1.00  0.00     0.010 A 
ATOM     36  C   UNL A   1      36.100  33.615  33.165  1.00  0.00    -0.014 A 
BRANCH  36  37
ATOM     37  C   UNL A   1      37.308  32.835  33.535  1.00  0.00     0.031 A 
ATOM     38  C   UNL A   1      38.035  33.135  34.815  1.00  0.00     0.074 A 
ATOM     39  C   UNL A   1      37.794  31.917  32.678  1.00  0.00     0.049 A 
ATOM     40  N   UNL A   1      39.161  32.640  35.263  1.00  0.00    -0.248 NA
ATOM     41  C   UNL A   1      37.429  34.144  35.699  1.00  0.00     0.031 C 
ATOM     42  C   UNL A   1      37.196  31.564  31.389  1.00  0.00     0.029 A 
ATOM     43  N   UNL A   1      38.911  31.123  32.754  1.00  0.00    -0.354 N 
ATOM     44  C   UNL A   1      39.404  33.285  36.469  1.00  0.00     0.074 A 
ATOM     45  C   UNL A   1      38.337  34.242  36.659  1.00  0.00     0.031 C 
ATOM     46  C   UNL A   1      37.944  30.615  30.803  1.00  0.00     0.029 A 
ATOM     47  C   UNL A   1      39.097  30.328  31.650  1.00  0.00     0.049 A 
ATOM     48  H   UNL A   1      39.522  31.124  33.527  1.00  0.00     0.167 HD
ATOM     49  C   UNL A   1      40.414  33.079  37.346  1.00  0.00     0.037 A 
ATOM     50  C   UNL A   1      40.097  29.479  31.344  1.00  0.00     0.037 A 
ATOM     51  C   UNL A   1      41.466  32.113  37.156  1.00  0.00     0.049 A 
ATOM     52  C   UNL A   1      41.230  29.299  32.319  1.00  0.00     0.074 A 
ATOM     53  C   UNL A   1      42.502  31.788  38.014  1.00  0.00     0.029 A 
ATOM     54  N   UNL A   1      41.620  31.325  36.025  1.00  0.00    -0.354 N 
ATOM     55  N   UNL A   1      41.412  29.861  33.489  1.00  0.00    -0.248 NA
ATOM     56  C   UNL A   1      42.297  28.366  31.930  1.00  0.00     0.031 C 
ATOM     57  C   UNL A   1      43.317  30.847  37.377  1.00  0.00     0.029 A 
ATOM     58  C   UNL A   1      42.755  30.539  36.148  1.00  0.00     0.049 A 
ATOM     59  H   UNL A   1      41.013  31.323  35.250  1.00  0.00     0.167 HD
ATOM     60  C   UNL A   1      42.594  29.331  33.988  1.00  0.00     0.074 A 
ATOM     61  C   UNL A   1      43.079  28.390  33.000  1.00  0.00     0.031 C 
ATOM     62  C   UNL A   1      43.222  29.601  35.159  1.00  0.00     0.037 A 
BRANCH  49  63
ATOM     63  C   UNL A   1      40.436  33.916  38.593  1.00  0.00     0.064 A 
ATOM     64  C   UNL A   1      41.159  35.117  38.663  1.00  0.00     0.173 A 
ATOM     65  C   UNL A   1      39.687  33.537  39.719  1.00  0.00     0.173 A 
ATOM     66  F   UNL A   1      41.898  35.522  37.619  1.00  0.00    -0.203 F 
ATOM     67  C   UNL A   1      41.159  35.888  39.823  1.00  0.00     0.198 A 
ATOM     68  C   UNL A   1      39.662  34.328  40.864  1.00  0.00     0.198 A 
ATOM     69  F   UNL A   1      38.971  32.403  39.704  1.00  0.00    -0.203 F 
ATOM     70  F   UNL A   1      41.899  37.004  39.882  1.00  0.00    -0.200 F 
ATOM     71  C   UNL A   1      40.404  35.499  40.918  1.00  0.00     0.200 A 
ATOM     72  F   UNL A   1      38.920  33.958  41.916  1.00  0.00    -0.200 F 
ATOM     73  F   UNL A   1      40.397  36.248  42.029  1.00  0.00    -0.200 F 
ENDBRANCH  49  63
BRANCH  50  74
ATOM     74  C   UNL A   1      40.071  28.730  30.060  1.00  0.00     0.064 A 
ATOM     75  C   UNL A   1      39.438  27.482  29.966  1.00  0.00     0.173 A 
ATOM     76  C   UNL A   1      40.682  29.239  28.904  1.00  0.00     0.173 A 
ATOM     77  F   UNL A   1      38.857  26.944  31.049  1.00  0.00    -0.203 F 
ATOM     78  C   UNL A   1      39.437  26.762  28.774  1.00  0.00     0.198 A 
ATOM     79  C   UNL A   1      40.652  28.533  27.703  1.00  0.00     0.198 A 
ATOM     80  F   UNL A   1      41.297  30.429  28.936  1.00  0.00    -0.203 F 
ATOM     81  F   UNL A   1      38.868  25.550  28.726  1.00  0.00    -0.200 F 
ATOM     82  C   UNL A   1      40.039  27.290  27.641  1.00  0.00     0.200 A 
ATOM     83  F   UNL A   1      41.220  29.054  26.607  1.00  0.00    -0.200 F 
ATOM     84  F   UNL A   1      40.034  26.600  26.493  1.00  0.00    -0.200 F 
ENDBRANCH  50  74
BRANCH  62  85
ATOM     85  C   UNL A   1      44.486  28.848  35.456  1.00  0.00     0.064 A 
ATOM     86  C   UNL A   1      44.470  27.611  36.116  1.00  0.00     0.173 A 
ATOM     87  C   UNL A   1      45.726  29.344  35.023  1.00  0.00     0.173 A 
ATOM     88  F   UNL A   1      43.314  27.100  36.566  1.00  0.00    -0.203 F 
ATOM     89  C   UNL A   1      45.649  26.908  36.349  1.00  0.00     0.198 A 
ATOM     90  C   UNL A   1      46.899  28.623  35.228  1.00  0.00     0.198 A 
ATOM     91  F   UNL A   1      45.796  30.520  34.381  1.00  0.00    -0.203 F 
ATOM     92  F   UNL A   1      45.614  25.749  37.022  1.00  0.00    -0.200 F 
ATOM     93  C   UNL A   1      46.860  27.410  35.895  1.00  0.00     0.200 A 
ATOM     94  F   UNL A   1      48.065  29.102  34.773  1.00  0.00    -0.200 F 
ATOM     95  F   UNL A   1      47.992  26.724  36.107  1.00  0.00    -0.200 F 
ENDBRANCH  62  85
ENDBRANCH  36  37
ENDBRANCH  28  31
ENDBRANCH  26  27
ENDBRANCH  25  26
ENDBRANCH  24  25
ENDBRANCH  23  24
ENDBRANCH   1  23
TORSDOF 19
ENDMDL
