MODEL 1
REMARK VINA RESULT:     -12.5      0.000      0.000
REMARK SMILES Cc1ccc(S(=O)(=O)N2C[C@@H](CC(=O)NCCCCCCNC(=O)c3ccc(-c4c5nc(c(-c6c(F)c(F)c(F)c(F)c6F)c6ccc([nH]6)c(-c6c(F)c(F)c(F)c(F)c6F)c6nc(c(-c7c(F)c(F)c(F)c(F)c7F)c7ccc4[nH]7)C=C6)C=C5)cc3)c3ccccc32)c(C)c1
REMARK SMILES IDX 18 1 17 2 16 3 15 4 13 5 14 6 12 8 11 9 9 10 10 11 93 12
REMARK SMILES IDX 88 13 92 14 89 15 91 16 90 17 6 18 7 19 8 20 5 21 1 22 2 23
REMARK SMILES IDX 3 24 96 25 4 26 94 27 95 28 19 29 20 30 21 31 22 32 23 33
REMARK SMILES IDX 24 35 25 36 26 37 87 38 27 39 86 40 28 41 29 42 30 43 80 44
REMARK SMILES IDX 31 45 85 46 79 47 81 48 32 49 84 50 78 51 77 52 33 54 65 55
REMARK SMILES IDX 45 56 64 57 46 58 49 59 63 60 82 61 47 62 48 63 62 65 83 66
REMARK SMILES IDX 50 67 34 68 35 69 43 70 36 71 37 72 41 73 44 74 38 75 39 76
REMARK SMILES IDX 42 77 40 78 66 79 67 80 75 81 68 82 69 83 73 84 76 85 70 86
REMARK SMILES IDX 71 87 74 88 72 89 51 90 52 91 60 92 53 93 54 94 58 95 61 96
REMARK SMILES IDX 55 97 56 98 59 99 57 100
REMARK H PARENT 15 7 22 34 81 53 49 64
REMARK Flexibility Score: inf
ROOT
ATOM      1  C   UNL A   1      34.925  33.040  29.004  1.00  0.00     0.002 C 
ENDROOT
BRANCH   1   2
ATOM      2  C   UNL A   1      35.675  32.124  28.040  1.00  0.00     0.021 C 
BRANCH   2   3
ATOM      3  C   UNL A   1      34.952  30.833  27.663  1.00  0.00     0.116 C 
BRANCH   3   4
ATOM      4  N   UNL A   1      33.562  31.126  27.353  1.00  0.00    -0.356 N 
ATOM      5  C   UNL A   1      32.604  30.303  26.841  1.00  0.00     0.220 C 
ATOM      6  O   UNL A   1      31.593  30.809  26.353  1.00  0.00    -0.275 OA
ATOM      7  H   UNL A   1      33.273  32.048  27.540  1.00  0.00     0.163 HD
BRANCH   5   8
ATOM      8  C   UNL A   1      32.752  28.800  26.934  1.00  0.00     0.110 C 
BRANCH   8   9
ATOM      9  C   UNL A   1      31.700  28.023  26.129  1.00  0.00     0.051 C 
ATOM     10  N   UNL A   1      32.491  25.722  25.983  1.00  0.00    -0.265 N 
ATOM     11  C   UNL A   1      31.530  26.611  26.735  1.00  0.00     0.144 C 
ATOM     12  C   UNL A   1      32.682  26.362  24.708  1.00  0.00     0.055 A 
ATOM     13  C   UNL A   1      32.149  27.653  24.742  1.00  0.00    -0.018 A 
ATOM     14  C   UNL A   1      33.316  25.882  23.574  1.00  0.00     0.027 A 
ATOM     15  C   UNL A   1      32.070  28.409  23.586  1.00  0.00     0.006 A 
ATOM     16  C   UNL A   1      33.307  26.671  22.422  1.00  0.00     0.002 A 
ATOM     17  C   UNL A   1      32.654  27.911  22.418  1.00  0.00     0.000 A 
BRANCH  10  18
ATOM     18  S   UNL A   1      31.992  24.078  25.964  1.00  0.00     0.264 S 
ATOM     19  O   UNL A   1      31.099  23.909  24.838  1.00  0.00    -0.201 OA
ATOM     20  O   UNL A   1      31.576  23.738  27.312  1.00  0.00    -0.201 OA
BRANCH  18  21
ATOM     21  C   UNL A   1      33.472  23.126  25.664  1.00  0.00     0.090 A 
ATOM     22  C   UNL A   1      37.112  20.900  25.056  1.00  0.00     0.044 C 
ATOM     23  C   UNL A   1      35.853  21.693  25.249  1.00  0.00    -0.051 A 
ATOM     24  C   UNL A   1      35.898  23.002  25.731  1.00  0.00     0.005 A 
ATOM     25  C   UNL A   1      34.608  21.101  24.998  1.00  0.00     0.008 A 
ATOM     26  C   UNL A   1      34.718  23.711  25.947  1.00  0.00     0.023 A 
ATOM     27  C   UNL A   1      33.402  21.800  25.195  1.00  0.00    -0.030 A 
ATOM     28  C   UNL A   1      32.127  21.031  24.974  1.00  0.00     0.046 C 
ENDBRANCH  18  21
ENDBRANCH  10  18
ENDBRANCH   8   9
ENDBRANCH   5   8
ENDBRANCH   3   4
ENDBRANCH   2   3
ENDBRANCH   1   2
BRANCH   1  29
ATOM     29  C   UNL A   1      34.597  34.427  28.452  1.00  0.00     0.002 C 
BRANCH  29  30
ATOM     30  C   UNL A   1      33.251  35.014  28.886  1.00  0.00     0.021 C 
BRANCH  30  31
ATOM     31  C   UNL A   1      33.320  36.380  29.567  1.00  0.00     0.116 C 
BRANCH  31  32
ATOM     32  N   UNL A   1      32.460  36.453  30.736  1.00  0.00    -0.352 N 
ATOM     33  C   UNL A   1      32.546  35.793  31.935  1.00  0.00     0.251 C 
ATOM     34  H   UNL A   1      31.698  37.071  30.655  1.00  0.00     0.163 HD
ATOM     35  O   UNL A   1      31.597  35.807  32.713  1.00  0.00    -0.269 OA
BRANCH  33  36
ATOM     36  C   UNL A   1      33.775  35.053  32.296  1.00  0.00     0.039 A 
ATOM     37  C   UNL A   1      33.662  33.731  32.732  1.00  0.00     0.014 A 
ATOM     38  C   UNL A   1      35.028  35.673  32.260  1.00  0.00     0.014 A 
ATOM     39  C   UNL A   1      34.808  33.017  33.090  1.00  0.00     0.010 A 
ATOM     40  C   UNL A   1      36.177  34.936  32.544  1.00  0.00     0.010 A 
ATOM     41  C   UNL A   1      36.077  33.605  32.978  1.00  0.00    -0.014 A 
BRANCH  41  42
ATOM     42  C   UNL A   1      37.307  32.853  33.340  1.00  0.00     0.031 A 
ATOM     43  C   UNL A   1      38.027  33.156  34.626  1.00  0.00     0.074 A 
ATOM     44  C   UNL A   1      37.803  31.929  32.494  1.00  0.00     0.049 A 
ATOM     45  N   UNL A   1      39.140  32.647  35.094  1.00  0.00    -0.248 NA
ATOM     46  C   UNL A   1      37.429  34.185  35.492  1.00  0.00     0.031 C 
ATOM     47  C   UNL A   1      37.220  31.570  31.201  1.00  0.00     0.029 A 
ATOM     48  N   UNL A   1      38.914  31.130  32.592  1.00  0.00    -0.354 N 
ATOM     49  C   UNL A   1      39.381  33.303  36.295  1.00  0.00     0.074 A 
ATOM     50  C   UNL A   1      38.330  34.286  36.457  1.00  0.00     0.031 C 
ATOM     51  C   UNL A   1      37.964  30.606  30.636  1.00  0.00     0.029 A 
ATOM     52  C   UNL A   1      39.098  30.307  31.506  1.00  0.00     0.049 A 
ATOM     53  H   UNL A   1      39.522  31.143  33.365  1.00  0.00     0.167 HD
ATOM     54  C   UNL A   1      40.371  33.089  37.194  1.00  0.00     0.037 A 
ATOM     55  C   UNL A   1      40.074  29.418  31.241  1.00  0.00     0.037 A 
ATOM     56  C   UNL A   1      41.404  32.097  37.040  1.00  0.00     0.049 A 
ATOM     57  C   UNL A   1      41.172  29.208  32.250  1.00  0.00     0.074 A 
ATOM     58  C   UNL A   1      42.425  31.771  37.915  1.00  0.00     0.029 A 
ATOM     59  N   UNL A   1      41.549  31.273  35.933  1.00  0.00    -0.354 N 
ATOM     60  N   UNL A   1      41.354  29.791  33.411  1.00  0.00    -0.248 NA
ATOM     61  C   UNL A   1      42.194  28.207  31.917  1.00  0.00     0.031 C 
ATOM     62  C   UNL A   1      43.219  30.788  37.315  1.00  0.00     0.029 A 
ATOM     63  C   UNL A   1      42.655  30.454  36.094  1.00  0.00     0.049 A 
ATOM     64  H   UNL A   1      40.953  31.270  35.149  1.00  0.00     0.167 HD
ATOM     65  C   UNL A   1      42.484  29.201  33.961  1.00  0.00     0.074 A 
ATOM     66  C   UNL A   1      42.940  28.207  33.012  1.00  0.00     0.031 C 
ATOM     67  C   UNL A   1      43.089  29.458  35.148  1.00  0.00     0.037 A 
BRANCH  54  68
ATOM     68  C   UNL A   1      40.387  33.947  38.429  1.00  0.00     0.064 A 
ATOM     69  C   UNL A   1      41.107  35.151  38.481  1.00  0.00     0.173 A 
ATOM     70  C   UNL A   1      39.647  33.578  39.562  1.00  0.00     0.173 A 
ATOM     71  F   UNL A   1      41.840  35.547  37.430  1.00  0.00    -0.203 F 
ATOM     72  C   UNL A   1      41.113  35.934  39.633  1.00  0.00     0.198 A 
ATOM     73  C   UNL A   1      39.626  34.382  40.699  1.00  0.00     0.198 A 
ATOM     74  F   UNL A   1      38.934  32.441  39.566  1.00  0.00    -0.203 F 
ATOM     75  F   UNL A   1      41.853  37.051  39.678  1.00  0.00    -0.200 F 
ATOM     76  C   UNL A   1      40.367  35.553  40.738  1.00  0.00     0.200 A 
ATOM     77  F   UNL A   1      38.892  34.021  41.761  1.00  0.00    -0.200 F 
ATOM     78  F   UNL A   1      40.367  36.313  41.842  1.00  0.00    -0.200 F 
ENDBRANCH  54  68
BRANCH  55  79
ATOM     79  C   UNL A   1      40.047  28.637  29.975  1.00  0.00     0.064 A 
ATOM     80  C   UNL A   1      39.440  27.375  29.919  1.00  0.00     0.173 A 
ATOM     81  C   UNL A   1      40.638  29.129  28.802  1.00  0.00     0.173 A 
ATOM     82  F   UNL A   1      38.880  26.853  31.020  1.00  0.00    -0.203 F 
ATOM     83  C   UNL A   1      39.449  26.622  28.747  1.00  0.00     0.198 A 
ATOM     84  C   UNL A   1      40.617  28.389  27.620  1.00  0.00     0.198 A 
ATOM     85  F   UNL A   1      41.226  30.335  28.799  1.00  0.00    -0.203 F 
ATOM     86  F   UNL A   1      38.910  25.396  28.736  1.00  0.00    -0.200 F 
ATOM     87  C   UNL A   1      40.033  27.133  27.597  1.00  0.00     0.200 A 
ATOM     88  F   UNL A   1      41.168  28.894  26.508  1.00  0.00    -0.200 F 
ATOM     89  F   UNL A   1      40.040  26.410  26.469  1.00  0.00    -0.200 F 
ENDBRANCH  55  79
BRANCH  67  90
ATOM     90  C   UNL A   1      44.276  28.612  35.515  1.00  0.00     0.064 A 
ATOM     91  C   UNL A   1      44.143  27.419  36.241  1.00  0.00     0.173 A 
ATOM     92  C   UNL A   1      45.565  28.990  35.108  1.00  0.00     0.173 A 
ATOM     93  F   UNL A   1      42.935  27.018  36.667  1.00  0.00    -0.203 F 
ATOM     94  C   UNL A   1      45.258  26.655  36.574  1.00  0.00     0.198 A 
ATOM     95  C   UNL A   1      46.673  28.205  35.411  1.00  0.00     0.198 A 
ATOM     96  F   UNL A   1      45.749  30.118  34.404  1.00  0.00    -0.203 F 
ATOM     97  F   UNL A   1      45.113  25.550  37.319  1.00  0.00    -0.200 F 
ATOM     98  C   UNL A   1      46.521  27.044  36.152  1.00  0.00     0.200 A 
ATOM     99  F   UNL A   1      47.890  28.575  34.988  1.00  0.00    -0.200 F 
ATOM    100  F   UNL A   1      47.593  26.305  36.469  1.00  0.00    -0.200 F 
ENDBRANCH  67  90
ENDBRANCH  41  42
ENDBRANCH  33  36
ENDBRANCH  31  32
ENDBRANCH  30  31
ENDBRANCH  29  30
ENDBRANCH   1  29
TORSDOF 16
ENDMDL
MODEL 2
REMARK VINA RESULT:     -12.4      6.598     12.400
REMARK SMILES Cc1ccc(S(=O)(=O)N2C[C@@H](CC(=O)NCCCCCCNC(=O)c3ccc(-c4c5nc(c(-c6c(F)c(F)c(F)c(F)c6F)c6ccc([nH]6)c(-c6c(F)c(F)c(F)c(F)c6F)c6nc(c(-c7c(F)c(F)c(F)c(F)c7F)c7ccc4[nH]7)C=C6)C=C5)cc3)c3ccccc32)c(C)c1
REMARK SMILES IDX 18 1 17 2 16 3 15 4 13 5 14 6 12 8 11 9 9 10 10 11 93 12
REMARK SMILES IDX 88 13 92 14 89 15 91 16 90 17 6 18 7 19 8 20 5 21 1 22 2 23
REMARK SMILES IDX 3 24 96 25 4 26 94 27 95 28 19 29 20 30 21 31 22 32 23 33
REMARK SMILES IDX 24 35 25 36 26 37 87 38 27 39 86 40 28 41 29 42 30 43 80 44
REMARK SMILES IDX 31 45 85 46 79 47 81 48 32 49 84 50 78 51 77 52 33 54 65 55
REMARK SMILES IDX 45 56 64 57 46 58 49 59 63 60 82 61 47 62 48 63 62 65 83 66
REMARK SMILES IDX 50 67 34 68 35 69 43 70 36 71 37 72 41 73 44 74 38 75 39 76
REMARK SMILES IDX 42 77 40 78 66 79 67 80 75 81 68 82 69 83 73 84 76 85 70 86
REMARK SMILES IDX 71 87 74 88 72 89 51 90 52 91 60 92 53 93 54 94 58 95 61 96
REMARK SMILES IDX 55 97 56 98 59 99 57 100
REMARK H PARENT 15 7 22 34 81 53 49 64
REMARK Flexibility Score: inf
ROOT
ATOM      1  C   UNL A   1      40.873  21.121  27.459  1.00  0.00     0.002 C 
ENDROOT
BRANCH   1   2
ATOM      2  C   UNL A   1      40.431  22.579  27.559  1.00  0.00     0.021 C 
BRANCH   2   3
ATOM      3  C   UNL A   1      39.390  23.022  26.535  1.00  0.00     0.116 C 
BRANCH   3   4
ATOM      4  N   UNL A   1      39.020  21.894  25.696  1.00  0.00    -0.356 N 
ATOM      5  C   UNL A   1      37.792  21.541  25.223  1.00  0.00     0.220 C 
ATOM      6  O   UNL A   1      37.629  20.393  24.806  1.00  0.00    -0.275 OA
ATOM      7  H   UNL A   1      39.762  21.302  25.433  1.00  0.00     0.163 HD
BRANCH   5   8
ATOM      8  C   UNL A   1      36.674  22.558  25.151  1.00  0.00     0.110 C 
BRANCH   8   9
ATOM      9  C   UNL A   1      35.698  22.324  23.988  1.00  0.00     0.051 C 
ATOM     10  N   UNL A   1      34.066  24.133  24.071  1.00  0.00    -0.265 N 
ATOM     11  C   UNL A   1      35.317  23.682  23.356  1.00  0.00     0.144 C 
ATOM     12  C   UNL A   1      33.448  22.926  24.552  1.00  0.00     0.055 A 
ATOM     13  C   UNL A   1      34.337  21.856  24.425  1.00  0.00    -0.018 A 
ATOM     14  C   UNL A   1      32.193  22.748  25.111  1.00  0.00     0.027 A 
ATOM     15  C   UNL A   1      33.916  20.561  24.672  1.00  0.00     0.006 A 
ATOM     16  C   UNL A   1      31.786  21.451  25.434  1.00  0.00     0.002 A 
ATOM     17  C   UNL A   1      32.629  20.360  25.181  1.00  0.00     0.000 A 
BRANCH  10  18
ATOM     18  S   UNL A   1      33.097  25.178  23.111  1.00  0.00     0.264 S 
ATOM     19  O   UNL A   1      31.880  24.464  22.788  1.00  0.00    -0.201 OA
ATOM     20  O   UNL A   1      33.950  25.722  22.071  1.00  0.00    -0.201 OA
BRANCH  18  21
ATOM     21  C   UNL A   1      32.685  26.559  24.164  1.00  0.00     0.090 A 
ATOM     22  C   UNL A   1      31.832  29.898  26.753  1.00  0.00     0.044 C 
ATOM     23  C   UNL A   1      32.121  28.719  25.872  1.00  0.00    -0.051 A 
ATOM     24  C   UNL A   1      33.094  27.782  26.224  1.00  0.00     0.005 A 
ATOM     25  C   UNL A   1      31.450  28.578  24.649  1.00  0.00     0.008 A 
ATOM     26  C   UNL A   1      33.382  26.716  25.374  1.00  0.00     0.023 A 
ATOM     27  C   UNL A   1      31.713  27.502  23.779  1.00  0.00    -0.030 A 
ATOM     28  C   UNL A   1      30.991  27.506  22.458  1.00  0.00     0.046 C 
ENDBRANCH  18  21
ENDBRANCH  10  18
ENDBRANCH   8   9
ENDBRANCH   5   8
ENDBRANCH   3   4
ENDBRANCH   2   3
ENDBRANCH   1   2
BRANCH   1  29
ATOM     29  C   UNL A   1      42.103  20.879  26.585  1.00  0.00     0.002 C 
BRANCH  29  30
ATOM     30  C   UNL A   1      42.138  19.539  25.844  1.00  0.00     0.021 C 
BRANCH  30  31
ATOM     31  C   UNL A   1      43.393  18.697  26.070  1.00  0.00     0.116 C 
BRANCH  31  32
ATOM     32  N   UNL A   1      44.166  18.528  24.852  1.00  0.00    -0.352 N 
ATOM     33  C   UNL A   1      44.785  19.465  24.065  1.00  0.00     0.251 C 
ATOM     34  H   UNL A   1      44.260  17.598  24.544  1.00  0.00     0.163 HD
ATOM     35  O   UNL A   1      45.192  19.158  22.949  1.00  0.00    -0.269 OA
BRANCH  33  36
ATOM     36  C   UNL A   1      44.959  20.852  24.549  1.00  0.00     0.039 A 
ATOM     37  C   UNL A   1      44.486  21.905  23.761  1.00  0.00     0.014 A 
ATOM     38  C   UNL A   1      45.634  21.121  25.743  1.00  0.00     0.014 A 
ATOM     39  C   UNL A   1      44.651  23.223  24.192  1.00  0.00     0.010 A 
ATOM     40  C   UNL A   1      45.730  22.431  26.209  1.00  0.00     0.010 A 
ATOM     41  C   UNL A   1      45.254  23.498  25.430  1.00  0.00    -0.014 A 
BRANCH  41  42
ATOM     42  C   UNL A   1      45.422  24.894  25.909  1.00  0.00     0.031 A 
ATOM     43  C   UNL A   1      46.772  25.556  25.850  1.00  0.00     0.074 A 
ATOM     44  C   UNL A   1      44.373  25.553  26.438  1.00  0.00     0.049 A 
ATOM     45  N   UNL A   1      47.133  26.745  26.266  1.00  0.00    -0.248 NA
ATOM     46  C   UNL A   1      47.870  24.768  25.269  1.00  0.00     0.031 C 
ATOM     47  C   UNL A   1      43.022  25.010  26.586  1.00  0.00     0.029 A 
ATOM     48  N   UNL A   1      44.281  26.821  26.957  1.00  0.00    -0.354 N 
ATOM     49  C   UNL A   1      48.495  26.839  26.010  1.00  0.00     0.074 A 
ATOM     50  C   UNL A   1      48.909  25.567  25.456  1.00  0.00     0.031 C 
ATOM     51  C   UNL A   1      42.231  25.945  27.135  1.00  0.00     0.029 A 
ATOM     52  C   UNL A   1      43.025  27.138  27.415  1.00  0.00     0.049 A 
ATOM     53  H   UNL A   1      45.041  27.444  26.998  1.00  0.00     0.167 HD
ATOM     54  C   UNL A   1      49.321  27.897  26.194  1.00  0.00     0.037 A 
ATOM     55  C   UNL A   1      42.568  28.262  28.002  1.00  0.00     0.037 A 
ATOM     56  C   UNL A   1      48.903  29.168  26.727  1.00  0.00     0.049 A 
ATOM     57  C   UNL A   1      43.510  29.418  28.208  1.00  0.00     0.074 A 
ATOM     58  C   UNL A   1      49.652  30.317  26.909  1.00  0.00     0.029 A 
ATOM     59  N   UNL A   1      47.619  29.456  27.167  1.00  0.00    -0.354 N 
ATOM     60  N   UNL A   1      44.782  29.517  27.904  1.00  0.00    -0.248 NA
ATOM     61  C   UNL A   1      42.948  30.625  28.828  1.00  0.00     0.031 C 
ATOM     62  C   UNL A   1      48.837  31.281  27.509  1.00  0.00     0.029 A 
ATOM     63  C   UNL A   1      47.561  30.757  27.640  1.00  0.00     0.049 A 
ATOM     64  H   UNL A   1      46.860  28.828  27.145  1.00  0.00     0.167 HD
ATOM     65  C   UNL A   1      45.160  30.805  28.260  1.00  0.00     0.074 A 
ATOM     66  C   UNL A   1      43.981  31.454  28.791  1.00  0.00     0.031 C 
ATOM     67  C   UNL A   1      46.376  31.397  28.153  1.00  0.00     0.037 A 
BRANCH  54  68
ATOM     68  C   UNL A   1      50.767  27.724  25.818  1.00  0.00     0.064 A 
ATOM     69  C   UNL A   1      51.213  27.901  24.499  1.00  0.00     0.173 A 
ATOM     70  C   UNL A   1      51.724  27.411  26.795  1.00  0.00     0.173 A 
ATOM     71  F   UNL A   1      50.339  28.192  23.523  1.00  0.00    -0.203 F 
ATOM     72  C   UNL A   1      52.556  27.736  24.166  1.00  0.00     0.198 A 
ATOM     73  C   UNL A   1      53.071  27.282  26.466  1.00  0.00     0.198 A 
ATOM     74  F   UNL A   1      51.355  27.237  28.074  1.00  0.00    -0.203 F 
ATOM     75  F   UNL A   1      52.947  27.855  22.891  1.00  0.00    -0.200 F 
ATOM     76  C   UNL A   1      53.484  27.434  25.151  1.00  0.00     0.200 A 
ATOM     77  F   UNL A   1      53.970  27.006  27.421  1.00  0.00    -0.200 F 
ATOM     78  F   UNL A   1      54.777  27.285  24.831  1.00  0.00    -0.200 F 
ENDBRANCH  54  68
BRANCH  55  79
ATOM     79  C   UNL A   1      41.142  28.360  28.413  1.00  0.00     0.064 A 
ATOM     80  C   UNL A   1      40.175  28.886  27.545  1.00  0.00     0.173 A 
ATOM     81  C   UNL A   1      40.720  27.945  29.684  1.00  0.00     0.173 A 
ATOM     82  F   UNL A   1      40.534  29.316  26.326  1.00  0.00    -0.203 F 
ATOM     83  C   UNL A   1      38.846  29.020  27.941  1.00  0.00     0.198 A 
ATOM     84  C   UNL A   1      39.383  28.048  30.068  1.00  0.00     0.198 A 
ATOM     85  F   UNL A   1      41.602  27.428  30.551  1.00  0.00    -0.203 F 
ATOM     86  F   UNL A   1      37.954  29.576  27.111  1.00  0.00    -0.200 F 
ATOM     87  C   UNL A   1      38.451  28.595  29.201  1.00  0.00     0.200 A 
ATOM     88  F   UNL A   1      39.003  27.621  31.280  1.00  0.00    -0.200 F 
ATOM     89  F   UNL A   1      37.172  28.721  29.582  1.00  0.00    -0.200 F 
ENDBRANCH  55  79
BRANCH  67  90
ATOM     90  C   UNL A   1      46.481  32.838  28.564  1.00  0.00     0.064 A 
ATOM     91  C   UNL A   1      46.822  33.215  29.872  1.00  0.00     0.173 A 
ATOM     92  C   UNL A   1      46.264  33.858  27.625  1.00  0.00     0.173 A 
ATOM     93  F   UNL A   1      47.027  32.281  30.814  1.00  0.00    -0.203 F 
ATOM     94  C   UNL A   1      46.908  34.558  30.231  1.00  0.00     0.198 A 
ATOM     95  C   UNL A   1      46.386  35.199  27.978  1.00  0.00     0.198 A 
ATOM     96  F   UNL A   1      45.943  33.554  26.358  1.00  0.00    -0.203 F 
ATOM     97  F   UNL A   1      47.177  34.894  31.500  1.00  0.00    -0.200 F 
ATOM     98  C   UNL A   1      46.698  35.548  29.282  1.00  0.00     0.200 A 
ATOM     99  F   UNL A   1      46.200  36.153  27.055  1.00  0.00    -0.200 F 
ATOM    100  F   UNL A   1      46.787  36.840  29.629  1.00  0.00    -0.200 F 
ENDBRANCH  67  90
ENDBRANCH  41  42
ENDBRANCH  33  36
ENDBRANCH  31  32
ENDBRANCH  30  31
ENDBRANCH  29  30
ENDBRANCH   1  29
TORSDOF 16
ENDMDL
MODEL 3
REMARK VINA RESULT:     -12.1      1.914      3.134
REMARK SMILES Cc1ccc(S(=O)(=O)N2C[C@@H](CC(=O)NCCCCCCNC(=O)c3ccc(-c4c5nc(c(-c6c(F)c(F)c(F)c(F)c6F)c6ccc([nH]6)c(-c6c(F)c(F)c(F)c(F)c6F)c6nc(c(-c7c(F)c(F)c(F)c(F)c7F)c7ccc4[nH]7)C=C6)C=C5)cc3)c3ccccc32)c(C)c1
REMARK SMILES IDX 18 1 17 2 16 3 15 4 13 5 14 6 12 8 11 9 9 10 10 11 93 12
REMARK SMILES IDX 88 13 92 14 89 15 91 16 90 17 6 18 7 19 8 20 5 21 1 22 2 23
REMARK SMILES IDX 3 24 96 25 4 26 94 27 95 28 19 29 20 30 21 31 22 32 23 33
REMARK SMILES IDX 24 35 25 36 26 37 87 38 27 39 86 40 28 41 29 42 30 43 80 44
REMARK SMILES IDX 31 45 85 46 79 47 81 48 32 49 84 50 78 51 77 52 33 54 65 55
REMARK SMILES IDX 45 56 64 57 46 58 49 59 63 60 82 61 47 62 48 63 62 65 83 66
REMARK SMILES IDX 50 67 34 68 35 69 43 70 36 71 37 72 41 73 44 74 38 75 39 76
REMARK SMILES IDX 42 77 40 78 66 79 67 80 75 81 68 82 69 83 73 84 76 85 70 86
REMARK SMILES IDX 71 87 74 88 72 89 51 90 52 91 60 92 53 93 54 94 58 95 61 96
REMARK SMILES IDX 55 97 56 98 59 99 57 100
REMARK H PARENT 15 7 22 34 81 53 49 64
REMARK Flexibility Score: inf
ROOT
ATOM      1  C   UNL A   1      31.047  30.181  24.892  1.00  0.00     0.002 C 
ENDROOT
BRANCH   1   2
ATOM      2  C   UNL A   1      30.258  29.608  23.718  1.00  0.00     0.021 C 
BRANCH   2   3
ATOM      3  C   UNL A   1      30.956  28.500  22.934  1.00  0.00     0.116 C 
BRANCH   3   4
ATOM      4  N   UNL A   1      32.290  28.936  22.558  1.00  0.00    -0.356 N 
ATOM      5  C   UNL A   1      33.482  28.296  22.721  1.00  0.00     0.220 C 
ATOM      6  O   UNL A   1      34.521  28.952  22.635  1.00  0.00    -0.275 OA
ATOM      7  H   UNL A   1      32.340  29.818  22.124  1.00  0.00     0.163 HD
BRANCH   5   8
ATOM      8  C   UNL A   1      33.527  26.799  22.936  1.00  0.00     0.110 C 
BRANCH   8   9
ATOM      9  C   UNL A   1      34.153  26.383  24.276  1.00  0.00     0.051 C 
ATOM     10  N   UNL A   1      32.503  25.002  25.421  1.00  0.00    -0.265 N 
ATOM     11  C   UNL A   1      33.764  24.921  24.594  1.00  0.00     0.144 C 
ATOM     12  C   UNL A   1      32.543  26.296  26.048  1.00  0.00     0.055 A 
ATOM     13  C   UNL A   1      33.549  27.073  25.468  1.00  0.00    -0.018 A 
ATOM     14  C   UNL A   1      31.732  26.810  27.047  1.00  0.00     0.027 A 
ATOM     15  C   UNL A   1      33.886  28.301  26.009  1.00  0.00     0.006 A 
ATOM     16  C   UNL A   1      32.020  28.081  27.550  1.00  0.00     0.002 A 
ATOM     17  C   UNL A   1      33.114  28.806  27.059  1.00  0.00     0.000 A 
BRANCH  10  18
ATOM     18  S   UNL A   1      32.302  23.641  26.450  1.00  0.00     0.264 S 
ATOM     19  O   UNL A   1      30.973  23.721  27.019  1.00  0.00    -0.201 OA
ATOM     20  O   UNL A   1      33.479  23.562  27.295  1.00  0.00    -0.201 OA
BRANCH  18  21
ATOM     21  C   UNL A   1      32.380  22.212  25.384  1.00  0.00     0.090 A 
ATOM     22  C   UNL A   1      32.565  18.672  22.931  1.00  0.00     0.044 C 
ATOM     23  C   UNL A   1      32.527  19.905  23.784  1.00  0.00    -0.051 A 
ATOM     24  C   UNL A   1      33.100  19.913  25.057  1.00  0.00     0.005 A 
ATOM     25  C   UNL A   1      31.862  21.052  23.329  1.00  0.00     0.008 A 
ATOM     26  C   UNL A   1      33.019  21.053  25.856  1.00  0.00     0.023 A 
ATOM     27  C   UNL A   1      31.778  22.220  24.111  1.00  0.00    -0.030 A 
ATOM     28  C   UNL A   1      30.965  23.355  23.550  1.00  0.00     0.046 C 
ENDBRANCH  18  21
ENDBRANCH  10  18
ENDBRANCH   8   9
ENDBRANCH   5   8
ENDBRANCH   3   4
ENDBRANCH   2   3
ENDBRANCH   1   2
BRANCH   1  29
ATOM     29  C   UNL A   1      30.617  31.578  25.337  1.00  0.00     0.002 C 
BRANCH  29  30
ATOM     30  C   UNL A   1      31.033  31.982  26.755  1.00  0.00     0.021 C 
BRANCH  30  31
ATOM     31  C   UNL A   1      32.448  32.545  26.887  1.00  0.00     0.116 C 
BRANCH  31  32
ATOM     32  N   UNL A   1      32.448  33.920  27.355  1.00  0.00    -0.352 N 
ATOM     33  C   UNL A   1      33.158  34.504  28.373  1.00  0.00     0.251 C 
ATOM     34  H   UNL A   1      31.847  34.527  26.865  1.00  0.00     0.163 HD
ATOM     35  O   UNL A   1      32.852  35.623  28.771  1.00  0.00    -0.269 OA
BRANCH  33  36
ATOM     36  C   UNL A   1      34.287  33.787  29.004  1.00  0.00     0.039 A 
ATOM     37  C   UNL A   1      35.591  34.205  28.724  1.00  0.00     0.014 A 
ATOM     38  C   UNL A   1      34.071  32.676  29.823  1.00  0.00     0.014 A 
ATOM     39  C   UNL A   1      36.674  33.536  29.299  1.00  0.00     0.010 A 
ATOM     40  C   UNL A   1      35.148  32.057  30.457  1.00  0.00     0.010 A 
ATOM     41  C   UNL A   1      36.462  32.471  30.188  1.00  0.00    -0.014 A 
BRANCH  41  42
ATOM     42  C   UNL A   1      37.603  31.759  30.821  1.00  0.00     0.031 A 
ATOM     43  C   UNL A   1      38.018  32.097  32.227  1.00  0.00     0.074 A 
ATOM     44  C   UNL A   1      38.294  30.841  30.118  1.00  0.00     0.049 A 
ATOM     45  N   UNL A   1      39.016  31.627  32.934  1.00  0.00    -0.248 NA
ATOM     46  C   UNL A   1      37.220  33.118  32.925  1.00  0.00     0.031 C 
ATOM     47  C   UNL A   1      38.015  30.450  28.736  1.00  0.00     0.029 A 
ATOM     48  N   UNL A   1      39.378  30.075  30.469  1.00  0.00    -0.354 N 
ATOM     49  C   UNL A   1      38.973  32.303  34.147  1.00  0.00     0.074 A 
ATOM     50  C   UNL A   1      37.887  33.256  34.060  1.00  0.00     0.031 C 
ATOM     51  C   UNL A   1      38.890  29.502  28.363  1.00  0.00     0.029 A 
ATOM     52  C   UNL A   1      39.814  29.245  29.463  1.00  0.00     0.049 A 
ATOM     53  H   UNL A   1      39.803  30.115  31.355  1.00  0.00     0.167 HD
ATOM     54  C   UNL A   1      39.749  32.127  35.243  1.00  0.00     0.037 A 
ATOM     55  C   UNL A   1      40.848  28.382  29.432  1.00  0.00     0.037 A 
ATOM     56  C   UNL A   1      40.817  31.164  35.334  1.00  0.00     0.049 A 
ATOM     57  C   UNL A   1      41.705  28.216  30.658  1.00  0.00     0.074 A 
ATOM     58  C   UNL A   1      41.631  30.878  36.415  1.00  0.00     0.029 A 
ATOM     59  N   UNL A   1      41.219  30.333  34.299  1.00  0.00    -0.354 N 
ATOM     60  N   UNL A   1      41.615  28.817  31.821  1.00  0.00    -0.248 NA
ATOM     61  C   UNL A   1      42.801  27.242  30.572  1.00  0.00     0.031 C 
ATOM     62  C   UNL A   1      42.561  29.912  36.018  1.00  0.00     0.029 A 
ATOM     63  C   UNL A   1      42.285  29.548  34.710  1.00  0.00     0.049 A 
ATOM     64  H   UNL A   1      40.809  30.304  33.404  1.00  0.00     0.167 HD
ATOM     65  C   UNL A   1      42.614  28.266  32.613  1.00  0.00     0.074 A 
ATOM     66  C   UNL A   1      43.290  27.276  31.803  1.00  0.00     0.031 C 
ATOM     67  C   UNL A   1      42.940  28.554  33.898  1.00  0.00     0.037 A 
BRANCH  54  68
ATOM     68  C   UNL A   1      39.475  33.000  36.437  1.00  0.00     0.064 A 
ATOM     69  C   UNL A   1      40.135  34.224  36.624  1.00  0.00     0.173 A 
ATOM     70  C   UNL A   1      38.514  32.623  37.388  1.00  0.00     0.173 A 
ATOM     71  F   UNL A   1      41.071  34.627  35.751  1.00  0.00    -0.203 F 
ATOM     72  C   UNL A   1      39.871  35.020  37.736  1.00  0.00     0.198 A 
ATOM     73  C   UNL A   1      38.226  33.439  38.479  1.00  0.00     0.198 A 
ATOM     74  F   UNL A   1      37.845  31.467  37.255  1.00  0.00    -0.203 F 
ATOM     75  F   UNL A   1      40.556  36.156  37.922  1.00  0.00    -0.200 F 
ATOM     76  C   UNL A   1      38.912  34.631  38.658  1.00  0.00     0.200 A 
ATOM     77  F   UNL A   1      37.287  33.069  39.361  1.00  0.00    -0.200 F 
ATOM     78  F   UNL A   1      38.652  35.402  39.723  1.00  0.00    -0.200 F 
ENDBRANCH  54  68
BRANCH  55  79
ATOM     79  C   UNL A   1      41.117  27.587  28.204  1.00  0.00     0.064 A 
ATOM     80  C   UNL A   1      40.554  26.315  28.030  1.00  0.00     0.173 A 
ATOM     81  C   UNL A   1      41.951  28.074  27.187  1.00  0.00     0.173 A 
ATOM     82  F   UNL A   1      39.766  25.797  28.984  1.00  0.00    -0.203 F 
ATOM     83  C   UNL A   1      40.836  25.549  26.902  1.00  0.00     0.198 A 
ATOM     84  C   UNL A   1      42.206  27.321  26.042  1.00  0.00     0.198 A 
ATOM     85  F   UNL A   1      42.510  29.288  27.299  1.00  0.00    -0.203 F 
ATOM     86  F   UNL A   1      40.328  24.314  26.788  1.00  0.00    -0.200 F 
ATOM     87  C   UNL A   1      41.658  26.055  25.906  1.00  0.00     0.200 A 
ATOM     88  F   UNL A   1      42.988  27.821  25.075  1.00  0.00    -0.200 F 
ATOM     89  F   UNL A   1      41.928  25.320  24.819  1.00  0.00    -0.200 F 
ENDBRANCH  55  79
BRANCH  67  90
ATOM     90  C   UNL A   1      44.040  27.748  34.529  1.00  0.00     0.064 A 
ATOM     91  C   UNL A   1      43.792  26.525  35.171  1.00  0.00     0.173 A 
ATOM     92  C   UNL A   1      45.369  28.194  34.462  1.00  0.00     0.173 A 
ATOM     93  F   UNL A   1      42.537  26.059  35.276  1.00  0.00    -0.203 F 
ATOM     94  C   UNL A   1      44.827  25.799  35.753  1.00  0.00     0.198 A 
ATOM     95  C   UNL A   1      46.407  27.447  35.012  1.00  0.00     0.198 A 
ATOM     96  F   UNL A   1      45.665  29.352  33.851  1.00  0.00    -0.203 F 
ATOM     97  F   UNL A   1      44.558  24.664  36.413  1.00  0.00    -0.200 F 
ATOM     98  C   UNL A   1      46.134  26.256  35.666  1.00  0.00     0.200 A 
ATOM     99  F   UNL A   1      47.671  27.882  34.912  1.00  0.00    -0.200 F 
ATOM    100  F   UNL A   1      47.130  25.552  36.222  1.00  0.00    -0.200 F 
ENDBRANCH  67  90
ENDBRANCH  41  42
ENDBRANCH  33  36
ENDBRANCH  31  32
ENDBRANCH  30  31
ENDBRANCH  29  30
ENDBRANCH   1  29
TORSDOF 16
ENDMDL
