MODEL 1
REMARK VINA RESULT:     -12.5      0.000      0.000
REMARK SMILES Cc1cc(N2N=C(C(=O)NCCCCCCNC(=O)c3ccc(-c4c5nc(c(-c6c(F)c(F)c(F)c(F)c6F)c6ccc([nH]6)c(-c6c(F)c(F)c(F)c(F)c6F)c6nc(c(-c7c(F)c(F)c(F)c(F)c7F)c7ccc4[nH]7)C=C6)C=C5)cc3)C[C@H]2c2ccccc2)c([N+](=O)[O-])cc1C
REMARK SMILES IDX 13 1 12 2 11 3 10 4 8 5 9 6 7 8 5 9 6 10 84 11 83 12 4 13
REMARK SMILES IDX 1 14 2 15 3 16 96 17 95 18 97 19 91 20 92 21 93 22 94 23
REMARK SMILES IDX 85 24 86 25 90 26 87 27 89 28 88 29 14 30 15 31 16 32 17 33
REMARK SMILES IDX 18 34 19 36 20 37 21 38 82 39 22 40 81 41 23 42 24 43 25 44
REMARK SMILES IDX 75 45 26 46 80 47 74 48 76 49 27 50 79 51 73 52 72 53 28 55
REMARK SMILES IDX 60 56 40 57 59 58 41 59 44 60 58 61 77 62 42 63 43 64 57 66
REMARK SMILES IDX 78 67 45 68 29 69 30 70 38 71 31 72 32 73 36 74 39 75 33 76
REMARK SMILES IDX 34 77 37 78 35 79 61 80 62 81 70 82 63 83 64 84 68 85 71 86
REMARK SMILES IDX 65 87 66 88 69 89 67 90 46 91 47 92 55 93 48 94 49 95 53 96
REMARK SMILES IDX 56 97 50 98 51 99 54 100 52 101
REMARK H PARENT 10 7 17 35 76 54 44 65
REMARK Flexibility Score: inf
ROOT
ATOM      1  C   UNL A   1      29.828  31.120  24.371  1.00  0.00     0.002 C 
ENDROOT
BRANCH   1   2
ATOM      2  C   UNL A   1      29.957  30.207  23.153  1.00  0.00     0.021 C 
BRANCH   2   3
ATOM      3  C   UNL A   1      30.798  28.957  23.383  1.00  0.00     0.116 C 
BRANCH   3   4
ATOM      4  N   UNL A   1      32.168  29.145  22.959  1.00  0.00    -0.351 N 
ATOM      5  C   UNL A   1      33.351  28.514  23.249  1.00  0.00     0.267 C 
ATOM      6  O   UNL A   1      34.373  28.965  22.735  1.00  0.00    -0.268 OA
ATOM      7  H   UNL A   1      32.274  29.889  22.323  1.00  0.00     0.163 HD
BRANCH   5   8
ATOM      8  C   UNL A   1      33.463  27.270  24.119  1.00  0.00     0.128 C 
ATOM      9  N   UNL A   1      33.889  25.238  24.626  1.00  0.00    -0.250 N 
ATOM     10  N   UNL A   1      34.018  26.187  23.661  1.00  0.00    -0.171 NA
ATOM     11  C   UNL A   1      33.254  25.727  25.857  1.00  0.00     0.144 C 
ATOM     12  C   UNL A   1      32.999  27.198  25.535  1.00  0.00     0.096 C 
BRANCH   9  13
ATOM     13  C   UNL A   1      34.814  24.197  24.691  1.00  0.00     0.138 A 
ATOM     14  C   UNL A   1      38.185  23.815  26.428  1.00  0.00     0.045 C 
ATOM     15  C   UNL A   1      36.988  23.456  25.593  1.00  0.00    -0.046 A 
ATOM     16  C   UNL A   1      35.933  24.379  25.519  1.00  0.00     0.039 A 
ATOM     17  C   UNL A   1      36.893  22.250  24.879  1.00  0.00    -0.041 A 
ATOM     18  C   UNL A   1      35.759  22.022  24.082  1.00  0.00     0.091 A 
ATOM     19  C   UNL A   1      37.946  21.178  24.940  1.00  0.00     0.045 C 
ATOM     20  C   UNL A   1      34.745  22.993  23.979  1.00  0.00     0.294 A 
BRANCH  20  21
ATOM     21  N   UNL A   1      33.668  22.734  23.034  1.00  0.00     0.065 N 
ATOM     22  O   UNL A   1      33.720  23.319  21.940  1.00  0.00    -0.258 OA
ATOM     23  O   UNL A   1      32.707  22.045  23.419  1.00  0.00    -0.258 OA
ENDBRANCH  20  21
ENDBRANCH   9  13
BRANCH  11  24
ATOM     24  C   UNL A   1      32.019  24.907  26.227  1.00  0.00    -0.023 A 
ATOM     25  C   UNL A   1      30.701  25.381  26.120  1.00  0.00     0.006 A 
ATOM     26  C   UNL A   1      32.201  23.585  26.678  1.00  0.00     0.006 A 
ATOM     27  C   UNL A   1      29.614  24.578  26.480  1.00  0.00     0.000 A 
ATOM     28  C   UNL A   1      31.113  22.767  26.989  1.00  0.00     0.000 A 
ATOM     29  C   UNL A   1      29.819  23.268  26.901  1.00  0.00     0.000 A 
ENDBRANCH  11  24
ENDBRANCH   5   8
ENDBRANCH   3   4
ENDBRANCH   2   3
ENDBRANCH   1   2
BRANCH   1  30
ATOM     30  C   UNL A   1      30.946  30.984  25.409  1.00  0.00     0.002 C 
BRANCH  30  31
ATOM     31  C   UNL A   1      31.021  32.108  26.446  1.00  0.00     0.021 C 
BRANCH  31  32
ATOM     32  C   UNL A   1      32.415  32.369  27.003  1.00  0.00     0.116 C 
BRANCH  32  33
ATOM     33  N   UNL A   1      32.610  33.764  27.363  1.00  0.00    -0.352 N 
ATOM     34  C   UNL A   1      33.540  34.313  28.209  1.00  0.00     0.251 C 
ATOM     35  H   UNL A   1      31.990  34.403  26.942  1.00  0.00     0.163 HD
ATOM     36  O   UNL A   1      33.459  35.487  28.554  1.00  0.00    -0.269 OA
BRANCH  34  37
ATOM     37  C   UNL A   1      34.635  33.465  28.722  1.00  0.00     0.039 A 
ATOM     38  C   UNL A   1      35.958  33.845  28.489  1.00  0.00     0.014 A 
ATOM     39  C   UNL A   1      34.347  32.309  29.454  1.00  0.00     0.014 A 
ATOM     40  C   UNL A   1      36.998  33.103  29.053  1.00  0.00     0.010 A 
ATOM     41  C   UNL A   1      35.380  31.614  30.072  1.00  0.00     0.010 A 
ATOM     42  C   UNL A   1      36.715  32.004  29.880  1.00  0.00    -0.014 A 
BRANCH  42  43
ATOM     43  C   UNL A   1      37.789  31.237  30.560  1.00  0.00     0.031 A 
ATOM     44  C   UNL A   1      38.159  31.572  31.977  1.00  0.00     0.074 A 
ATOM     45  C   UNL A   1      38.495  30.318  29.872  1.00  0.00     0.049 A 
ATOM     46  N   UNL A   1      39.166  31.146  32.695  1.00  0.00    -0.248 NA
ATOM     47  C   UNL A   1      37.296  32.544  32.670  1.00  0.00     0.031 C 
ATOM     48  C   UNL A   1      38.254  29.930  28.482  1.00  0.00     0.029 A 
ATOM     49  N   UNL A   1      39.583  29.566  30.243  1.00  0.00    -0.354 N 
ATOM     50  C   UNL A   1      39.074  31.816  33.907  1.00  0.00     0.074 A 
ATOM     51  C   UNL A   1      37.938  32.706  33.817  1.00  0.00     0.031 C 
ATOM     52  C   UNL A   1      39.164  29.013  28.117  1.00  0.00     0.029 A 
ATOM     53  C   UNL A   1      40.084  28.785  29.228  1.00  0.00     0.049 A 
ATOM     54  H   UNL A   1      39.967  29.583  31.149  1.00  0.00     0.167 HD
ATOM     55  C   UNL A   1      39.861  31.686  35.002  1.00  0.00     0.037 A 
ATOM     56  C   UNL A   1      41.177  27.998  29.189  1.00  0.00     0.037 A 
ATOM     57  C   UNL A   1      40.968  30.771  35.095  1.00  0.00     0.049 A 
ATOM     58  C   UNL A   1      42.040  27.881  30.418  1.00  0.00     0.074 A 
ATOM     59  C   UNL A   1      41.779  30.512  36.186  1.00  0.00     0.029 A 
ATOM     60  N   UNL A   1      41.421  29.970  34.057  1.00  0.00    -0.354 N 
ATOM     61  N   UNL A   1      41.906  28.468  31.582  1.00  0.00    -0.248 NA
ATOM     62  C   UNL A   1      43.206  26.990  30.330  1.00  0.00     0.031 C 
ATOM     63  C   UNL A   1      42.759  29.597  35.792  1.00  0.00     0.029 A 
ATOM     64  C   UNL A   1      42.520  29.237  34.475  1.00  0.00     0.049 A 
ATOM     65  H   UNL A   1      41.021  29.929  33.159  1.00  0.00     0.167 HD
ATOM     66  C   UNL A   1      42.944  27.993  32.373  1.00  0.00     0.074 A 
ATOM     67  C   UNL A   1      43.696  27.063  31.559  1.00  0.00     0.031 C 
ATOM     68  C   UNL A   1      43.245  28.299  33.658  1.00  0.00     0.037 A 
BRANCH  55  69
ATOM     69  C   UNL A   1      39.563  32.555  36.189  1.00  0.00     0.064 A 
ATOM     70  C   UNL A   1      40.216  33.779  36.392  1.00  0.00     0.173 A 
ATOM     71  C   UNL A   1      38.562  32.186  37.101  1.00  0.00     0.173 A 
ATOM     72  F   UNL A   1      41.188  34.173  35.554  1.00  0.00    -0.203 F 
ATOM     73  C   UNL A   1      39.896  34.590  37.478  1.00  0.00     0.198 A 
ATOM     74  C   UNL A   1      38.222  33.014  38.166  1.00  0.00     0.198 A 
ATOM     75  F   UNL A   1      37.901  31.028  36.950  1.00  0.00    -0.203 F 
ATOM     76  F   UNL A   1      40.564  35.735  37.675  1.00  0.00    -0.200 F 
ATOM     77  C   UNL A   1      38.893  34.212  38.358  1.00  0.00     0.200 A 
ATOM     78  F   UNL A   1      37.242  32.654  39.007  1.00  0.00    -0.200 F 
ATOM     79  F   UNL A   1      38.576  35.002  39.393  1.00  0.00    -0.200 F 
ENDBRANCH  55  69
BRANCH  56  80
ATOM     80  C   UNL A   1      41.525  27.264  27.943  1.00  0.00     0.064 A 
ATOM     81  C   UNL A   1      41.239  25.899  27.804  1.00  0.00     0.173 A 
ATOM     82  C   UNL A   1      42.172  27.905  26.876  1.00  0.00     0.173 A 
ATOM     83  F   UNL A   1      40.640  25.236  28.803  1.00  0.00    -0.203 F 
ATOM     84  C   UNL A   1      41.611  25.198  26.658  1.00  0.00     0.198 A 
ATOM     85  C   UNL A   1      42.514  27.211  25.717  1.00  0.00     0.198 A 
ATOM     86  F   UNL A   1      42.464  29.212  26.953  1.00  0.00    -0.203 F 
ATOM     87  F   UNL A   1      41.376  23.881  26.577  1.00  0.00    -0.200 F 
ATOM     88  C   UNL A   1      42.245  25.855  25.615  1.00  0.00     0.200 A 
ATOM     89  F   UNL A   1      43.110  27.855  24.704  1.00  0.00    -0.200 F 
ATOM     90  F   UNL A   1      42.602  25.180  24.513  1.00  0.00    -0.200 F 
ENDBRANCH  56  80
BRANCH  68  91
ATOM     91  C   UNL A   1      44.406  27.588  34.291  1.00  0.00     0.064 A 
ATOM     92  C   UNL A   1      45.688  28.153  34.327  1.00  0.00     0.173 A 
ATOM     93  C   UNL A   1      44.212  26.356  34.935  1.00  0.00     0.173 A 
ATOM     94  F   UNL A   1      45.929  29.322  33.713  1.00  0.00    -0.203 F 
ATOM     95  C   UNL A   1      46.737  27.505  34.974  1.00  0.00     0.198 A 
ATOM     96  C   UNL A   1      45.254  25.727  35.608  1.00  0.00     0.198 A 
ATOM     97  F   UNL A   1      43.001  25.776  34.935  1.00  0.00    -0.203 F 
ATOM     98  F   UNL A   1      47.963  28.045  34.966  1.00  0.00    -0.200 F 
ATOM     99  C   UNL A   1      46.516  26.299  35.623  1.00  0.00     0.200 A 
ATOM    100  F   UNL A   1      45.035  24.570  36.248  1.00  0.00    -0.200 F 
ATOM    101  F   UNL A   1      47.522  25.686  36.262  1.00  0.00    -0.200 F 
ENDBRANCH  68  91
ENDBRANCH  42  43
ENDBRANCH  34  37
ENDBRANCH  32  33
ENDBRANCH  31  32
ENDBRANCH  30  31
ENDBRANCH   1  30
TORSDOF 16
ENDMDL
MODEL 2
REMARK VINA RESULT:     -12.2      0.757      7.125
REMARK SMILES Cc1cc(N2N=C(C(=O)NCCCCCCNC(=O)c3ccc(-c4c5nc(c(-c6c(F)c(F)c(F)c(F)c6F)c6ccc([nH]6)c(-c6c(F)c(F)c(F)c(F)c6F)c6nc(c(-c7c(F)c(F)c(F)c(F)c7F)c7ccc4[nH]7)C=C6)C=C5)cc3)C[C@H]2c2ccccc2)c([N+](=O)[O-])cc1C
REMARK SMILES IDX 13 1 12 2 11 3 10 4 8 5 9 6 7 8 5 9 6 10 84 11 83 12 4 13
REMARK SMILES IDX 1 14 2 15 3 16 96 17 95 18 97 19 91 20 92 21 93 22 94 23
REMARK SMILES IDX 85 24 86 25 90 26 87 27 89 28 88 29 14 30 15 31 16 32 17 33
REMARK SMILES IDX 18 34 19 36 20 37 21 38 82 39 22 40 81 41 23 42 24 43 25 44
REMARK SMILES IDX 75 45 26 46 80 47 74 48 76 49 27 50 79 51 73 52 72 53 28 55
REMARK SMILES IDX 60 56 40 57 59 58 41 59 44 60 58 61 77 62 42 63 43 64 57 66
REMARK SMILES IDX 78 67 45 68 29 69 30 70 38 71 31 72 32 73 36 74 39 75 33 76
REMARK SMILES IDX 34 77 37 78 35 79 61 80 62 81 70 82 63 83 64 84 68 85 71 86
REMARK SMILES IDX 65 87 66 88 69 89 67 90 46 91 47 92 55 93 48 94 49 95 53 96
REMARK SMILES IDX 56 97 50 98 51 99 54 100 52 101
REMARK H PARENT 10 7 17 35 76 54 44 65
REMARK Flexibility Score: inf
ROOT
ATOM      1  C   UNL A   1      29.734  30.078  23.870  1.00  0.00     0.002 C 
ENDROOT
BRANCH   1   2
ATOM      2  C   UNL A   1      30.217  29.719  22.466  1.00  0.00     0.021 C 
BRANCH   2   3
ATOM      3  C   UNL A   1      31.065  28.455  22.389  1.00  0.00     0.116 C 
BRANCH   3   4
ATOM      4  N   UNL A   1      32.476  28.760  22.296  1.00  0.00    -0.351 N 
ATOM      5  C   UNL A   1      33.602  28.257  22.897  1.00  0.00     0.267 C 
ATOM      6  O   UNL A   1      34.676  28.785  22.618  1.00  0.00    -0.268 OA
ATOM      7  H   UNL A   1      32.671  29.487  21.662  1.00  0.00     0.163 HD
BRANCH   5   8
ATOM      8  C   UNL A   1      33.603  27.061  23.840  1.00  0.00     0.128 C 
ATOM      9  N   UNL A   1      33.825  25.029  24.463  1.00  0.00    -0.250 N 
ATOM     10  N   UNL A   1      34.030  25.900  23.440  1.00  0.00    -0.171 NA
ATOM     11  C   UNL A   1      33.275  25.654  25.673  1.00  0.00     0.144 C 
ATOM     12  C   UNL A   1      33.169  27.123  25.266  1.00  0.00     0.096 C 
BRANCH   9  13
ATOM     13  C   UNL A   1      34.636  23.901  24.575  1.00  0.00     0.138 A 
ATOM     14  C   UNL A   1      38.117  23.332  26.021  1.00  0.00     0.045 C 
ATOM     15  C   UNL A   1      36.806  23.020  25.356  1.00  0.00    -0.046 A 
ATOM     16  C   UNL A   1      35.852  24.046  25.263  1.00  0.00     0.039 A 
ATOM     17  C   UNL A   1      36.507  21.758  24.818  1.00  0.00    -0.041 A 
ATOM     18  C   UNL A   1      35.276  21.573  24.168  1.00  0.00     0.091 A 
ATOM     19  C   UNL A   1      37.441  20.584  24.918  1.00  0.00     0.045 C 
ATOM     20  C   UNL A   1      34.364  22.638  24.036  1.00  0.00     0.294 A 
BRANCH  20  21
ATOM     21  N   UNL A   1      33.170  22.397  23.238  1.00  0.00     0.065 N 
ATOM     22  O   UNL A   1      32.261  21.734  23.763  1.00  0.00    -0.258 OA
ATOM     23  O   UNL A   1      33.180  22.760  22.049  1.00  0.00    -0.258 OA
ENDBRANCH  20  21
ENDBRANCH   9  13
BRANCH  11  24
ATOM     24  C   UNL A   1      31.970  24.994  26.114  1.00  0.00    -0.023 A 
ATOM     25  C   UNL A   1      30.700  25.571  25.943  1.00  0.00     0.006 A 
ATOM     26  C   UNL A   1      32.031  23.717  26.706  1.00  0.00     0.006 A 
ATOM     27  C   UNL A   1      29.544  24.913  26.374  1.00  0.00     0.000 A 
ATOM     28  C   UNL A   1      30.872  23.039  27.089  1.00  0.00     0.000 A 
ATOM     29  C   UNL A   1      29.628  23.643  26.935  1.00  0.00     0.000 A 
ENDBRANCH  11  24
ENDBRANCH   5   8
ENDBRANCH   3   4
ENDBRANCH   2   3
ENDBRANCH   1   2
BRANCH   1  30
ATOM     30  C   UNL A   1      30.794  30.701  24.784  1.00  0.00     0.002 C 
BRANCH  30  31
ATOM     31  C   UNL A   1      31.428  29.749  25.801  1.00  0.00     0.021 C 
BRANCH  31  32
ATOM     32  C   UNL A   1      32.493  30.381  26.688  1.00  0.00     0.116 C 
BRANCH  32  33
ATOM     33  N   UNL A   1      32.314  31.817  26.823  1.00  0.00    -0.352 N 
ATOM     34  C   UNL A   1      33.071  32.717  27.530  1.00  0.00     0.251 C 
ATOM     35  H   UNL A   1      31.545  32.197  26.340  1.00  0.00     0.163 HD
ATOM     36  O   UNL A   1      32.684  33.869  27.697  1.00  0.00    -0.269 OA
BRANCH  34  37
ATOM     37  C   UNL A   1      34.354  32.276  28.113  1.00  0.00     0.039 A 
ATOM     38  C   UNL A   1      35.431  33.165  28.141  1.00  0.00     0.014 A 
ATOM     39  C   UNL A   1      34.479  30.992  28.653  1.00  0.00     0.014 A 
ATOM     40  C   UNL A   1      36.617  32.791  28.776  1.00  0.00     0.010 A 
ATOM     41  C   UNL A   1      35.634  30.649  29.345  1.00  0.00     0.010 A 
ATOM     42  C   UNL A   1      36.714  31.545  29.416  1.00  0.00    -0.014 A 
BRANCH  42  43
ATOM     43  C   UNL A   1      37.929  31.142  30.168  1.00  0.00     0.031 A 
ATOM     44  C   UNL A   1      38.906  30.185  29.545  1.00  0.00     0.074 A 
ATOM     45  C   UNL A   1      38.097  31.552  31.440  1.00  0.00     0.049 A 
ATOM     46  N   UNL A   1      39.932  29.579  30.084  1.00  0.00    -0.248 NA
ATOM     47  C   UNL A   1      38.677  29.837  28.133  1.00  0.00     0.031 C 
ATOM     48  C   UNL A   1      37.201  32.453  32.166  1.00  0.00     0.029 A 
ATOM     49  N   UNL A   1      39.067  31.237  32.361  1.00  0.00    -0.354 N 
ATOM     50  C   UNL A   1      40.451  28.761  29.089  1.00  0.00     0.074 A 
ATOM     51  C   UNL A   1      39.606  28.916  27.926  1.00  0.00     0.031 C 
ATOM     52  C   UNL A   1      37.661  32.619  33.416  1.00  0.00     0.029 A 
ATOM     53  C   UNL A   1      38.855  31.798  33.598  1.00  0.00     0.049 A 
ATOM     54  H   UNL A   1      39.840  30.664  32.155  1.00  0.00     0.167 HD
ATOM     55  C   UNL A   1      41.545  27.964  29.141  1.00  0.00     0.037 A 
ATOM     56  C   UNL A   1      39.530  31.645  34.754  1.00  0.00     0.037 A 
ATOM     57  C   UNL A   1      42.401  27.844  30.291  1.00  0.00     0.049 A 
ATOM     58  C   UNL A   1      40.736  30.744  34.785  1.00  0.00     0.074 A 
ATOM     59  C   UNL A   1      43.574  27.121  30.417  1.00  0.00     0.029 A 
ATOM     60  N   UNL A   1      42.173  28.457  31.514  1.00  0.00    -0.354 N 
ATOM     61  N   UNL A   1      41.258  30.027  33.820  1.00  0.00    -0.248 NA
ATOM     62  C   UNL A   1      41.450  30.631  36.065  1.00  0.00     0.031 C 
ATOM     63  C   UNL A   1      44.026  27.250  31.733  1.00  0.00     0.029 A 
ATOM     64  C   UNL A   1      43.170  28.105  32.409  1.00  0.00     0.049 A 
ATOM     65  H   UNL A   1      41.416  29.054  31.714  1.00  0.00     0.167 HD
ATOM     66  C   UNL A   1      42.377  29.409  34.364  1.00  0.00     0.074 A 
ATOM     67  C   UNL A   1      42.464  29.840  35.741  1.00  0.00     0.031 C 
ATOM     68  C   UNL A   1      43.253  28.562  33.772  1.00  0.00     0.037 A 
BRANCH  55  69
ATOM     69  C   UNL A   1      41.881  27.153  27.923  1.00  0.00     0.064 A 
ATOM     70  C   UNL A   1      41.392  25.851  27.744  1.00  0.00     0.173 A 
ATOM     71  C   UNL A   1      42.652  27.712  26.893  1.00  0.00     0.173 A 
ATOM     72  F   UNL A   1      40.657  25.268  28.704  1.00  0.00    -0.203 F 
ATOM     73  C   UNL A   1      41.681  25.130  26.589  1.00  0.00     0.198 A 
ATOM     74  C   UNL A   1      42.913  27.000  25.726  1.00  0.00     0.198 A 
ATOM     75  F   UNL A   1      43.141  28.956  27.010  1.00  0.00    -0.203 F 
ATOM     76  F   UNL A   1      41.238  23.872  26.459  1.00  0.00    -0.200 F 
ATOM     77  C   UNL A   1      42.433  25.707  25.577  1.00  0.00     0.200 A 
ATOM     78  F   UNL A   1      43.627  27.566  24.741  1.00  0.00    -0.200 F 
ATOM     79  F   UNL A   1      42.697  25.017  24.459  1.00  0.00    -0.200 F 
ENDBRANCH  55  69
BRANCH  56  80
ATOM     80  C   UNL A   1      39.078  32.352  35.982  1.00  0.00     0.064 A 
ATOM     81  C   UNL A   1      39.484  33.667  36.250  1.00  0.00     0.173 A 
ATOM     82  C   UNL A   1      38.251  31.722  36.925  1.00  0.00     0.173 A 
ATOM     83  F   UNL A   1      40.290  34.306  35.391  1.00  0.00    -0.203 F 
ATOM     84  C   UNL A   1      39.104  34.313  37.425  1.00  0.00     0.198 A 
ATOM     85  C   UNL A   1      37.845  32.380  38.084  1.00  0.00     0.198 A 
ATOM     86  F   UNL A   1      37.828  30.466  36.716  1.00  0.00    -0.203 F 
ATOM     87  F   UNL A   1      39.554  35.549  37.681  1.00  0.00    -0.200 F 
ATOM     88  C   UNL A   1      38.282  33.672  38.338  1.00  0.00     0.200 A 
ATOM     89  F   UNL A   1      37.036  31.762  38.955  1.00  0.00    -0.200 F 
ATOM     90  F   UNL A   1      37.918  34.294  39.468  1.00  0.00    -0.200 F 
ENDBRANCH  56  80
BRANCH  68  91
ATOM     91  C   UNL A   1      44.417  28.080  34.589  1.00  0.00     0.064 A 
ATOM     92  C   UNL A   1      45.609  28.811  34.680  1.00  0.00     0.173 A 
ATOM     93  C   UNL A   1      44.306  26.906  35.349  1.00  0.00     0.173 A 
ATOM     94  F   UNL A   1      45.771  29.933  33.961  1.00  0.00    -0.203 F 
ATOM     95  C   UNL A   1      46.654  28.377  35.493  1.00  0.00     0.198 A 
ATOM     96  C   UNL A   1      45.339  26.492  36.186  1.00  0.00     0.198 A 
ATOM     97  F   UNL A   1      43.183  26.173  35.303  1.00  0.00    -0.203 F 
ATOM     98  F   UNL A   1      47.798  29.072  35.539  1.00  0.00    -0.200 F 
ATOM     99  C   UNL A   1      46.513  27.225  36.254  1.00  0.00     0.200 A 
ATOM    100  F   UNL A   1      45.194  25.388  36.932  1.00  0.00    -0.200 F 
ATOM    101  F   UNL A   1      47.511  26.821  37.050  1.00  0.00    -0.200 F 
ENDBRANCH  68  91
ENDBRANCH  42  43
ENDBRANCH  34  37
ENDBRANCH  32  33
ENDBRANCH  31  32
ENDBRANCH  30  31
ENDBRANCH   1  30
TORSDOF 16
ENDMDL
MODEL 3
REMARK VINA RESULT:     -12.2      4.841      7.534
REMARK SMILES Cc1cc(N2N=C(C(=O)NCCCCCCNC(=O)c3ccc(-c4c5nc(c(-c6c(F)c(F)c(F)c(F)c6F)c6ccc([nH]6)c(-c6c(F)c(F)c(F)c(F)c6F)c6nc(c(-c7c(F)c(F)c(F)c(F)c7F)c7ccc4[nH]7)C=C6)C=C5)cc3)C[C@H]2c2ccccc2)c([N+](=O)[O-])cc1C
REMARK SMILES IDX 13 1 12 2 11 3 10 4 8 5 9 6 7 8 5 9 6 10 84 11 83 12 4 13
REMARK SMILES IDX 1 14 2 15 3 16 96 17 95 18 97 19 91 20 92 21 93 22 94 23
REMARK SMILES IDX 85 24 86 25 90 26 87 27 89 28 88 29 14 30 15 31 16 32 17 33
REMARK SMILES IDX 18 34 19 36 20 37 21 38 82 39 22 40 81 41 23 42 24 43 25 44
REMARK SMILES IDX 75 45 26 46 80 47 74 48 76 49 27 50 79 51 73 52 72 53 28 55
REMARK SMILES IDX 60 56 40 57 59 58 41 59 44 60 58 61 77 62 42 63 43 64 57 66
REMARK SMILES IDX 78 67 45 68 29 69 30 70 38 71 31 72 32 73 36 74 39 75 33 76
REMARK SMILES IDX 34 77 37 78 35 79 61 80 62 81 70 82 63 83 64 84 68 85 71 86
REMARK SMILES IDX 65 87 66 88 69 89 67 90 46 91 47 92 55 93 48 94 49 95 53 96
REMARK SMILES IDX 56 97 50 98 51 99 54 100 52 101
REMARK H PARENT 10 7 17 35 76 54 44 65
REMARK Flexibility Score: inf
ROOT
ATOM      1  C   UNL A   1      37.110  29.212  30.682  1.00  0.00     0.002 C 
ENDROOT
BRANCH   1   2
ATOM      2  C   UNL A   1      37.240  29.795  29.276  1.00  0.00     0.021 C 
BRANCH   2   3
ATOM      3  C   UNL A   1      36.143  29.370  28.308  1.00  0.00     0.116 C 
BRANCH   3   4
ATOM      4  N   UNL A   1      35.189  30.433  28.079  1.00  0.00    -0.351 N 
ATOM      5  C   UNL A   1      34.018  30.526  27.369  1.00  0.00     0.267 C 
ATOM      6  O   UNL A   1      33.457  31.620  27.346  1.00  0.00    -0.268 OA
ATOM      7  H   UNL A   1      35.432  31.272  28.532  1.00  0.00     0.163 HD
BRANCH   5   8
ATOM      8  C   UNL A   1      33.356  29.354  26.659  1.00  0.00     0.128 C 
ATOM      9  N   UNL A   1      33.145  27.733  25.282  1.00  0.00    -0.250 N 
ATOM     10  N   UNL A   1      34.019  28.634  25.804  1.00  0.00    -0.171 NA
ATOM     11  C   UNL A   1      31.801  27.803  25.869  1.00  0.00     0.144 C 
ATOM     12  C   UNL A   1      31.950  28.916  26.904  1.00  0.00     0.096 C 
BRANCH   9  13
ATOM     13  C   UNL A   1      33.624  26.520  24.791  1.00  0.00     0.138 A 
ATOM     14  C   UNL A   1      35.385  23.562  26.429  1.00  0.00     0.045 C 
ATOM     15  C   UNL A   1      34.758  24.400  25.350  1.00  0.00    -0.046 A 
ATOM     16  C   UNL A   1      34.149  25.609  25.722  1.00  0.00     0.039 A 
ATOM     17  C   UNL A   1      34.771  24.029  23.995  1.00  0.00    -0.041 A 
ATOM     18  C   UNL A   1      34.206  24.900  23.049  1.00  0.00     0.091 A 
ATOM     19  C   UNL A   1      35.349  22.729  23.508  1.00  0.00     0.045 C 
ATOM     20  C   UNL A   1      33.657  26.135  23.445  1.00  0.00     0.294 A 
BRANCH  20  21
ATOM     21  N   UNL A   1      33.210  27.034  22.390  1.00  0.00     0.065 N 
ATOM     22  O   UNL A   1      32.072  26.847  21.931  1.00  0.00    -0.258 OA
ATOM     23  O   UNL A   1      34.030  27.847  21.930  1.00  0.00    -0.258 OA
ENDBRANCH  20  21
ENDBRANCH   9  13
BRANCH  11  24
ATOM     24  C   UNL A   1      30.725  28.025  24.808  1.00  0.00    -0.023 A 
ATOM     25  C   UNL A   1      30.565  29.222  24.090  1.00  0.00     0.006 A 
ATOM     26  C   UNL A   1      29.851  26.963  24.506  1.00  0.00     0.006 A 
ATOM     27  C   UNL A   1      29.555  29.361  23.133  1.00  0.00     0.000 A 
ATOM     28  C   UNL A   1      28.875  27.085  23.514  1.00  0.00     0.000 A 
ATOM     29  C   UNL A   1      28.719  28.290  22.836  1.00  0.00     0.000 A 
ENDBRANCH  11  24
ENDBRANCH   5   8
ENDBRANCH   3   4
ENDBRANCH   2   3
ENDBRANCH   1   2
BRANCH   1  30
ATOM     30  C   UNL A   1      37.146  30.238  31.819  1.00  0.00     0.002 C 
BRANCH  30  31
ATOM     31  C   UNL A   1      35.867  31.058  32.007  1.00  0.00     0.021 C 
BRANCH  31  32
ATOM     32  C   UNL A   1      35.802  32.336  31.181  1.00  0.00     0.116 C 
BRANCH  32  33
ATOM     33  N   UNL A   1      36.058  33.521  31.984  1.00  0.00    -0.352 N 
ATOM     34  C   UNL A   1      37.260  34.053  32.376  1.00  0.00     0.251 C 
ATOM     35  H   UNL A   1      35.259  34.011  32.286  1.00  0.00     0.163 HD
ATOM     36  O   UNL A   1      37.307  34.954  33.207  1.00  0.00    -0.269 OA
BRANCH  34  37
ATOM     37  C   UNL A   1      38.508  33.510  31.803  1.00  0.00     0.039 A 
ATOM     38  C   UNL A   1      39.426  32.878  32.645  1.00  0.00     0.014 A 
ATOM     39  C   UNL A   1      38.753  33.606  30.430  1.00  0.00     0.014 A 
ATOM     40  C   UNL A   1      40.562  32.276  32.098  1.00  0.00     0.010 A 
ATOM     41  C   UNL A   1      39.847  32.946  29.881  1.00  0.00     0.010 A 
ATOM     42  C   UNL A   1      40.761  32.273  30.709  1.00  0.00    -0.014 A 
BRANCH  42  43
ATOM     43  C   UNL A   1      41.914  31.578  30.083  1.00  0.00     0.031 A 
ATOM     44  C   UNL A   1      43.166  32.349  29.770  1.00  0.00     0.074 A 
ATOM     45  C   UNL A   1      41.796  30.291  29.704  1.00  0.00     0.049 A 
ATOM     46  N   UNL A   1      44.215  31.981  29.081  1.00  0.00    -0.248 NA
ATOM     47  C   UNL A   1      43.230  33.731  30.273  1.00  0.00     0.031 C 
ATOM     48  C   UNL A   1      40.620  29.448  29.921  1.00  0.00     0.029 A 
ATOM     49  N   UNL A   1      42.669  29.474  29.026  1.00  0.00    -0.354 N 
ATOM     50  C   UNL A   1      45.048  33.092  29.045  1.00  0.00     0.074 A 
ATOM     51  C   UNL A   1      44.368  34.158  29.746  1.00  0.00     0.031 C 
ATOM     52  C   UNL A   1      40.843  28.235  29.390  1.00  0.00     0.029 A 
ATOM     53  C   UNL A   1      42.156  28.230  28.749  1.00  0.00     0.049 A 
ATOM     54  H   UNL A   1      43.575  29.753  28.764  1.00  0.00     0.167 HD
ATOM     55  C   UNL A   1      46.278  33.203  28.488  1.00  0.00     0.037 A 
ATOM     56  C   UNL A   1      42.672  27.211  28.035  1.00  0.00     0.037 A 
ATOM     57  C   UNL A   1      46.962  32.126  27.824  1.00  0.00     0.049 A 
ATOM     58  C   UNL A   1      44.037  27.366  27.418  1.00  0.00     0.074 A 
ATOM     59  C   UNL A   1      48.241  32.117  27.293  1.00  0.00     0.029 A 
ATOM     60  N   UNL A   1      46.424  30.868  27.596  1.00  0.00    -0.354 N 
ATOM     61  N   UNL A   1      44.846  28.398  27.447  1.00  0.00    -0.248 NA
ATOM     62  C   UNL A   1      44.565  26.215  26.670  1.00  0.00     0.031 C 
ATOM     63  C   UNL A   1      48.455  30.874  26.693  1.00  0.00     0.029 A 
ATOM     64  C   UNL A   1      47.335  30.085  26.906  1.00  0.00     0.049 A 
ATOM     65  H   UNL A   1      45.528  30.577  27.882  1.00  0.00     0.167 HD
ATOM     66  C   UNL A   1      45.986  28.010  26.756  1.00  0.00     0.074 A 
ATOM     67  C   UNL A   1      45.770  26.646  26.325  1.00  0.00     0.031 C 
ATOM     68  C   UNL A   1      47.112  28.721  26.503  1.00  0.00     0.037 A 
BRANCH  55  69
ATOM     69  C   UNL A   1      46.966  34.535  28.564  1.00  0.00     0.064 A 
ATOM     70  C   UNL A   1      47.817  34.868  29.628  1.00  0.00     0.173 A 
ATOM     71  C   UNL A   1      46.819  35.466  27.525  1.00  0.00     0.173 A 
ATOM     72  F   UNL A   1      47.984  34.016  30.652  1.00  0.00    -0.203 F 
ATOM     73  C   UNL A   1      48.477  36.093  29.659  1.00  0.00     0.198 A 
ATOM     74  C   UNL A   1      47.506  36.676  27.544  1.00  0.00     0.198 A 
ATOM     75  F   UNL A   1      46.021  35.196  26.480  1.00  0.00    -0.203 F 
ATOM     76  F   UNL A   1      49.253  36.407  30.707  1.00  0.00    -0.200 F 
ATOM     77  C   UNL A   1      48.330  36.992  28.614  1.00  0.00     0.200 A 
ATOM     78  F   UNL A   1      47.374  37.538  26.525  1.00  0.00    -0.200 F 
ATOM     79  F   UNL A   1      48.979  38.164  28.639  1.00  0.00    -0.200 F 
ENDBRANCH  55  69
BRANCH  56  80
ATOM     80  C   UNL A   1      41.896  25.954  27.856  1.00  0.00     0.064 A 
ATOM     81  C   UNL A   1      40.781  25.909  27.006  1.00  0.00     0.173 A 
ATOM     82  C   UNL A   1      42.236  24.781  28.546  1.00  0.00     0.173 A 
ATOM     83  F   UNL A   1      40.403  27.009  26.339  1.00  0.00    -0.203 F 
ATOM     84  C   UNL A   1      40.021  24.748  26.876  1.00  0.00     0.198 A 
ATOM     85  C   UNL A   1      41.495  23.612  28.390  1.00  0.00     0.198 A 
ATOM     86  F   UNL A   1      43.296  24.767  29.367  1.00  0.00    -0.203 F 
ATOM     87  F   UNL A   1      38.928  24.750  26.101  1.00  0.00    -0.200 F 
ATOM     88  C   UNL A   1      40.381  23.600  27.564  1.00  0.00     0.200 A 
ATOM     89  F   UNL A   1      41.857  22.499  29.043  1.00  0.00    -0.200 F 
ATOM     90  F   UNL A   1      39.649  22.483  27.438  1.00  0.00    -0.200 F 
ENDBRANCH  56  80
BRANCH  68  91
ATOM     91  C   UNL A   1      48.224  28.029  25.771  1.00  0.00     0.064 A 
ATOM     92  C   UNL A   1      48.191  27.842  24.382  1.00  0.00     0.173 A 
ATOM     93  C   UNL A   1      49.372  27.613  26.463  1.00  0.00     0.173 A 
ATOM     94  F   UNL A   1      47.111  28.208  23.676  1.00  0.00    -0.203 F 
ATOM     95  C   UNL A   1      49.263  27.253  23.714  1.00  0.00     0.198 A 
ATOM     96  C   UNL A   1      50.454  27.054  25.789  1.00  0.00     0.198 A 
ATOM     97  F   UNL A   1      49.456  27.775  27.793  1.00  0.00    -0.203 F 
ATOM     98  F   UNL A   1      49.196  27.052  22.391  1.00  0.00    -0.200 F 
ATOM     99  C   UNL A   1      50.396  26.871  24.416  1.00  0.00     0.200 A 
ATOM    100  F   UNL A   1      51.554  26.701  26.467  1.00  0.00    -0.200 F 
ATOM    101  F   UNL A   1      51.433  26.322  23.769  1.00  0.00    -0.200 F 
ENDBRANCH  68  91
ENDBRANCH  42  43
ENDBRANCH  34  37
ENDBRANCH  32  33
ENDBRANCH  31  32
ENDBRANCH  30  31
ENDBRANCH   1  30
TORSDOF 16
ENDMDL
