MODEL 1
REMARK VINA RESULT:     -13.9      0.000      0.000
REMARK SMILES Cc1ccc(NC(=O)c2ccccc2NC(=O)[C@H]2CCCC[C@H]2C(=O)NCCCCCCNC(=O)c2ccc(-c3c4nc(c(-c5c(F)c(F)c(F)c(F)c5F)c5ccc([nH]5)c(-c5c(F)c(F)c(F)c(F)c5F)c5nc(c(-c6c(F)c(F)c(F)c(F)c6F)c6ccc3[nH]6)C=C5)C=C4)cc2)cc1
REMARK SMILES IDX 28 1 27 2 26 3 24 4 25 5 23 7 18 8 19 9 20 10 22 11 21 12
REMARK SMILES IDX 16 13 15 14 17 16 14 17 9 18 10 19 11 20 13 21 12 22 7 23
REMARK SMILES IDX 6 24 8 26 5 27 1 28 2 29 3 30 100 31 4 32 99 33 29 34 30 35
REMARK SMILES IDX 31 36 32 37 33 38 34 39 35 41 36 42 37 43 98 44 38 45 97 46
REMARK SMILES IDX 39 47 40 48 41 49 91 50 42 51 96 52 90 53 92 54 43 55 95 56
REMARK SMILES IDX 89 57 88 58 44 60 76 61 56 62 75 63 57 64 60 65 74 66 93 67
REMARK SMILES IDX 58 68 59 69 73 71 94 72 61 73 45 74 46 75 54 76 47 77 48 78
REMARK SMILES IDX 52 79 55 80 49 81 50 82 53 83 51 84 77 85 78 86 86 87 79 88
REMARK SMILES IDX 80 89 84 90 87 91 81 92 82 93 85 94 83 95 62 96 63 97 71 98
REMARK SMILES IDX 64 99 65 100 69 101 72 102 66 103 67 104 70 105 68 106
REMARK H PARENT 26 6 15 15 6 25 33 40 92 59 60 70
REMARK Flexibility Score: inf
ROOT
ATOM      1  C   UNL A   1      34.287  28.068  25.992  1.00  0.00     0.021 C 
ENDROOT
BRANCH   1   2
ATOM      2  C   UNL A   1      33.706  28.477  24.632  1.00  0.00     0.116 C 
BRANCH   2   3
ATOM      3  N   UNL A   1      33.996  27.498  23.600  1.00  0.00    -0.356 N 
ATOM      4  C   UNL A   1      33.318  26.445  23.086  1.00  0.00     0.223 C 
ATOM      5  O   UNL A   1      33.906  25.809  22.200  1.00  0.00    -0.275 OA
ATOM      6  H   UNL A   1      34.879  27.628  23.183  1.00  0.00     0.163 HD
BRANCH   4   7
ATOM      7  C   UNL A   1      31.946  25.944  23.550  1.00  0.00     0.091 C 
ATOM      8  C   UNL A   1      32.042  24.642  24.372  1.00  0.00     0.091 C 
ATOM      9  C   UNL A   1      30.650  24.065  24.686  1.00  0.00     0.014 C 
ATOM     10  C   UNL A   1      29.650  25.108  25.196  1.00  0.00     0.001 C 
ATOM     11  C   UNL A   1      30.939  26.971  24.067  1.00  0.00     0.014 C 
ATOM     12  C   UNL A   1      29.567  26.327  24.281  1.00  0.00     0.001 C 
BRANCH   8  13
ATOM     13  C   UNL A   1      32.792  24.845  25.666  1.00  0.00     0.228 C 
ATOM     14  N   UNL A   1      34.068  24.454  25.883  1.00  0.00    -0.325 N 
ATOM     15  H   UNL A   1      34.439  24.909  26.674  1.00  0.00     0.169 HD
ATOM     16  O   UNL A   1      32.248  25.434  26.608  1.00  0.00    -0.274 OA
BRANCH  14  17
ATOM     17  C   UNL A   1      35.025  23.593  25.316  1.00  0.00     0.054 A 
ATOM     18  C   UNL A   1      35.084  22.246  25.764  1.00  0.00     0.063 A 
ATOM     19  C   UNL A   1      36.094  21.389  25.283  1.00  0.00     0.016 A 
ATOM     20  C   UNL A   1      37.009  21.828  24.332  1.00  0.00     0.001 A 
ATOM     21  C   UNL A   1      35.906  23.983  24.303  1.00  0.00     0.027 A 
ATOM     22  C   UNL A   1      36.901  23.118  23.832  1.00  0.00     0.002 A 
BRANCH  18  23
ATOM     23  C   UNL A   1      34.252  21.651  26.845  1.00  0.00     0.257 C 
ATOM     24  N   UNL A   1      33.256  20.718  26.666  1.00  0.00    -0.322 N 
ATOM     25  H   UNL A   1      32.754  20.535  27.493  1.00  0.00     0.170 HD
ATOM     26  O   UNL A   1      34.408  22.086  27.990  1.00  0.00    -0.269 OA
BRANCH  24  27
ATOM     27  C   UNL A   1      32.796  19.968  25.576  1.00  0.00     0.041 A 
ATOM     28  C   UNL A   1      32.303  18.083  21.748  1.00  0.00     0.044 C 
ATOM     29  C   UNL A   1      32.347  18.726  23.103  1.00  0.00    -0.051 A 
ATOM     30  C   UNL A   1      32.664  17.965  24.238  1.00  0.00     0.005 A 
ATOM     31  C   UNL A   1      32.160  20.103  23.239  1.00  0.00     0.005 A 
ATOM     32  C   UNL A   1      32.880  18.582  25.476  1.00  0.00     0.026 A 
ATOM     33  C   UNL A   1      32.366  20.715  24.474  1.00  0.00     0.026 A 
ENDBRANCH  24  27
ENDBRANCH  18  23
ENDBRANCH  14  17
ENDBRANCH   8  13
ENDBRANCH   4   7
ENDBRANCH   2   3
ENDBRANCH   1   2
BRANCH   1  34
ATOM     34  C   UNL A   1      33.546  28.594  27.227  1.00  0.00     0.002 C 
BRANCH  34  35
ATOM     35  C   UNL A   1      32.391  29.576  26.978  1.00  0.00     0.002 C 
BRANCH  35  36
ATOM     36  C   UNL A   1      32.688  31.052  27.250  1.00  0.00     0.021 C 
BRANCH  36  37
ATOM     37  C   UNL A   1      34.169  31.373  27.422  1.00  0.00     0.116 C 
BRANCH  37  38
ATOM     38  N   UNL A   1      34.502  31.888  28.746  1.00  0.00    -0.352 N 
ATOM     39  C   UNL A   1      35.433  31.427  29.659  1.00  0.00     0.251 C 
ATOM     40  H   UNL A   1      33.989  32.678  29.031  1.00  0.00     0.163 HD
ATOM     41  O   UNL A   1      35.580  31.980  30.736  1.00  0.00    -0.269 OA
BRANCH  39  42
ATOM     42  C   UNL A   1      36.332  30.319  29.265  1.00  0.00     0.039 A 
ATOM     43  C   UNL A   1      36.644  29.347  30.221  1.00  0.00     0.014 A 
ATOM     44  C   UNL A   1      36.985  30.333  28.036  1.00  0.00     0.014 A 
ATOM     45  C   UNL A   1      37.770  28.547  30.038  1.00  0.00     0.010 A 
ATOM     46  C   UNL A   1      38.140  29.590  27.883  1.00  0.00     0.010 A 
ATOM     47  C   UNL A   1      38.575  28.758  28.918  1.00  0.00    -0.014 A 
BRANCH  47  48
ATOM     48  C   UNL A   1      39.938  28.250  28.815  1.00  0.00     0.031 A 
ATOM     49  C   UNL A   1      40.198  26.826  28.523  1.00  0.00     0.074 A 
ATOM     50  C   UNL A   1      40.979  29.103  28.944  1.00  0.00     0.049 A 
ATOM     51  N   UNL A   1      41.251  26.194  28.924  1.00  0.00    -0.248 NA
ATOM     52  C   UNL A   1      39.273  25.987  27.767  1.00  0.00     0.031 C 
ATOM     53  C   UNL A   1      42.385  28.821  28.662  1.00  0.00     0.029 A 
ATOM     54  N   UNL A   1      40.995  30.362  29.574  1.00  0.00    -0.354 N 
ATOM     55  C   UNL A   1      41.275  24.982  28.280  1.00  0.00     0.074 A 
ATOM     56  C   UNL A   1      39.993  24.870  27.620  1.00  0.00     0.031 C 
ATOM     57  C   UNL A   1      43.143  29.667  29.375  1.00  0.00     0.029 A 
ATOM     58  C   UNL A   1      42.250  30.436  30.223  1.00  0.00     0.049 A 
ATOM     59  H   UNL A   1      40.286  31.045  29.565  1.00  0.00     0.167 HD
ATOM     60  C   UNL A   1      42.421  24.248  28.247  1.00  0.00     0.037 A 
ATOM     61  C   UNL A   1      42.365  30.568  31.574  1.00  0.00     0.037 A 
ATOM     62  C   UNL A   1      43.510  24.898  28.959  1.00  0.00     0.049 A 
ATOM     63  C   UNL A   1      43.191  29.484  32.216  1.00  0.00     0.074 A 
ATOM     64  C   UNL A   1      44.548  25.708  28.529  1.00  0.00     0.029 A 
ATOM     65  N   UNL A   1      43.447  25.041  30.342  1.00  0.00    -0.354 N 
ATOM     66  N   UNL A   1      43.398  28.318  31.670  1.00  0.00    -0.248 NA
ATOM     67  C   UNL A   1      43.822  29.613  33.525  1.00  0.00     0.031 C 
ATOM     68  C   UNL A   1      45.085  26.375  29.653  1.00  0.00     0.029 A 
ATOM     69  C   UNL A   1      44.390  25.954  30.773  1.00  0.00     0.049 A 
ATOM     70  H   UNL A   1      42.819  24.560  30.928  1.00  0.00     0.167 HD
ATOM     71  C   UNL A   1      44.169  27.556  32.509  1.00  0.00     0.074 A 
ATOM     72  C   UNL A   1      44.412  28.411  33.655  1.00  0.00     0.031 C 
ATOM     73  C   UNL A   1      44.542  26.284  32.180  1.00  0.00     0.037 A 
BRANCH  60  74
ATOM     74  C   UNL A   1      42.587  23.095  27.296  1.00  0.00     0.064 A 
ATOM     75  C   UNL A   1      41.961  21.853  27.523  1.00  0.00     0.173 A 
ATOM     76  C   UNL A   1      43.421  23.156  26.165  1.00  0.00     0.173 A 
ATOM     77  F   UNL A   1      41.095  21.679  28.529  1.00  0.00    -0.203 F 
ATOM     78  C   UNL A   1      42.228  20.731  26.736  1.00  0.00     0.198 A 
ATOM     79  C   UNL A   1      43.725  22.021  25.406  1.00  0.00     0.198 A 
ATOM     80  F   UNL A   1      43.962  24.321  25.775  1.00  0.00    -0.203 F 
ATOM     81  F   UNL A   1      41.619  19.568  27.008  1.00  0.00    -0.200 F 
ATOM     82  C   UNL A   1      43.137  20.806  25.700  1.00  0.00     0.200 A 
ATOM     83  F   UNL A   1      44.610  22.109  24.403  1.00  0.00    -0.200 F 
ATOM     84  F   UNL A   1      43.439  19.714  24.985  1.00  0.00    -0.200 F 
ENDBRANCH  60  74
BRANCH  61  85
ATOM     85  C   UNL A   1      41.213  31.259  32.203  1.00  0.00     0.064 A 
ATOM     86  C   UNL A   1      41.167  32.666  32.149  1.00  0.00     0.173 A 
ATOM     87  C   UNL A   1      40.024  30.583  32.499  1.00  0.00     0.173 A 
ATOM     88  F   UNL A   1      42.281  33.362  31.875  1.00  0.00    -0.203 F 
ATOM     89  C   UNL A   1      39.963  33.357  32.263  1.00  0.00     0.198 A 
ATOM     90  C   UNL A   1      38.821  31.282  32.629  1.00  0.00     0.198 A 
ATOM     91  F   UNL A   1      39.999  29.244  32.546  1.00  0.00    -0.203 F 
ATOM     92  F   UNL A   1      39.935  34.687  32.093  1.00  0.00    -0.200 F 
ATOM     93  C   UNL A   1      38.786  32.661  32.475  1.00  0.00     0.200 A 
ATOM     94  F   UNL A   1      37.676  30.607  32.810  1.00  0.00    -0.200 F 
ATOM     95  F   UNL A   1      37.614  33.312  32.493  1.00  0.00    -0.200 F 
ENDBRANCH  61  85
BRANCH  73  96
ATOM     96  C   UNL A   1      45.195  25.278  33.095  1.00  0.00     0.064 A 
ATOM     97  C   UNL A   1      46.584  25.148  33.248  1.00  0.00     0.173 A 
ATOM     98  C   UNL A   1      44.409  24.494  33.974  1.00  0.00     0.173 A 
ATOM     99  F   UNL A   1      47.438  25.918  32.560  1.00  0.00    -0.203 F 
ATOM    100  C   UNL A   1      47.145  24.256  34.168  1.00  0.00     0.198 A 
ATOM    101  C   UNL A   1      44.972  23.647  34.927  1.00  0.00     0.198 A 
ATOM    102  F   UNL A   1      43.069  24.545  33.955  1.00  0.00    -0.203 F 
ATOM    103  F   UNL A   1      48.478  24.140  34.248  1.00  0.00    -0.200 F 
ATOM    104  C   UNL A   1      46.340  23.516  35.014  1.00  0.00     0.200 A 
ATOM    105  F   UNL A   1      44.176  22.977  35.774  1.00  0.00    -0.200 F 
ATOM    106  F   UNL A   1      46.884  22.697  35.923  1.00  0.00    -0.200 F 
ENDBRANCH  73  96
ENDBRANCH  47  48
ENDBRANCH  39  42
ENDBRANCH  37  38
ENDBRANCH  36  37
ENDBRANCH  35  36
ENDBRANCH  34  35
ENDBRANCH   1  34
TORSDOF 17
ENDMDL
MODEL 2
REMARK VINA RESULT:     -13.7      1.210      2.003
REMARK SMILES Cc1ccc(NC(=O)c2ccccc2NC(=O)[C@H]2CCCC[C@H]2C(=O)NCCCCCCNC(=O)c2ccc(-c3c4nc(c(-c5c(F)c(F)c(F)c(F)c5F)c5ccc([nH]5)c(-c5c(F)c(F)c(F)c(F)c5F)c5nc(c(-c6c(F)c(F)c(F)c(F)c6F)c6ccc3[nH]6)C=C5)C=C4)cc2)cc1
REMARK SMILES IDX 28 1 27 2 26 3 24 4 25 5 23 7 18 8 19 9 20 10 22 11 21 12
REMARK SMILES IDX 16 13 15 14 17 16 14 17 9 18 10 19 11 20 13 21 12 22 7 23
REMARK SMILES IDX 6 24 8 26 5 27 1 28 2 29 3 30 100 31 4 32 99 33 29 34 30 35
REMARK SMILES IDX 31 36 32 37 33 38 34 39 35 41 36 42 37 43 98 44 38 45 97 46
REMARK SMILES IDX 39 47 40 48 41 49 91 50 42 51 96 52 90 53 92 54 43 55 95 56
REMARK SMILES IDX 89 57 88 58 44 60 76 61 56 62 75 63 57 64 60 65 74 66 93 67
REMARK SMILES IDX 58 68 59 69 73 71 94 72 61 73 45 74 46 75 54 76 47 77 48 78
REMARK SMILES IDX 52 79 55 80 49 81 50 82 53 83 51 84 77 85 78 86 86 87 79 88
REMARK SMILES IDX 80 89 84 90 87 91 81 92 82 93 85 94 83 95 62 96 63 97 71 98
REMARK SMILES IDX 64 99 65 100 69 101 72 102 66 103 67 104 70 105 68 106
REMARK H PARENT 26 6 15 15 6 25 33 40 92 59 60 70
REMARK Flexibility Score: inf
ROOT
ATOM      1  C   UNL A   1      31.260  27.808  27.579  1.00  0.00     0.021 C 
ENDROOT
BRANCH   1   2
ATOM      2  C   UNL A   1      31.203  26.328  27.179  1.00  0.00     0.116 C 
BRANCH   2   3
ATOM      3  N   UNL A   1      30.345  26.109  26.030  1.00  0.00    -0.356 N 
ATOM      4  C   UNL A   1      30.433  26.428  24.716  1.00  0.00     0.223 C 
ATOM      5  O   UNL A   1      29.472  26.080  24.015  1.00  0.00    -0.275 OA
ATOM      6  H   UNL A   1      29.518  25.623  26.253  1.00  0.00     0.163 HD
BRANCH   4   7
ATOM      7  C   UNL A   1      31.562  27.227  24.057  1.00  0.00     0.091 C 
ATOM      8  C   UNL A   1      32.866  26.414  23.939  1.00  0.00     0.091 C 
ATOM      9  C   UNL A   1      34.032  27.282  23.430  1.00  0.00     0.014 C 
ATOM     10  C   UNL A   1      33.672  28.152  22.222  1.00  0.00     0.001 C 
ATOM     11  C   UNL A   1      31.220  28.096  22.847  1.00  0.00     0.014 C 
ATOM     12  C   UNL A   1      32.410  28.977  22.458  1.00  0.00     0.001 C 
BRANCH   8  13
ATOM     13  C   UNL A   1      32.709  25.222  23.027  1.00  0.00     0.228 C 
ATOM     14  N   UNL A   1      33.279  24.014  23.237  1.00  0.00    -0.325 N 
ATOM     15  H   UNL A   1      32.842  23.325  22.685  1.00  0.00     0.169 HD
ATOM     16  O   UNL A   1      31.990  25.304  22.023  1.00  0.00    -0.274 OA
BRANCH  14  17
ATOM     17  C   UNL A   1      34.309  23.447  24.010  1.00  0.00     0.054 A 
ATOM     18  C   UNL A   1      33.962  22.605  25.100  1.00  0.00     0.063 A 
ATOM     19  C   UNL A   1      34.969  22.102  25.948  1.00  0.00     0.016 A 
ATOM     20  C   UNL A   1      36.310  22.377  25.704  1.00  0.00     0.001 A 
ATOM     21  C   UNL A   1      35.667  23.640  23.741  1.00  0.00     0.027 A 
ATOM     22  C   UNL A   1      36.657  23.130  24.591  1.00  0.00     0.002 A 
BRANCH  18  23
ATOM     23  C   UNL A   1      32.578  22.299  25.558  1.00  0.00     0.257 C 
ATOM     24  N   UNL A   1      31.924  21.102  25.380  1.00  0.00    -0.322 N 
ATOM     25  H   UNL A   1      30.981  21.140  25.658  1.00  0.00     0.170 HD
ATOM     26  O   UNL A   1      31.931  23.217  26.069  1.00  0.00    -0.269 OA
BRANCH  24  27
ATOM     27  C   UNL A   1      32.295  19.841  24.894  1.00  0.00     0.041 A 
ATOM     28  C   UNL A   1      34.258  16.563  22.932  1.00  0.00     0.044 C 
ATOM     29  C   UNL A   1      33.465  17.635  23.619  1.00  0.00    -0.051 A 
ATOM     30  C   UNL A   1      33.489  17.748  25.017  1.00  0.00     0.005 A 
ATOM     31  C   UNL A   1      32.765  18.585  22.873  1.00  0.00     0.005 A 
ATOM     32  C   UNL A   1      32.898  18.845  25.657  1.00  0.00     0.026 A 
ATOM     33  C   UNL A   1      32.169  19.671  23.511  1.00  0.00     0.026 A 
ENDBRANCH  24  27
ENDBRANCH  18  23
ENDBRANCH  14  17
ENDBRANCH   8  13
ENDBRANCH   4   7
ENDBRANCH   2   3
ENDBRANCH   1   2
BRANCH   1  34
ATOM     34  C   UNL A   1      32.343  28.651  26.894  1.00  0.00     0.002 C 
BRANCH  34  35
ATOM     35  C   UNL A   1      31.991  30.115  26.587  1.00  0.00     0.002 C 
BRANCH  35  36
ATOM     36  C   UNL A   1      32.879  31.175  27.241  1.00  0.00     0.021 C 
BRANCH  36  37
ATOM     37  C   UNL A   1      34.224  30.651  27.733  1.00  0.00     0.116 C 
BRANCH  37  38
ATOM     38  N   UNL A   1      34.817  31.471  28.786  1.00  0.00    -0.352 N 
ATOM     39  C   UNL A   1      35.958  31.248  29.535  1.00  0.00     0.251 C 
ATOM     40  H   UNL A   1      34.334  32.303  28.991  1.00  0.00     0.163 HD
ATOM     41  O   UNL A   1      36.311  32.044  30.389  1.00  0.00    -0.269 OA
BRANCH  39  42
ATOM     42  C   UNL A   1      36.810  30.083  29.208  1.00  0.00     0.039 A 
ATOM     43  C   UNL A   1      37.079  29.154  30.220  1.00  0.00     0.014 A 
ATOM     44  C   UNL A   1      37.465  29.999  27.983  1.00  0.00     0.014 A 
ATOM     45  C   UNL A   1      38.170  28.298  30.088  1.00  0.00     0.010 A 
ATOM     46  C   UNL A   1      38.589  29.201  27.879  1.00  0.00     0.010 A 
ATOM     47  C   UNL A   1      38.986  28.411  28.961  1.00  0.00    -0.014 A 
BRANCH  47  48
ATOM     48  C   UNL A   1      40.327  27.842  28.893  1.00  0.00     0.031 A 
ATOM     49  C   UNL A   1      40.532  26.422  28.543  1.00  0.00     0.074 A 
ATOM     50  C   UNL A   1      41.400  28.636  29.109  1.00  0.00     0.049 A 
ATOM     51  N   UNL A   1      41.534  25.720  28.959  1.00  0.00    -0.248 NA
ATOM     52  C   UNL A   1      39.604  25.667  27.707  1.00  0.00     0.031 C 
ATOM     53  C   UNL A   1      42.802  28.298  28.876  1.00  0.00     0.029 A 
ATOM     54  N   UNL A   1      41.447  29.861  29.800  1.00  0.00    -0.354 N 
ATOM     55  C   UNL A   1      41.530  24.540  28.258  1.00  0.00     0.074 A 
ATOM     56  C   UNL A   1      40.276  24.523  27.538  1.00  0.00     0.031 C 
ATOM     57  C   UNL A   1      43.566  29.071  29.661  1.00  0.00     0.029 A 
ATOM     58  C   UNL A   1      42.673  29.842  30.507  1.00  0.00     0.049 A 
ATOM     59  H   UNL A   1      40.772  30.578  29.793  1.00  0.00     0.167 HD
ATOM     60  C   UNL A   1      42.640  23.752  28.239  1.00  0.00     0.037 A 
ATOM     61  C   UNL A   1      42.732  29.905  31.866  1.00  0.00     0.037 A 
ATOM     62  C   UNL A   1      43.725  24.314  29.029  1.00  0.00     0.049 A 
ATOM     63  C   UNL A   1      43.475  28.753  32.489  1.00  0.00     0.074 A 
ATOM     64  C   UNL A   1      44.820  25.091  28.685  1.00  0.00     0.029 A 
ATOM     65  N   UNL A   1      43.605  24.395  30.413  1.00  0.00    -0.354 N 
ATOM     66  N   UNL A   1      43.651  27.605  31.897  1.00  0.00    -0.248 NA
ATOM     67  C   UNL A   1      44.050  28.789  33.829  1.00  0.00     0.031 C 
ATOM     68  C   UNL A   1      45.335  25.677  29.863  1.00  0.00     0.029 A 
ATOM     69  C   UNL A   1      44.569  25.239  30.930  1.00  0.00     0.049 A 
ATOM     70  H   UNL A   1      42.929  23.919  30.947  1.00  0.00     0.167 HD
ATOM     71  C   UNL A   1      44.345  26.767  32.730  1.00  0.00     0.074 A 
ATOM     72  C   UNL A   1      44.576  27.554  33.926  1.00  0.00     0.031 C 
ATOM     73  C   UNL A   1      44.672  25.495  32.356  1.00  0.00     0.037 A 
BRANCH  60  74
ATOM     74  C   UNL A   1      42.795  22.639  27.241  1.00  0.00     0.064 A 
ATOM     75  C   UNL A   1      42.105  21.418  27.382  1.00  0.00     0.173 A 
ATOM     76  C   UNL A   1      43.679  22.713  26.149  1.00  0.00     0.173 A 
ATOM     77  F   UNL A   1      41.190  21.238  28.342  1.00  0.00    -0.203 F 
ATOM     78  C   UNL A   1      42.355  20.323  26.553  1.00  0.00     0.198 A 
ATOM     79  C   UNL A   1      43.965  21.602  25.350  1.00  0.00     0.198 A 
ATOM     80  F   UNL A   1      44.288  23.868  25.839  1.00  0.00    -0.203 F 
ATOM     81  F   UNL A   1      41.683  19.178  26.743  1.00  0.00    -0.200 F 
ATOM     82  C   UNL A   1      43.310  20.403  25.560  1.00  0.00     0.200 A 
ATOM     83  F   UNL A   1      44.894  21.694  24.389  1.00  0.00    -0.200 F 
ATOM     84  F   UNL A   1      43.593  19.333  24.805  1.00  0.00    -0.200 F 
ENDBRANCH  60  74
BRANCH  61  85
ATOM     85  C   UNL A   1      41.585  30.622  32.477  1.00  0.00     0.064 A 
ATOM     86  C   UNL A   1      41.574  32.030  32.425  1.00  0.00     0.173 A 
ATOM     87  C   UNL A   1      40.376  29.975  32.751  1.00  0.00     0.173 A 
ATOM     88  F   UNL A   1      42.709  32.700  32.171  1.00  0.00    -0.203 F 
ATOM     89  C   UNL A   1      40.385  32.750  32.520  1.00  0.00     0.198 A 
ATOM     90  C   UNL A   1      39.188  30.702  32.863  1.00  0.00     0.198 A 
ATOM     91  F   UNL A   1      40.318  28.637  32.795  1.00  0.00    -0.203 F 
ATOM     92  F   UNL A   1      40.392  34.080  32.353  1.00  0.00    -0.200 F 
ATOM     93  C   UNL A   1      39.188  32.081  32.711  1.00  0.00     0.200 A 
ATOM     94  F   UNL A   1      38.025  30.054  33.023  1.00  0.00    -0.200 F 
ATOM     95  F   UNL A   1      38.032  32.760  32.710  1.00  0.00    -0.200 F 
ENDBRANCH  61  85
BRANCH  73  96
ATOM     96  C   UNL A   1      45.234  24.416  33.248  1.00  0.00     0.064 A 
ATOM     97  C   UNL A   1      44.536  23.251  33.601  1.00  0.00     0.173 A 
ATOM     98  C   UNL A   1      46.587  24.466  33.665  1.00  0.00     0.173 A 
ATOM     99  F   UNL A   1      43.288  23.027  33.169  1.00  0.00    -0.203 F 
ATOM    100  C   UNL A   1      45.127  22.239  34.365  1.00  0.00     0.198 A 
ATOM    101  C   UNL A   1      47.188  23.431  34.380  1.00  0.00     0.198 A 
ATOM    102  F   UNL A   1      47.377  25.509  33.370  1.00  0.00    -0.203 F 
ATOM    103  F   UNL A   1      44.405  21.164  34.709  1.00  0.00    -0.200 F 
ATOM    104  C   UNL A   1      46.453  22.324  34.744  1.00  0.00     0.200 A 
ATOM    105  F   UNL A   1      48.490  23.508  34.694  1.00  0.00    -0.200 F 
ATOM    106  F   UNL A   1      47.026  21.332  35.437  1.00  0.00    -0.200 F 
ENDBRANCH  73  96
ENDBRANCH  47  48
ENDBRANCH  39  42
ENDBRANCH  37  38
ENDBRANCH  36  37
ENDBRANCH  35  36
ENDBRANCH  34  35
ENDBRANCH   1  34
TORSDOF 17
ENDMDL
MODEL 3
REMARK VINA RESULT:     -13.6      3.017      4.784
REMARK SMILES Cc1ccc(NC(=O)c2ccccc2NC(=O)[C@H]2CCCC[C@H]2C(=O)NCCCCCCNC(=O)c2ccc(-c3c4nc(c(-c5c(F)c(F)c(F)c(F)c5F)c5ccc([nH]5)c(-c5c(F)c(F)c(F)c(F)c5F)c5nc(c(-c6c(F)c(F)c(F)c(F)c6F)c6ccc3[nH]6)C=C5)C=C4)cc2)cc1
REMARK SMILES IDX 28 1 27 2 26 3 24 4 25 5 23 7 18 8 19 9 20 10 22 11 21 12
REMARK SMILES IDX 16 13 15 14 17 16 14 17 9 18 10 19 11 20 13 21 12 22 7 23
REMARK SMILES IDX 6 24 8 26 5 27 1 28 2 29 3 30 100 31 4 32 99 33 29 34 30 35
REMARK SMILES IDX 31 36 32 37 33 38 34 39 35 41 36 42 37 43 98 44 38 45 97 46
REMARK SMILES IDX 39 47 40 48 41 49 91 50 42 51 96 52 90 53 92 54 43 55 95 56
REMARK SMILES IDX 89 57 88 58 44 60 76 61 56 62 75 63 57 64 60 65 74 66 93 67
REMARK SMILES IDX 58 68 59 69 73 71 94 72 61 73 45 74 46 75 54 76 47 77 48 78
REMARK SMILES IDX 52 79 55 80 49 81 50 82 53 83 51 84 77 85 78 86 86 87 79 88
REMARK SMILES IDX 80 89 84 90 87 91 81 92 82 93 85 94 83 95 62 96 63 97 71 98
REMARK SMILES IDX 64 99 65 100 69 101 72 102 66 103 67 104 70 105 68 106
REMARK H PARENT 26 6 15 15 6 25 33 40 92 59 60 70
REMARK Flexibility Score: inf
ROOT
ATOM      1  C   UNL A   1      35.285  30.172  27.573  1.00  0.00     0.021 C 
ENDROOT
BRANCH   1   2
ATOM      2  C   UNL A   1      34.789  28.828  27.021  1.00  0.00     0.116 C 
BRANCH   2   3
ATOM      3  N   UNL A   1      33.427  28.541  27.433  1.00  0.00    -0.356 N 
ATOM      4  C   UNL A   1      32.272  28.311  26.764  1.00  0.00     0.223 C 
ATOM      5  O   UNL A   1      31.274  28.112  27.470  1.00  0.00    -0.275 OA
ATOM      6  H   UNL A   1      33.319  28.505  28.411  1.00  0.00     0.163 HD
BRANCH   4   7
ATOM      7  C   UNL A   1      32.089  28.349  25.243  1.00  0.00     0.091 C 
ATOM      8  C   UNL A   1      32.817  27.189  24.534  1.00  0.00     0.091 C 
ATOM      9  C   UNL A   1      32.762  27.336  23.003  1.00  0.00     0.014 C 
ATOM     10  C   UNL A   1      31.370  27.683  22.465  1.00  0.00     0.001 C 
ATOM     11  C   UNL A   1      30.705  28.689  24.690  1.00  0.00     0.014 C 
ATOM     12  C   UNL A   1      30.760  28.889  23.174  1.00  0.00     0.001 C 
BRANCH   8  13
ATOM     13  C   UNL A   1      32.246  25.845  24.918  1.00  0.00     0.228 C 
ATOM     14  N   UNL A   1      32.976  24.717  25.072  1.00  0.00    -0.325 N 
ATOM     15  H   UNL A   1      32.463  24.040  25.571  1.00  0.00     0.169 HD
ATOM     16  O   UNL A   1      31.036  25.732  25.148  1.00  0.00    -0.274 OA
BRANCH  14  17
ATOM     17  C   UNL A   1      34.248  24.222  24.734  1.00  0.00     0.054 A 
ATOM     18  C   UNL A   1      34.433  23.620  23.461  1.00  0.00     0.063 A 
ATOM     19  C   UNL A   1      35.670  23.030  23.134  1.00  0.00     0.016 A 
ATOM     20  C   UNL A   1      36.738  23.074  24.024  1.00  0.00     0.001 A 
ATOM     21  C   UNL A   1      35.360  24.322  25.575  1.00  0.00     0.027 A 
ATOM     22  C   UNL A   1      36.586  23.735  25.235  1.00  0.00     0.002 A 
BRANCH  18  23
ATOM     23  C   UNL A   1      33.371  23.399  22.440  1.00  0.00     0.257 C 
ATOM     24  N   UNL A   1      32.580  22.278  22.339  1.00  0.00    -0.322 N 
ATOM     25  H   UNL A   1      32.016  22.283  21.532  1.00  0.00     0.170 HD
ATOM     26  O   UNL A   1      33.240  24.255  21.560  1.00  0.00    -0.269 OA
BRANCH  24  27
ATOM     27  C   UNL A   1      32.392  21.132  23.124  1.00  0.00     0.041 A 
ATOM     28  C   UNL A   1      32.790  17.320  25.061  1.00  0.00     0.044 C 
ATOM     29  C   UNL A   1      32.523  18.644  24.407  1.00  0.00    -0.051 A 
ATOM     30  C   UNL A   1      32.649  19.833  25.140  1.00  0.00     0.005 A 
ATOM     31  C   UNL A   1      32.233  18.714  23.044  1.00  0.00     0.005 A 
ATOM     32  C   UNL A   1      32.576  21.078  24.502  1.00  0.00     0.026 A 
ATOM     33  C   UNL A   1      32.150  19.952  22.412  1.00  0.00     0.026 A 
ENDBRANCH  24  27
ENDBRANCH  18  23
ENDBRANCH  14  17
ENDBRANCH   8  13
ENDBRANCH   4   7
ENDBRANCH   2   3
ENDBRANCH   1   2
BRANCH   1  34
ATOM     34  C   UNL A   1      34.216  31.252  27.776  1.00  0.00     0.002 C 
BRANCH  34  35
ATOM     35  C   UNL A   1      34.516  32.338  28.821  1.00  0.00     0.002 C 
BRANCH  35  36
ATOM     36  C   UNL A   1      33.775  33.665  28.648  1.00  0.00     0.021 C 
BRANCH  36  37
ATOM     37  C   UNL A   1      34.237  34.770  29.591  1.00  0.00     0.116 C 
BRANCH  37  38
ATOM     38  N   UNL A   1      33.318  35.012  30.699  1.00  0.00    -0.352 N 
ATOM     39  C   UNL A   1      33.466  34.722  32.043  1.00  0.00     0.251 C 
ATOM     40  H   UNL A   1      32.469  35.445  30.453  1.00  0.00     0.163 HD
ATOM     41  O   UNL A   1      32.584  34.991  32.842  1.00  0.00    -0.269 OA
BRANCH  39  42
ATOM     42  C   UNL A   1      34.759  34.183  32.519  1.00  0.00     0.039 A 
ATOM     43  C   UNL A   1      35.871  35.032  32.518  1.00  0.00     0.014 A 
ATOM     44  C   UNL A   1      34.909  32.827  32.798  1.00  0.00     0.014 A 
ATOM     45  C   UNL A   1      37.150  34.481  32.557  1.00  0.00     0.010 A 
ATOM     46  C   UNL A   1      36.174  32.274  32.767  1.00  0.00     0.010 A 
ATOM     47  C   UNL A   1      37.289  33.093  32.566  1.00  0.00    -0.014 A 
BRANCH  47  48
ATOM     48  C   UNL A   1      38.540  32.418  32.242  1.00  0.00     0.031 A 
ATOM     49  C   UNL A   1      38.550  31.188  31.425  1.00  0.00     0.074 A 
ATOM     50  C   UNL A   1      39.712  32.951  32.656  1.00  0.00     0.049 A 
ATOM     51  N   UNL A   1      39.451  30.267  31.529  1.00  0.00    -0.248 NA
ATOM     52  C   UNL A   1      37.523  30.883  30.434  1.00  0.00     0.031 C 
ATOM     53  C   UNL A   1      41.054  32.540  32.250  1.00  0.00     0.029 A 
ATOM     54  N   UNL A   1      39.927  33.853  33.715  1.00  0.00    -0.354 N 
ATOM     55  C   UNL A   1      39.284  29.405  30.474  1.00  0.00     0.074 A 
ATOM     56  C   UNL A   1      38.034  29.790  29.856  1.00  0.00     0.031 C 
ATOM     57  C   UNL A   1      41.920  32.899  33.209  1.00  0.00     0.029 A 
ATOM     58  C   UNL A   1      41.145  33.443  34.309  1.00  0.00     0.049 A 
ATOM     59  H   UNL A   1      39.355  34.608  33.984  1.00  0.00     0.167 HD
ATOM     60  C   UNL A   1      40.277  28.539  30.134  1.00  0.00     0.037 A 
ATOM     61  C   UNL A   1      41.220  33.033  35.606  1.00  0.00     0.037 A 
ATOM     62  C   UNL A   1      41.433  28.659  31.010  1.00  0.00     0.049 A 
ATOM     63  C   UNL A   1      41.805  31.654  35.767  1.00  0.00     0.074 A 
ATOM     64  C   UNL A   1      42.620  29.364  30.890  1.00  0.00     0.029 A 
ATOM     65  N   UNL A   1      41.333  28.280  32.345  1.00  0.00    -0.354 N 
ATOM     66  N   UNL A   1      41.821  30.763  34.816  1.00  0.00    -0.248 NA
ATOM     67  C   UNL A   1      42.388  31.161  37.010  1.00  0.00     0.031 C 
ATOM     68  C   UNL A   1      43.217  29.446  32.169  1.00  0.00     0.029 A 
ATOM     69  C   UNL A   1      42.406  28.771  33.064  1.00  0.00     0.049 A 
ATOM     70  H   UNL A   1      40.603  27.739  32.723  1.00  0.00     0.167 HD
ATOM     71  C   UNL A   1      42.401  29.612  35.283  1.00  0.00     0.074 A 
ATOM     72  C   UNL A   1      42.743  29.912  36.660  1.00  0.00     0.031 C 
ATOM     73  C   UNL A   1      42.551  28.513  34.487  1.00  0.00     0.037 A 
BRANCH  60  74
ATOM     74  C   UNL A   1      40.274  27.820  28.814  1.00  0.00     0.064 A 
ATOM     75  C   UNL A   1      39.665  26.559  28.660  1.00  0.00     0.173 A 
ATOM     76  C   UNL A   1      40.929  28.321  27.674  1.00  0.00     0.173 A 
ATOM     77  F   UNL A   1      38.958  25.998  29.648  1.00  0.00    -0.203 F 
ATOM     78  C   UNL A   1      39.787  25.813  27.487  1.00  0.00     0.198 A 
ATOM     79  C   UNL A   1      41.092  27.553  26.516  1.00  0.00     0.198 A 
ATOM     80  F   UNL A   1      41.429  29.566  27.663  1.00  0.00    -0.203 F 
ATOM     81  F   UNL A   1      39.202  24.609  27.400  1.00  0.00    -0.200 F 
ATOM     82  C   UNL A   1      40.530  26.294  26.428  1.00  0.00     0.200 A 
ATOM     83  F   UNL A   1      41.817  28.033  25.496  1.00  0.00    -0.200 F 
ATOM     84  F   UNL A   1      40.698  25.551  25.326  1.00  0.00    -0.200 F 
ENDBRANCH  60  74
BRANCH  61  85
ATOM     85  C   UNL A   1      40.184  33.636  36.481  1.00  0.00     0.064 A 
ATOM     86  C   UNL A   1      39.028  32.882  36.764  1.00  0.00     0.173 A 
ATOM     87  C   UNL A   1      40.470  34.722  37.315  1.00  0.00     0.173 A 
ATOM     88  F   UNL A   1      38.706  31.833  35.992  1.00  0.00    -0.203 F 
ATOM     89  C   UNL A   1      38.262  33.129  37.902  1.00  0.00     0.198 A 
ATOM     90  C   UNL A   1      39.689  34.977  38.445  1.00  0.00     0.198 A 
ATOM     91  F   UNL A   1      41.565  35.466  37.108  1.00  0.00    -0.203 F 
ATOM     92  F   UNL A   1      37.235  32.324  38.205  1.00  0.00    -0.200 F 
ATOM     93  C   UNL A   1      38.611  34.161  38.757  1.00  0.00     0.200 A 
ATOM     94  F   UNL A   1      40.040  35.959  39.288  1.00  0.00    -0.200 F 
ATOM     95  F   UNL A   1      37.934  34.344  39.899  1.00  0.00    -0.200 F 
ENDBRANCH  61  85
BRANCH  73  96
ATOM     96  C   UNL A   1      42.969  27.134  34.935  1.00  0.00     0.064 A 
ATOM     97  C   UNL A   1      42.083  26.053  35.065  1.00  0.00     0.173 A 
ATOM     98  C   UNL A   1      44.340  26.824  35.111  1.00  0.00     0.173 A 
ATOM     99  F   UNL A   1      40.775  26.187  34.808  1.00  0.00    -0.203 F 
ATOM    100  C   UNL A   1      42.528  24.771  35.405  1.00  0.00     0.198 A 
ATOM    101  C   UNL A   1      44.784  25.534  35.397  1.00  0.00     0.198 A 
ATOM    102  F   UNL A   1      45.295  27.757  34.986  1.00  0.00    -0.203 F 
ATOM    103  F   UNL A   1      41.637  23.781  35.556  1.00  0.00    -0.200 F 
ATOM    104  C   UNL A   1      43.877  24.510  35.560  1.00  0.00     0.200 A 
ATOM    105  F   UNL A   1      46.099  25.289  35.492  1.00  0.00    -0.200 F 
ATOM    106  F   UNL A   1      44.300  23.272  35.843  1.00  0.00    -0.200 F 
ENDBRANCH  73  96
ENDBRANCH  47  48
ENDBRANCH  39  42
ENDBRANCH  37  38
ENDBRANCH  36  37
ENDBRANCH  35  36
ENDBRANCH  34  35
ENDBRANCH   1  34
TORSDOF 17
ENDMDL
