MODEL 1
REMARK VINA RESULT:     -12.8      0.000      0.000
REMARK SMILES Cc1cc(C(=O)NCCCCCCNC(=O)c2ccc(-c3c4nc(c(-c5c(F)c(F)c(F)c(F)c5F)c5ccc([nH]5)c(-c5c(F)c(F)c(F)c(F)c5F)c5nc(c(-c6c(F)c(F)c(F)c(F)c6F)c6ccc3[nH]6)C=C5)C=C4)cc2)ccc1NC(=O)c1ccc(=O)n(CCOc2ccccc2)n1
REMARK SMILES IDX 8 1 7 2 5 3 6 4 4 6 1 7 2 8 3 9 82 10 81 11 80 12 83 13
REMARK SMILES IDX 84 14 85 16 86 17 87 18 101 19 88 20 91 21 89 22 90 23 92 24
REMARK SMILES IDX 93 25 94 26 95 27 96 28 100 29 97 30 99 31 98 32 9 33 10 34
REMARK SMILES IDX 11 35 12 36 13 37 14 38 15 39 16 41 17 42 18 43 79 44 19 45
REMARK SMILES IDX 78 46 20 47 21 48 22 49 72 50 23 51 77 52 71 53 73 54 24 55
REMARK SMILES IDX 76 56 70 57 69 58 25 60 57 61 37 62 56 63 38 64 41 65 55 66
REMARK SMILES IDX 74 67 39 68 40 69 54 71 75 72 42 73 26 74 27 75 35 76 28 77
REMARK SMILES IDX 29 78 33 79 36 80 30 81 31 82 34 83 32 84 58 85 59 86 67 87
REMARK SMILES IDX 60 88 61 89 65 90 68 91 62 92 63 93 66 94 64 95 43 96 44 97
REMARK SMILES IDX 52 98 45 99 46 100 50 101 53 102 47 103 48 104 51 105 49 106
REMARK H PARENT 7 5 83 15 14 40 73 59 41 70
REMARK Flexibility Score: inf
ROOT
ATOM      1  C   UNL A   1      34.032  30.535  27.271  1.00  0.00     0.116 C 
ENDROOT
BRANCH   1   2
ATOM      2  N   UNL A   1      33.048  29.554  27.711  1.00  0.00    -0.352 N 
ATOM      3  C   UNL A   1      32.417  28.531  27.040  1.00  0.00     0.251 C 
ATOM      4  O   UNL A   1      31.771  27.705  27.682  1.00  0.00    -0.269 OA
ATOM      5  H   UNL A   1      32.790  29.636  28.658  1.00  0.00     0.163 HD
BRANCH   3   6
ATOM      6  C   UNL A   1      32.523  28.371  25.568  1.00  0.00     0.040 A 
ATOM      7  C   UNL A   1      30.140  28.268  22.606  1.00  0.00     0.046 C 
ATOM      8  C   UNL A   1      31.414  28.095  23.389  1.00  0.00    -0.027 A 
ATOM      9  C   UNL A   1      31.362  28.349  24.781  1.00  0.00     0.019 A 
ATOM     10  C   UNL A   1      32.653  27.783  22.810  1.00  0.00     0.044 A 
ATOM     11  C   UNL A   1      33.796  28.070  23.557  1.00  0.00     0.027 A 
ATOM     12  C   UNL A   1      33.746  28.350  24.921  1.00  0.00     0.016 A 
BRANCH  10  13
ATOM     13  N   UNL A   1      32.727  27.186  21.529  1.00  0.00    -0.320 N 
ATOM     14  C   UNL A   1      32.893  25.852  21.180  1.00  0.00     0.276 C 
ATOM     15  H   UNL A   1      32.651  27.810  20.771  1.00  0.00     0.170 HD
ATOM     16  O   UNL A   1      32.936  25.483  20.012  1.00  0.00    -0.267 OA
BRANCH  14  17
ATOM     17  C   UNL A   1      33.013  24.805  22.270  1.00  0.00     0.149 A 
ATOM     18  C   UNL A   1      31.730  24.369  22.858  1.00  0.00     0.042 A 
ATOM     19  N   UNL A   1      34.177  24.318  22.587  1.00  0.00    -0.164 NA
ATOM     20  C   UNL A   1      31.737  23.132  23.359  1.00  0.00     0.076 A 
ATOM     21  N   UNL A   1      34.151  23.154  23.349  1.00  0.00    -0.226 N 
ATOM     22  C   UNL A   1      33.007  22.367  23.415  1.00  0.00     0.266 A 
ATOM     23  O   UNL A   1      32.977  21.152  23.584  1.00  0.00    -0.268 OA
BRANCH  21  24
ATOM     24  C   UNL A   1      35.420  22.669  23.896  1.00  0.00     0.190 C 
BRANCH  24  25
ATOM     25  C   UNL A   1      36.107  23.723  24.787  1.00  0.00     0.253 C 
BRANCH  25  26
ATOM     26  O   UNL A   1      35.820  23.505  26.186  1.00  0.00    -0.492 OA
BRANCH  26  27
ATOM     27  C   UNL A   1      34.486  23.624  26.462  1.00  0.00     0.119 A 
ATOM     28  C   UNL A   1      33.778  24.783  26.164  1.00  0.00     0.046 A 
ATOM     29  C   UNL A   1      33.853  22.580  27.126  1.00  0.00     0.046 A 
ATOM     30  C   UNL A   1      32.406  24.839  26.435  1.00  0.00     0.004 A 
ATOM     31  C   UNL A   1      32.477  22.603  27.336  1.00  0.00     0.004 A 
ATOM     32  C   UNL A   1      31.750  23.734  26.983  1.00  0.00     0.000 A 
ENDBRANCH  26  27
ENDBRANCH  25  26
ENDBRANCH  24  25
ENDBRANCH  21  24
ENDBRANCH  14  17
ENDBRANCH  10  13
ENDBRANCH   3   6
ENDBRANCH   1   2
BRANCH   1  33
ATOM     33  C   UNL A   1      35.212  30.650  28.244  1.00  0.00     0.021 C 
BRANCH  33  34
ATOM     34  C   UNL A   1      36.104  31.888  28.060  1.00  0.00     0.002 C 
BRANCH  34  35
ATOM     35  C   UNL A   1      35.975  33.002  29.112  1.00  0.00     0.002 C 
BRANCH  35  36
ATOM     36  C   UNL A   1      34.577  33.228  29.696  1.00  0.00     0.021 C 
BRANCH  36  37
ATOM     37  C   UNL A   1      34.436  32.844  31.165  1.00  0.00     0.116 C 
BRANCH  37  38
ATOM     38  N   UNL A   1      34.036  33.945  32.036  1.00  0.00    -0.352 N 
ATOM     39  C   UNL A   1      34.754  34.594  33.033  1.00  0.00     0.251 C 
ATOM     40  H   UNL A   1      33.121  34.279  31.894  1.00  0.00     0.163 HD
ATOM     41  O   UNL A   1      34.244  35.470  33.691  1.00  0.00    -0.269 OA
BRANCH  39  42
ATOM     42  C   UNL A   1      36.199  34.282  33.196  1.00  0.00     0.039 A 
ATOM     43  C   UNL A   1      37.109  34.915  32.340  1.00  0.00     0.014 A 
ATOM     44  C   UNL A   1      36.626  33.263  34.041  1.00  0.00     0.014 A 
ATOM     45  C   UNL A   1      38.376  34.362  32.159  1.00  0.00     0.010 A 
ATOM     46  C   UNL A   1      37.842  32.657  33.794  1.00  0.00     0.010 A 
ATOM     47  C   UNL A   1      38.686  33.164  32.803  1.00  0.00    -0.014 A 
BRANCH  47  48
ATOM     48  C   UNL A   1      39.805  32.310  32.416  1.00  0.00     0.031 A 
ATOM     49  C   UNL A   1      39.587  31.085  31.620  1.00  0.00     0.074 A 
ATOM     50  C   UNL A   1      41.063  32.709  32.708  1.00  0.00     0.049 A 
ATOM     51  N   UNL A   1      40.441  30.120  31.525  1.00  0.00    -0.248 NA
ATOM     52  C   UNL A   1      38.355  30.838  30.885  1.00  0.00     0.031 C 
ATOM     53  C   UNL A   1      42.315  32.168  32.186  1.00  0.00     0.029 A 
ATOM     54  N   UNL A   1      41.464  33.575  33.740  1.00  0.00    -0.354 N 
ATOM     55  C   UNL A   1      39.992  29.251  30.559  1.00  0.00     0.074 A 
ATOM     56  C   UNL A   1      38.671  29.726  30.213  1.00  0.00     0.031 C 
ATOM     57  C   UNL A   1      43.296  32.436  33.061  1.00  0.00     0.029 A 
ATOM     58  C   UNL A   1      42.674  33.029  34.231  1.00  0.00     0.049 A 
ATOM     59  H   UNL A   1      41.002  34.387  34.053  1.00  0.00     0.167 HD
ATOM     60  C   UNL A   1      40.830  28.281  30.090  1.00  0.00     0.037 A 
ATOM     61  C   UNL A   1      42.748  32.535  35.502  1.00  0.00     0.037 A 
ATOM     62  C   UNL A   1      42.099  28.266  30.812  1.00  0.00     0.049 A 
ATOM     63  C   UNL A   1      43.100  31.064  35.592  1.00  0.00     0.074 A 
ATOM     64  C   UNL A   1      43.353  28.805  30.576  1.00  0.00     0.029 A 
ATOM     65  N   UNL A   1      42.099  27.864  32.134  1.00  0.00    -0.354 N 
ATOM     66  N   UNL A   1      43.192  30.265  34.566  1.00  0.00    -0.248 NA
ATOM     67  C   UNL A   1      43.267  30.360  36.865  1.00  0.00     0.031 C 
ATOM     68  C   UNL A   1      44.097  28.746  31.789  1.00  0.00     0.029 A 
ATOM     69  C   UNL A   1      43.294  28.168  32.754  1.00  0.00     0.049 A 
ATOM     70  H   UNL A   1      41.342  27.415  32.577  1.00  0.00     0.167 HD
ATOM     71  C   UNL A   1      43.372  28.984  35.011  1.00  0.00     0.074 A 
ATOM     72  C   UNL A   1      43.413  29.089  36.455  1.00  0.00     0.031 C 
ATOM     73  C   UNL A   1      43.434  27.912  34.174  1.00  0.00     0.037 A 
BRANCH  60  74
ATOM     74  C   UNL A   1      40.579  27.479  28.836  1.00  0.00     0.064 A 
ATOM     75  C   UNL A   1      39.694  26.379  28.851  1.00  0.00     0.173 A 
ATOM     76  C   UNL A   1      41.210  27.715  27.602  1.00  0.00     0.173 A 
ATOM     77  F   UNL A   1      38.950  26.091  29.926  1.00  0.00    -0.203 F 
ATOM     78  C   UNL A   1      39.547  25.522  27.756  1.00  0.00     0.198 A 
ATOM     79  C   UNL A   1      41.111  26.823  26.529  1.00  0.00     0.198 A 
ATOM     80  F   UNL A   1      41.897  28.843  27.378  1.00  0.00    -0.203 F 
ATOM     81  F   UNL A   1      38.692  24.491  27.831  1.00  0.00    -0.200 F 
ATOM     82  C   UNL A   1      40.287  25.720  26.610  1.00  0.00     0.200 A 
ATOM     83  F   UNL A   1      41.824  27.044  25.414  1.00  0.00    -0.200 F 
ATOM     84  F   UNL A   1      40.190  24.867  25.583  1.00  0.00    -0.200 F 
ENDBRANCH  60  74
BRANCH  61  85
ATOM     85  C   UNL A   1      41.854  33.248  36.453  1.00  0.00     0.064 A 
ATOM     86  C   UNL A   1      42.284  34.478  36.989  1.00  0.00     0.173 A 
ATOM     87  C   UNL A   1      40.493  32.938  36.553  1.00  0.00     0.173 A 
ATOM     88  F   UNL A   1      43.580  34.824  36.922  1.00  0.00    -0.203 F 
ATOM     89  C   UNL A   1      41.373  35.409  37.484  1.00  0.00     0.198 A 
ATOM     90  C   UNL A   1      39.588  33.864  37.072  1.00  0.00     0.198 A 
ATOM     91  F   UNL A   1      40.017  31.792  36.048  1.00  0.00    -0.203 F 
ATOM     92  F   UNL A   1      41.800  36.620  37.871  1.00  0.00    -0.200 F 
ATOM     93  C   UNL A   1      40.023  35.110  37.501  1.00  0.00     0.200 A 
ATOM     94  F   UNL A   1      38.277  33.582  37.068  1.00  0.00    -0.200 F 
ATOM     95  F   UNL A   1      39.135  36.034  37.892  1.00  0.00    -0.200 F 
ENDBRANCH  61  85
BRANCH  73  96
ATOM     96  C   UNL A   1      43.645  26.518  34.663  1.00  0.00     0.064 A 
ATOM     97  C   UNL A   1      44.925  25.954  34.754  1.00  0.00     0.173 A 
ATOM     98  C   UNL A   1      42.556  25.669  34.939  1.00  0.00     0.173 A 
ATOM     99  F   UNL A   1      46.015  26.686  34.474  1.00  0.00    -0.203 F 
ATOM    100  C   UNL A   1      45.107  24.621  35.124  1.00  0.00     0.198 A 
ATOM    101  C   UNL A   1      42.738  24.328  35.265  1.00  0.00     0.198 A 
ATOM    102  F   UNL A   1      41.296  26.130  34.919  1.00  0.00    -0.203 F 
ATOM    103  F   UNL A   1      46.348  24.127  35.240  1.00  0.00    -0.200 F 
ATOM    104  C   UNL A   1      44.014  23.806  35.366  1.00  0.00     0.200 A 
ATOM    105  F   UNL A   1      41.672  23.546  35.484  1.00  0.00    -0.200 F 
ATOM    106  F   UNL A   1      44.190  22.520  35.698  1.00  0.00    -0.200 F 
ENDBRANCH  73  96
ENDBRANCH  47  48
ENDBRANCH  39  42
ENDBRANCH  37  38
ENDBRANCH  36  37
ENDBRANCH  35  36
ENDBRANCH  34  35
ENDBRANCH  33  34
ENDBRANCH   1  33
TORSDOF 19
ENDMDL
MODEL 2
REMARK VINA RESULT:     -12.5      4.843     10.371
REMARK SMILES Cc1cc(C(=O)NCCCCCCNC(=O)c2ccc(-c3c4nc(c(-c5c(F)c(F)c(F)c(F)c5F)c5ccc([nH]5)c(-c5c(F)c(F)c(F)c(F)c5F)c5nc(c(-c6c(F)c(F)c(F)c(F)c6F)c6ccc3[nH]6)C=C5)C=C4)cc2)ccc1NC(=O)c1ccc(=O)n(CCOc2ccccc2)n1
REMARK SMILES IDX 8 1 7 2 5 3 6 4 4 6 1 7 2 8 3 9 82 10 81 11 80 12 83 13
REMARK SMILES IDX 84 14 85 16 86 17 87 18 101 19 88 20 91 21 89 22 90 23 92 24
REMARK SMILES IDX 93 25 94 26 95 27 96 28 100 29 97 30 99 31 98 32 9 33 10 34
REMARK SMILES IDX 11 35 12 36 13 37 14 38 15 39 16 41 17 42 18 43 79 44 19 45
REMARK SMILES IDX 78 46 20 47 21 48 22 49 72 50 23 51 77 52 71 53 73 54 24 55
REMARK SMILES IDX 76 56 70 57 69 58 25 60 57 61 37 62 56 63 38 64 41 65 55 66
REMARK SMILES IDX 74 67 39 68 40 69 54 71 75 72 42 73 26 74 27 75 35 76 28 77
REMARK SMILES IDX 29 78 33 79 36 80 30 81 31 82 34 83 32 84 58 85 59 86 67 87
REMARK SMILES IDX 60 88 61 89 65 90 68 91 62 92 63 93 66 94 64 95 43 96 44 97
REMARK SMILES IDX 52 98 45 99 46 100 50 101 53 102 47 103 48 104 51 105 49 106
REMARK H PARENT 7 5 83 15 14 40 73 59 41 70
REMARK Flexibility Score: inf
ROOT
ATOM      1  C   UNL A   1      37.956  23.972  26.162  1.00  0.00     0.116 C 
ENDROOT
BRANCH   1   2
ATOM      2  N   UNL A   1      37.783  23.552  24.777  1.00  0.00    -0.352 N 
ATOM      3  C   UNL A   1      36.681  23.083  24.097  1.00  0.00     0.251 C 
ATOM      4  O   UNL A   1      36.733  22.983  22.872  1.00  0.00    -0.269 OA
ATOM      5  H   UNL A   1      38.598  23.616  24.229  1.00  0.00     0.163 HD
BRANCH   3   6
ATOM      6  C   UNL A   1      35.417  22.731  24.791  1.00  0.00     0.040 A 
ATOM      7  C   UNL A   1      31.957  21.499  23.808  1.00  0.00     0.046 C 
ATOM      8  C   UNL A   1      33.045  22.089  24.663  1.00  0.00    -0.027 A 
ATOM      9  C   UNL A   1      34.297  22.334  24.047  1.00  0.00     0.019 A 
ATOM     10  C   UNL A   1      32.917  22.329  26.040  1.00  0.00     0.044 A 
ATOM     11  C   UNL A   1      34.095  22.464  26.775  1.00  0.00     0.027 A 
ATOM     12  C   UNL A   1      35.333  22.674  26.171  1.00  0.00     0.016 A 
BRANCH  10  13
ATOM     13  N   UNL A   1      31.642  22.446  26.642  1.00  0.00    -0.320 N 
ATOM     14  C   UNL A   1      30.767  23.524  26.666  1.00  0.00     0.276 C 
ATOM     15  H   UNL A   1      31.328  21.642  27.117  1.00  0.00     0.170 HD
ATOM     16  O   UNL A   1      29.682  23.472  27.234  1.00  0.00    -0.267 OA
BRANCH  14  17
ATOM     17  C   UNL A   1      31.148  24.809  25.958  1.00  0.00     0.149 A 
ATOM     18  C   UNL A   1      32.084  25.676  26.703  1.00  0.00     0.042 A 
ATOM     19  N   UNL A   1      30.703  25.055  24.760  1.00  0.00    -0.164 NA
ATOM     20  C   UNL A   1      32.845  26.462  25.940  1.00  0.00     0.076 A 
ATOM     21  N   UNL A   1      31.356  26.079  24.079  1.00  0.00    -0.226 N 
ATOM     22  C   UNL A   1      32.615  26.513  24.474  1.00  0.00     0.266 A 
ATOM     23  O   UNL A   1      33.480  26.982  23.740  1.00  0.00    -0.268 OA
BRANCH  21  24
ATOM     24  C   UNL A   1      30.778  26.528  22.811  1.00  0.00     0.190 C 
BRANCH  24  25
ATOM     25  C   UNL A   1      29.822  27.723  23.001  1.00  0.00     0.253 C 
BRANCH  25  26
ATOM     26  O   UNL A   1      29.912  28.657  21.903  1.00  0.00    -0.492 OA
BRANCH  26  27
ATOM     27  C   UNL A   1      29.379  29.875  22.220  1.00  0.00     0.119 A 
ATOM     28  C   UNL A   1      28.761  30.674  21.264  1.00  0.00     0.046 A 
ATOM     29  C   UNL A   1      29.533  30.347  23.518  1.00  0.00     0.046 A 
ATOM     30  C   UNL A   1      28.200  31.897  21.649  1.00  0.00     0.004 A 
ATOM     31  C   UNL A   1      28.919  31.529  23.922  1.00  0.00     0.004 A 
ATOM     32  C   UNL A   1      28.245  32.304  22.985  1.00  0.00     0.000 A 
ENDBRANCH  26  27
ENDBRANCH  25  26
ENDBRANCH  24  25
ENDBRANCH  21  24
ENDBRANCH  14  17
ENDBRANCH  10  13
ENDBRANCH   3   6
ENDBRANCH   1   2
BRANCH   1  33
ATOM     33  C   UNL A   1      39.433  24.027  26.570  1.00  0.00     0.021 C 
BRANCH  33  34
ATOM     34  C   UNL A   1      40.011  22.722  27.141  1.00  0.00     0.002 C 
BRANCH  34  35
ATOM     35  C   UNL A   1      41.544  22.598  27.180  1.00  0.00     0.002 C 
BRANCH  35  36
ATOM     36  C   UNL A   1      42.180  21.684  26.128  1.00  0.00     0.021 C 
BRANCH  36  37
ATOM     37  C   UNL A   1      42.955  22.418  25.038  1.00  0.00     0.116 C 
BRANCH  37  38
ATOM     38  N   UNL A   1      44.146  21.714  24.573  1.00  0.00    -0.352 N 
ATOM     39  C   UNL A   1      45.488  22.022  24.760  1.00  0.00     0.251 C 
ATOM     40  H   UNL A   1      43.972  20.898  24.051  1.00  0.00     0.163 HD
ATOM     41  O   UNL A   1      46.352  21.340  24.262  1.00  0.00    -0.269 OA
BRANCH  39  42
ATOM     42  C   UNL A   1      45.849  23.129  25.684  1.00  0.00     0.039 A 
ATOM     43  C   UNL A   1      45.796  22.881  27.061  1.00  0.00     0.014 A 
ATOM     44  C   UNL A   1      46.056  24.422  25.214  1.00  0.00     0.014 A 
ATOM     45  C   UNL A   1      45.703  23.954  27.946  1.00  0.00     0.010 A 
ATOM     46  C   UNL A   1      45.869  25.484  26.076  1.00  0.00     0.010 A 
ATOM     47  C   UNL A   1      45.621  25.247  27.431  1.00  0.00    -0.014 A 
BRANCH  47  48
ATOM     48  C   UNL A   1      45.157  26.394  28.208  1.00  0.00     0.031 A 
ATOM     49  C   UNL A   1      43.754  26.847  28.130  1.00  0.00     0.074 A 
ATOM     50  C   UNL A   1      46.008  26.977  29.081  1.00  0.00     0.049 A 
ATOM     51  N   UNL A   1      43.347  28.015  28.502  1.00  0.00    -0.248 NA
ATOM     52  C   UNL A   1      42.689  26.012  27.590  1.00  0.00     0.031 C 
ATOM     53  C   UNL A   1      45.685  27.934  30.136  1.00  0.00     0.029 A 
ATOM     54  N   UNL A   1      47.412  26.974  29.034  1.00  0.00    -0.354 N 
ATOM     55  C   UNL A   1      41.972  28.015  28.473  1.00  0.00     0.074 A 
ATOM     56  C   UNL A   1      41.611  26.754  27.867  1.00  0.00     0.031 C 
ATOM     57  C   UNL A   1      46.784  28.651  30.416  1.00  0.00     0.029 A 
ATOM     58  C   UNL A   1      47.798  28.272  29.449  1.00  0.00     0.049 A 
ATOM     59  H   UNL A   1      48.000  26.229  28.770  1.00  0.00     0.167 HD
ATOM     60  C   UNL A   1      41.291  29.044  29.055  1.00  0.00     0.037 A 
ATOM     61  C   UNL A   1      48.421  29.122  28.582  1.00  0.00     0.037 A 
ATOM     62  C   UNL A   1      42.193  30.082  29.546  1.00  0.00     0.049 A 
ATOM     63  C   UNL A   1      47.674  30.412  28.311  1.00  0.00     0.074 A 
ATOM     64  C   UNL A   1      42.752  30.375  30.780  1.00  0.00     0.029 A 
ATOM     65  N   UNL A   1      42.887  30.841  28.623  1.00  0.00    -0.354 N 
ATOM     66  N   UNL A   1      46.469  30.668  28.737  1.00  0.00    -0.248 NA
ATOM     67  C   UNL A   1      48.196  31.469  27.442  1.00  0.00     0.031 C 
ATOM     68  C   UNL A   1      43.813  31.302  30.577  1.00  0.00     0.029 A 
ATOM     69  C   UNL A   1      43.893  31.571  29.223  1.00  0.00     0.049 A 
ATOM     70  H   UNL A   1      42.688  30.860  27.658  1.00  0.00     0.167 HD
ATOM     71  C   UNL A   1      46.041  31.847  28.189  1.00  0.00     0.074 A 
ATOM     72  C   UNL A   1      47.153  32.314  27.386  1.00  0.00     0.031 C 
ATOM     73  C   UNL A   1      44.791  32.346  28.392  1.00  0.00     0.037 A 
BRANCH  60  74
ATOM     74  C   UNL A   1      39.814  29.013  29.366  1.00  0.00     0.064 A 
ATOM     75  C   UNL A   1      38.864  29.343  28.376  1.00  0.00     0.173 A 
ATOM     76  C   UNL A   1      39.274  28.709  30.628  1.00  0.00     0.173 A 
ATOM     77  F   UNL A   1      39.222  29.561  27.105  1.00  0.00    -0.203 F 
ATOM     78  C   UNL A   1      37.501  29.471  28.659  1.00  0.00     0.198 A 
ATOM     79  C   UNL A   1      37.921  28.899  30.927  1.00  0.00     0.198 A 
ATOM     80  F   UNL A   1      40.027  28.169  31.594  1.00  0.00    -0.203 F 
ATOM     81  F   UNL A   1      36.646  29.790  27.677  1.00  0.00    -0.200 F 
ATOM     82  C   UNL A   1      37.035  29.291  29.944  1.00  0.00     0.200 A 
ATOM     83  F   UNL A   1      37.482  28.697  32.179  1.00  0.00    -0.200 F 
ATOM     84  F   UNL A   1      35.739  29.469  30.228  1.00  0.00    -0.200 F 
ENDBRANCH  60  74
BRANCH  61  85
ATOM     85  C   UNL A   1      49.269  28.414  27.586  1.00  0.00     0.064 A 
ATOM     86  C   UNL A   1      50.532  27.940  27.992  1.00  0.00     0.173 A 
ATOM     87  C   UNL A   1      48.733  27.895  26.402  1.00  0.00     0.173 A 
ATOM     88  F   UNL A   1      51.095  28.407  29.119  1.00  0.00    -0.203 F 
ATOM     89  C   UNL A   1      51.167  26.902  27.315  1.00  0.00     0.198 A 
ATOM     90  C   UNL A   1      49.384  26.872  25.713  1.00  0.00     0.198 A 
ATOM     91  F   UNL A   1      47.528  28.290  25.970  1.00  0.00    -0.203 F 
ATOM     92  F   UNL A   1      52.308  26.388  27.797  1.00  0.00    -0.200 F 
ATOM     93  C   UNL A   1      50.579  26.351  26.190  1.00  0.00     0.200 A 
ATOM     94  F   UNL A   1      48.803  26.324  24.636  1.00  0.00    -0.200 F 
ATOM     95  F   UNL A   1      51.140  25.294  25.587  1.00  0.00    -0.200 F 
ENDBRANCH  61  85
BRANCH  73  96
ATOM     96  C   UNL A   1      44.335  33.640  27.803  1.00  0.00     0.064 A 
ATOM     97  C   UNL A   1      44.262  34.812  28.567  1.00  0.00     0.173 A 
ATOM     98  C   UNL A   1      43.842  33.707  26.486  1.00  0.00     0.173 A 
ATOM     99  F   UNL A   1      44.680  34.823  29.842  1.00  0.00    -0.203 F 
ATOM    100  C   UNL A   1      43.747  35.995  28.035  1.00  0.00     0.198 A 
ATOM    101  C   UNL A   1      43.288  34.877  25.972  1.00  0.00     0.198 A 
ATOM    102  F   UNL A   1      43.908  32.647  25.666  1.00  0.00    -0.203 F 
ATOM    103  F   UNL A   1      43.731  37.108  28.782  1.00  0.00    -0.200 F 
ATOM    104  C   UNL A   1      43.248  36.023  26.744  1.00  0.00     0.200 A 
ATOM    105  F   UNL A   1      42.796  34.888  24.725  1.00  0.00    -0.200 F 
ATOM    106  F   UNL A   1      42.733  37.154  26.242  1.00  0.00    -0.200 F 
ENDBRANCH  73  96
ENDBRANCH  47  48
ENDBRANCH  39  42
ENDBRANCH  37  38
ENDBRANCH  36  37
ENDBRANCH  35  36
ENDBRANCH  34  35
ENDBRANCH  33  34
ENDBRANCH   1  33
TORSDOF 19
ENDMDL
MODEL 3
REMARK VINA RESULT:     -12.1      1.558      2.443
REMARK SMILES Cc1cc(C(=O)NCCCCCCNC(=O)c2ccc(-c3c4nc(c(-c5c(F)c(F)c(F)c(F)c5F)c5ccc([nH]5)c(-c5c(F)c(F)c(F)c(F)c5F)c5nc(c(-c6c(F)c(F)c(F)c(F)c6F)c6ccc3[nH]6)C=C5)C=C4)cc2)ccc1NC(=O)c1ccc(=O)n(CCOc2ccccc2)n1
REMARK SMILES IDX 8 1 7 2 5 3 6 4 4 6 1 7 2 8 3 9 82 10 81 11 80 12 83 13
REMARK SMILES IDX 84 14 85 16 86 17 87 18 101 19 88 20 91 21 89 22 90 23 92 24
REMARK SMILES IDX 93 25 94 26 95 27 96 28 100 29 97 30 99 31 98 32 9 33 10 34
REMARK SMILES IDX 11 35 12 36 13 37 14 38 15 39 16 41 17 42 18 43 79 44 19 45
REMARK SMILES IDX 78 46 20 47 21 48 22 49 72 50 23 51 77 52 71 53 73 54 24 55
REMARK SMILES IDX 76 56 70 57 69 58 25 60 57 61 37 62 56 63 38 64 41 65 55 66
REMARK SMILES IDX 74 67 39 68 40 69 54 71 75 72 42 73 26 74 27 75 35 76 28 77
REMARK SMILES IDX 29 78 33 79 36 80 30 81 31 82 34 83 32 84 58 85 59 86 67 87
REMARK SMILES IDX 60 88 61 89 65 90 68 91 62 92 63 93 66 94 64 95 43 96 44 97
REMARK SMILES IDX 52 98 45 99 46 100 50 101 53 102 47 103 48 104 51 105 49 106
REMARK H PARENT 7 5 83 15 14 40 73 59 41 70
REMARK Flexibility Score: inf
ROOT
ATOM      1  C   UNL A   1      33.689  30.766  27.190  1.00  0.00     0.116 C 
ENDROOT
BRANCH   1   2
ATOM      2  N   UNL A   1      32.711  29.778  27.626  1.00  0.00    -0.352 N 
ATOM      3  C   UNL A   1      32.183  28.676  26.991  1.00  0.00     0.251 C 
ATOM      4  O   UNL A   1      31.517  27.874  27.644  1.00  0.00    -0.269 OA
ATOM      5  H   UNL A   1      32.368  29.923  28.537  1.00  0.00     0.163 HD
BRANCH   3   6
ATOM      6  C   UNL A   1      32.423  28.404  25.552  1.00  0.00     0.040 A 
ATOM      7  C   UNL A   1      30.385  28.432  22.342  1.00  0.00     0.046 C 
ATOM      8  C   UNL A   1      31.529  28.138  23.275  1.00  0.00    -0.027 A 
ATOM      9  C   UNL A   1      31.364  28.489  24.637  1.00  0.00     0.019 A 
ATOM     10  C   UNL A   1      32.765  27.620  22.862  1.00  0.00     0.044 A 
ATOM     11  C   UNL A   1      33.850  27.796  23.721  1.00  0.00     0.027 A 
ATOM     12  C   UNL A   1      33.693  28.172  25.054  1.00  0.00     0.016 A 
BRANCH  10  13
ATOM     13  N   UNL A   1      32.891  26.934  21.631  1.00  0.00    -0.320 N 
ATOM     14  C   UNL A   1      32.898  25.569  21.372  1.00  0.00     0.276 C 
ATOM     15  H   UNL A   1      32.989  27.510  20.838  1.00  0.00     0.170 HD
ATOM     16  O   UNL A   1      33.014  25.120  20.237  1.00  0.00    -0.267 OA
BRANCH  14  17
ATOM     17  C   UNL A   1      32.745  24.592  22.521  1.00  0.00     0.149 A 
ATOM     18  C   UNL A   1      31.387  24.515  23.097  1.00  0.00     0.042 A 
ATOM     19  N   UNL A   1      33.751  23.857  22.895  1.00  0.00    -0.164 NA
ATOM     20  C   UNL A   1      31.085  23.346  23.664  1.00  0.00     0.076 A 
ATOM     21  N   UNL A   1      33.432  22.781  23.719  1.00  0.00    -0.226 N 
ATOM     22  C   UNL A   1      32.130  22.300  23.797  1.00  0.00     0.266 A 
ATOM     23  O   UNL A   1      31.803  21.141  24.031  1.00  0.00    -0.268 OA
BRANCH  21  24
ATOM     24  C   UNL A   1      34.537  22.037  24.325  1.00  0.00     0.190 C 
BRANCH  24  25
ATOM     25  C   UNL A   1      35.905  22.676  24.015  1.00  0.00     0.253 C 
BRANCH  25  26
ATOM     26  O   UNL A   1      36.997  21.811  24.398  1.00  0.00    -0.492 OA
BRANCH  26  27
ATOM     27  C   UNL A   1      37.826  22.403  25.309  1.00  0.00     0.119 A 
ATOM     28  C   UNL A   1      37.627  23.710  25.740  1.00  0.00     0.046 A 
ATOM     29  C   UNL A   1      38.937  21.693  25.750  1.00  0.00     0.046 A 
ATOM     30  C   UNL A   1      38.485  24.255  26.701  1.00  0.00     0.004 A 
ATOM     31  C   UNL A   1      39.753  22.205  26.755  1.00  0.00     0.004 A 
ATOM     32  C   UNL A   1      39.523  23.488  27.237  1.00  0.00     0.000 A 
ENDBRANCH  26  27
ENDBRANCH  25  26
ENDBRANCH  24  25
ENDBRANCH  21  24
ENDBRANCH  14  17
ENDBRANCH  10  13
ENDBRANCH   3   6
ENDBRANCH   1   2
BRANCH   1  33
ATOM     33  C   UNL A   1      33.498  32.118  27.887  1.00  0.00     0.021 C 
BRANCH  33  34
ATOM     34  C   UNL A   1      34.788  32.900  28.183  1.00  0.00     0.002 C 
BRANCH  34  35
ATOM     35  C   UNL A   1      34.759  34.415  27.922  1.00  0.00     0.002 C 
BRANCH  35  36
ATOM     36  C   UNL A   1      34.022  35.270  28.959  1.00  0.00     0.021 C 
BRANCH  36  37
ATOM     37  C   UNL A   1      33.723  34.553  30.272  1.00  0.00     0.116 C 
BRANCH  37  38
ATOM     38  N   UNL A   1      34.368  35.147  31.438  1.00  0.00    -0.352 N 
ATOM     39  C   UNL A   1      35.534  34.773  32.094  1.00  0.00     0.251 C 
ATOM     40  H   UNL A   1      33.908  35.932  31.816  1.00  0.00     0.163 HD
ATOM     41  O   UNL A   1      35.903  35.362  33.083  1.00  0.00    -0.269 OA
BRANCH  39  42
ATOM     42  C   UNL A   1      36.389  33.716  31.491  1.00  0.00     0.039 A 
ATOM     43  C   UNL A   1      36.409  32.456  32.102  1.00  0.00     0.014 A 
ATOM     44  C   UNL A   1      37.281  34.010  30.465  1.00  0.00     0.014 A 
ATOM     45  C   UNL A   1      37.475  31.593  31.855  1.00  0.00     0.010 A 
ATOM     46  C   UNL A   1      38.386  33.200  30.289  1.00  0.00     0.010 A 
ATOM     47  C   UNL A   1      38.518  32.027  31.037  1.00  0.00    -0.014 A 
BRANCH  47  48
ATOM     48  C   UNL A   1      39.830  31.387  31.000  1.00  0.00     0.031 A 
ATOM     49  C   UNL A   1      40.044  30.136  30.245  1.00  0.00     0.074 A 
ATOM     50  C   UNL A   1      40.877  32.012  31.583  1.00  0.00     0.049 A 
ATOM     51  N   UNL A   1      41.047  29.342  30.427  1.00  0.00    -0.248 NA
ATOM     52  C   UNL A   1      39.111  29.662  29.233  1.00  0.00     0.031 C 
ATOM     53  C   UNL A   1      42.297  31.702  31.432  1.00  0.00     0.029 A 
ATOM     54  N   UNL A   1      40.836  32.945  32.632  1.00  0.00    -0.354 N 
ATOM     55  C   UNL A   1      41.026  28.397  29.429  1.00  0.00     0.074 A 
ATOM     56  C   UNL A   1      39.781  28.620  28.729  1.00  0.00     0.031 C 
ATOM     57  C   UNL A   1      42.951  32.153  32.513  1.00  0.00     0.029 A 
ATOM     58  C   UNL A   1      41.950  32.633  33.449  1.00  0.00     0.049 A 
ATOM     59  H   UNL A   1      40.175  33.662  32.769  1.00  0.00     0.167 HD
ATOM     60  C   UNL A   1      42.113  27.592  29.247  1.00  0.00     0.037 A 
ATOM     61  C   UNL A   1      41.772  32.172  34.721  1.00  0.00     0.037 A 
ATOM     62  C   UNL A   1      43.130  27.815  30.270  1.00  0.00     0.049 A 
ATOM     63  C   UNL A   1      42.337  30.791  34.981  1.00  0.00     0.074 A 
ATOM     64  C   UNL A   1      44.289  28.571  30.334  1.00  0.00     0.029 A 
ATOM     65  N   UNL A   1      42.851  27.431  31.568  1.00  0.00    -0.354 N 
ATOM     66  N   UNL A   1      42.833  30.012  34.060  1.00  0.00    -0.248 NA
ATOM     67  C   UNL A   1      42.282  30.140  36.292  1.00  0.00     0.031 C 
ATOM     68  C   UNL A   1      44.685  28.659  31.700  1.00  0.00     0.029 A 
ATOM     69  C   UNL A   1      43.770  27.953  32.457  1.00  0.00     0.049 A 
ATOM     70  H   UNL A   1      42.095  26.856  31.827  1.00  0.00     0.167 HD
ATOM     71  C   UNL A   1      43.109  28.789  34.608  1.00  0.00     0.074 A 
ATOM     72  C   UNL A   1      42.750  28.913  36.006  1.00  0.00     0.031 C 
ATOM     73  C   UNL A   1      43.574  27.740  33.877  1.00  0.00     0.037 A 
BRANCH  60  74
ATOM     74  C   UNL A   1      42.344  26.746  28.018  1.00  0.00     0.064 A 
ATOM     75  C   UNL A   1      42.544  25.353  28.130  1.00  0.00     0.173 A 
ATOM     76  C   UNL A   1      42.422  27.252  26.708  1.00  0.00     0.173 A 
ATOM     77  F   UNL A   1      42.404  24.716  29.299  1.00  0.00    -0.203 F 
ATOM     78  C   UNL A   1      42.907  24.559  27.039  1.00  0.00     0.198 A 
ATOM     79  C   UNL A   1      42.847  26.470  25.629  1.00  0.00     0.198 A 
ATOM     80  F   UNL A   1      42.038  28.503  26.423  1.00  0.00    -0.203 F 
ATOM     81  F   UNL A   1      43.086  23.241  27.208  1.00  0.00    -0.200 F 
ATOM     82  C   UNL A   1      43.100  25.124  25.797  1.00  0.00     0.200 A 
ATOM     83  F   UNL A   1      43.009  27.034  24.422  1.00  0.00    -0.200 F 
ATOM     84  F   UNL A   1      43.504  24.374  24.764  1.00  0.00    -0.200 F 
ENDBRANCH  60  74
BRANCH  61  85
ATOM     85  C   UNL A   1      40.549  32.718  35.369  1.00  0.00     0.064 A 
ATOM     86  C   UNL A   1      39.403  31.902  35.441  1.00  0.00     0.173 A 
ATOM     87  C   UNL A   1      40.600  33.838  36.206  1.00  0.00     0.173 A 
ATOM     88  F   UNL A   1      39.301  30.815  34.658  1.00  0.00    -0.203 F 
ATOM     89  C   UNL A   1      38.416  32.124  36.399  1.00  0.00     0.198 A 
ATOM     90  C   UNL A   1      39.597  34.071  37.147  1.00  0.00     0.198 A 
ATOM     91  F   UNL A   1      41.670  34.646  36.199  1.00  0.00    -0.203 F 
ATOM     92  F   UNL A   1      37.401  31.258  36.525  1.00  0.00    -0.200 F 
ATOM     93  C   UNL A   1      38.528  33.195  37.268  1.00  0.00     0.200 A 
ATOM     94  F   UNL A   1      39.717  35.095  38.004  1.00  0.00    -0.200 F 
ATOM     95  F   UNL A   1      37.629  33.362  38.248  1.00  0.00    -0.200 F 
ENDBRANCH  61  85
BRANCH  73  96
ATOM     96  C   UNL A   1      43.887  26.411  34.482  1.00  0.00     0.064 A 
ATOM     97  C   UNL A   1      45.207  25.986  34.682  1.00  0.00     0.173 A 
ATOM     98  C   UNL A   1      42.869  25.481  34.765  1.00  0.00     0.173 A 
ATOM     99  F   UNL A   1      46.237  26.800  34.405  1.00  0.00    -0.203 F 
ATOM    100  C   UNL A   1      45.493  24.707  35.162  1.00  0.00     0.198 A 
ATOM    101  C   UNL A   1      43.158  24.191  35.202  1.00  0.00     0.198 A 
ATOM    102  F   UNL A   1      41.575  25.812  34.644  1.00  0.00    -0.203 F 
ATOM    103  F   UNL A   1      46.766  24.348  35.380  1.00  0.00    -0.200 F 
ATOM    104  C   UNL A   1      44.470  23.807  35.408  1.00  0.00     0.200 A 
ATOM    105  F   UNL A   1      42.160  23.325  35.424  1.00  0.00    -0.200 F 
ATOM    106  F   UNL A   1      44.747  22.571  35.847  1.00  0.00    -0.200 F 
ENDBRANCH  73  96
ENDBRANCH  47  48
ENDBRANCH  39  42
ENDBRANCH  37  38
ENDBRANCH  36  37
ENDBRANCH  35  36
ENDBRANCH  34  35
ENDBRANCH  33  34
ENDBRANCH   1  33
TORSDOF 19
ENDMDL
