MODEL 1
REMARK VINA RESULT:     -12.5      0.000      0.000
REMARK SMILES O=C(COc1ccc(/C=C2\SC(=O)N(Cc3cc4c(cc3Cl)OCO4)C2=O)cc1)NCCCCCCNC(=O)c1ccc(-c2c3nc(c(-c4c(F)c(F)c(F)c(F)c4F)c4ccc([nH]4)c(-c4c(F)c(F)c(F)c(F)c4F)c4nc(c(-c5c(F)c(F)c(F)c(F)c5F)c5ccc2[nH]5)C=C4)C=C3)cc1
REMARK SMILES IDX 32 1 31 2 30 3 1 4 2 5 3 7 4 8 5 9 6 10 29 11 7 12 28 13
REMARK SMILES IDX 8 14 9 15 10 16 11 17 26 18 12 19 14 20 27 21 13 22 15 23
REMARK SMILES IDX 16 24 17 25 21 26 18 27 20 28 22 29 19 30 25 31 23 32 24 33
REMARK SMILES IDX 33 34 34 35 35 36 36 37 37 38 38 39 39 41 40 42 41 43 102 44
REMARK SMILES IDX 42 45 101 46 43 47 44 48 45 49 95 50 46 51 100 52 94 53
REMARK SMILES IDX 96 54 47 55 99 56 93 57 92 58 48 60 80 61 60 62 79 63 61 64
REMARK SMILES IDX 64 65 78 66 97 67 62 68 63 69 77 71 98 72 65 73 49 74 50 75
REMARK SMILES IDX 58 76 51 77 52 78 56 79 59 80 53 81 54 82 57 83 55 84 81 85
REMARK SMILES IDX 82 86 90 87 83 88 84 89 88 90 91 91 85 92 86 93 89 94 87 95
REMARK SMILES IDX 66 96 67 97 75 98 68 99 69 100 73 101 76 102 70 103 71 104
REMARK SMILES IDX 74 105 72 106
REMARK H PARENT 30 6 37 40 96 59 64 70
REMARK Flexibility Score: inf
ROOT
ATOM      1  C   UNL A   1      45.519  20.475  25.083  1.00  0.00     0.021 C 
ENDROOT
BRANCH   1   2
ATOM      2  C   UNL A   1      44.357  19.572  24.697  1.00  0.00     0.116 C 
BRANCH   2   3
ATOM      3  N   UNL A   1      43.122  19.941  25.357  1.00  0.00    -0.353 N 
ATOM      4  O   UNL A   1      42.497  17.811  25.950  1.00  0.00    -0.271 OA
ATOM      5  C   UNL A   1      42.345  19.026  26.036  1.00  0.00     0.257 C 
ATOM      6  H   UNL A   1      42.827  20.879  25.319  1.00  0.00     0.163 HD
BRANCH   5   7
ATOM      7  C   UNL A   1      41.299  19.657  26.970  1.00  0.00     0.329 C 
BRANCH   7   8
ATOM      8  O   UNL A   1      41.143  21.076  26.926  1.00  0.00    -0.484 OA
BRANCH   8   9
ATOM      9  C   UNL A   1      39.960  21.525  26.402  1.00  0.00     0.120 A 
ATOM     10  C   UNL A   1      39.226  20.627  25.619  1.00  0.00     0.047 A 
ATOM     11  C   UNL A   1      39.506  22.834  26.538  1.00  0.00     0.047 A 
ATOM     12  C   UNL A   1      38.032  21.029  25.000  1.00  0.00     0.012 A 
ATOM     13  C   UNL A   1      38.345  23.245  25.904  1.00  0.00     0.012 A 
ATOM     14  C   UNL A   1      37.599  22.346  25.144  1.00  0.00    -0.024 A 
BRANCH  14  15
ATOM     15  C   UNL A   1      36.346  22.884  24.642  1.00  0.00     0.029 C 
ATOM     16  C   UNL A   1      35.203  22.201  24.535  1.00  0.00     0.083 C 
ATOM     17  S   UNL A   1      34.669  20.754  25.274  1.00  0.00    -0.022 SA
ATOM     18  C   UNL A   1      34.161  22.692  23.615  1.00  0.00     0.268 C 
ATOM     19  C   UNL A   1      33.004  21.044  24.741  1.00  0.00     0.293 C 
ATOM     20  N   UNL A   1      32.951  22.187  23.992  1.00  0.00    -0.264 N 
ATOM     21  O   UNL A   1      34.401  23.351  22.613  1.00  0.00    -0.268 OA
ATOM     22  O   UNL A   1      32.085  20.282  24.996  1.00  0.00    -0.261 OA
BRANCH  20  23
ATOM     23  C   UNL A   1      31.727  22.731  23.446  1.00  0.00     0.167 C 
BRANCH  23  24
ATOM     24  C   UNL A   1      31.479  24.169  23.881  1.00  0.00    -0.005 A 
ATOM     25  C   UNL A   1      31.494  25.167  22.883  1.00  0.00     0.057 A 
ATOM     26  C   UNL A   1      31.288  24.574  25.232  1.00  0.00     0.050 A 
ATOM     27  C   UNL A   1      31.344  26.486  23.264  1.00  0.00     0.166 A 
ATOM     28  C   UNL A   1      31.072  25.914  25.574  1.00  0.00     0.071 A 
ATOM     29  Cl  UNL A   1      31.377  23.508  26.583  1.00  0.00    -0.084 Cl
ATOM     30  C   UNL A   1      31.127  26.845  24.571  1.00  0.00     0.167 A 
ATOM     31  O   UNL A   1      31.422  27.569  22.446  1.00  0.00    -0.454 OA
ATOM     32  O   UNL A   1      31.026  28.188  24.738  1.00  0.00    -0.454 OA
ATOM     33  C   UNL A   1      31.379  28.640  23.416  1.00  0.00     0.468 C 
ENDBRANCH  23  24
ENDBRANCH  20  23
ENDBRANCH  14  15
ENDBRANCH   8   9
ENDBRANCH   7   8
ENDBRANCH   5   7
ENDBRANCH   2   3
ENDBRANCH   1   2
BRANCH   1  34
ATOM     34  C   UNL A   1      45.497  21.853  24.412  1.00  0.00     0.002 C 
BRANCH  34  35
ATOM     35  C   UNL A   1      45.924  23.029  25.296  1.00  0.00     0.002 C 
BRANCH  35  36
ATOM     36  C   UNL A   1      45.422  22.989  26.741  1.00  0.00     0.021 C 
BRANCH  36  37
ATOM     37  C   UNL A   1      43.985  23.458  26.946  1.00  0.00     0.116 C 
BRANCH  37  38
ATOM     38  N   UNL A   1      43.440  24.135  25.780  1.00  0.00    -0.352 N 
ATOM     39  C   UNL A   1      42.641  25.250  25.712  1.00  0.00     0.251 C 
ATOM     40  H   UNL A   1      43.680  23.735  24.913  1.00  0.00     0.163 HD
ATOM     41  O   UNL A   1      42.168  25.604  24.637  1.00  0.00    -0.269 OA
BRANCH  39  42
ATOM     42  C   UNL A   1      42.323  26.012  26.939  1.00  0.00     0.039 A 
ATOM     43  C   UNL A   1      43.010  27.206  27.186  1.00  0.00     0.014 A 
ATOM     44  C   UNL A   1      41.367  25.555  27.850  1.00  0.00     0.014 A 
ATOM     45  C   UNL A   1      42.694  27.971  28.311  1.00  0.00     0.010 A 
ATOM     46  C   UNL A   1      41.009  26.348  28.937  1.00  0.00     0.010 A 
ATOM     47  C   UNL A   1      41.669  27.563  29.179  1.00  0.00    -0.014 A 
BRANCH  47  48
ATOM     48  C   UNL A   1      41.272  28.392  30.347  1.00  0.00     0.031 A 
ATOM     49  C   UNL A   1      40.105  29.331  30.243  1.00  0.00     0.074 A 
ATOM     50  C   UNL A   1      42.007  28.352  31.475  1.00  0.00     0.049 A 
ATOM     51  N   UNL A   1      39.663  30.205  31.113  1.00  0.00    -0.248 NA
ATOM     52  C   UNL A   1      39.345  29.303  28.983  1.00  0.00     0.031 C 
ATOM     53  C   UNL A   1      43.187  27.511  31.687  1.00  0.00     0.029 A 
ATOM     54  N   UNL A   1      41.878  29.047  32.653  1.00  0.00    -0.354 N 
ATOM     55  C   UNL A   1      38.592  30.842  30.500  1.00  0.00     0.074 A 
ATOM     56  C   UNL A   1      38.476  30.286  29.168  1.00  0.00     0.031 C 
ATOM     57  C   UNL A   1      43.667  27.731  32.923  1.00  0.00     0.029 A 
ATOM     58  C   UNL A   1      42.852  28.751  33.575  1.00  0.00     0.049 A 
ATOM     59  H   UNL A   1      41.157  29.696  32.819  1.00  0.00     0.167 HD
ATOM     60  C   UNL A   1      37.770  31.791  31.007  1.00  0.00     0.037 A 
ATOM     61  C   UNL A   1      43.068  29.254  34.806  1.00  0.00     0.037 A 
ATOM     62  C   UNL A   1      37.867  32.320  32.342  1.00  0.00     0.049 A 
ATOM     63  C   UNL A   1      42.136  30.304  35.347  1.00  0.00     0.074 A 
ATOM     64  C   UNL A   1      37.044  33.240  32.968  1.00  0.00     0.029 A 
ATOM     65  N   UNL A   1      38.847  31.972  33.259  1.00  0.00    -0.354 N 
ATOM     66  N   UNL A   1      41.091  30.856  34.779  1.00  0.00    -0.248 NA
ATOM     67  C   UNL A   1      42.410  30.798  36.705  1.00  0.00     0.031 C 
ATOM     68  C   UNL A   1      37.548  33.477  34.251  1.00  0.00     0.029 A 
ATOM     69  C   UNL A   1      38.659  32.672  34.440  1.00  0.00     0.049 A 
ATOM     70  H   UNL A   1      39.571  31.324  33.095  1.00  0.00     0.167 HD
ATOM     71  C   UNL A   1      40.567  31.735  35.718  1.00  0.00     0.074 A 
ATOM     72  C   UNL A   1      41.402  31.637  36.896  1.00  0.00     0.031 C 
ATOM     73  C   UNL A   1      39.488  32.550  35.611  1.00  0.00     0.037 A 
BRANCH  60  74
ATOM     74  C   UNL A   1      36.685  32.318  30.115  1.00  0.00     0.064 A 
ATOM     75  C   UNL A   1      36.706  33.635  29.633  1.00  0.00     0.173 A 
ATOM     76  C   UNL A   1      35.635  31.483  29.702  1.00  0.00     0.173 A 
ATOM     77  F   UNL A   1      37.683  34.476  30.007  1.00  0.00    -0.203 F 
ATOM     78  C   UNL A   1      35.702  34.105  28.790  1.00  0.00     0.198 A 
ATOM     79  C   UNL A   1      34.649  31.950  28.836  1.00  0.00     0.198 A 
ATOM     80  F   UNL A   1      35.571  30.214  30.129  1.00  0.00    -0.203 F 
ATOM     81  F   UNL A   1      35.720  35.380  28.377  1.00  0.00    -0.200 F 
ATOM     82  C   UNL A   1      34.679  33.261  28.387  1.00  0.00     0.200 A 
ATOM     83  F   UNL A   1      33.667  31.129  28.437  1.00  0.00    -0.200 F 
ATOM     84  F   UNL A   1      33.719  33.714  27.568  1.00  0.00    -0.200 F 
ENDBRANCH  60  74
BRANCH  61  85
ATOM     85  C   UNL A   1      44.205  28.758  35.623  1.00  0.00     0.064 A 
ATOM     86  C   UNL A   1      44.030  27.704  36.531  1.00  0.00     0.173 A 
ATOM     87  C   UNL A   1      45.482  29.329  35.522  1.00  0.00     0.173 A 
ATOM     88  F   UNL A   1      42.822  27.141  36.678  1.00  0.00    -0.203 F 
ATOM     89  C   UNL A   1      45.084  27.256  37.324  1.00  0.00     0.198 A 
ATOM     90  C   UNL A   1      46.542  28.861  36.296  1.00  0.00     0.198 A 
ATOM     91  F   UNL A   1      45.702  30.337  34.665  1.00  0.00    -0.203 F 
ATOM     92  F   UNL A   1      44.878  26.279  38.218  1.00  0.00    -0.200 F 
ATOM     93  C   UNL A   1      46.340  27.830  37.202  1.00  0.00     0.200 A 
ATOM     94  F   UNL A   1      47.757  29.412  36.167  1.00  0.00    -0.200 F 
ATOM     95  F   UNL A   1      47.354  27.398  37.965  1.00  0.00    -0.200 F 
ENDBRANCH  61  85
BRANCH  73  96
ATOM     96  C   UNL A   1      39.122  33.368  36.813  1.00  0.00     0.064 A 
ATOM     97  C   UNL A   1      38.348  32.839  37.855  1.00  0.00     0.173 A 
ATOM     98  C   UNL A   1      39.590  34.685  36.943  1.00  0.00     0.173 A 
ATOM     99  F   UNL A   1      37.864  31.590  37.770  1.00  0.00    -0.203 F 
ATOM    100  C   UNL A   1      38.038  33.605  38.976  1.00  0.00     0.198 A 
ATOM    101  C   UNL A   1      39.301  35.438  38.076  1.00  0.00     0.198 A 
ATOM    102  F   UNL A   1      40.339  35.234  35.975  1.00  0.00    -0.203 F 
ATOM    103  F   UNL A   1      37.262  33.094  39.941  1.00  0.00    -0.200 F 
ATOM    104  C   UNL A   1      38.521  34.901  39.089  1.00  0.00     0.200 A 
ATOM    105  F   UNL A   1      39.779  36.686  38.189  1.00  0.00    -0.200 F 
ATOM    106  F   UNL A   1      38.229  35.634  40.171  1.00  0.00    -0.200 F 
ENDBRANCH  73  96
ENDBRANCH  47  48
ENDBRANCH  39  42
ENDBRANCH  37  38
ENDBRANCH  36  37
ENDBRANCH  35  36
ENDBRANCH  34  35
ENDBRANCH   1  34
TORSDOF 18
ENDMDL
MODEL 2
REMARK VINA RESULT:     -12.4      6.331     10.336
REMARK SMILES O=C(COc1ccc(/C=C2\SC(=O)N(Cc3cc4c(cc3Cl)OCO4)C2=O)cc1)NCCCCCCNC(=O)c1ccc(-c2c3nc(c(-c4c(F)c(F)c(F)c(F)c4F)c4ccc([nH]4)c(-c4c(F)c(F)c(F)c(F)c4F)c4nc(c(-c5c(F)c(F)c(F)c(F)c5F)c5ccc2[nH]5)C=C4)C=C3)cc1
REMARK SMILES IDX 32 1 31 2 30 3 1 4 2 5 3 7 4 8 5 9 6 10 29 11 7 12 28 13
REMARK SMILES IDX 8 14 9 15 10 16 11 17 26 18 12 19 14 20 27 21 13 22 15 23
REMARK SMILES IDX 16 24 17 25 21 26 18 27 20 28 22 29 19 30 25 31 23 32 24 33
REMARK SMILES IDX 33 34 34 35 35 36 36 37 37 38 38 39 39 41 40 42 41 43 102 44
REMARK SMILES IDX 42 45 101 46 43 47 44 48 45 49 95 50 46 51 100 52 94 53
REMARK SMILES IDX 96 54 47 55 99 56 93 57 92 58 48 60 80 61 60 62 79 63 61 64
REMARK SMILES IDX 64 65 78 66 97 67 62 68 63 69 77 71 98 72 65 73 49 74 50 75
REMARK SMILES IDX 58 76 51 77 52 78 56 79 59 80 53 81 54 82 57 83 55 84 81 85
REMARK SMILES IDX 82 86 90 87 83 88 84 89 88 90 91 91 85 92 86 93 89 94 87 95
REMARK SMILES IDX 66 96 67 97 75 98 68 99 69 100 73 101 76 102 70 103 71 104
REMARK SMILES IDX 74 105 72 106
REMARK H PARENT 30 6 37 40 96 59 64 70
REMARK Flexibility Score: inf
ROOT
ATOM      1  C   UNL A   1      44.026  24.929  25.130  1.00  0.00     0.021 C 
ENDROOT
BRANCH   1   2
ATOM      2  C   UNL A   1      43.737  23.456  24.879  1.00  0.00     0.116 C 
BRANCH   2   3
ATOM      3  N   UNL A   1      42.437  23.052  25.370  1.00  0.00    -0.353 N 
ATOM      4  O   UNL A   1      42.893  20.804  25.496  1.00  0.00    -0.271 OA
ATOM      5  C   UNL A   1      42.160  21.755  25.749  1.00  0.00     0.257 C 
ATOM      6  H   UNL A   1      41.724  23.728  25.434  1.00  0.00     0.163 HD
BRANCH   5   7
ATOM      7  C   UNL A   1      40.877  21.602  26.581  1.00  0.00     0.329 C 
BRANCH   7   8
ATOM      8  O   UNL A   1      39.782  20.902  25.988  1.00  0.00    -0.484 OA
BRANCH   8   9
ATOM      9  C   UNL A   1      38.666  21.655  25.734  1.00  0.00     0.120 A 
ATOM     10  C   UNL A   1      37.651  21.058  24.979  1.00  0.00     0.047 A 
ATOM     11  C   UNL A   1      38.536  22.989  26.112  1.00  0.00     0.047 A 
ATOM     12  C   UNL A   1      36.501  21.783  24.629  1.00  0.00     0.012 A 
ATOM     13  C   UNL A   1      37.418  23.718  25.742  1.00  0.00     0.012 A 
ATOM     14  C   UNL A   1      36.393  23.119  25.011  1.00  0.00    -0.024 A 
BRANCH  14  15
ATOM     15  C   UNL A   1      35.232  23.967  24.803  1.00  0.00     0.029 C 
ATOM     16  C   UNL A   1      34.035  23.786  25.366  1.00  0.00     0.083 C 
ATOM     17  S   UNL A   1      33.548  22.892  26.741  1.00  0.00    -0.022 SA
ATOM     18  C   UNL A   1      32.852  24.409  24.745  1.00  0.00     0.268 C 
ATOM     19  C   UNL A   1      31.959  23.676  26.742  1.00  0.00     0.293 C 
ATOM     20  N   UNL A   1      31.863  24.529  25.678  1.00  0.00    -0.264 N 
ATOM     21  O   UNL A   1      32.768  24.656  23.551  1.00  0.00    -0.268 OA
ATOM     22  O   UNL A   1      31.097  23.424  27.569  1.00  0.00    -0.261 OA
BRANCH  20  23
ATOM     23  C   UNL A   1      30.709  25.360  25.419  1.00  0.00     0.167 C 
BRANCH  23  24
ATOM     24  C   UNL A   1      31.047  26.845  25.402  1.00  0.00    -0.005 A 
ATOM     25  C   UNL A   1      31.771  27.366  26.496  1.00  0.00     0.057 A 
ATOM     26  C   UNL A   1      30.635  27.747  24.381  1.00  0.00     0.050 A 
ATOM     27  C   UNL A   1      32.025  28.722  26.537  1.00  0.00     0.166 A 
ATOM     28  C   UNL A   1      30.969  29.105  24.422  1.00  0.00     0.071 A 
ATOM     29  Cl  UNL A   1      29.634  27.308  23.049  1.00  0.00    -0.084 Cl
ATOM     30  C   UNL A   1      31.645  29.564  25.521  1.00  0.00     0.167 A 
ATOM     31  O   UNL A   1      32.627  29.394  27.554  1.00  0.00    -0.454 OA
ATOM     32  O   UNL A   1      31.971  30.859  25.761  1.00  0.00    -0.454 OA
ATOM     33  C   UNL A   1      32.441  30.759  27.120  1.00  0.00     0.468 C 
ENDBRANCH  23  24
ENDBRANCH  20  23
ENDBRANCH  14  15
ENDBRANCH   8   9
ENDBRANCH   7   8
ENDBRANCH   5   7
ENDBRANCH   2   3
ENDBRANCH   1   2
BRANCH   1  34
ATOM     34  C   UNL A   1      42.797  25.839  25.028  1.00  0.00     0.002 C 
BRANCH  34  35
ATOM     35  C   UNL A   1      43.019  27.300  25.431  1.00  0.00     0.002 C 
BRANCH  35  36
ATOM     36  C   UNL A   1      41.781  28.199  25.375  1.00  0.00     0.021 C 
BRANCH  36  37
ATOM     37  C   UNL A   1      41.160  28.540  26.725  1.00  0.00     0.116 C 
BRANCH  37  38
ATOM     38  N   UNL A   1      40.219  27.532  27.185  1.00  0.00    -0.352 N 
ATOM     39  C   UNL A   1      40.416  26.484  28.052  1.00  0.00     0.251 C 
ATOM     40  H   UNL A   1      39.307  27.612  26.823  1.00  0.00     0.163 HD
ATOM     41  O   UNL A   1      39.531  25.652  28.223  1.00  0.00    -0.269 OA
BRANCH  39  42
ATOM     42  C   UNL A   1      41.706  26.338  28.761  1.00  0.00     0.039 A 
ATOM     43  C   UNL A   1      42.451  25.171  28.566  1.00  0.00     0.014 A 
ATOM     44  C   UNL A   1      42.177  27.333  29.622  1.00  0.00     0.014 A 
ATOM     45  C   UNL A   1      43.696  25.028  29.184  1.00  0.00     0.010 A 
ATOM     46  C   UNL A   1      43.444  27.218  30.187  1.00  0.00     0.010 A 
ATOM     47  C   UNL A   1      44.216  26.066  29.975  1.00  0.00    -0.014 A 
BRANCH  47  48
ATOM     48  C   UNL A   1      45.565  25.964  30.591  1.00  0.00     0.031 A 
ATOM     49  C   UNL A   1      46.787  26.307  29.789  1.00  0.00     0.074 A 
ATOM     50  C   UNL A   1      45.692  25.494  31.847  1.00  0.00     0.049 A 
ATOM     51  N   UNL A   1      48.052  26.190  30.112  1.00  0.00    -0.248 NA
ATOM     52  C   UNL A   1      46.562  26.828  28.431  1.00  0.00     0.031 C 
ATOM     53  C   UNL A   1      44.585  25.089  32.715  1.00  0.00     0.029 A 
ATOM     54  N   UNL A   1      46.813  25.263  32.606  1.00  0.00    -0.354 N 
ATOM     55  C   UNL A   1      48.767  26.602  28.995  1.00  0.00     0.074 A 
ATOM     56  C   UNL A   1      47.800  26.931  27.970  1.00  0.00     0.031 C 
ATOM     57  C   UNL A   1      45.080  24.671  33.892  1.00  0.00     0.029 A 
ATOM     58  C   UNL A   1      46.537  24.744  33.848  1.00  0.00     0.049 A 
ATOM     59  H   UNL A   1      47.726  25.450  32.291  1.00  0.00     0.167 HD
ATOM     60  C   UNL A   1      50.109  26.713  28.846  1.00  0.00     0.037 A 
ATOM     61  C   UNL A   1      47.369  24.360  34.836  1.00  0.00     0.037 A 
ATOM     62  C   UNL A   1      51.068  26.415  29.876  1.00  0.00     0.049 A 
ATOM     63  C   UNL A   1      48.855  24.499  34.645  1.00  0.00     0.074 A 
ATOM     64  C   UNL A   1      52.445  26.554  29.839  1.00  0.00     0.029 A 
ATOM     65  N   UNL A   1      50.750  25.923  31.132  1.00  0.00    -0.354 N 
ATOM     66  N   UNL A   1      49.517  24.946  33.606  1.00  0.00    -0.248 NA
ATOM     67  C   UNL A   1      49.709  24.086  35.768  1.00  0.00     0.031 C 
ATOM     68  C   UNL A   1      52.962  26.109  31.061  1.00  0.00     0.029 A 
ATOM     69  C   UNL A   1      51.905  25.736  31.874  1.00  0.00     0.049 A 
ATOM     70  H   UNL A   1      49.837  25.733  31.450  1.00  0.00     0.167 HD
ATOM     71  C   UNL A   1      50.859  24.896  33.959  1.00  0.00     0.074 A 
ATOM     72  C   UNL A   1      50.918  24.386  35.313  1.00  0.00     0.031 C 
ATOM     73  C   UNL A   1      51.946  25.244  33.226  1.00  0.00     0.037 A 
BRANCH  60  74
ATOM     74  C   UNL A   1      50.622  27.181  27.516  1.00  0.00     0.064 A 
ATOM     75  C   UNL A   1      50.963  26.276  26.500  1.00  0.00     0.173 A 
ATOM     76  C   UNL A   1      50.733  28.552  27.238  1.00  0.00     0.173 A 
ATOM     77  F   UNL A   1      50.884  24.954  26.718  1.00  0.00    -0.203 F 
ATOM     78  C   UNL A   1      51.419  26.725  25.263  1.00  0.00     0.198 A 
ATOM     79  C   UNL A   1      51.163  28.997  25.991  1.00  0.00     0.198 A 
ATOM     80  F   UNL A   1      50.414  29.460  28.172  1.00  0.00    -0.203 F 
ATOM     81  F   UNL A   1      51.780  25.841  24.323  1.00  0.00    -0.200 F 
ATOM     82  C   UNL A   1      51.512  28.084  25.008  1.00  0.00     0.200 A 
ATOM     83  F   UNL A   1      51.240  30.312  25.740  1.00  0.00    -0.200 F 
ATOM     84  F   UNL A   1      51.944  28.514  23.814  1.00  0.00    -0.200 F 
ENDBRANCH  60  74
BRANCH  61  85
ATOM     85  C   UNL A   1      46.816  23.826  36.108  1.00  0.00     0.064 A 
ATOM     86  C   UNL A   1      46.615  22.449  36.281  1.00  0.00     0.173 A 
ATOM     87  C   UNL A   1      46.470  24.676  37.168  1.00  0.00     0.173 A 
ATOM     88  F   UNL A   1      46.910  21.600  35.286  1.00  0.00    -0.203 F 
ATOM     89  C   UNL A   1      46.066  21.945  37.458  1.00  0.00     0.198 A 
ATOM     90  C   UNL A   1      45.947  24.168  38.355  1.00  0.00     0.198 A 
ATOM     91  F   UNL A   1      46.647  26.000  37.054  1.00  0.00    -0.203 F 
ATOM     92  F   UNL A   1      45.841  20.629  37.578  1.00  0.00    -0.200 F 
ATOM     93  C   UNL A   1      45.737  22.803  38.496  1.00  0.00     0.200 A 
ATOM     94  F   UNL A   1      45.640  24.999  39.361  1.00  0.00    -0.200 F 
ATOM     95  F   UNL A   1      45.210  22.318  39.628  1.00  0.00    -0.200 F 
ENDBRANCH  61  85
BRANCH  73  96
ATOM     96  C   UNL A   1      53.287  25.127  33.886  1.00  0.00     0.064 A 
ATOM     97  C   UNL A   1      54.040  23.946  33.819  1.00  0.00     0.173 A 
ATOM     98  C   UNL A   1      53.845  26.227  34.556  1.00  0.00     0.173 A 
ATOM     99  F   UNL A   1      53.543  22.862  33.204  1.00  0.00    -0.203 F 
ATOM    100  C   UNL A   1      55.294  23.863  34.417  1.00  0.00     0.198 A 
ATOM    101  C   UNL A   1      55.110  26.149  35.129  1.00  0.00     0.198 A 
ATOM    102  F   UNL A   1      53.166  27.380  34.642  1.00  0.00    -0.203 F 
ATOM    103  F   UNL A   1      55.979  22.712  34.377  1.00  0.00    -0.200 F 
ATOM    104  C   UNL A   1      55.832  24.966  35.065  1.00  0.00     0.200 A 
ATOM    105  F   UNL A   1      55.633  27.220  35.744  1.00  0.00    -0.200 F 
ATOM    106  F   UNL A   1      57.043  24.887  35.632  1.00  0.00    -0.200 F 
ENDBRANCH  73  96
ENDBRANCH  47  48
ENDBRANCH  39  42
ENDBRANCH  37  38
ENDBRANCH  36  37
ENDBRANCH  35  36
ENDBRANCH  34  35
ENDBRANCH   1  34
TORSDOF 18
ENDMDL
MODEL 3
REMARK VINA RESULT:     -12.3      6.541     12.049
REMARK SMILES O=C(COc1ccc(/C=C2\SC(=O)N(Cc3cc4c(cc3Cl)OCO4)C2=O)cc1)NCCCCCCNC(=O)c1ccc(-c2c3nc(c(-c4c(F)c(F)c(F)c(F)c4F)c4ccc([nH]4)c(-c4c(F)c(F)c(F)c(F)c4F)c4nc(c(-c5c(F)c(F)c(F)c(F)c5F)c5ccc2[nH]5)C=C4)C=C3)cc1
REMARK SMILES IDX 32 1 31 2 30 3 1 4 2 5 3 7 4 8 5 9 6 10 29 11 7 12 28 13
REMARK SMILES IDX 8 14 9 15 10 16 11 17 26 18 12 19 14 20 27 21 13 22 15 23
REMARK SMILES IDX 16 24 17 25 21 26 18 27 20 28 22 29 19 30 25 31 23 32 24 33
REMARK SMILES IDX 33 34 34 35 35 36 36 37 37 38 38 39 39 41 40 42 41 43 102 44
REMARK SMILES IDX 42 45 101 46 43 47 44 48 45 49 95 50 46 51 100 52 94 53
REMARK SMILES IDX 96 54 47 55 99 56 93 57 92 58 48 60 80 61 60 62 79 63 61 64
REMARK SMILES IDX 64 65 78 66 97 67 62 68 63 69 77 71 98 72 65 73 49 74 50 75
REMARK SMILES IDX 58 76 51 77 52 78 56 79 59 80 53 81 54 82 57 83 55 84 81 85
REMARK SMILES IDX 82 86 90 87 83 88 84 89 88 90 91 91 85 92 86 93 89 94 87 95
REMARK SMILES IDX 66 96 67 97 75 98 68 99 69 100 73 101 76 102 70 103 71 104
REMARK SMILES IDX 74 105 72 106
REMARK H PARENT 30 6 37 40 96 59 64 70
REMARK Flexibility Score: inf
ROOT
ATOM      1  C   UNL A   1      38.023  34.519  31.764  1.00  0.00     0.021 C 
ENDROOT
BRANCH   1   2
ATOM      2  C   UNL A   1      36.503  34.537  31.825  1.00  0.00     0.116 C 
BRANCH   2   3
ATOM      3  N   UNL A   1      35.890  34.130  30.579  1.00  0.00    -0.353 N 
ATOM      4  O   UNL A   1      34.360  32.685  31.500  1.00  0.00    -0.271 OA
ATOM      5  C   UNL A   1      34.780  33.314  30.532  1.00  0.00     0.257 C 
ATOM      6  H   UNL A   1      36.281  34.449  29.733  1.00  0.00     0.163 HD
BRANCH   5   7
ATOM      7  C   UNL A   1      34.062  33.302  29.173  1.00  0.00     0.329 C 
BRANCH   7   8
ATOM      8  O   UNL A   1      34.801  32.848  28.038  1.00  0.00    -0.484 OA
BRANCH   8   9
ATOM      9  C   UNL A   1      34.541  31.563  27.638  1.00  0.00     0.120 A 
ATOM     10  C   UNL A   1      33.220  31.257  27.290  1.00  0.00     0.047 A 
ATOM     11  C   UNL A   1      35.494  30.548  27.645  1.00  0.00     0.047 A 
ATOM     12  C   UNL A   1      32.863  29.951  26.924  1.00  0.00     0.012 A 
ATOM     13  C   UNL A   1      35.139  29.251  27.315  1.00  0.00     0.012 A 
ATOM     14  C   UNL A   1      33.831  28.948  26.943  1.00  0.00    -0.024 A 
BRANCH  14  15
ATOM     15  C   UNL A   1      33.635  27.575  26.507  1.00  0.00     0.029 C 
ATOM     16  C   UNL A   1      33.467  27.187  25.241  1.00  0.00     0.083 C 
ATOM     17  S   UNL A   1      33.829  27.957  23.756  1.00  0.00    -0.022 SA
ATOM     18  C   UNL A   1      32.837  25.882  24.971  1.00  0.00     0.268 C 
ATOM     19  C   UNL A   1      33.581  26.448  22.862  1.00  0.00     0.293 C 
ATOM     20  N   UNL A   1      33.188  25.460  23.722  1.00  0.00    -0.264 N 
ATOM     21  O   UNL A   1      32.037  25.350  25.728  1.00  0.00    -0.268 OA
ATOM     22  O   UNL A   1      33.712  26.367  21.650  1.00  0.00    -0.261 OA
BRANCH  20  23
ATOM     23  C   UNL A   1      32.949  24.093  23.316  1.00  0.00     0.167 C 
BRANCH  23  24
ATOM     24  C   UNL A   1      33.949  23.118  23.922  1.00  0.00    -0.005 A 
ATOM     25  C   UNL A   1      35.227  23.613  24.258  1.00  0.00     0.057 A 
ATOM     26  C   UNL A   1      33.694  21.732  24.121  1.00  0.00     0.050 A 
ATOM     27  C   UNL A   1      36.173  22.730  24.741  1.00  0.00     0.166 A 
ATOM     28  C   UNL A   1      34.655  20.880  24.677  1.00  0.00     0.071 A 
ATOM     29  Cl  UNL A   1      32.241  20.938  23.642  1.00  0.00    -0.084 Cl
ATOM     30  C   UNL A   1      35.888  21.405  24.955  1.00  0.00     0.167 A 
ATOM     31  O   UNL A   1      37.469  23.024  25.027  1.00  0.00    -0.454 OA
ATOM     32  O   UNL A   1      36.957  20.705  25.415  1.00  0.00    -0.454 OA
ATOM     33  C   UNL A   1      37.989  21.703  25.297  1.00  0.00     0.468 C 
ENDBRANCH  23  24
ENDBRANCH  20  23
ENDBRANCH  14  15
ENDBRANCH   8   9
ENDBRANCH   7   8
ENDBRANCH   5   7
ENDBRANCH   2   3
ENDBRANCH   1   2
BRANCH   1  34
ATOM     34  C   UNL A   1      38.662  33.247  32.329  1.00  0.00     0.002 C 
BRANCH  34  35
ATOM     35  C   UNL A   1      38.401  32.975  33.814  1.00  0.00     0.002 C 
BRANCH  35  36
ATOM     36  C   UNL A   1      37.443  31.822  34.120  1.00  0.00     0.021 C 
BRANCH  36  37
ATOM     37  C   UNL A   1      37.052  30.963  32.921  1.00  0.00     0.116 C 
BRANCH  37  38
ATOM     38  N   UNL A   1      37.448  29.572  33.070  1.00  0.00    -0.352 N 
ATOM     39  C   UNL A   1      38.579  28.933  32.625  1.00  0.00     0.251 C 
ATOM     40  H   UNL A   1      36.811  29.005  33.563  1.00  0.00     0.163 HD
ATOM     41  O   UNL A   1      38.682  27.715  32.733  1.00  0.00    -0.269 OA
BRANCH  39  42
ATOM     42  C   UNL A   1      39.667  29.707  31.988  1.00  0.00     0.039 A 
ATOM     43  C   UNL A   1      40.658  30.269  32.801  1.00  0.00     0.014 A 
ATOM     44  C   UNL A   1      39.711  29.893  30.604  1.00  0.00     0.014 A 
ATOM     45  C   UNL A   1      41.724  30.962  32.222  1.00  0.00     0.010 A 
ATOM     46  C   UNL A   1      40.805  30.529  30.023  1.00  0.00     0.010 A 
ATOM     47  C   UNL A   1      41.821  31.070  30.825  1.00  0.00    -0.014 A 
BRANCH  47  48
ATOM     48  C   UNL A   1      42.978  31.748  30.183  1.00  0.00     0.031 A 
ATOM     49  C   UNL A   1      44.288  31.026  30.038  1.00  0.00     0.074 A 
ATOM     50  C   UNL A   1      42.870  33.034  29.799  1.00  0.00     0.049 A 
ATOM     51  N   UNL A   1      45.437  31.475  29.597  1.00  0.00    -0.248 NA
ATOM     52  C   UNL A   1      44.318  29.619  30.469  1.00  0.00     0.031 C 
ATOM     53  C   UNL A   1      41.665  33.856  29.922  1.00  0.00     0.029 A 
ATOM     54  N   UNL A   1      43.794  33.881  29.238  1.00  0.00    -0.354 N 
ATOM     55  C   UNL A   1      46.327  30.415  29.717  1.00  0.00     0.074 A 
ATOM     56  C   UNL A   1      45.598  29.315  30.310  1.00  0.00     0.031 C 
ATOM     57  C   UNL A   1      41.919  35.084  29.442  1.00  0.00     0.029 A 
ATOM     58  C   UNL A   1      43.312  35.147  29.010  1.00  0.00     0.049 A 
ATOM     59  H   UNL A   1      44.715  33.607  29.021  1.00  0.00     0.167 HD
ATOM     60  C   UNL A   1      47.629  30.361  29.348  1.00  0.00     0.037 A 
ATOM     61  C   UNL A   1      43.928  36.239  28.517  1.00  0.00     0.037 A 
ATOM     62  C   UNL A   1      48.344  31.446  28.728  1.00  0.00     0.049 A 
ATOM     63  C   UNL A   1      45.375  36.148  28.110  1.00  0.00     0.074 A 
ATOM     64  C   UNL A   1      49.648  31.466  28.264  1.00  0.00     0.029 A 
ATOM     65  N   UNL A   1      47.813  32.702  28.483  1.00  0.00    -0.354 N 
ATOM     66  N   UNL A   1      46.189  35.123  28.173  1.00  0.00    -0.248 NA
ATOM     67  C   UNL A   1      45.985  37.366  27.557  1.00  0.00     0.031 C 
ATOM     68  C   UNL A   1      49.917  32.747  27.772  1.00  0.00     0.029 A 
ATOM     69  C   UNL A   1      48.768  33.511  27.889  1.00  0.00     0.049 A 
ATOM     70  H   UNL A   1      46.893  32.979  28.700  1.00  0.00     0.167 HD
ATOM     71  C   UNL A   1      47.395  35.561  27.642  1.00  0.00     0.074 A 
ATOM     72  C   UNL A   1      47.204  36.942  27.251  1.00  0.00     0.031 C 
ATOM     73  C   UNL A   1      48.557  34.879  27.490  1.00  0.00     0.037 A 
BRANCH  60  74
ATOM     74  C   UNL A   1      48.368  29.080  29.600  1.00  0.00     0.064 A 
ATOM     75  C   UNL A   1      48.367  28.035  28.664  1.00  0.00     0.173 A 
ATOM     76  C   UNL A   1      49.123  28.912  30.771  1.00  0.00     0.173 A 
ATOM     77  F   UNL A   1      47.652  28.142  27.533  1.00  0.00    -0.203 F 
ATOM     78  C   UNL A   1      49.074  26.858  28.902  1.00  0.00     0.198 A 
ATOM     79  C   UNL A   1      49.851  27.745  30.992  1.00  0.00     0.198 A 
ATOM     80  F   UNL A   1      49.164  29.883  31.695  1.00  0.00    -0.203 F 
ATOM     81  F   UNL A   1      49.022  25.857  28.014  1.00  0.00    -0.200 F 
ATOM     82  C   UNL A   1      49.820  26.718  30.062  1.00  0.00     0.200 A 
ATOM     83  F   UNL A   1      50.583  27.615  32.108  1.00  0.00    -0.200 F 
ATOM     84  F   UNL A   1      50.506  25.588  30.285  1.00  0.00    -0.200 F 
ENDBRANCH  60  74
BRANCH  61  85
ATOM     85  C   UNL A   1      43.176  37.510  28.360  1.00  0.00     0.064 A 
ATOM     86  C   UNL A   1      43.204  38.489  29.363  1.00  0.00     0.173 A 
ATOM     87  C   UNL A   1      42.411  37.769  27.214  1.00  0.00     0.173 A 
ATOM     88  F   UNL A   1      43.905  38.276  30.487  1.00  0.00    -0.203 F 
ATOM     89  C   UNL A   1      42.474  39.669  29.237  1.00  0.00     0.198 A 
ATOM     90  C   UNL A   1      41.703  38.962  27.077  1.00  0.00     0.198 A 
ATOM     91  F   UNL A   1      42.355  36.866  26.224  1.00  0.00    -0.203 F 
ATOM     92  F   UNL A   1      42.481  40.567  30.232  1.00  0.00    -0.200 F 
ATOM     93  C   UNL A   1      41.729  39.907  28.092  1.00  0.00     0.200 A 
ATOM     94  F   UNL A   1      40.993  39.193  25.964  1.00  0.00    -0.200 F 
ATOM     95  F   UNL A   1      41.028  41.043  27.970  1.00  0.00    -0.200 F 
ENDBRANCH  61  85
BRANCH  73  96
ATOM     96  C   UNL A   1      49.698  35.599  26.838  1.00  0.00     0.064 A 
ATOM     97  C   UNL A   1      49.823  35.670  25.442  1.00  0.00     0.173 A 
ATOM     98  C   UNL A   1      50.656  36.264  27.619  1.00  0.00     0.173 A 
ATOM     99  F   UNL A   1      48.941  35.037  24.653  1.00  0.00    -0.203 F 
ATOM    100  C   UNL A   1      50.875  36.364  24.853  1.00  0.00     0.198 A 
ATOM    101  C   UNL A   1      51.691  36.979  27.026  1.00  0.00     0.198 A 
ATOM    102  F   UNL A   1      50.577  36.231  28.957  1.00  0.00    -0.203 F 
ATOM    103  F   UNL A   1      50.999  36.385  23.519  1.00  0.00    -0.200 F 
ATOM    104  C   UNL A   1      51.805  37.025  25.644  1.00  0.00     0.200 A 
ATOM    105  F   UNL A   1      52.581  37.627  27.792  1.00  0.00    -0.200 F 
ATOM    106  F   UNL A   1      52.812  37.699  25.075  1.00  0.00    -0.200 F 
ENDBRANCH  73  96
ENDBRANCH  47  48
ENDBRANCH  39  42
ENDBRANCH  37  38
ENDBRANCH  36  37
ENDBRANCH  35  36
ENDBRANCH  34  35
ENDBRANCH   1  34
TORSDOF 18
ENDMDL
