MODEL 1
REMARK VINA RESULT:     -11.7      0.000      0.000
REMARK SMILES COc1ccc(/C=C/c2cc(OC)cc(OC)c2/C=C/C(=O)NCCCCCCNC(=O)c2ccc(-c3c4nc(c(-c5c(F)c(F)c(F)c(F)c5F)c5ccc([nH]5)c(-c5c(F)c(F)c(F)c(F)c5F)c5nc(c(-c6c(F)c(F)c(F)c(F)c6F)c6ccc3[nH]6)C=C5)C=C4)cc2)cc1
REMARK SMILES IDX 25 1 24 2 23 3 21 4 22 5 20 7 19 8 18 9 9 10 10 11 11 12
REMARK SMILES IDX 15 13 14 14 8 15 7 16 6 17 3 18 4 19 97 20 5 21 96 22 2 23
REMARK SMILES IDX 1 24 12 25 13 26 16 27 17 28 26 29 27 30 28 31 29 32 30 33
REMARK SMILES IDX 31 34 32 36 33 37 34 38 95 39 35 40 94 41 36 42 37 43 38 44
REMARK SMILES IDX 88 45 39 46 93 47 87 48 89 49 40 50 92 51 86 52 85 53 41 55
REMARK SMILES IDX 73 56 53 57 72 58 54 59 57 60 71 61 90 62 55 63 56 64 70 66
REMARK SMILES IDX 91 67 58 68 42 69 43 70 51 71 44 72 45 73 49 74 52 75 46 76
REMARK SMILES IDX 47 77 50 78 48 79 74 80 75 81 83 82 76 83 77 84 81 85 84 86
REMARK SMILES IDX 78 87 79 88 82 89 80 90 59 91 60 92 68 93 61 94 62 95 66 96
REMARK SMILES IDX 69 97 63 98 64 99 67 100 65 101
REMARK H PARENT 23 6 30 35 89 54 57 65
REMARK Flexibility Score: inf
ROOT
ATOM      1  C   UNL A   1      38.770  24.082  26.485  1.00  0.00     0.021 C 
ENDROOT
BRANCH   1   2
ATOM      2  C   UNL A   1      37.779  23.005  26.053  1.00  0.00     0.116 C 
BRANCH   2   3
ATOM      3  N   UNL A   1      37.799  22.817  24.619  1.00  0.00    -0.353 N 
ATOM      4  C   UNL A   1      36.790  22.975  23.723  1.00  0.00     0.244 C 
ATOM      5  O   UNL A   1      36.989  22.812  22.524  1.00  0.00    -0.270 OA
ATOM      6  H   UNL A   1      38.663  22.537  24.240  1.00  0.00     0.163 HD
BRANCH   4   7
ATOM      7  C   UNL A   1      35.456  23.403  24.191  1.00  0.00     0.072 C 
ATOM      8  C   UNL A   1      34.459  23.639  23.325  1.00  0.00     0.018 C 
BRANCH   8   9
ATOM      9  C   UNL A   1      33.191  24.277  23.729  1.00  0.00     0.024 A 
ATOM     10  C   UNL A   1      32.210  23.480  24.384  1.00  0.00    -0.011 A 
ATOM     11  C   UNL A   1      30.985  24.037  24.786  1.00  0.00     0.055 A 
ATOM     12  C   UNL A   1      30.684  25.364  24.516  1.00  0.00     0.123 A 
ATOM     13  C   UNL A   1      32.880  25.631  23.471  1.00  0.00     0.130 A 
ATOM     14  C   UNL A   1      31.636  26.152  23.881  1.00  0.00     0.093 A 
BRANCH  10  15
ATOM     15  C   UNL A   1      32.346  22.039  24.662  1.00  0.00     0.009 C 
ATOM     16  C   UNL A   1      32.442  21.131  23.680  1.00  0.00     0.009 C 
BRANCH  16  17
ATOM     17  C   UNL A   1      32.602  19.679  23.856  1.00  0.00    -0.025 A 
ATOM     18  C   UNL A   1      32.969  16.933  24.372  1.00  0.00     0.118 A 
ATOM     19  C   UNL A   1      32.832  17.390  23.064  1.00  0.00     0.047 A 
ATOM     20  C   UNL A   1      32.891  17.841  25.424  1.00  0.00     0.047 A 
ATOM     21  C   UNL A   1      32.649  18.754  22.805  1.00  0.00     0.012 A 
ATOM     22  C   UNL A   1      32.717  19.201  25.166  1.00  0.00     0.012 A 
BRANCH  18  23
ATOM     23  O   UNL A   1      33.190  15.592  24.515  1.00  0.00    -0.497 OA
ATOM     24  C   UNL A   1      32.585  14.993  25.653  1.00  0.00     0.278 C 
ENDBRANCH  18  23
ENDBRANCH  16  17
ENDBRANCH  10  15
BRANCH  12  25
ATOM     25  O   UNL A   1      29.446  25.780  24.917  1.00  0.00    -0.497 OA
ATOM     26  C   UNL A   1      28.748  26.612  23.995  1.00  0.00     0.278 C 
ENDBRANCH  12  25
BRANCH  13  27
ATOM     27  O   UNL A   1      33.597  26.612  22.840  1.00  0.00    -0.496 OA
ATOM     28  C   UNL A   1      33.162  27.956  22.763  1.00  0.00     0.278 C 
ENDBRANCH  13  27
ENDBRANCH   8   9
ENDBRANCH   4   7
ENDBRANCH   2   3
ENDBRANCH   1   2
BRANCH   1  29
ATOM     29  C   UNL A   1      40.198  23.567  26.714  1.00  0.00     0.002 C 
BRANCH  29  30
ATOM     30  C   UNL A   1      40.354  22.040  26.753  1.00  0.00     0.002 C 
BRANCH  30  31
ATOM     31  C   UNL A   1      41.678  21.510  26.204  1.00  0.00     0.021 C 
BRANCH  31  32
ATOM     32  C   UNL A   1      42.504  22.530  25.425  1.00  0.00     0.116 C 
BRANCH  32  33
ATOM     33  N   UNL A   1      43.922  22.423  25.728  1.00  0.00    -0.352 N 
ATOM     34  C   UNL A   1      44.728  23.190  26.534  1.00  0.00     0.251 C 
ATOM     35  H   UNL A   1      44.381  21.675  25.282  1.00  0.00     0.163 HD
ATOM     36  O   UNL A   1      45.946  23.034  26.481  1.00  0.00    -0.269 OA
BRANCH  34  37
ATOM     37  C   UNL A   1      44.170  24.224  27.443  1.00  0.00     0.039 A 
ATOM     38  C   UNL A   1      43.331  23.814  28.490  1.00  0.00     0.014 A 
ATOM     39  C   UNL A   1      44.427  25.585  27.272  1.00  0.00     0.014 A 
ATOM     40  C   UNL A   1      42.814  24.751  29.397  1.00  0.00     0.010 A 
ATOM     41  C   UNL A   1      43.975  26.508  28.220  1.00  0.00     0.010 A 
ATOM     42  C   UNL A   1      43.162  26.106  29.295  1.00  0.00    -0.014 A 
BRANCH  42  43
ATOM     43  C   UNL A   1      42.669  27.120  30.271  1.00  0.00     0.031 A 
ATOM     44  C   UNL A   1      43.299  27.207  31.636  1.00  0.00     0.074 A 
ATOM     45  C   UNL A   1      41.621  27.919  29.980  1.00  0.00     0.049 A 
ATOM     46  N   UNL A   1      42.995  27.989  32.642  1.00  0.00    -0.248 NA
ATOM     47  C   UNL A   1      44.415  26.288  31.909  1.00  0.00     0.031 C 
ATOM     48  C   UNL A   1      40.903  27.951  28.709  1.00  0.00     0.029 A 
ATOM     49  N   UNL A   1      40.955  28.847  30.749  1.00  0.00    -0.354 N 
ATOM     50  C   UNL A   1      43.888  27.667  33.655  1.00  0.00     0.074 A 
ATOM     51  C   UNL A   1      44.689  26.562  33.176  1.00  0.00     0.031 C 
ATOM     52  C   UNL A   1      39.874  28.809  28.794  1.00  0.00     0.029 A 
ATOM     53  C   UNL A   1      39.867  29.408  30.122  1.00  0.00     0.049 A 
ATOM     54  H   UNL A   1      41.233  29.087  31.662  1.00  0.00     0.167 HD
ATOM     55  C   UNL A   1      44.057  28.263  34.858  1.00  0.00     0.037 A 
ATOM     56  C   UNL A   1      38.968  30.313  30.557  1.00  0.00     0.037 A 
ATOM     57  C   UNL A   1      43.267  29.366  35.338  1.00  0.00     0.049 A 
ATOM     58  C   UNL A   1      39.140  30.921  31.923  1.00  0.00     0.074 A 
ATOM     59  C   UNL A   1      43.403  30.073  36.520  1.00  0.00     0.029 A 
ATOM     60  N   UNL A   1      42.184  29.914  34.667  1.00  0.00    -0.354 N 
ATOM     61  N   UNL A   1      40.059  30.683  32.825  1.00  0.00    -0.248 NA
ATOM     62  C   UNL A   1      38.168  31.953  32.316  1.00  0.00     0.031 C 
ATOM     63  C   UNL A   1      42.366  31.010  36.592  1.00  0.00     0.029 A 
ATOM     64  C   UNL A   1      41.622  30.930  35.426  1.00  0.00     0.049 A 
ATOM     65  H   UNL A   1      41.862  29.625  33.783  1.00  0.00     0.167 HD
ATOM     66  C   UNL A   1      39.809  31.567  33.867  1.00  0.00     0.074 A 
ATOM     67  C   UNL A   1      38.655  32.351  33.482  1.00  0.00     0.031 C 
ATOM     68  C   UNL A   1      40.484  31.718  35.032  1.00  0.00     0.037 A 
BRANCH  55  69
ATOM     69  C   UNL A   1      45.156  27.741  35.736  1.00  0.00     0.064 A 
ATOM     70  C   UNL A   1      44.926  26.714  36.665  1.00  0.00     0.173 A 
ATOM     71  C   UNL A   1      46.459  28.248  35.629  1.00  0.00     0.173 A 
ATOM     72  F   UNL A   1      43.695  26.201  36.815  1.00  0.00    -0.203 F 
ATOM     73  C   UNL A   1      45.951  26.237  37.477  1.00  0.00     0.198 A 
ATOM     74  C   UNL A   1      47.491  27.746  36.420  1.00  0.00     0.198 A 
ATOM     75  F   UNL A   1      46.736  29.226  34.753  1.00  0.00    -0.203 F 
ATOM     76  F   UNL A   1      45.695  25.296  38.396  1.00  0.00    -0.200 F 
ATOM     77  C   UNL A   1      47.234  26.749  37.348  1.00  0.00     0.200 A 
ATOM     78  F   UNL A   1      48.733  28.230  36.284  1.00  0.00    -0.200 F 
ATOM     79  F   UNL A   1      48.222  26.285  38.126  1.00  0.00    -0.200 F 
ENDBRANCH  55  69
BRANCH  56  80
ATOM     80  C   UNL A   1      37.854  30.749  29.674  1.00  0.00     0.064 A 
ATOM     81  C   UNL A   1      37.818  32.046  29.145  1.00  0.00     0.173 A 
ATOM     82  C   UNL A   1      36.786  29.891  29.368  1.00  0.00     0.173 A 
ATOM     83  F   UNL A   1      38.806  32.909  29.422  1.00  0.00    -0.203 F 
ATOM     84  C   UNL A   1      36.741  32.483  28.375  1.00  0.00     0.198 A 
ATOM     85  C   UNL A   1      35.723  30.320  28.575  1.00  0.00     0.198 A 
ATOM     86  F   UNL A   1      36.773  28.637  29.843  1.00  0.00    -0.203 F 
ATOM     87  F   UNL A   1      36.705  33.747  27.934  1.00  0.00    -0.200 F 
ATOM     88  C   UNL A   1      35.695  31.619  28.089  1.00  0.00     0.200 A 
ATOM     89  F   UNL A   1      34.720  29.479  28.288  1.00  0.00    -0.200 F 
ATOM     90  F   UNL A   1      34.657  32.041  27.354  1.00  0.00    -0.200 F 
ENDBRANCH  56  80
BRANCH  68  91
ATOM     91  C   UNL A   1      40.027  32.805  35.962  1.00  0.00     0.064 A 
ATOM     92  C   UNL A   1      39.007  32.598  36.902  1.00  0.00     0.173 A 
ATOM     93  C   UNL A   1      40.651  34.063  35.940  1.00  0.00     0.173 A 
ATOM     94  F   UNL A   1      38.368  31.419  36.956  1.00  0.00    -0.203 F 
ATOM     95  C   UNL A   1      38.611  33.616  37.766  1.00  0.00     0.198 A 
ATOM     96  C   UNL A   1      40.276  35.067  36.828  1.00  0.00     0.198 A 
ATOM     97  F   UNL A   1      41.636  34.314  35.064  1.00  0.00    -0.203 F 
ATOM     98  F   UNL A   1      37.599  33.411  38.620  1.00  0.00    -0.200 F 
ATOM     99  C   UNL A   1      39.251  34.845  37.735  1.00  0.00     0.200 A 
ATOM    100  F   UNL A   1      40.908  36.248  36.807  1.00  0.00    -0.200 F 
ATOM    101  F   UNL A   1      38.876  35.820  38.575  1.00  0.00    -0.200 F 
ENDBRANCH  68  91
ENDBRANCH  42  43
ENDBRANCH  34  37
ENDBRANCH  32  33
ENDBRANCH  31  32
ENDBRANCH  30  31
ENDBRANCH  29  30
ENDBRANCH   1  29
TORSDOF 19
ENDMDL
MODEL 2
REMARK VINA RESULT:     -11.6      3.481      9.023
REMARK SMILES COc1ccc(/C=C/c2cc(OC)cc(OC)c2/C=C/C(=O)NCCCCCCNC(=O)c2ccc(-c3c4nc(c(-c5c(F)c(F)c(F)c(F)c5F)c5ccc([nH]5)c(-c5c(F)c(F)c(F)c(F)c5F)c5nc(c(-c6c(F)c(F)c(F)c(F)c6F)c6ccc3[nH]6)C=C5)C=C4)cc2)cc1
REMARK SMILES IDX 25 1 24 2 23 3 21 4 22 5 20 7 19 8 18 9 9 10 10 11 11 12
REMARK SMILES IDX 15 13 14 14 8 15 7 16 6 17 3 18 4 19 97 20 5 21 96 22 2 23
REMARK SMILES IDX 1 24 12 25 13 26 16 27 17 28 26 29 27 30 28 31 29 32 30 33
REMARK SMILES IDX 31 34 32 36 33 37 34 38 95 39 35 40 94 41 36 42 37 43 38 44
REMARK SMILES IDX 88 45 39 46 93 47 87 48 89 49 40 50 92 51 86 52 85 53 41 55
REMARK SMILES IDX 73 56 53 57 72 58 54 59 57 60 71 61 90 62 55 63 56 64 70 66
REMARK SMILES IDX 91 67 58 68 42 69 43 70 51 71 44 72 45 73 49 74 52 75 46 76
REMARK SMILES IDX 47 77 50 78 48 79 74 80 75 81 83 82 76 83 77 84 81 85 84 86
REMARK SMILES IDX 78 87 79 88 82 89 80 90 59 91 60 92 68 93 61 94 62 95 66 96
REMARK SMILES IDX 69 97 63 98 64 99 67 100 65 101
REMARK H PARENT 23 6 30 35 89 54 57 65
REMARK Flexibility Score: inf
ROOT
ATOM      1  C   UNL A   1      34.902  30.671  27.962  1.00  0.00     0.021 C 
ENDROOT
BRANCH   1   2
ATOM      2  C   UNL A   1      33.831  29.878  27.218  1.00  0.00     0.116 C 
BRANCH   2   3
ATOM      3  N   UNL A   1      34.181  29.700  25.825  1.00  0.00    -0.353 N 
ATOM      4  C   UNL A   1      34.004  28.611  25.033  1.00  0.00     0.244 C 
ATOM      5  O   UNL A   1      34.325  28.641  23.850  1.00  0.00    -0.270 OA
ATOM      6  H   UNL A   1      34.606  30.475  25.393  1.00  0.00     0.163 HD
BRANCH   4   7
ATOM      7  C   UNL A   1      33.365  27.399  25.586  1.00  0.00     0.072 C 
ATOM      8  C   UNL A   1      33.276  26.271  24.865  1.00  0.00     0.018 C 
BRANCH   8   9
ATOM      9  C   UNL A   1      32.457  25.120  25.292  1.00  0.00     0.024 A 
ATOM     10  C   UNL A   1      31.039  25.251  25.265  1.00  0.00    -0.011 A 
ATOM     11  C   UNL A   1      30.213  24.187  25.664  1.00  0.00     0.055 A 
ATOM     12  C   UNL A   1      30.757  23.001  26.134  1.00  0.00     0.123 A 
ATOM     13  C   UNL A   1      33.001  23.902  25.759  1.00  0.00     0.130 A 
ATOM     14  C   UNL A   1      32.139  22.861  26.159  1.00  0.00     0.093 A 
BRANCH  10  15
ATOM     15  C   UNL A   1      30.315  26.474  24.876  1.00  0.00     0.009 C 
ATOM     16  C   UNL A   1      30.149  26.826  23.594  1.00  0.00     0.009 C 
BRANCH  16  17
ATOM     17  C   UNL A   1      29.426  28.012  23.107  1.00  0.00    -0.025 A 
ATOM     18  C   UNL A   1      28.211  30.371  22.157  1.00  0.00     0.118 A 
ATOM     19  C   UNL A   1      27.448  29.394  22.792  1.00  0.00     0.047 A 
ATOM     20  C   UNL A   1      29.574  30.157  21.969  1.00  0.00     0.047 A 
ATOM     21  C   UNL A   1      28.049  28.220  23.264  1.00  0.00     0.012 A 
ATOM     22  C   UNL A   1      30.174  28.992  22.446  1.00  0.00     0.012 A 
BRANCH  18  23
ATOM     23  O   UNL A   1      27.538  31.498  21.776  1.00  0.00    -0.497 OA
ATOM     24  C   UNL A   1      27.972  32.081  20.554  1.00  0.00     0.278 C 
ENDBRANCH  18  23
ENDBRANCH  16  17
ENDBRANCH  10  15
BRANCH  12  25
ATOM     25  O   UNL A   1      29.854  22.056  26.532  1.00  0.00    -0.497 OA
ATOM     26  C   UNL A   1      28.838  22.512  27.420  1.00  0.00     0.278 C 
ENDBRANCH  12  25
BRANCH  13  27
ATOM     27  O   UNL A   1      34.301  23.506  25.925  1.00  0.00    -0.496 OA
ATOM     28  C   UNL A   1      34.784  22.935  27.126  1.00  0.00     0.278 C 
ENDBRANCH  13  27
ENDBRANCH   8   9
ENDBRANCH   4   7
ENDBRANCH   2   3
ENDBRANCH   1   2
BRANCH   1  29
ATOM     29  C   UNL A   1      34.413  32.013  28.525  1.00  0.00     0.002 C 
BRANCH  29  30
ATOM     30  C   UNL A   1      35.189  33.251  28.054  1.00  0.00     0.002 C 
BRANCH  30  31
ATOM     31  C   UNL A   1      34.404  34.562  28.097  1.00  0.00     0.021 C 
BRANCH  31  32
ATOM     32  C   UNL A   1      32.958  34.429  28.570  1.00  0.00     0.116 C 
BRANCH  32  33
ATOM     33  N   UNL A   1      32.647  35.376  29.628  1.00  0.00    -0.352 N 
ATOM     34  C   UNL A   1      33.153  35.500  30.900  1.00  0.00     0.251 C 
ATOM     35  H   UNL A   1      31.958  36.040  29.395  1.00  0.00     0.163 HD
ATOM     36  O   UNL A   1      32.593  36.252  31.694  1.00  0.00    -0.269 OA
BRANCH  34  37
ATOM     37  C   UNL A   1      34.339  34.726  31.349  1.00  0.00     0.039 A 
ATOM     38  C   UNL A   1      34.141  33.442  31.879  1.00  0.00     0.014 A 
ATOM     39  C   UNL A   1      35.634  35.244  31.291  1.00  0.00     0.014 A 
ATOM     40  C   UNL A   1      35.235  32.660  32.278  1.00  0.00     0.010 A 
ATOM     41  C   UNL A   1      36.727  34.437  31.618  1.00  0.00     0.010 A 
ATOM     42  C   UNL A   1      36.544  33.134  32.116  1.00  0.00    -0.014 A 
BRANCH  42  43
ATOM     43  C   UNL A   1      37.730  32.308  32.485  1.00  0.00     0.031 A 
ATOM     44  C   UNL A   1      38.491  32.622  33.747  1.00  0.00     0.074 A 
ATOM     45  C   UNL A   1      38.178  31.326  31.676  1.00  0.00     0.049 A 
ATOM     46  N   UNL A   1      39.568  32.053  34.229  1.00  0.00    -0.248 NA
ATOM     47  C   UNL A   1      37.977  33.725  34.573  1.00  0.00     0.031 C 
ATOM     48  C   UNL A   1      37.557  30.906  30.423  1.00  0.00     0.029 A 
ATOM     49  N   UNL A   1      39.285  30.512  31.775  1.00  0.00    -0.354 N 
ATOM     50  C   UNL A   1      39.848  32.719  35.415  1.00  0.00     0.074 A 
ATOM     51  C   UNL A   1      38.881  33.787  35.539  1.00  0.00     0.031 C 
ATOM     52  C   UNL A   1      38.306  29.954  29.845  1.00  0.00     0.029 A 
ATOM     53  C   UNL A   1      39.457  29.677  30.695  1.00  0.00     0.049 A 
ATOM     54  H   UNL A   1      39.895  30.527  32.546  1.00  0.00     0.167 HD
ATOM     55  C   UNL A   1      40.796  32.440  36.341  1.00  0.00     0.037 A 
ATOM     56  C   UNL A   1      40.421  28.778  30.421  1.00  0.00     0.037 A 
ATOM     57  C   UNL A   1      41.757  31.375  36.226  1.00  0.00     0.049 A 
ATOM     58  C   UNL A   1      41.501  28.525  31.438  1.00  0.00     0.074 A 
ATOM     59  C   UNL A   1      42.718  30.980  37.141  1.00  0.00     0.029 A 
ATOM     60  N   UNL A   1      41.888  30.543  35.125  1.00  0.00    -0.354 N 
ATOM     61  N   UNL A   1      41.685  29.087  32.607  1.00  0.00    -0.248 NA
ATOM     62  C   UNL A   1      42.487  27.483  31.113  1.00  0.00     0.031 C 
ATOM     63  C   UNL A   1      43.470  29.949  36.568  1.00  0.00     0.029 A 
ATOM     64  C   UNL A   1      42.937  29.658  35.323  1.00  0.00     0.049 A 
ATOM     65  H   UNL A   1      41.321  30.577  34.321  1.00  0.00     0.167 HD
ATOM     66  C   UNL A   1      42.771  28.436  33.177  1.00  0.00     0.074 A 
ATOM     67  C   UNL A   1      43.202  27.431  32.228  1.00  0.00     0.031 C 
ATOM     68  C   UNL A   1      43.351  28.649  34.383  1.00  0.00     0.037 A 
BRANCH  55  69
ATOM     69  C   UNL A   1      40.826  33.296  37.573  1.00  0.00     0.064 A 
ATOM     70  C   UNL A   1      39.932  33.085  38.634  1.00  0.00     0.173 A 
ATOM     71  C   UNL A   1      41.778  34.317  37.710  1.00  0.00     0.173 A 
ATOM     72  F   UNL A   1      38.995  32.129  38.548  1.00  0.00    -0.203 F 
ATOM     73  C   UNL A   1      39.966  33.886  39.772  1.00  0.00     0.198 A 
ATOM     74  C   UNL A   1      41.832  35.095  38.865  1.00  0.00     0.198 A 
ATOM     75  F   UNL A   1      42.661  34.557  36.729  1.00  0.00    -0.203 F 
ATOM     76  F   UNL A   1      39.066  33.703  40.747  1.00  0.00    -0.200 F 
ATOM     77  C   UNL A   1      40.921  34.886  39.889  1.00  0.00     0.200 A 
ATOM     78  F   UNL A   1      42.764  36.050  38.984  1.00  0.00    -0.200 F 
ATOM     79  F   UNL A   1      40.958  35.652  40.988  1.00  0.00    -0.200 F 
ENDBRANCH  55  69
BRANCH  56  80
ATOM     80  C   UNL A   1      40.386  28.001  29.152  1.00  0.00     0.064 A 
ATOM     81  C   UNL A   1      39.656  26.809  29.057  1.00  0.00     0.173 A 
ATOM     82  C   UNL A   1      41.106  28.416  28.022  1.00  0.00     0.173 A 
ATOM     83  F   UNL A   1      38.964  26.361  30.116  1.00  0.00    -0.203 F 
ATOM     84  C   UNL A   1      39.676  26.040  27.894  1.00  0.00     0.198 A 
ATOM     85  C   UNL A   1      41.103  27.661  26.850  1.00  0.00     0.198 A 
ATOM     86  F   UNL A   1      41.816  29.553  28.057  1.00  0.00    -0.203 F 
ATOM     87  F   UNL A   1      39.018  24.874  27.853  1.00  0.00    -0.200 F 
ATOM     88  C   UNL A   1      40.398  26.468  26.791  1.00  0.00     0.200 A 
ATOM     89  F   UNL A   1      41.791  28.083  25.780  1.00  0.00    -0.200 F 
ATOM     90  F   UNL A   1      40.423  25.726  25.675  1.00  0.00    -0.200 F 
ENDBRANCH  56  80
BRANCH  68  91
ATOM     91  C   UNL A   1      44.486  27.747  34.776  1.00  0.00     0.064 A 
ATOM     92  C   UNL A   1      44.271  26.526  35.431  1.00  0.00     0.173 A 
ATOM     93  C   UNL A   1      45.809  28.094  34.453  1.00  0.00     0.173 A 
ATOM     94  F   UNL A   1      43.029  26.154  35.776  1.00  0.00    -0.203 F 
ATOM     95  C   UNL A   1      45.338  25.698  35.771  1.00  0.00     0.198 A 
ATOM     96  C   UNL A   1      46.868  27.248  34.763  1.00  0.00     0.198 A 
ATOM     97  F   UNL A   1      46.070  29.248  33.822  1.00  0.00    -0.203 F 
ATOM     98  F   UNL A   1      45.112  24.561  36.443  1.00  0.00    -0.200 F 
ATOM     99  C   UNL A   1      46.634  26.054  35.430  1.00  0.00     0.200 A 
ATOM    100  F   UNL A   1      48.118  27.586  34.417  1.00  0.00    -0.200 F 
ATOM    101  F   UNL A   1      47.657  25.250  35.748  1.00  0.00    -0.200 F 
ENDBRANCH  68  91
ENDBRANCH  42  43
ENDBRANCH  34  37
ENDBRANCH  32  33
ENDBRANCH  31  32
ENDBRANCH  30  31
ENDBRANCH  29  30
ENDBRANCH   1  29
TORSDOF 19
ENDMDL
MODEL 3
REMARK VINA RESULT:     -11.0      5.583     10.878
REMARK SMILES COc1ccc(/C=C/c2cc(OC)cc(OC)c2/C=C/C(=O)NCCCCCCNC(=O)c2ccc(-c3c4nc(c(-c5c(F)c(F)c(F)c(F)c5F)c5ccc([nH]5)c(-c5c(F)c(F)c(F)c(F)c5F)c5nc(c(-c6c(F)c(F)c(F)c(F)c6F)c6ccc3[nH]6)C=C5)C=C4)cc2)cc1
REMARK SMILES IDX 25 1 24 2 23 3 21 4 22 5 20 7 19 8 18 9 9 10 10 11 11 12
REMARK SMILES IDX 15 13 14 14 8 15 7 16 6 17 3 18 4 19 97 20 5 21 96 22 2 23
REMARK SMILES IDX 1 24 12 25 13 26 16 27 17 28 26 29 27 30 28 31 29 32 30 33
REMARK SMILES IDX 31 34 32 36 33 37 34 38 95 39 35 40 94 41 36 42 37 43 38 44
REMARK SMILES IDX 88 45 39 46 93 47 87 48 89 49 40 50 92 51 86 52 85 53 41 55
REMARK SMILES IDX 73 56 53 57 72 58 54 59 57 60 71 61 90 62 55 63 56 64 70 66
REMARK SMILES IDX 91 67 58 68 42 69 43 70 51 71 44 72 45 73 49 74 52 75 46 76
REMARK SMILES IDX 47 77 50 78 48 79 74 80 75 81 83 82 76 83 77 84 81 85 84 86
REMARK SMILES IDX 78 87 79 88 82 89 80 90 59 91 60 92 68 93 61 94 62 95 66 96
REMARK SMILES IDX 69 97 63 98 64 99 67 100 65 101
REMARK H PARENT 23 6 30 35 89 54 57 65
REMARK Flexibility Score: inf
ROOT
ATOM      1  C   UNL A   1      44.725  26.368  25.166  1.00  0.00     0.021 C 
ENDROOT
BRANCH   1   2
ATOM      2  C   UNL A   1      46.088  27.053  25.213  1.00  0.00     0.116 C 
BRANCH   2   3
ATOM      3  N   UNL A   1      46.304  27.874  24.042  1.00  0.00    -0.353 N 
ATOM      4  C   UNL A   1      47.400  27.950  23.243  1.00  0.00     0.244 C 
ATOM      5  O   UNL A   1      47.403  28.678  22.256  1.00  0.00    -0.270 OA
ATOM      6  H   UNL A   1      45.553  28.459  23.790  1.00  0.00     0.163 HD
BRANCH   4   7
ATOM      7  C   UNL A   1      48.577  27.105  23.533  1.00  0.00     0.072 C 
ATOM      8  C   UNL A   1      49.687  27.625  24.078  1.00  0.00     0.018 C 
BRANCH   8   9
ATOM      9  C   UNL A   1      50.951  26.870  24.175  1.00  0.00     0.024 A 
ATOM     10  C   UNL A   1      51.250  26.202  25.397  1.00  0.00    -0.011 A 
ATOM     11  C   UNL A   1      52.442  25.474  25.543  1.00  0.00     0.055 A 
ATOM     12  C   UNL A   1      53.375  25.423  24.518  1.00  0.00     0.123 A 
ATOM     13  C   UNL A   1      51.903  26.801  23.132  1.00  0.00     0.130 A 
ATOM     14  C   UNL A   1      53.092  26.067  23.321  1.00  0.00     0.093 A 
BRANCH  10  15
ATOM     15  C   UNL A   1      50.403  26.236  26.602  1.00  0.00     0.009 C 
ATOM     16  C   UNL A   1      50.687  25.510  27.692  1.00  0.00     0.009 C 
BRANCH  16  17
ATOM     17  C   UNL A   1      49.917  25.493  28.947  1.00  0.00    -0.025 A 
ATOM     18  C   UNL A   1      48.302  25.553  31.256  1.00  0.00     0.118 A 
ATOM     19  C   UNL A   1      49.664  25.275  31.357  1.00  0.00     0.047 A 
ATOM     20  C   UNL A   1      47.741  25.769  30.000  1.00  0.00     0.047 A 
ATOM     21  C   UNL A   1      50.468  25.245  30.211  1.00  0.00     0.012 A 
ATOM     22  C   UNL A   1      48.544  25.746  28.860  1.00  0.00     0.012 A 
BRANCH  18  23
ATOM     23  O   UNL A   1      47.616  25.605  32.436  1.00  0.00    -0.497 OA
ATOM     24  C   UNL A   1      47.775  26.807  33.180  1.00  0.00     0.278 C 
ENDBRANCH  18  23
ENDBRANCH  16  17
ENDBRANCH  10  15
BRANCH  12  25
ATOM     25  O   UNL A   1      54.514  24.719  24.793  1.00  0.00    -0.497 OA
ATOM     26  C   UNL A   1      54.890  24.670  26.166  1.00  0.00     0.278 C 
ENDBRANCH  12  25
BRANCH  13  27
ATOM     27  O   UNL A   1      51.906  27.359  21.883  1.00  0.00    -0.496 OA
ATOM     28  C   UNL A   1      52.274  26.642  20.720  1.00  0.00     0.278 C 
ENDBRANCH  13  27
ENDBRANCH   8   9
ENDBRANCH   4   7
ENDBRANCH   2   3
ENDBRANCH   1   2
BRANCH   1  29
ATOM     29  C   UNL A   1      44.711  24.954  25.765  1.00  0.00     0.002 C 
BRANCH  29  30
ATOM     30  C   UNL A   1      44.738  23.804  24.749  1.00  0.00     0.002 C 
BRANCH  30  31
ATOM     31  C   UNL A   1      43.424  23.036  24.605  1.00  0.00     0.021 C 
BRANCH  31  32
ATOM     32  C   UNL A   1      42.950  22.333  25.875  1.00  0.00     0.116 C 
BRANCH  32  33
ATOM     33  N   UNL A   1      41.510  22.132  25.876  1.00  0.00    -0.352 N 
ATOM     34  C   UNL A   1      40.496  22.903  26.391  1.00  0.00     0.251 C 
ATOM     35  H   UNL A   1      41.211  21.305  25.433  1.00  0.00     0.163 HD
ATOM     36  O   UNL A   1      39.362  22.434  26.453  1.00  0.00    -0.269 OA
BRANCH  34  37
ATOM     37  C   UNL A   1      40.740  24.276  26.903  1.00  0.00     0.039 A 
ATOM     38  C   UNL A   1      41.006  24.445  28.270  1.00  0.00     0.014 A 
ATOM     39  C   UNL A   1      40.681  25.402  26.079  1.00  0.00     0.014 A 
ATOM     40  C   UNL A   1      41.282  25.718  28.790  1.00  0.00     0.010 A 
ATOM     41  C   UNL A   1      41.030  26.658  26.583  1.00  0.00     0.010 A 
ATOM     42  C   UNL A   1      41.336  26.835  27.944  1.00  0.00    -0.014 A 
BRANCH  42  43
ATOM     43  C   UNL A   1      41.673  28.194  28.457  1.00  0.00     0.031 A 
ATOM     44  C   UNL A   1      43.116  28.575  28.666  1.00  0.00     0.074 A 
ATOM     45  C   UNL A   1      40.707  29.071  28.804  1.00  0.00     0.049 A 
ATOM     46  N   UNL A   1      43.621  29.687  29.137  1.00  0.00    -0.248 NA
ATOM     47  C   UNL A   1      44.124  27.566  28.303  1.00  0.00     0.031 C 
ATOM     48  C   UNL A   1      39.271  28.852  28.667  1.00  0.00     0.029 A 
ATOM     49  N   UNL A   1      40.789  30.323  29.370  1.00  0.00    -0.354 N 
ATOM     50  C   UNL A   1      44.998  29.517  29.112  1.00  0.00     0.074 A 
ATOM     51  C   UNL A   1      45.249  28.166  28.661  1.00  0.00     0.031 C 
ATOM     52  C   UNL A   1      38.604  29.900  29.175  1.00  0.00     0.029 A 
ATOM     53  C   UNL A   1      39.565  30.882  29.659  1.00  0.00     0.049 A 
ATOM     54  H   UNL A   1      41.643  30.776  29.552  1.00  0.00     0.167 HD
ATOM     55  C   UNL A   1      45.969  30.417  29.396  1.00  0.00     0.037 A 
ATOM     56  C   UNL A   1      39.246  32.057  30.236  1.00  0.00     0.037 A 
ATOM     57  C   UNL A   1      45.726  31.764  29.840  1.00  0.00     0.049 A 
ATOM     58  C   UNL A   1      40.344  33.019  30.599  1.00  0.00     0.074 A 
ATOM     59  C   UNL A   1      46.646  32.765  30.097  1.00  0.00     0.029 A 
ATOM     60  N   UNL A   1      44.473  32.295  30.106  1.00  0.00    -0.354 N 
ATOM     61  N   UNL A   1      41.640  32.885  30.464  1.00  0.00    -0.248 NA
ATOM     62  C   UNL A   1      39.932  34.314  31.162  1.00  0.00     0.031 C 
ATOM     63  C   UNL A   1      45.955  33.884  30.575  1.00  0.00     0.029 A 
ATOM     64  C   UNL A   1      44.599  33.600  30.556  1.00  0.00     0.049 A 
ATOM     65  H   UNL A   1      43.621  31.815  29.992  1.00  0.00     0.167 HD
ATOM     66  C   UNL A   1      42.193  34.090  30.875  1.00  0.00     0.074 A 
ATOM     67  C   UNL A   1      41.091  34.947  31.258  1.00  0.00     0.031 C 
ATOM     68  C   UNL A   1      43.498  34.455  30.921  1.00  0.00     0.037 A 
BRANCH  55  69
ATOM     69  C   UNL A   1      47.392  29.973  29.218  1.00  0.00     0.064 A 
ATOM     70  C   UNL A   1      48.137  29.455  30.289  1.00  0.00     0.173 A 
ATOM     71  C   UNL A   1      48.008  30.035  27.960  1.00  0.00     0.173 A 
ATOM     72  F   UNL A   1      47.598  29.383  31.515  1.00  0.00    -0.203 F 
ATOM     73  C   UNL A   1      49.457  29.048  30.114  1.00  0.00     0.198 A 
ATOM     74  C   UNL A   1      49.318  29.596  27.781  1.00  0.00     0.198 A 
ATOM     75  F   UNL A   1      47.339  30.515  26.901  1.00  0.00    -0.203 F 
ATOM     76  F   UNL A   1      50.166  28.610  31.164  1.00  0.00    -0.200 F 
ATOM     77  C   UNL A   1      50.043  29.112  28.859  1.00  0.00     0.200 A 
ATOM     78  F   UNL A   1      49.879  29.644  26.565  1.00  0.00    -0.200 F 
ATOM     79  F   UNL A   1      51.312  28.714  28.691  1.00  0.00    -0.200 F 
ENDBRANCH  55  69
BRANCH  56  80
ATOM     80  C   UNL A   1      37.821  32.423  30.455  1.00  0.00     0.064 A 
ATOM     81  C   UNL A   1      37.116  33.177  29.507  1.00  0.00     0.173 A 
ATOM     82  C   UNL A   1      37.146  32.057  31.629  1.00  0.00     0.173 A 
ATOM     83  F   UNL A   1      37.723  33.567  28.376  1.00  0.00    -0.203 F 
ATOM     84  C   UNL A   1      35.803  33.584  29.740  1.00  0.00     0.198 A 
ATOM     85  C   UNL A   1      35.823  32.441  31.848  1.00  0.00     0.198 A 
ATOM     86  F   UNL A   1      37.771  31.330  32.566  1.00  0.00    -0.203 F 
ATOM     87  F   UNL A   1      35.175  34.356  28.843  1.00  0.00    -0.200 F 
ATOM     88  C   UNL A   1      35.157  33.214  30.909  1.00  0.00     0.200 A 
ATOM     89  F   UNL A   1      35.197  32.070  32.973  1.00  0.00    -0.200 F 
ATOM     90  F   UNL A   1      33.897  33.610  31.135  1.00  0.00    -0.200 F 
ENDBRANCH  56  80
BRANCH  68  91
ATOM     91  C   UNL A   1      43.812  35.858  31.354  1.00  0.00     0.064 A 
ATOM     92  C   UNL A   1      43.939  36.908  30.432  1.00  0.00     0.173 A 
ATOM     93  C   UNL A   1      43.948  36.164  32.717  1.00  0.00     0.173 A 
ATOM     94  F   UNL A   1      43.833  36.668  29.116  1.00  0.00    -0.203 F 
ATOM     95  C   UNL A   1      44.215  38.205  30.857  1.00  0.00     0.198 A 
ATOM     96  C   UNL A   1      44.189  37.467  33.141  1.00  0.00     0.198 A 
ATOM     97  F   UNL A   1      43.831  35.198  33.641  1.00  0.00    -0.203 F 
ATOM     98  F   UNL A   1      44.383  39.181  29.955  1.00  0.00    -0.200 F 
ATOM     99  C   UNL A   1      44.330  38.486  32.210  1.00  0.00     0.200 A 
ATOM    100  F   UNL A   1      44.283  37.738  34.449  1.00  0.00    -0.200 F 
ATOM    101  F   UNL A   1      44.584  39.736  32.618  1.00  0.00    -0.200 F 
ENDBRANCH  68  91
ENDBRANCH  42  43
ENDBRANCH  34  37
ENDBRANCH  32  33
ENDBRANCH  31  32
ENDBRANCH  30  31
ENDBRANCH  29  30
ENDBRANCH   1  29
TORSDOF 19
ENDMDL
