MODEL 1
REMARK VINA RESULT:     -12.7      0.000      0.000
REMARK SMILES Cc1ccc([C@H](CC2CCCC2)C(=O)NCCCCCCNC(=O)c2ccc(-c3c4nc(c(-c5c(F)c(F)c(F)c(F)c5F)c5ccc([nH]5)c(-c5c(F)c(F)c(F)c(F)c5F)c5nc(c(-c6c(F)c(F)c(F)c(F)c6F)c6ccc3[nH]6)C=C5)C=C4)cc2)cc1
REMARK SMILES IDX 18 1 17 2 16 3 15 4 13 5 14 6 6 8 5 9 1 10 2 11 3 12 89 13
REMARK SMILES IDX 4 14 88 15 7 16 8 17 9 18 12 19 10 20 11 21 19 22 20 23
REMARK SMILES IDX 21 24 22 25 23 26 24 28 25 29 26 30 87 31 27 32 86 33 28 34
REMARK SMILES IDX 29 35 30 36 80 37 31 38 85 39 79 40 81 41 32 42 84 43 78 44
REMARK SMILES IDX 77 45 33 47 65 48 45 49 64 50 46 51 49 52 63 53 82 54 47 55
REMARK SMILES IDX 48 56 62 58 83 59 50 60 34 61 35 62 43 63 36 64 37 65 41 66
REMARK SMILES IDX 44 67 38 68 39 69 42 70 40 71 66 72 67 73 75 74 68 75 69 76
REMARK SMILES IDX 73 77 76 78 70 79 71 80 74 81 72 82 51 83 52 84 60 85 53 86
REMARK SMILES IDX 54 87 58 88 61 89 55 90 56 91 59 92 57 93
REMARK H PARENT 15 7 22 27 81 46 49 57
REMARK Flexibility Score: inf
ROOT
ATOM      1  C   UNL A   1      35.216  21.322  25.060  1.00  0.00     0.002 C 
ENDROOT
BRANCH   1   2
ATOM      2  C   UNL A   1      34.524  21.536  26.414  1.00  0.00     0.021 C 
BRANCH   2   3
ATOM      3  C   UNL A   1      34.281  22.988  26.817  1.00  0.00     0.116 C 
BRANCH   3   4
ATOM      4  N   UNL A   1      32.936  23.245  27.284  1.00  0.00    -0.356 N 
ATOM      5  C   UNL A   1      31.962  24.047  26.763  1.00  0.00     0.227 C 
ATOM      6  O   UNL A   1      30.816  23.864  27.190  1.00  0.00    -0.274 OA
ATOM      7  H   UNL A   1      32.683  22.766  28.107  1.00  0.00     0.163 HD
BRANCH   5   8
ATOM      8  C   UNL A   1      32.233  25.158  25.738  1.00  0.00     0.109 C 
BRANCH   8   9
ATOM      9  C   UNL A   1      32.488  26.568  26.289  1.00  0.00    -0.036 A 
ATOM     10  C   UNL A   1      33.319  30.703  27.289  1.00  0.00     0.044 C 
ATOM     11  C   UNL A   1      33.043  29.263  26.980  1.00  0.00    -0.051 A 
ATOM     12  C   UNL A   1      34.060  28.433  26.509  1.00  0.00     0.004 A 
ATOM     13  C   UNL A   1      31.781  28.711  27.210  1.00  0.00     0.004 A 
ATOM     14  C   UNL A   1      33.783  27.107  26.168  1.00  0.00     0.005 A 
ATOM     15  C   UNL A   1      31.517  27.371  26.893  1.00  0.00     0.005 A 
ENDBRANCH   8   9
BRANCH   8  16
ATOM     16  C   UNL A   1      31.213  25.186  24.569  1.00  0.00     0.022 C 
BRANCH  16  17
ATOM     17  C   UNL A   1      31.582  24.309  23.367  1.00  0.00    -0.010 C 
ATOM     18  C   UNL A   1      33.009  24.484  22.856  1.00  0.00     0.003 C 
ATOM     19  C   UNL A   1      31.568  22.826  23.750  1.00  0.00     0.003 C 
ATOM     20  C   UNL A   1      33.276  23.211  22.059  1.00  0.00     0.000 C 
ATOM     21  C   UNL A   1      32.368  22.137  22.653  1.00  0.00     0.000 C 
ENDBRANCH  16  17
ENDBRANCH   8  16
ENDBRANCH   5   8
ENDBRANCH   3   4
ENDBRANCH   2   3
ENDBRANCH   1   2
BRANCH   1  22
ATOM     22  C   UNL A   1      36.499  20.470  25.039  1.00  0.00     0.002 C 
BRANCH  22  23
ATOM     23  C   UNL A   1      37.808  21.174  24.670  1.00  0.00     0.021 C 
BRANCH  23  24
ATOM     24  C   UNL A   1      38.320  22.165  25.705  1.00  0.00     0.116 C 
BRANCH  24  25
ATOM     25  N   UNL A   1      39.749  22.065  25.977  1.00  0.00    -0.352 N 
ATOM     26  C   UNL A   1      40.612  23.061  26.407  1.00  0.00     0.251 C 
ATOM     27  H   UNL A   1      40.152  21.178  25.837  1.00  0.00     0.163 HD
ATOM     28  O   UNL A   1      41.796  22.836  26.593  1.00  0.00    -0.269 OA
BRANCH  26  29
ATOM     29  C   UNL A   1      40.034  24.377  26.762  1.00  0.00     0.039 A 
ATOM     30  C   UNL A   1      40.617  25.513  26.194  1.00  0.00     0.014 A 
ATOM     31  C   UNL A   1      39.134  24.487  27.820  1.00  0.00     0.014 A 
ATOM     32  C   UNL A   1      40.502  26.731  26.856  1.00  0.00     0.010 A 
ATOM     33  C   UNL A   1      39.089  25.673  28.525  1.00  0.00     0.010 A 
ATOM     34  C   UNL A   1      39.843  26.767  28.086  1.00  0.00    -0.014 A 
BRANCH  34  35
ATOM     35  C   UNL A   1      40.022  27.857  29.037  1.00  0.00     0.031 A 
ATOM     36  C   UNL A   1      39.103  29.012  29.038  1.00  0.00     0.074 A 
ATOM     37  C   UNL A   1      41.033  27.787  29.933  1.00  0.00     0.049 A 
ATOM     38  N   UNL A   1      39.390  30.164  29.542  1.00  0.00    -0.248 NA
ATOM     39  C   UNL A   1      37.804  28.985  28.373  1.00  0.00     0.031 C 
ATOM     40  C   UNL A   1      41.251  28.639  31.099  1.00  0.00     0.029 A 
ATOM     41  N   UNL A   1      42.218  27.036  29.821  1.00  0.00    -0.354 N 
ATOM     42  C   UNL A   1      38.247  30.928  29.525  1.00  0.00     0.074 A 
ATOM     43  C   UNL A   1      37.345  30.206  28.665  1.00  0.00     0.031 C 
ATOM     44  C   UNL A   1      42.556  28.608  31.415  1.00  0.00     0.029 A 
ATOM     45  C   UNL A   1      43.231  27.849  30.377  1.00  0.00     0.049 A 
ATOM     46  H   UNL A   1      42.319  26.135  29.437  1.00  0.00     0.167 HD
ATOM     47  C   UNL A   1      38.171  32.005  30.360  1.00  0.00     0.037 A 
ATOM     48  C   UNL A   1      44.272  28.311  29.625  1.00  0.00     0.037 A 
ATOM     49  C   UNL A   1      39.500  32.343  30.880  1.00  0.00     0.049 A 
ATOM     50  C   UNL A   1      44.384  29.816  29.583  1.00  0.00     0.074 A 
ATOM     51  C   UNL A   1      40.117  32.162  32.107  1.00  0.00     0.029 A 
ATOM     52  N   UNL A   1      40.502  32.721  29.989  1.00  0.00    -0.354 N 
ATOM     53  N   UNL A   1      43.415  30.627  29.906  1.00  0.00    -0.248 NA
ATOM     54  C   UNL A   1      45.576  30.524  29.123  1.00  0.00     0.031 C 
ATOM     55  C   UNL A   1      41.513  32.343  31.924  1.00  0.00     0.029 A 
ATOM     56  C   UNL A   1      41.741  32.674  30.598  1.00  0.00     0.049 A 
ATOM     57  H   UNL A   1      40.349  32.985  29.053  1.00  0.00     0.167 HD
ATOM     58  C   UNL A   1      43.805  31.918  29.670  1.00  0.00     0.074 A 
ATOM     59  C   UNL A   1      45.175  31.803  29.207  1.00  0.00     0.031 C 
ATOM     60  C   UNL A   1      42.955  32.971  29.849  1.00  0.00     0.037 A 
BRANCH  47  61
ATOM     61  C   UNL A   1      36.887  32.619  30.908  1.00  0.00     0.064 A 
ATOM     62  C   UNL A   1      36.115  33.486  30.097  1.00  0.00     0.173 A 
ATOM     63  C   UNL A   1      36.422  32.520  32.238  1.00  0.00     0.173 A 
ATOM     64  F   UNL A   1      36.398  33.663  28.799  1.00  0.00    -0.203 F 
ATOM     65  C   UNL A   1      35.031  34.226  30.589  1.00  0.00     0.198 A 
ATOM     66  C   UNL A   1      35.322  33.239  32.721  1.00  0.00     0.198 A 
ATOM     67  F   UNL A   1      37.013  31.755  33.155  1.00  0.00    -0.203 F 
ATOM     68  F   UNL A   1      34.381  35.075  29.780  1.00  0.00    -0.200 F 
ATOM     69  C   UNL A   1      34.638  34.106  31.905  1.00  0.00     0.200 A 
ATOM     70  F   UNL A   1      34.955  33.094  34.003  1.00  0.00    -0.200 F 
ATOM     71  F   UNL A   1      33.614  34.823  32.385  1.00  0.00    -0.200 F 
ENDBRANCH  47  61
BRANCH  48  72
ATOM     72  C   UNL A   1      44.648  27.402  28.510  1.00  0.00     0.064 A 
ATOM     73  C   UNL A   1      45.270  26.178  28.823  1.00  0.00     0.173 A 
ATOM     74  C   UNL A   1      44.107  27.543  27.227  1.00  0.00     0.173 A 
ATOM     75  F   UNL A   1      45.803  25.989  30.041  1.00  0.00    -0.203 F 
ATOM     76  C   UNL A   1      45.251  25.106  27.933  1.00  0.00     0.198 A 
ATOM     77  C   UNL A   1      44.105  26.471  26.331  1.00  0.00     0.198 A 
ATOM     78  F   UNL A   1      43.483  28.676  26.874  1.00  0.00    -0.203 F 
ATOM     79  F   UNL A   1      45.754  23.920  28.305  1.00  0.00    -0.200 F 
ATOM     80  C   UNL A   1      44.646  25.247  26.697  1.00  0.00     0.200 A 
ATOM     81  F   UNL A   1      43.491  26.596  25.146  1.00  0.00    -0.200 F 
ATOM     82  F   UNL A   1      44.546  24.194  25.874  1.00  0.00    -0.200 F 
ENDBRANCH  48  72
BRANCH  60  83
ATOM     83  C   UNL A   1      43.221  34.388  29.405  1.00  0.00     0.064 A 
ATOM     84  C   UNL A   1      43.240  34.796  28.060  1.00  0.00     0.173 A 
ATOM     85  C   UNL A   1      43.327  35.426  30.360  1.00  0.00     0.173 A 
ATOM     86  F   UNL A   1      43.028  33.924  27.065  1.00  0.00    -0.203 F 
ATOM     87  C   UNL A   1      43.420  36.134  27.696  1.00  0.00     0.198 A 
ATOM     88  C   UNL A   1      43.451  36.766  29.994  1.00  0.00     0.198 A 
ATOM     89  F   UNL A   1      43.289  35.169  31.676  1.00  0.00    -0.203 F 
ATOM     90  F   UNL A   1      43.475  36.466  26.398  1.00  0.00    -0.200 F 
ATOM     91  C   UNL A   1      43.515  37.118  28.661  1.00  0.00     0.200 A 
ATOM     92  F   UNL A   1      43.490  37.715  30.940  1.00  0.00    -0.200 F 
ATOM     93  F   UNL A   1      43.646  38.404  28.307  1.00  0.00    -0.200 F 
ENDBRANCH  60  83
ENDBRANCH  34  35
ENDBRANCH  26  29
ENDBRANCH  24  25
ENDBRANCH  23  24
ENDBRANCH  22  23
ENDBRANCH   1  22
TORSDOF 16
ENDMDL
MODEL 2
REMARK VINA RESULT:     -12.6      3.335      9.707
REMARK SMILES Cc1ccc([C@H](CC2CCCC2)C(=O)NCCCCCCNC(=O)c2ccc(-c3c4nc(c(-c5c(F)c(F)c(F)c(F)c5F)c5ccc([nH]5)c(-c5c(F)c(F)c(F)c(F)c5F)c5nc(c(-c6c(F)c(F)c(F)c(F)c6F)c6ccc3[nH]6)C=C5)C=C4)cc2)cc1
REMARK SMILES IDX 18 1 17 2 16 3 15 4 13 5 14 6 6 8 5 9 1 10 2 11 3 12 89 13
REMARK SMILES IDX 4 14 88 15 7 16 8 17 9 18 12 19 10 20 11 21 19 22 20 23
REMARK SMILES IDX 21 24 22 25 23 26 24 28 25 29 26 30 87 31 27 32 86 33 28 34
REMARK SMILES IDX 29 35 30 36 80 37 31 38 85 39 79 40 81 41 32 42 84 43 78 44
REMARK SMILES IDX 77 45 33 47 65 48 45 49 64 50 46 51 49 52 63 53 82 54 47 55
REMARK SMILES IDX 48 56 62 58 83 59 50 60 34 61 35 62 43 63 36 64 37 65 41 66
REMARK SMILES IDX 44 67 38 68 39 69 42 70 40 71 66 72 67 73 75 74 68 75 69 76
REMARK SMILES IDX 73 77 76 78 70 79 71 80 74 81 72 82 51 83 52 84 60 85 53 86
REMARK SMILES IDX 54 87 58 88 61 89 55 90 56 91 59 92 57 93
REMARK H PARENT 15 7 22 27 81 46 49 57
REMARK Flexibility Score: inf
ROOT
ATOM      1  C   UNL A   1      32.203  28.404  26.234  1.00  0.00     0.002 C 
ENDROOT
BRANCH   1   2
ATOM      2  C   UNL A   1      32.361  27.451  25.041  1.00  0.00     0.021 C 
BRANCH   2   3
ATOM      3  C   UNL A   1      33.612  27.649  24.189  1.00  0.00     0.116 C 
BRANCH   3   4
ATOM      4  N   UNL A   1      33.665  26.792  23.024  1.00  0.00    -0.356 N 
ATOM      5  C   UNL A   1      33.496  25.442  22.918  1.00  0.00     0.227 C 
ATOM      6  O   UNL A   1      33.304  25.002  21.778  1.00  0.00    -0.274 OA
ATOM      7  H   UNL A   1      33.851  27.255  22.176  1.00  0.00     0.163 HD
BRANCH   5   8
ATOM      8  C   UNL A   1      33.579  24.477  24.110  1.00  0.00     0.109 C 
BRANCH   8   9
ATOM      9  C   UNL A   1      34.954  23.872  24.423  1.00  0.00    -0.036 A 
ATOM     10  C   UNL A   1      38.557  21.827  25.700  1.00  0.00     0.044 C 
ATOM     11  C   UNL A   1      37.333  22.565  25.248  1.00  0.00    -0.051 A 
ATOM     12  C   UNL A   1      36.659  23.417  26.122  1.00  0.00     0.004 A 
ATOM     13  C   UNL A   1      36.879  22.459  23.932  1.00  0.00     0.004 A 
ATOM     14  C   UNL A   1      35.486  24.058  25.713  1.00  0.00     0.005 A 
ATOM     15  C   UNL A   1      35.718  23.128  23.520  1.00  0.00     0.005 A 
ENDBRANCH   8   9
BRANCH   8  16
ATOM     16  C   UNL A   1      32.472  23.389  24.106  1.00  0.00     0.022 C 
BRANCH  16  17
ATOM     17  C   UNL A   1      32.986  21.945  24.112  1.00  0.00    -0.010 C 
ATOM     18  C   UNL A   1      32.670  21.154  25.379  1.00  0.00     0.003 C 
ATOM     19  C   UNL A   1      32.278  21.110  23.039  1.00  0.00     0.003 C 
ATOM     20  C   UNL A   1      32.807  19.696  24.950  1.00  0.00     0.000 C 
ATOM     21  C   UNL A   1      32.528  19.665  23.448  1.00  0.00     0.000 C 
ENDBRANCH  16  17
ENDBRANCH   8  16
ENDBRANCH   5   8
ENDBRANCH   3   4
ENDBRANCH   2   3
ENDBRANCH   1   2
BRANCH   1  22
ATOM     22  C   UNL A   1      32.189  29.917  25.945  1.00  0.00     0.002 C 
BRANCH  22  23
ATOM     23  C   UNL A   1      32.828  30.841  26.984  1.00  0.00     0.021 C 
BRANCH  23  24
ATOM     24  C   UNL A   1      34.103  30.308  27.623  1.00  0.00     0.116 C 
BRANCH  24  25
ATOM     25  N   UNL A   1      34.701  31.203  28.607  1.00  0.00    -0.352 N 
ATOM     26  C   UNL A   1      35.865  31.019  29.337  1.00  0.00     0.251 C 
ATOM     27  H   UNL A   1      34.217  32.043  28.774  1.00  0.00     0.163 HD
ATOM     28  O   UNL A   1      36.251  31.857  30.135  1.00  0.00    -0.269 OA
BRANCH  26  29
ATOM     29  C   UNL A   1      36.702  29.838  29.027  1.00  0.00     0.039 A 
ATOM     30  C   UNL A   1      37.019  28.975  30.079  1.00  0.00     0.014 A 
ATOM     31  C   UNL A   1      37.363  29.747  27.803  1.00  0.00     0.014 A 
ATOM     32  C   UNL A   1      38.173  28.204  29.993  1.00  0.00     0.010 A 
ATOM     33  C   UNL A   1      38.553  29.049  27.748  1.00  0.00     0.010 A 
ATOM     34  C   UNL A   1      38.996  28.349  28.876  1.00  0.00    -0.014 A 
BRANCH  34  35
ATOM     35  C   UNL A   1      40.391  27.924  28.872  1.00  0.00     0.031 A 
ATOM     36  C   UNL A   1      40.760  26.562  28.443  1.00  0.00     0.074 A 
ATOM     37  C   UNL A   1      41.345  28.806  29.250  1.00  0.00     0.049 A 
ATOM     38  N   UNL A   1      41.866  25.978  28.764  1.00  0.00    -0.248 NA
ATOM     39  C   UNL A   1      39.856  25.701  27.689  1.00  0.00     0.031 C 
ATOM     40  C   UNL A   1      42.792  28.669  29.105  1.00  0.00     0.029 A 
ATOM     41  N   UNL A   1      41.181  29.940  30.067  1.00  0.00    -0.354 N 
ATOM     42  C   UNL A   1      41.947  24.807  28.048  1.00  0.00     0.074 A 
ATOM     43  C   UNL A   1      40.622  24.618  27.516  1.00  0.00     0.031 C 
ATOM     44  C   UNL A   1      43.391  29.450  30.019  1.00  0.00     0.029 A 
ATOM     45  C   UNL A   1      42.346  29.999  30.865  1.00  0.00     0.049 A 
ATOM     46  H   UNL A   1      40.416  30.560  30.080  1.00  0.00     0.167 HD
ATOM     47  C   UNL A   1      43.171  24.226  27.887  1.00  0.00     0.037 A 
ATOM     48  C   UNL A   1      42.291  29.869  32.222  1.00  0.00     0.037 A 
ATOM     49  C   UNL A   1      44.138  24.803  28.827  1.00  0.00     0.049 A 
ATOM     50  C   UNL A   1      43.106  28.720  32.765  1.00  0.00     0.074 A 
ATOM     51  C   UNL A   1      45.185  25.700  28.686  1.00  0.00     0.029 A 
ATOM     52  N   UNL A   1      43.918  24.669  30.196  1.00  0.00    -0.354 N 
ATOM     53  N   UNL A   1      43.530  27.722  32.040  1.00  0.00    -0.248 NA
ATOM     54  C   UNL A   1      43.460  28.577  34.176  1.00  0.00     0.031 C 
ATOM     55  C   UNL A   1      45.528  26.175  29.979  1.00  0.00     0.029 A 
ATOM     56  C   UNL A   1      44.721  25.538  30.908  1.00  0.00     0.049 A 
ATOM     57  H   UNL A   1      43.277  24.041  30.601  1.00  0.00     0.167 HD
ATOM     58  C   UNL A   1      44.153  26.807  32.847  1.00  0.00     0.074 A 
ATOM     59  C   UNL A   1      44.108  27.400  34.170  1.00  0.00     0.031 C 
ATOM     60  C   UNL A   1      44.629  25.624  32.359  1.00  0.00     0.037 A 
BRANCH  47  61
ATOM     61  C   UNL A   1      43.580  23.312  26.736  1.00  0.00     0.064 A 
ATOM     62  C   UNL A   1      43.114  21.975  26.695  1.00  0.00     0.173 A 
ATOM     63  C   UNL A   1      44.515  23.620  25.724  1.00  0.00     0.173 A 
ATOM     64  F   UNL A   1      42.193  21.531  27.561  1.00  0.00    -0.203 F 
ATOM     65  C   UNL A   1      43.590  21.031  25.775  1.00  0.00     0.198 A 
ATOM     66  C   UNL A   1      44.970  22.683  24.789  1.00  0.00     0.198 A 
ATOM     67  F   UNL A   1      45.069  24.825  25.595  1.00  0.00    -0.203 F 
ATOM     68  F   UNL A   1      43.150  19.765  25.831  1.00  0.00    -0.200 F 
ATOM     69  C   UNL A   1      44.524  21.384  24.824  1.00  0.00     0.200 A 
ATOM     70  F   UNL A   1      45.870  23.057  23.867  1.00  0.00    -0.200 F 
ATOM     71  F   UNL A   1      44.994  20.482  23.954  1.00  0.00    -0.200 F 
ENDBRANCH  47  61
BRANCH  48  72
ATOM     72  C   UNL A   1      41.020  30.362  32.815  1.00  0.00     0.064 A 
ATOM     73  C   UNL A   1      40.782  31.750  32.836  1.00  0.00     0.173 A 
ATOM     74  C   UNL A   1      39.925  29.515  33.025  1.00  0.00     0.173 A 
ATOM     75  F   UNL A   1      41.798  32.606  32.638  1.00  0.00    -0.203 F 
ATOM     76  C   UNL A   1      39.493  32.264  32.948  1.00  0.00     0.198 A 
ATOM     77  C   UNL A   1      38.635  30.035  33.152  1.00  0.00     0.198 A 
ATOM     78  F   UNL A   1      40.081  28.184  32.996  1.00  0.00    -0.203 F 
ATOM     79  F   UNL A   1      39.289  33.586  32.852  1.00  0.00    -0.200 F 
ATOM     80  C   UNL A   1      38.417  31.403  33.081  1.00  0.00     0.200 A 
ATOM     81  F   UNL A   1      37.589  29.203  33.250  1.00  0.00    -0.200 F 
ATOM     82  F   UNL A   1      37.167  31.888  33.098  1.00  0.00    -0.200 F 
ENDBRANCH  48  72
BRANCH  60  83
ATOM     83  C   UNL A   1      45.120  24.472  33.200  1.00  0.00     0.064 A 
ATOM     84  C   UNL A   1      44.383  23.296  33.424  1.00  0.00     0.173 A 
ATOM     85  C   UNL A   1      46.443  24.468  33.700  1.00  0.00     0.173 A 
ATOM     86  F   UNL A   1      43.162  23.129  32.898  1.00  0.00    -0.203 F 
ATOM     87  C   UNL A   1      44.906  22.224  34.153  1.00  0.00     0.198 A 
ATOM     88  C   UNL A   1      46.981  23.374  34.378  1.00  0.00     0.198 A 
ATOM     89  F   UNL A   1      47.258  25.519  33.523  1.00  0.00    -0.203 F 
ATOM     90  F   UNL A   1      44.146  21.141  34.376  1.00  0.00    -0.200 F 
ATOM     91  C   UNL A   1      46.206  22.259  34.620  1.00  0.00     0.200 A 
ATOM     92  F   UNL A   1      48.259  23.402  34.780  1.00  0.00    -0.200 F 
ATOM     93  F   UNL A   1      46.717  21.211  35.281  1.00  0.00    -0.200 F 
ENDBRANCH  60  83
ENDBRANCH  34  35
ENDBRANCH  26  29
ENDBRANCH  24  25
ENDBRANCH  23  24
ENDBRANCH  22  23
ENDBRANCH   1  22
TORSDOF 16
ENDMDL
MODEL 3
REMARK VINA RESULT:     -12.5      1.606      2.918
REMARK SMILES Cc1ccc([C@H](CC2CCCC2)C(=O)NCCCCCCNC(=O)c2ccc(-c3c4nc(c(-c5c(F)c(F)c(F)c(F)c5F)c5ccc([nH]5)c(-c5c(F)c(F)c(F)c(F)c5F)c5nc(c(-c6c(F)c(F)c(F)c(F)c6F)c6ccc3[nH]6)C=C5)C=C4)cc2)cc1
REMARK SMILES IDX 18 1 17 2 16 3 15 4 13 5 14 6 6 8 5 9 1 10 2 11 3 12 89 13
REMARK SMILES IDX 4 14 88 15 7 16 8 17 9 18 12 19 10 20 11 21 19 22 20 23
REMARK SMILES IDX 21 24 22 25 23 26 24 28 25 29 26 30 87 31 27 32 86 33 28 34
REMARK SMILES IDX 29 35 30 36 80 37 31 38 85 39 79 40 81 41 32 42 84 43 78 44
REMARK SMILES IDX 77 45 33 47 65 48 45 49 64 50 46 51 49 52 63 53 82 54 47 55
REMARK SMILES IDX 48 56 62 58 83 59 50 60 34 61 35 62 43 63 36 64 37 65 41 66
REMARK SMILES IDX 44 67 38 68 39 69 42 70 40 71 66 72 67 73 75 74 68 75 69 76
REMARK SMILES IDX 73 77 76 78 70 79 71 80 74 81 72 82 51 83 52 84 60 85 53 86
REMARK SMILES IDX 54 87 58 88 61 89 55 90 56 91 59 92 57 93
REMARK H PARENT 15 7 22 27 81 46 49 57
REMARK Flexibility Score: inf
ROOT
ATOM      1  C   UNL A   1      36.642  22.618  24.175  1.00  0.00     0.002 C 
ENDROOT
BRANCH   1   2
ATOM      2  C   UNL A   1      35.121  22.755  24.340  1.00  0.00     0.021 C 
BRANCH   2   3
ATOM      3  C   UNL A   1      34.581  24.181  24.396  1.00  0.00     0.116 C 
BRANCH   3   4
ATOM      4  N   UNL A   1      34.151  24.692  23.112  1.00  0.00    -0.356 N 
ATOM      5  C   UNL A   1      33.530  25.865  22.796  1.00  0.00     0.227 C 
ATOM      6  O   UNL A   1      33.535  26.183  21.601  1.00  0.00    -0.274 OA
ATOM      7  H   UNL A   1      34.335  24.101  22.347  1.00  0.00     0.163 HD
BRANCH   5   8
ATOM      8  C   UNL A   1      32.811  26.751  23.824  1.00  0.00     0.109 C 
BRANCH   8   9
ATOM      9  C   UNL A   1      31.383  27.198  23.482  1.00  0.00    -0.036 A 
ATOM     10  C   UNL A   1      27.289  28.569  23.090  1.00  0.00     0.044 C 
ATOM     11  C   UNL A   1      28.699  28.073  23.194  1.00  0.00    -0.051 A 
ATOM     12  C   UNL A   1      28.985  26.890  23.874  1.00  0.00     0.004 A 
ATOM     13  C   UNL A   1      29.745  28.752  22.564  1.00  0.00     0.004 A 
ATOM     14  C   UNL A   1      30.308  26.463  24.016  1.00  0.00     0.005 A 
ATOM     15  C   UNL A   1      31.067  28.303  22.686  1.00  0.00     0.005 A 
ENDBRANCH   8   9
BRANCH   8  16
ATOM     16  C   UNL A   1      33.670  27.943  24.325  1.00  0.00     0.022 C 
BRANCH  16  17
ATOM     17  C   UNL A   1      33.251  28.516  25.684  1.00  0.00    -0.010 C 
ATOM     18  C   UNL A   1      34.406  28.927  26.593  1.00  0.00     0.003 C 
ATOM     19  C   UNL A   1      32.504  29.843  25.509  1.00  0.00     0.003 C 
ATOM     20  C   UNL A   1      33.768  29.890  27.590  1.00  0.00     0.000 C 
ATOM     21  C   UNL A   1      32.560  30.500  26.881  1.00  0.00     0.000 C 
ENDBRANCH  16  17
ENDBRANCH   8  16
ENDBRANCH   5   8
ENDBRANCH   3   4
ENDBRANCH   2   3
ENDBRANCH   1   2
BRANCH   1  22
ATOM     22  C   UNL A   1      37.272  21.244  24.469  1.00  0.00     0.002 C 
BRANCH  22  23
ATOM     23  C   UNL A   1      38.331  21.175  25.573  1.00  0.00     0.021 C 
BRANCH  23  24
ATOM     24  C   UNL A   1      38.839  22.523  26.064  1.00  0.00     0.116 C 
BRANCH  24  25
ATOM     25  N   UNL A   1      40.292  22.628  26.132  1.00  0.00    -0.352 N 
ATOM     26  C   UNL A   1      41.059  23.753  26.393  1.00  0.00     0.251 C 
ATOM     27  H   UNL A   1      40.791  21.795  25.971  1.00  0.00     0.163 HD
ATOM     28  O   UNL A   1      42.278  23.698  26.417  1.00  0.00    -0.269 OA
BRANCH  26  29
ATOM     29  C   UNL A   1      40.358  25.000  26.774  1.00  0.00     0.039 A 
ATOM     30  C   UNL A   1      40.781  26.189  26.174  1.00  0.00     0.014 A 
ATOM     31  C   UNL A   1      39.506  25.018  27.877  1.00  0.00     0.014 A 
ATOM     32  C   UNL A   1      40.566  27.392  26.838  1.00  0.00     0.010 A 
ATOM     33  C   UNL A   1      39.366  26.198  28.581  1.00  0.00     0.010 A 
ATOM     34  C   UNL A   1      39.972  27.365  28.101  1.00  0.00    -0.014 A 
BRANCH  34  35
ATOM     35  C   UNL A   1      40.077  28.476  29.038  1.00  0.00     0.031 A 
ATOM     36  C   UNL A   1      39.071  29.556  29.040  1.00  0.00     0.074 A 
ATOM     37  C   UNL A   1      41.101  28.494  29.921  1.00  0.00     0.049 A 
ATOM     38  N   UNL A   1      39.274  30.733  29.529  1.00  0.00    -0.248 NA
ATOM     39  C   UNL A   1      37.771  29.421  28.393  1.00  0.00     0.031 C 
ATOM     40  C   UNL A   1      41.268  29.373  31.076  1.00  0.00     0.029 A 
ATOM     41  N   UNL A   1      42.340  27.837  29.801  1.00  0.00    -0.354 N 
ATOM     42  C   UNL A   1      38.075  31.405  29.520  1.00  0.00     0.074 A 
ATOM     43  C   UNL A   1      37.221  30.606  28.679  1.00  0.00     0.031 C 
ATOM     44  C   UNL A   1      42.574  29.447  31.375  1.00  0.00     0.029 A 
ATOM     45  C   UNL A   1      43.294  28.732  30.336  1.00  0.00     0.049 A 
ATOM     46  H   UNL A   1      42.506  26.942  29.425  1.00  0.00     0.167 HD
ATOM     47  C   UNL A   1      37.926  32.482  30.345  1.00  0.00     0.037 A 
ATOM     48  C   UNL A   1      44.286  29.264  29.565  1.00  0.00     0.037 A 
ATOM     49  C   UNL A   1      39.232  32.927  30.844  1.00  0.00     0.049 A 
ATOM     50  C   UNL A   1      44.280  30.773  29.507  1.00  0.00     0.074 A 
ATOM     51  C   UNL A   1      39.875  32.809  32.064  1.00  0.00     0.029 A 
ATOM     52  N   UNL A   1      40.190  33.373  29.936  1.00  0.00    -0.354 N 
ATOM     53  N   UNL A   1      43.255  31.510  29.835  1.00  0.00    -0.248 NA
ATOM     54  C   UNL A   1      45.408  31.567  29.024  1.00  0.00     0.031 C 
ATOM     55  C   UNL A   1      41.251  33.096  31.861  1.00  0.00     0.029 A 
ATOM     56  C   UNL A   1      41.436  33.429  30.528  1.00  0.00     0.049 A 
ATOM     57  H   UNL A   1      40.005  33.614  28.999  1.00  0.00     0.167 HD
ATOM     58  C   UNL A   1      43.541  32.825  29.580  1.00  0.00     0.074 A 
ATOM     59  C   UNL A   1      44.910  32.812  29.101  1.00  0.00     0.031 C 
ATOM     60  C   UNL A   1      42.613  33.811  29.761  1.00  0.00     0.037 A 
BRANCH  47  61
ATOM     61  C   UNL A   1      36.605  33.001  30.904  1.00  0.00     0.064 A 
ATOM     62  C   UNL A   1      35.775  33.826  30.106  1.00  0.00     0.173 A 
ATOM     63  C   UNL A   1      36.151  32.851  32.232  1.00  0.00     0.173 A 
ATOM     64  F   UNL A   1      36.042  34.041  28.811  1.00  0.00    -0.203 F 
ATOM     65  C   UNL A   1      34.645  34.485  30.612  1.00  0.00     0.198 A 
ATOM     66  C   UNL A   1      35.007  33.488  32.728  1.00  0.00     0.198 A 
ATOM     67  F   UNL A   1      36.794  32.113  33.137  1.00  0.00    -0.203 F 
ATOM     68  F   UNL A   1      33.938  35.300  29.816  1.00  0.00    -0.200 F 
ATOM     69  C   UNL A   1      34.264  34.319  31.926  1.00  0.00     0.200 A 
ATOM     70  F   UNL A   1      34.652  33.299  34.008  1.00  0.00    -0.200 F 
ATOM     71  F   UNL A   1      33.195  34.958  32.418  1.00  0.00    -0.200 F 
ENDBRANCH  47  61
BRANCH  48  72
ATOM     72  C   UNL A   1      44.717  28.376  28.455  1.00  0.00     0.064 A 
ATOM     73  C   UNL A   1      45.450  27.215  28.769  1.00  0.00     0.173 A 
ATOM     74  C   UNL A   1      44.141  28.450  27.181  1.00  0.00     0.173 A 
ATOM     75  F   UNL A   1      46.022  27.091  29.978  1.00  0.00    -0.203 F 
ATOM     76  C   UNL A   1      45.507  26.132  27.894  1.00  0.00     0.198 A 
ATOM     77  C   UNL A   1      44.214  27.369  26.300  1.00  0.00     0.198 A 
ATOM     78  F   UNL A   1      43.413  29.519  26.827  1.00  0.00    -0.203 F 
ATOM     79  F   UNL A   1      46.119  25.000  28.271  1.00  0.00    -0.200 F 
ATOM     80  C   UNL A   1      44.867  26.202  26.669  1.00  0.00     0.200 A 
ATOM     81  F   UNL A   1      43.568  27.423  25.126  1.00  0.00    -0.200 F 
ATOM     82  F   UNL A   1      44.843  25.132  25.862  1.00  0.00    -0.200 F 
ENDBRANCH  48  72
BRANCH  60  83
ATOM     83  C   UNL A   1      42.763  35.239  29.299  1.00  0.00     0.064 A 
ATOM     84  C   UNL A   1      43.206  36.286  30.125  1.00  0.00     0.173 A 
ATOM     85  C   UNL A   1      42.591  35.569  27.934  1.00  0.00     0.173 A 
ATOM     86  F   UNL A   1      43.521  36.074  31.410  1.00  0.00    -0.203 F 
ATOM     87  C   UNL A   1      43.398  37.582  29.637  1.00  0.00     0.198 A 
ATOM     88  C   UNL A   1      42.837  36.850  27.440  1.00  0.00     0.198 A 
ATOM     89  F   UNL A   1      42.202  34.649  27.039  1.00  0.00    -0.203 F 
ATOM     90  F   UNL A   1      43.781  38.556  30.475  1.00  0.00    -0.200 F 
ATOM     91  C   UNL A   1      43.224  37.861  28.295  1.00  0.00     0.200 A 
ATOM     92  F   UNL A   1      42.714  37.092  26.127  1.00  0.00    -0.200 F 
ATOM     93  F   UNL A   1      43.449  39.094  27.824  1.00  0.00    -0.200 F 
ENDBRANCH  60  83
ENDBRANCH  34  35
ENDBRANCH  26  29
ENDBRANCH  24  25
ENDBRANCH  23  24
ENDBRANCH  22  23
ENDBRANCH   1  22
TORSDOF 16
ENDMDL
