MODEL 1
REMARK VINA RESULT:     -10.6      0.000      0.000
REMARK SMILES CN(CC(C)(C)C)C(=O)N1CCO[C@@H](CC(=O)NCCCCCCNC(=O)c2ccc(-c3c4nc(c(-c5c(F)c(F)c(F)c(F)c5F)c5ccc([nH]5)c(-c5c(F)c(F)c(F)c(F)c5F)c5nc(c(-c6c(F)c(F)c(F)c(F)c6F)c6ccc3[nH]6)C=C5)C=C4)cc2)C1
REMARK SMILES IDX 20 1 19 2 18 3 16 4 17 5 15 7 14 8 10 9 11 10 91 11 12 12
REMARK SMILES IDX 13 13 8 14 9 15 2 16 1 17 3 18 4 19 5 20 6 21 7 22 21 23
REMARK SMILES IDX 22 24 23 25 24 26 25 27 26 28 27 30 28 31 29 32 90 33 30 34
REMARK SMILES IDX 89 35 31 36 32 37 33 38 83 39 34 40 88 41 82 42 84 43 35 44
REMARK SMILES IDX 87 45 81 46 80 47 36 49 68 50 48 51 67 52 49 53 52 54 66 55
REMARK SMILES IDX 85 56 50 57 51 58 65 60 86 61 53 62 37 63 38 64 46 65 39 66
REMARK SMILES IDX 40 67 44 68 47 69 41 70 42 71 45 72 43 73 69 74 70 75 78 76
REMARK SMILES IDX 71 77 72 78 76 79 79 80 73 81 74 82 77 83 75 84 54 85 55 86
REMARK SMILES IDX 63 87 56 88 57 89 61 90 64 91 58 92 59 93 62 94 60 95
REMARK H PARENT 18 6 25 29 84 48 52 59
REMARK Flexibility Score: inf
ROOT
ATOM      1  C   UNL A   1      34.762  31.324  27.994  1.00  0.00     0.021 C 
ENDROOT
BRANCH   1   2
ATOM      2  C   UNL A   1      33.463  30.769  27.406  1.00  0.00     0.116 C 
BRANCH   2   3
ATOM      3  N   UNL A   1      33.735  30.038  26.176  1.00  0.00    -0.356 N 
ATOM      4  C   UNL A   1      33.530  28.726  25.864  1.00  0.00     0.222 C 
ATOM      5  O   UNL A   1      34.010  28.290  24.817  1.00  0.00    -0.275 OA
ATOM      6  H   UNL A   1      34.129  30.577  25.453  1.00  0.00     0.163 HD
BRANCH   4   7
ATOM      7  C   UNL A   1      32.732  27.830  26.781  1.00  0.00     0.133 C 
BRANCH   7   8
ATOM      8  C   UNL A   1      32.067  26.659  26.053  1.00  0.00     0.147 C 
ATOM      9  N   UNL A   1      32.034  24.094  26.088  1.00  0.00    -0.320 N 
ATOM     10  C   UNL A   1      30.609  24.210  26.388  1.00  0.00     0.150 C 
ATOM     11  C   UNL A   1      32.776  25.330  26.360  1.00  0.00     0.154 C 
ATOM     12  C   UNL A   1      30.006  25.531  25.917  1.00  0.00     0.182 C 
ATOM     13  O   UNL A   1      30.700  26.632  26.505  1.00  0.00    -0.374 OA
BRANCH   9  14
ATOM     14  C   UNL A   1      32.808  22.946  26.199  1.00  0.00     0.319 C 
ATOM     15  O   UNL A   1      33.124  22.549  27.332  1.00  0.00    -0.248 OA
BRANCH  14  16
ATOM     16  N   UNL A   1      33.256  22.235  25.103  1.00  0.00    -0.327 N 
ATOM     17  C   UNL A   1      32.215  21.471  24.412  1.00  0.00     0.148 C 
BRANCH  16  18
ATOM     18  C   UNL A   1      34.623  21.983  24.646  1.00  0.00     0.127 C 
BRANCH  18  19
ATOM     19  C   UNL A   1      35.454  23.236  24.210  1.00  0.00    -0.020 C 
ATOM     20  C   UNL A   1      36.093  24.016  25.374  1.00  0.00     0.012 C 
ATOM     21  C   UNL A   1      36.578  22.739  23.281  1.00  0.00     0.012 C 
ATOM     22  C   UNL A   1      34.589  24.235  23.417  1.00  0.00     0.012 C 
ENDBRANCH  18  19
ENDBRANCH  16  18
ENDBRANCH  14  16
ENDBRANCH   9  14
ENDBRANCH   7   8
ENDBRANCH   4   7
ENDBRANCH   2   3
ENDBRANCH   1   2
BRANCH   1  23
ATOM     23  C   UNL A   1      34.567  32.456  29.002  1.00  0.00     0.002 C 
BRANCH  23  24
ATOM     24  C   UNL A   1      34.400  33.844  28.380  1.00  0.00     0.002 C 
BRANCH  24  25
ATOM     25  C   UNL A   1      33.119  34.591  28.763  1.00  0.00     0.021 C 
BRANCH  25  26
ATOM     26  C   UNL A   1      33.328  35.995  29.330  1.00  0.00     0.116 C 
BRANCH  26  27
ATOM     27  N   UNL A   1      32.569  36.206  30.554  1.00  0.00    -0.352 N 
ATOM     28  C   UNL A   1      32.720  35.640  31.792  1.00  0.00     0.251 C 
ATOM     29  H   UNL A   1      31.835  36.857  30.480  1.00  0.00     0.163 HD
ATOM     30  O   UNL A   1      31.839  35.771  32.642  1.00  0.00    -0.269 OA
BRANCH  28  31
ATOM     31  C   UNL A   1      33.932  34.862  32.117  1.00  0.00     0.039 A 
ATOM     32  C   UNL A   1      35.185  35.458  31.945  1.00  0.00     0.014 A 
ATOM     33  C   UNL A   1      33.840  33.534  32.545  1.00  0.00     0.014 A 
ATOM     34  C   UNL A   1      36.343  34.743  32.259  1.00  0.00     0.010 A 
ATOM     35  C   UNL A   1      34.990  32.843  32.917  1.00  0.00     0.010 A 
ATOM     36  C   UNL A   1      36.252  33.439  32.775  1.00  0.00    -0.014 A 
BRANCH  36  37
ATOM     37  C   UNL A   1      37.468  32.686  33.171  1.00  0.00     0.031 A 
ATOM     38  C   UNL A   1      38.165  32.996  34.465  1.00  0.00     0.074 A 
ATOM     39  C   UNL A   1      37.984  31.768  32.332  1.00  0.00     0.049 A 
ATOM     40  N   UNL A   1      39.277  32.500  34.947  1.00  0.00    -0.248 NA
ATOM     41  C   UNL A   1      37.544  34.020  35.317  1.00  0.00     0.031 C 
ATOM     42  C   UNL A   1      37.428  31.414  31.025  1.00  0.00     0.029 A 
ATOM     43  N   UNL A   1      39.101  30.979  32.445  1.00  0.00    -0.354 N 
ATOM     44  C   UNL A   1      39.492  33.158  36.151  1.00  0.00     0.074 A 
ATOM     45  C   UNL A   1      38.425  34.126  36.301  1.00  0.00     0.031 C 
ATOM     46  C   UNL A   1      38.202  30.473  30.460  1.00  0.00     0.029 A 
ATOM     47  C   UNL A   1      39.321  30.180  31.351  1.00  0.00     0.049 A 
ATOM     48  H   UNL A   1      39.688  30.985  33.235  1.00  0.00     0.167 HD
ATOM     49  C   UNL A   1      40.477  32.959  37.060  1.00  0.00     0.037 A 
ATOM     50  C   UNL A   1      40.320  29.315  31.089  1.00  0.00     0.037 A 
ATOM     51  C   UNL A   1      41.528  31.984  36.917  1.00  0.00     0.049 A 
ATOM     52  C   UNL A   1      41.399  29.106  32.114  1.00  0.00     0.074 A 
ATOM     53  C   UNL A   1      42.540  31.666  37.806  1.00  0.00     0.029 A 
ATOM     54  N   UNL A   1      41.701  31.171  35.806  1.00  0.00    -0.354 N 
ATOM     55  N   UNL A   1      41.559  29.687  33.277  1.00  0.00    -0.248 NA
ATOM     56  C   UNL A   1      42.434  28.113  31.792  1.00  0.00     0.031 C 
ATOM     57  C   UNL A   1      43.349  30.689  37.217  1.00  0.00     0.029 A 
ATOM     58  C   UNL A   1      42.816  30.365  35.979  1.00  0.00     0.049 A 
ATOM     59  H   UNL A   1      41.119  31.166  35.013  1.00  0.00     0.167 HD
ATOM     60  C   UNL A   1      42.696  29.121  33.836  1.00  0.00     0.074 A 
ATOM     61  C   UNL A   1      43.179  28.137  32.889  1.00  0.00     0.031 C 
ATOM     62  C   UNL A   1      43.287  29.393  35.025  1.00  0.00     0.037 A 
BRANCH  49  63
ATOM     63  C   UNL A   1      40.459  33.815  38.293  1.00  0.00     0.064 A 
ATOM     64  C   UNL A   1      39.666  33.486  39.403  1.00  0.00     0.173 A 
ATOM     65  C   UNL A   1      41.254  34.968  38.374  1.00  0.00     0.173 A 
ATOM     66  F   UNL A   1      38.880  32.399  39.373  1.00  0.00    -0.203 F 
ATOM     67  C   UNL A   1      39.641  34.299  40.534  1.00  0.00     0.198 A 
ATOM     68  C   UNL A   1      41.249  35.763  39.518  1.00  0.00     0.198 A 
ATOM     69  F   UNL A   1      42.035  35.325  37.344  1.00  0.00    -0.203 F 
ATOM     70  F   UNL A   1      38.834  33.995  41.559  1.00  0.00    -0.200 F 
ATOM     71  C   UNL A   1      40.436  35.434  40.592  1.00  0.00     0.200 A 
ATOM     72  F   UNL A   1      42.027  36.854  39.577  1.00  0.00    -0.200 F 
ATOM     73  F   UNL A   1      40.411  36.216  41.680  1.00  0.00    -0.200 F 
ENDBRANCH  49  63
BRANCH  50  74
ATOM     74  C   UNL A   1      40.324  28.569  29.806  1.00  0.00     0.064 A 
ATOM     75  C   UNL A   1      39.617  27.367  29.670  1.00  0.00     0.173 A 
ATOM     76  C   UNL A   1      41.013  29.054  28.684  1.00  0.00     0.173 A 
ATOM     77  F   UNL A   1      38.960  26.856  30.720  1.00  0.00    -0.203 F 
ATOM     78  C   UNL A   1      39.606  26.672  28.462  1.00  0.00     0.198 A 
ATOM     79  C   UNL A   1      40.982  28.371  27.470  1.00  0.00     0.198 A 
ATOM     80  F   UNL A   1      41.700  30.203  28.763  1.00  0.00    -0.203 F 
ATOM     81  F   UNL A   1      38.950  25.508  28.368  1.00  0.00    -0.200 F 
ATOM     82  C   UNL A   1      40.283  27.177  27.362  1.00  0.00     0.200 A 
ATOM     83  F   UNL A   1      41.624  28.870  26.406  1.00  0.00    -0.200 F 
ATOM     84  F   UNL A   1      40.263  26.513  26.199  1.00  0.00    -0.200 F 
ENDBRANCH  50  74
BRANCH  62  85
ATOM     85  C   UNL A   1      44.514  28.604  35.377  1.00  0.00     0.064 A 
ATOM     86  C   UNL A   1      44.429  27.379  36.052  1.00  0.00     0.173 A 
ATOM     87  C   UNL A   1      45.785  29.062  34.999  1.00  0.00     0.173 A 
ATOM     88  F   UNL A   1      43.238  26.908  36.448  1.00  0.00    -0.203 F 
ATOM     89  C   UNL A   1      45.576  26.650  36.358  1.00  0.00     0.198 A 
ATOM     90  C   UNL A   1      46.927  28.318  35.282  1.00  0.00     0.198 A 
ATOM     91  F   UNL A   1      45.919  30.226  34.346  1.00  0.00    -0.203 F 
ATOM     92  F   UNL A   1      45.476  25.502  37.042  1.00  0.00    -0.200 F 
ATOM     93  C   UNL A   1      46.823  27.116  35.966  1.00  0.00     0.200 A 
ATOM     94  F   UNL A   1      48.130  28.764  34.893  1.00  0.00    -0.200 F 
ATOM     95  F   UNL A   1      47.924  26.410  36.255  1.00  0.00    -0.200 F 
ENDBRANCH  62  85
ENDBRANCH  36  37
ENDBRANCH  28  31
ENDBRANCH  26  27
ENDBRANCH  25  26
ENDBRANCH  24  25
ENDBRANCH  23  24
ENDBRANCH   1  23
TORSDOF 18
ENDMDL
MODEL 2
REMARK VINA RESULT:     -10.5      0.793      2.208
REMARK SMILES CN(CC(C)(C)C)C(=O)N1CCO[C@@H](CC(=O)NCCCCCCNC(=O)c2ccc(-c3c4nc(c(-c5c(F)c(F)c(F)c(F)c5F)c5ccc([nH]5)c(-c5c(F)c(F)c(F)c(F)c5F)c5nc(c(-c6c(F)c(F)c(F)c(F)c6F)c6ccc3[nH]6)C=C5)C=C4)cc2)C1
REMARK SMILES IDX 20 1 19 2 18 3 16 4 17 5 15 7 14 8 10 9 11 10 91 11 12 12
REMARK SMILES IDX 13 13 8 14 9 15 2 16 1 17 3 18 4 19 5 20 6 21 7 22 21 23
REMARK SMILES IDX 22 24 23 25 24 26 25 27 26 28 27 30 28 31 29 32 90 33 30 34
REMARK SMILES IDX 89 35 31 36 32 37 33 38 83 39 34 40 88 41 82 42 84 43 35 44
REMARK SMILES IDX 87 45 81 46 80 47 36 49 68 50 48 51 67 52 49 53 52 54 66 55
REMARK SMILES IDX 85 56 50 57 51 58 65 60 86 61 53 62 37 63 38 64 46 65 39 66
REMARK SMILES IDX 40 67 44 68 47 69 41 70 42 71 45 72 43 73 69 74 70 75 78 76
REMARK SMILES IDX 71 77 72 78 76 79 79 80 73 81 74 82 77 83 75 84 54 85 55 86
REMARK SMILES IDX 63 87 56 88 57 89 61 90 64 91 58 92 59 93 62 94 60 95
REMARK H PARENT 18 6 25 29 84 48 52 59
REMARK Flexibility Score: inf
ROOT
ATOM      1  C   UNL A   1      35.416  31.632  28.027  1.00  0.00     0.021 C 
ENDROOT
BRANCH   1   2
ATOM      2  C   UNL A   1      34.544  30.387  27.849  1.00  0.00     0.116 C 
BRANCH   2   3
ATOM      3  N   UNL A   1      33.891  30.407  26.548  1.00  0.00    -0.356 N 
ATOM      4  C   UNL A   1      33.199  29.432  25.891  1.00  0.00     0.222 C 
ATOM      5  O   UNL A   1      32.891  29.622  24.714  1.00  0.00    -0.275 OA
ATOM      6  H   UNL A   1      33.959  31.261  26.064  1.00  0.00     0.163 HD
BRANCH   4   7
ATOM      7  C   UNL A   1      32.817  28.151  26.593  1.00  0.00     0.133 C 
BRANCH   7   8
ATOM      8  C   UNL A   1      32.028  27.187  25.704  1.00  0.00     0.147 C 
ATOM      9  N   UNL A   1      32.389  25.060  24.314  1.00  0.00    -0.320 N 
ATOM     10  C   UNL A   1      31.412  24.430  25.197  1.00  0.00     0.150 C 
ATOM     11  C   UNL A   1      32.964  26.285  24.882  1.00  0.00     0.154 C 
ATOM     12  C   UNL A   1      30.466  25.433  25.853  1.00  0.00     0.182 C 
ATOM     13  O   UNL A   1      31.206  26.405  26.591  1.00  0.00    -0.374 OA
BRANCH   9  14
ATOM     14  C   UNL A   1      33.236  24.410  23.426  1.00  0.00     0.319 C 
ATOM     15  O   UNL A   1      33.759  25.068  22.511  1.00  0.00    -0.248 OA
BRANCH  14  16
ATOM     16  N   UNL A   1      33.512  23.059  23.506  1.00  0.00    -0.327 N 
ATOM     17  C   UNL A   1      32.785  22.235  22.536  1.00  0.00     0.148 C 
BRANCH  16  18
ATOM     18  C   UNL A   1      34.262  22.315  24.518  1.00  0.00     0.127 C 
BRANCH  18  19
ATOM     19  C   UNL A   1      35.785  22.654  24.644  1.00  0.00    -0.020 C 
ATOM     20  C   UNL A   1      36.094  23.914  25.473  1.00  0.00     0.012 C 
ATOM     21  C   UNL A   1      36.468  21.448  25.318  1.00  0.00     0.012 C 
ATOM     22  C   UNL A   1      36.432  22.853  23.260  1.00  0.00     0.012 C 
ENDBRANCH  18  19
ENDBRANCH  16  18
ENDBRANCH  14  16
ENDBRANCH   9  14
ENDBRANCH   7   8
ENDBRANCH   4   7
ENDBRANCH   2   3
ENDBRANCH   1   2
BRANCH   1  23
ATOM     23  C   UNL A   1      34.833  32.683  28.971  1.00  0.00     0.002 C 
BRANCH  23  24
ATOM     24  C   UNL A   1      34.431  33.995  28.295  1.00  0.00     0.002 C 
BRANCH  24  25
ATOM     25  C   UNL A   1      33.170  34.667  28.850  1.00  0.00     0.021 C 
BRANCH  25  26
ATOM     26  C   UNL A   1      33.391  36.035  29.494  1.00  0.00     0.116 C 
BRANCH  26  27
ATOM     27  N   UNL A   1      32.535  36.236  30.653  1.00  0.00    -0.352 N 
ATOM     28  C   UNL A   1      32.614  35.697  31.910  1.00  0.00     0.251 C 
ATOM     29  H   UNL A   1      31.783  36.855  30.513  1.00  0.00     0.163 HD
ATOM     30  O   UNL A   1      31.667  35.805  32.689  1.00  0.00    -0.269 OA
BRANCH  28  31
ATOM     31  C   UNL A   1      33.827  34.974  32.340  1.00  0.00     0.039 A 
ATOM     32  C   UNL A   1      33.694  33.699  32.897  1.00  0.00     0.014 A 
ATOM     33  C   UNL A   1      35.090  35.566  32.238  1.00  0.00     0.014 A 
ATOM     34  C   UNL A   1      34.831  32.993  33.298  1.00  0.00     0.010 A 
ATOM     35  C   UNL A   1      36.228  34.839  32.580  1.00  0.00     0.010 A 
ATOM     36  C   UNL A   1      36.109  33.548  33.115  1.00  0.00    -0.014 A 
BRANCH  36  37
ATOM     37  C   UNL A   1      37.332  32.790  33.479  1.00  0.00     0.031 A 
ATOM     38  C   UNL A   1      38.069  33.104  34.750  1.00  0.00     0.074 A 
ATOM     39  C   UNL A   1      37.818  31.865  32.630  1.00  0.00     0.049 A 
ATOM     40  N   UNL A   1      39.194  32.604  35.201  1.00  0.00    -0.248 NA
ATOM     41  C   UNL A   1      37.480  34.135  35.614  1.00  0.00     0.031 C 
ATOM     42  C   UNL A   1      37.221  31.507  31.342  1.00  0.00     0.029 A 
ATOM     43  N   UNL A   1      38.934  31.071  32.713  1.00  0.00    -0.354 N 
ATOM     44  C   UNL A   1      39.449  33.268  36.394  1.00  0.00     0.074 A 
ATOM     45  C   UNL A   1      38.391  34.242  36.570  1.00  0.00     0.031 C 
ATOM     46  C   UNL A   1      37.972  30.559  30.760  1.00  0.00     0.029 A 
ATOM     47  C   UNL A   1      39.117  30.265  31.617  1.00  0.00     0.049 A 
ATOM     48  H   UNL A   1      39.544  31.078  33.485  1.00  0.00     0.167 HD
ATOM     49  C   UNL A   1      40.459  33.068  37.273  1.00  0.00     0.037 A 
ATOM     50  C   UNL A   1      40.103  29.394  31.330  1.00  0.00     0.037 A 
ATOM     51  C   UNL A   1      41.501  32.088  37.104  1.00  0.00     0.049 A 
ATOM     52  C   UNL A   1      41.212  29.184  32.322  1.00  0.00     0.074 A 
ATOM     53  C   UNL A   1      42.538  31.769  37.963  1.00  0.00     0.029 A 
ATOM     54  N   UNL A   1      41.636  31.268  35.993  1.00  0.00    -0.354 N 
ATOM     55  N   UNL A   1      41.409  29.771  33.477  1.00  0.00    -0.248 NA
ATOM     56  C   UNL A   1      42.231  28.184  31.976  1.00  0.00     0.031 C 
ATOM     57  C   UNL A   1      43.324  30.785  37.355  1.00  0.00     0.029 A 
ATOM     58  C   UNL A   1      42.752  30.457  36.136  1.00  0.00     0.049 A 
ATOM     59  H   UNL A   1      41.030  31.261  35.218  1.00  0.00     0.167 HD
ATOM     60  C   UNL A   1      42.560  29.202  34.004  1.00  0.00     0.074 A 
ATOM     61  C   UNL A   1      43.009  28.210  33.049  1.00  0.00     0.031 C 
ATOM     62  C   UNL A   1      43.188  29.477  35.173  1.00  0.00     0.037 A 
BRANCH  49  63
ATOM     63  C   UNL A   1      40.483  33.932  38.501  1.00  0.00     0.064 A 
ATOM     64  C   UNL A   1      41.202  35.137  38.537  1.00  0.00     0.173 A 
ATOM     65  C   UNL A   1      39.768  33.561  39.650  1.00  0.00     0.173 A 
ATOM     66  F   UNL A   1      41.910  35.532  37.468  1.00  0.00    -0.203 F 
ATOM     67  C   UNL A   1      41.234  35.919  39.689  1.00  0.00     0.198 A 
ATOM     68  C   UNL A   1      39.779  34.361  40.790  1.00  0.00     0.198 A 
ATOM     69  F   UNL A   1      39.059  32.422  39.667  1.00  0.00    -0.203 F 
ATOM     70  F   UNL A   1      41.973  37.037  39.717  1.00  0.00    -0.200 F 
ATOM     71  C   UNL A   1      40.518  35.533  40.812  1.00  0.00     0.200 A 
ATOM     72  F   UNL A   1      39.077  33.992  41.871  1.00  0.00    -0.200 F 
ATOM     73  F   UNL A   1      40.551  36.287  41.920  1.00  0.00    -0.200 F 
ENDBRANCH  49  63
BRANCH  50  74
ATOM     74  C   UNL A   1      40.064  28.641  30.051  1.00  0.00     0.064 A 
ATOM     75  C   UNL A   1      40.652  29.162  28.891  1.00  0.00     0.173 A 
ATOM     76  C   UNL A   1      39.461  27.376  29.970  1.00  0.00     0.173 A 
ATOM     77  F   UNL A   1      41.222  30.374  28.917  1.00  0.00    -0.203 F 
ATOM     78  C   UNL A   1      40.630  28.450  27.693  1.00  0.00     0.198 A 
ATOM     79  C   UNL A   1      39.461  26.656  28.777  1.00  0.00     0.198 A 
ATOM     80  F   UNL A   1      38.890  26.833  31.054  1.00  0.00    -0.203 F 
ATOM     81  F   UNL A   1      41.170  28.985  26.589  1.00  0.00    -0.200 F 
ATOM     82  C   UNL A   1      40.041  27.196  27.639  1.00  0.00     0.200 A 
ATOM     83  F   UNL A   1      38.905  25.438  28.732  1.00  0.00    -0.200 F 
ATOM     84  F   UNL A   1      40.030  26.509  26.488  1.00  0.00    -0.200 F 
ENDBRANCH  50  74
BRANCH  62  85
ATOM     85  C   UNL A   1      44.422  28.684  35.492  1.00  0.00     0.064 A 
ATOM     86  C   UNL A   1      45.696  29.123  35.105  1.00  0.00     0.173 A 
ATOM     87  C   UNL A   1      44.329  27.492  36.226  1.00  0.00     0.173 A 
ATOM     88  F   UNL A   1      45.833  30.248  34.389  1.00  0.00    -0.203 F 
ATOM     89  C   UNL A   1      46.833  28.383  35.422  1.00  0.00     0.198 A 
ATOM     90  C   UNL A   1      45.471  26.770  36.564  1.00  0.00     0.198 A 
ATOM     91  F   UNL A   1      43.133  27.032  36.624  1.00  0.00    -0.203 F 
ATOM     92  F   UNL A   1      48.037  28.799  35.005  1.00  0.00    -0.200 F 
ATOM     93  C   UNL A   1      46.720  27.212  36.158  1.00  0.00     0.200 A 
ATOM     94  F   UNL A   1      45.361  25.644  37.284  1.00  0.00    -0.200 F 
ATOM     95  F   UNL A   1      47.816  26.507  36.467  1.00  0.00    -0.200 F 
ENDBRANCH  62  85
ENDBRANCH  36  37
ENDBRANCH  28  31
ENDBRANCH  26  27
ENDBRANCH  25  26
ENDBRANCH  24  25
ENDBRANCH  23  24
ENDBRANCH   1  23
TORSDOF 18
ENDMDL
MODEL 3
REMARK VINA RESULT:     -10.3      5.949     10.639
REMARK SMILES CN(CC(C)(C)C)C(=O)N1CCO[C@@H](CC(=O)NCCCCCCNC(=O)c2ccc(-c3c4nc(c(-c5c(F)c(F)c(F)c(F)c5F)c5ccc([nH]5)c(-c5c(F)c(F)c(F)c(F)c5F)c5nc(c(-c6c(F)c(F)c(F)c(F)c6F)c6ccc3[nH]6)C=C5)C=C4)cc2)C1
REMARK SMILES IDX 20 1 19 2 18 3 16 4 17 5 15 7 14 8 10 9 11 10 91 11 12 12
REMARK SMILES IDX 13 13 8 14 9 15 2 16 1 17 3 18 4 19 5 20 6 21 7 22 21 23
REMARK SMILES IDX 22 24 23 25 24 26 25 27 26 28 27 30 28 31 29 32 90 33 30 34
REMARK SMILES IDX 89 35 31 36 32 37 33 38 83 39 34 40 88 41 82 42 84 43 35 44
REMARK SMILES IDX 87 45 81 46 80 47 36 49 68 50 48 51 67 52 49 53 52 54 66 55
REMARK SMILES IDX 85 56 50 57 51 58 65 60 86 61 53 62 37 63 38 64 46 65 39 66
REMARK SMILES IDX 40 67 44 68 47 69 41 70 42 71 45 72 43 73 69 74 70 75 78 76
REMARK SMILES IDX 71 77 72 78 76 79 79 80 73 81 74 82 77 83 75 84 54 85 55 86
REMARK SMILES IDX 63 87 56 88 57 89 61 90 64 91 58 92 59 93 62 94 60 95
REMARK H PARENT 18 6 25 29 84 48 52 59
REMARK Flexibility Score: inf
ROOT
ATOM      1  C   UNL A   1      36.372  22.771  26.044  1.00  0.00     0.021 C 
ENDROOT
BRANCH   1   2
ATOM      2  C   UNL A   1      35.168  23.655  25.714  1.00  0.00     0.116 C 
BRANCH   2   3
ATOM      3  N   UNL A   1      33.976  22.840  25.527  1.00  0.00    -0.356 N 
ATOM      4  C   UNL A   1      33.243  22.589  24.405  1.00  0.00     0.222 C 
ATOM      5  O   UNL A   1      32.161  22.013  24.526  1.00  0.00    -0.275 OA
ATOM      6  H   UNL A   1      33.646  22.398  26.342  1.00  0.00     0.163 HD
BRANCH   4   7
ATOM      7  C   UNL A   1      33.747  23.008  23.044  1.00  0.00     0.133 C 
BRANCH   7   8
ATOM      8  C   UNL A   1      32.887  24.091  22.388  1.00  0.00     0.147 C 
ATOM      9  N   UNL A   1      32.641  26.645  22.354  1.00  0.00    -0.320 N 
ATOM     10  C   UNL A   1      32.934  26.559  20.926  1.00  0.00     0.150 C 
ATOM     11  C   UNL A   1      33.057  25.447  23.093  1.00  0.00     0.154 C 
ATOM     12  C   UNL A   1      32.603  25.194  20.329  1.00  0.00     0.182 C 
ATOM     13  O   UNL A   1      33.316  24.165  21.016  1.00  0.00    -0.374 OA
BRANCH   9  14
ATOM     14  C   UNL A   1      32.637  27.799  23.126  1.00  0.00     0.319 C 
ATOM     15  O   UNL A   1      33.618  28.557  23.070  1.00  0.00    -0.248 OA
BRANCH  14  16
ATOM     16  N   UNL A   1      31.593  28.133  23.967  1.00  0.00    -0.327 N 
ATOM     17  C   UNL A   1      30.267  28.036  23.353  1.00  0.00     0.148 C 
BRANCH  16  18
ATOM     18  C   UNL A   1      31.621  28.742  25.298  1.00  0.00     0.127 C 
BRANCH  18  19
ATOM     19  C   UNL A   1      32.034  27.804  26.482  1.00  0.00    -0.020 C 
ATOM     20  C   UNL A   1      31.601  26.336  26.317  1.00  0.00     0.012 C 
ATOM     21  C   UNL A   1      33.571  27.849  26.586  1.00  0.00     0.012 C 
ATOM     22  C   UNL A   1      31.454  28.300  27.820  1.00  0.00     0.012 C 
ENDBRANCH  18  19
ENDBRANCH  16  18
ENDBRANCH  14  16
ENDBRANCH   9  14
ENDBRANCH   7   8
ENDBRANCH   4   7
ENDBRANCH   2   3
ENDBRANCH   1   2
BRANCH   1  23
ATOM     23  C   UNL A   1      36.925  21.985  24.856  1.00  0.00     0.002 C 
BRANCH  23  24
ATOM     24  C   UNL A   1      36.667  20.478  24.912  1.00  0.00     0.002 C 
BRANCH  24  25
ATOM     25  C   UNL A   1      37.917  19.592  24.930  1.00  0.00     0.021 C 
BRANCH  25  26
ATOM     26  C   UNL A   1      39.080  20.124  25.768  1.00  0.00     0.116 C 
BRANCH  26  27
ATOM     27  N   UNL A   1      40.145  19.141  25.907  1.00  0.00    -0.352 N 
ATOM     28  C   UNL A   1      41.492  19.321  26.079  1.00  0.00     0.251 C 
ATOM     29  H   UNL A   1      39.851  18.203  25.872  1.00  0.00     0.163 HD
ATOM     30  O   UNL A   1      42.264  18.372  25.944  1.00  0.00    -0.269 OA
BRANCH  28  31
ATOM     31  C   UNL A   1      42.032  20.653  26.416  1.00  0.00     0.039 A 
ATOM     32  C   UNL A   1      42.406  21.514  25.381  1.00  0.00     0.014 A 
ATOM     33  C   UNL A   1      42.215  21.037  27.748  1.00  0.00     0.014 A 
ATOM     34  C   UNL A   1      42.907  22.783  25.680  1.00  0.00     0.010 A 
ATOM     35  C   UNL A   1      42.656  22.325  28.045  1.00  0.00     0.010 A 
ATOM     36  C   UNL A   1      43.009  23.208  27.014  1.00  0.00    -0.014 A 
BRANCH  36  37
ATOM     37  C   UNL A   1      43.482  24.574  27.350  1.00  0.00     0.031 A 
ATOM     38  C   UNL A   1      42.526  25.594  27.900  1.00  0.00     0.074 A 
ATOM     39  C   UNL A   1      44.758  24.917  27.094  1.00  0.00     0.049 A 
ATOM     40  N   UNL A   1      42.733  26.857  28.182  1.00  0.00    -0.248 NA
ATOM     41  C   UNL A   1      41.147  25.143  28.137  1.00  0.00     0.031 C 
ATOM     42  C   UNL A   1      45.769  24.031  26.514  1.00  0.00     0.029 A 
ATOM     43  N   UNL A   1      45.419  26.106  27.273  1.00  0.00    -0.354 N 
ATOM     44  C   UNL A   1      41.510  27.350  28.620  1.00  0.00     0.074 A 
ATOM     45  C   UNL A   1      40.555  26.267  28.515  1.00  0.00     0.031 C 
ATOM     46  C   UNL A   1      46.924  24.705  26.392  1.00  0.00     0.029 A 
ATOM     47  C   UNL A   1      46.727  26.076  26.856  1.00  0.00     0.049 A 
ATOM     48  H   UNL A   1      44.997  26.905  27.663  1.00  0.00     0.167 HD
ATOM     49  C   UNL A   1      41.216  28.587  29.087  1.00  0.00     0.037 A 
ATOM     50  C   UNL A   1      47.660  27.046  26.840  1.00  0.00     0.037 A 
ATOM     51  C   UNL A   1      42.172  29.659  29.206  1.00  0.00     0.049 A 
ATOM     52  C   UNL A   1      47.313  28.410  27.368  1.00  0.00     0.074 A 
ATOM     53  C   UNL A   1      41.986  30.930  29.718  1.00  0.00     0.029 A 
ATOM     54  N   UNL A   1      43.496  29.580  28.800  1.00  0.00    -0.354 N 
ATOM     55  N   UNL A   1      46.172  28.848  27.839  1.00  0.00    -0.248 NA
ATOM     56  C   UNL A   1      48.388  29.412  27.371  1.00  0.00     0.031 C 
ATOM     57  C   UNL A   1      43.188  31.635  29.587  1.00  0.00     0.029 A 
ATOM     58  C   UNL A   1      44.135  30.788  29.033  1.00  0.00     0.049 A 
ATOM     59  H   UNL A   1      43.921  28.785  28.406  1.00  0.00     0.167 HD
ATOM     60  C   UNL A   1      46.392  30.167  28.211  1.00  0.00     0.074 A 
ATOM     61  C   UNL A   1      47.782  30.453  27.925  1.00  0.00     0.031 C 
ATOM     62  C   UNL A   1      45.519  31.059  28.740  1.00  0.00     0.037 A 
BRANCH  49  63
ATOM     63  C   UNL A   1      39.798  28.844  29.507  1.00  0.00     0.064 A 
ATOM     64  C   UNL A   1      38.845  29.344  28.605  1.00  0.00     0.173 A 
ATOM     65  C   UNL A   1      39.380  28.575  30.818  1.00  0.00     0.173 A 
ATOM     66  F   UNL A   1      39.195  29.628  27.341  1.00  0.00    -0.203 F 
ATOM     67  C   UNL A   1      37.537  29.599  29.011  1.00  0.00     0.198 A 
ATOM     68  C   UNL A   1      38.064  28.802  31.213  1.00  0.00     0.198 A 
ATOM     69  F   UNL A   1      40.248  28.090  31.719  1.00  0.00    -0.203 F 
ATOM     70  F   UNL A   1      36.661  30.129  28.147  1.00  0.00    -0.200 F 
ATOM     71  C   UNL A   1      37.147  29.323  30.313  1.00  0.00     0.200 A 
ATOM     72  F   UNL A   1      37.685  28.525  32.469  1.00  0.00    -0.200 F 
ATOM     73  F   UNL A   1      35.888  29.569  30.702  1.00  0.00    -0.200 F 
ENDBRANCH  49  63
BRANCH  50  74
ATOM     74  C   UNL A   1      49.019  26.745  26.323  1.00  0.00     0.064 A 
ATOM     75  C   UNL A   1      49.352  26.995  24.984  1.00  0.00     0.173 A 
ATOM     76  C   UNL A   1      50.017  26.226  27.160  1.00  0.00     0.173 A 
ATOM     77  F   UNL A   1      48.424  27.473  24.143  1.00  0.00    -0.203 F 
ATOM     78  C   UNL A   1      50.631  26.728  24.500  1.00  0.00     0.198 A 
ATOM     79  C   UNL A   1      51.302  25.982  26.680  1.00  0.00     0.198 A 
ATOM     80  F   UNL A   1      49.749  25.975  28.449  1.00  0.00    -0.203 F 
ATOM     81  F   UNL A   1      50.914  26.945  23.209  1.00  0.00    -0.200 F 
ATOM     82  C   UNL A   1      51.606  26.228  25.350  1.00  0.00     0.200 A 
ATOM     83  F   UNL A   1      52.247  25.514  27.508  1.00  0.00    -0.200 F 
ATOM     84  F   UNL A   1      52.838  25.982  24.885  1.00  0.00    -0.200 F 
ENDBRANCH  50  74
BRANCH  62  85
ATOM     85  C   UNL A   1      46.048  32.427  29.059  1.00  0.00     0.064 A 
ATOM     86  C   UNL A   1      46.652  32.710  30.292  1.00  0.00     0.173 A 
ATOM     87  C   UNL A   1      45.983  33.454  28.105  1.00  0.00     0.173 A 
ATOM     88  F   UNL A   1      46.723  31.766  31.241  1.00  0.00    -0.203 F 
ATOM     89  C   UNL A   1      47.152  33.981  30.568  1.00  0.00     0.198 A 
ATOM     90  C   UNL A   1      46.509  34.715  28.375  1.00  0.00     0.198 A 
ATOM     91  F   UNL A   1      45.420  33.232  26.908  1.00  0.00    -0.203 F 
ATOM     92  F   UNL A   1      47.687  34.242  31.769  1.00  0.00    -0.200 F 
ATOM     93  C   UNL A   1      47.088  34.979  29.606  1.00  0.00     0.200 A 
ATOM     94  F   UNL A   1      46.455  35.675  27.441  1.00  0.00    -0.200 F 
ATOM     95  F   UNL A   1      47.575  36.198  29.871  1.00  0.00    -0.200 F 
ENDBRANCH  62  85
ENDBRANCH  36  37
ENDBRANCH  28  31
ENDBRANCH  26  27
ENDBRANCH  25  26
ENDBRANCH  24  25
ENDBRANCH  23  24
ENDBRANCH   1  23
TORSDOF 18
ENDMDL
