MODEL 1
REMARK VINA RESULT:     -13.7      0.000      0.000
REMARK SMILES Cc1nccn1C1(C(=O)NCCCCCCNC(=O)c2ccc(-c3c4nc(c(-c5c(F)c(F)c(F)c(F)c5F)c5ccc([nH]5)c(-c5c(F)c(F)c(F)c(F)c5F)c5nc(c(-c6c(F)c(F)c(F)c(F)c6F)c6ccc3[nH]6)C=C5)C=C4)cc2)CCN(C(=O)[C@@H]2C[C@H]2c2ccccc2)CC1
REMARK SMILES IDX 13 1 12 2 11 3 10 4 8 5 9 6 7 8 83 9 98 10 84 11 97 12 85 13
REMARK SMILES IDX 86 14 87 15 6 16 1 17 2 18 3 19 4 20 5 21 88 22 89 23 90 24
REMARK SMILES IDX 91 25 92 26 96 27 93 28 95 29 94 30 14 31 15 32 16 33 17 34
REMARK SMILES IDX 18 35 19 37 20 38 21 39 82 40 22 41 81 42 23 43 24 44 25 45
REMARK SMILES IDX 75 46 26 47 80 48 74 49 76 50 27 51 79 52 73 53 72 54 28 56
REMARK SMILES IDX 60 57 40 58 59 59 41 60 44 61 58 62 77 63 42 64 43 65 57 67
REMARK SMILES IDX 78 68 45 69 29 70 30 71 38 72 31 73 32 74 36 75 39 76 33 77
REMARK SMILES IDX 34 78 37 79 35 80 61 81 62 82 70 83 63 84 64 85 68 86 71 87
REMARK SMILES IDX 65 88 66 89 69 90 67 91 46 92 47 93 55 94 48 95 49 96 53 97
REMARK SMILES IDX 56 98 50 99 51 100 54 101 52 102
REMARK H PARENT 10 7 17 36 76 55 44 66
REMARK Flexibility Score: inf
ROOT
ATOM      1  C   UNL A   1      33.952  27.550  25.072  1.00  0.00     0.002 C 
ENDROOT
BRANCH   1   2
ATOM      2  C   UNL A   1      33.988  26.102  24.559  1.00  0.00     0.021 C 
BRANCH   2   3
ATOM      3  C   UNL A   1      34.704  25.099  25.472  1.00  0.00     0.116 C 
BRANCH   3   4
ATOM      4  N   UNL A   1      35.157  23.943  24.722  1.00  0.00    -0.354 N 
ATOM      5  C   UNL A   1      34.618  22.718  24.436  1.00  0.00     0.246 C 
ATOM      6  O   UNL A   1      35.474  21.934  24.019  1.00  0.00    -0.272 OA
ATOM      7  H   UNL A   1      36.052  24.066  24.331  1.00  0.00     0.163 HD
BRANCH   5   8
ATOM      8  C   UNL A   1      33.079  22.355  24.648  1.00  0.00     0.127 C 
ATOM      9  C   UNL A   1      32.749  22.833  26.091  1.00  0.00     0.061 C 
ATOM     10  C   UNL A   1      32.313  23.090  23.517  1.00  0.00     0.061 C 
ATOM     11  C   UNL A   1      31.487  23.678  26.305  1.00  0.00     0.122 C 
ATOM     12  C   UNL A   1      30.897  23.416  23.930  1.00  0.00     0.122 C 
ATOM     13  N   UNL A   1      30.912  24.277  25.103  1.00  0.00    -0.342 N 
ATOM     14  C   UNL A   1      30.243  25.499  25.276  1.00  0.00     0.226 C 
ATOM     15  O   UNL A   1      30.033  25.939  26.405  1.00  0.00    -0.275 OA
BRANCH   8  16
ATOM     16  N   UNL A   1      32.776  20.869  24.509  1.00  0.00    -0.320 N 
ATOM     17  C   UNL A   1      32.015  20.490  22.006  1.00  0.00     0.087 C 
ATOM     18  C   UNL A   1      32.355  20.109  23.401  1.00  0.00     0.106 A 
ATOM     19  N   UNL A   1      32.282  18.825  23.703  1.00  0.00    -0.242 NA
ATOM     20  C   UNL A   1      32.646  18.704  24.994  1.00  0.00     0.131 A 
ATOM     21  C   UNL A   1      32.986  19.926  25.499  1.00  0.00     0.108 A 
ENDBRANCH   8  16
BRANCH  14  22
ATOM     22  C   UNL A   1      29.827  26.389  24.146  1.00  0.00     0.087 C 
ATOM     23  C   UNL A   1      30.740  26.617  22.968  1.00  0.00     0.023 C 
ATOM     24  C   UNL A   1      30.333  27.766  23.855  1.00  0.00     0.032 C 
BRANCH  24  25
ATOM     25  C   UNL A   1      29.522  28.927  23.391  1.00  0.00    -0.044 A 
ATOM     26  C   UNL A   1      29.915  30.228  23.738  1.00  0.00     0.004 A 
ATOM     27  C   UNL A   1      28.201  28.719  22.965  1.00  0.00     0.004 A 
ATOM     28  C   UNL A   1      28.986  31.266  23.777  1.00  0.00     0.000 A 
ATOM     29  C   UNL A   1      27.270  29.754  23.008  1.00  0.00     0.000 A 
ATOM     30  C   UNL A   1      27.657  31.019  23.443  1.00  0.00     0.000 A 
ENDBRANCH  24  25
ENDBRANCH  14  22
ENDBRANCH   5   8
ENDBRANCH   3   4
ENDBRANCH   2   3
ENDBRANCH   1   2
BRANCH   1  31
ATOM     31  C   UNL A   1      32.968  27.852  26.216  1.00  0.00     0.002 C 
BRANCH  31  32
ATOM     32  C   UNL A   1      33.477  28.746  27.355  1.00  0.00     0.021 C 
BRANCH  32  33
ATOM     33  C   UNL A   1      34.720  29.545  27.006  1.00  0.00     0.116 C 
BRANCH  33  34
ATOM     34  N   UNL A   1      34.695  30.927  27.498  1.00  0.00    -0.352 N 
ATOM     35  C   UNL A   1      35.353  31.448  28.608  1.00  0.00     0.251 C 
ATOM     36  H   UNL A   1      34.145  31.560  26.983  1.00  0.00     0.163 HD
ATOM     37  O   UNL A   1      35.004  32.485  29.137  1.00  0.00    -0.269 OA
BRANCH  35  38
ATOM     38  C   UNL A   1      36.518  30.699  29.114  1.00  0.00     0.039 A 
ATOM     39  C   UNL A   1      36.420  29.620  29.997  1.00  0.00     0.014 A 
ATOM     40  C   UNL A   1      37.744  31.076  28.589  1.00  0.00     0.014 A 
ATOM     41  C   UNL A   1      37.575  28.892  30.279  1.00  0.00     0.010 A 
ATOM     42  C   UNL A   1      38.775  30.191  28.623  1.00  0.00     0.010 A 
ATOM     43  C   UNL A   1      38.752  29.183  29.570  1.00  0.00    -0.014 A 
BRANCH  43  44
ATOM     44  C   UNL A   1      39.995  28.449  29.754  1.00  0.00     0.031 A 
ATOM     45  C   UNL A   1      40.460  28.344  31.159  1.00  0.00     0.074 A 
ATOM     46  C   UNL A   1      40.557  27.743  28.744  1.00  0.00     0.049 A 
ATOM     47  N   UNL A   1      41.529  28.856  31.669  1.00  0.00    -0.248 NA
ATOM     48  C   UNL A   1      39.578  27.703  32.147  1.00  0.00     0.031 C 
ATOM     49  C   UNL A   1      40.060  27.510  27.377  1.00  0.00     0.029 A 
ATOM     50  N   UNL A   1      41.683  26.985  28.767  1.00  0.00    -0.354 N 
ATOM     51  C   UNL A   1      41.554  28.458  33.002  1.00  0.00     0.074 A 
ATOM     52  C   UNL A   1      40.262  27.886  33.279  1.00  0.00     0.031 C 
ATOM     53  C   UNL A   1      40.737  26.490  26.806  1.00  0.00     0.029 A 
ATOM     54  C   UNL A   1      41.836  26.137  27.677  1.00  0.00     0.049 A 
ATOM     55  H   UNL A   1      42.340  27.033  29.498  1.00  0.00     0.167 HD
ATOM     56  C   UNL A   1      42.722  28.440  33.703  1.00  0.00     0.037 A 
ATOM     57  C   UNL A   1      42.802  25.200  27.515  1.00  0.00     0.037 A 
ATOM     58  C   UNL A   1      43.746  29.191  33.023  1.00  0.00     0.049 A 
ATOM     59  C   UNL A   1      43.917  25.574  28.422  1.00  0.00     0.074 A 
ATOM     60  C   UNL A   1      43.900  30.518  32.673  1.00  0.00     0.029 A 
ATOM     61  N   UNL A   1      44.637  28.495  32.243  1.00  0.00    -0.354 N 
ATOM     62  N   UNL A   1      44.629  26.658  28.272  1.00  0.00    -0.248 NA
ATOM     63  C   UNL A   1      43.897  25.017  29.767  1.00  0.00     0.031 C 
ATOM     64  C   UNL A   1      44.491  30.488  31.376  1.00  0.00     0.029 A 
ATOM     65  C   UNL A   1      44.738  29.155  31.045  1.00  0.00     0.049 A 
ATOM     66  H   UNL A   1      45.115  27.673  32.497  1.00  0.00     0.167 HD
ATOM     67  C   UNL A   1      44.793  27.155  29.558  1.00  0.00     0.074 A 
ATOM     68  C   UNL A   1      44.376  26.067  30.442  1.00  0.00     0.031 C 
ATOM     69  C   UNL A   1      44.967  28.491  29.782  1.00  0.00     0.037 A 
BRANCH  56  70
ATOM     70  C   UNL A   1      43.057  27.461  34.797  1.00  0.00     0.064 A 
ATOM     71  C   UNL A   1      43.354  27.949  36.086  1.00  0.00     0.173 A 
ATOM     72  C   UNL A   1      43.403  26.115  34.557  1.00  0.00     0.173 A 
ATOM     73  F   UNL A   1      43.075  29.219  36.417  1.00  0.00    -0.203 F 
ATOM     74  C   UNL A   1      44.030  27.173  37.029  1.00  0.00     0.198 A 
ATOM     75  C   UNL A   1      44.032  25.327  35.520  1.00  0.00     0.198 A 
ATOM     76  F   UNL A   1      43.257  25.546  33.355  1.00  0.00    -0.203 F 
ATOM     77  F   UNL A   1      44.409  27.719  38.192  1.00  0.00    -0.200 F 
ATOM     78  C   UNL A   1      44.378  25.866  36.742  1.00  0.00     0.200 A 
ATOM     79  F   UNL A   1      44.377  24.068  35.216  1.00  0.00    -0.200 F 
ATOM     80  F   UNL A   1      45.086  25.141  37.618  1.00  0.00    -0.200 F 
ENDBRANCH  56  70
BRANCH  57  81
ATOM     81  C   UNL A   1      42.646  23.843  26.939  1.00  0.00     0.064 A 
ATOM     82  C   UNL A   1      43.521  23.360  25.954  1.00  0.00     0.173 A 
ATOM     83  C   UNL A   1      41.801  22.892  27.546  1.00  0.00     0.173 A 
ATOM     84  F   UNL A   1      44.390  24.192  25.362  1.00  0.00    -0.203 F 
ATOM     85  C   UNL A   1      43.561  22.003  25.609  1.00  0.00     0.198 A 
ATOM     86  C   UNL A   1      41.841  21.540  27.203  1.00  0.00     0.198 A 
ATOM     87  F   UNL A   1      40.985  23.242  28.552  1.00  0.00    -0.203 F 
ATOM     88  F   UNL A   1      44.447  21.569  24.702  1.00  0.00    -0.200 F 
ATOM     89  C   UNL A   1      42.729  21.093  26.242  1.00  0.00     0.200 A 
ATOM     90  F   UNL A   1      41.058  20.665  27.851  1.00  0.00    -0.200 F 
ATOM     91  F   UNL A   1      42.809  19.786  25.956  1.00  0.00    -0.200 F 
ENDBRANCH  57  81
BRANCH  69  92
ATOM     92  C   UNL A   1      45.202  29.381  28.592  1.00  0.00     0.064 A 
ATOM     93  C   UNL A   1      44.188  30.091  27.924  1.00  0.00     0.173 A 
ATOM     94  C   UNL A   1      46.525  29.663  28.230  1.00  0.00     0.173 A 
ATOM     95  F   UNL A   1      42.905  29.951  28.271  1.00  0.00    -0.203 F 
ATOM     96  C   UNL A   1      44.486  31.014  26.922  1.00  0.00     0.198 A 
ATOM     97  C   UNL A   1      46.822  30.610  27.254  1.00  0.00     0.198 A 
ATOM     98  F   UNL A   1      47.538  29.059  28.872  1.00  0.00    -0.203 F 
ATOM     99  F   UNL A   1      43.498  31.679  26.302  1.00  0.00    -0.200 F 
ATOM    100  C   UNL A   1      45.804  31.280  26.595  1.00  0.00     0.200 A 
ATOM    101  F   UNL A   1      48.102  30.898  26.977  1.00  0.00    -0.200 F 
ATOM    102  F   UNL A   1      46.096  32.201  25.667  1.00  0.00    -0.200 F 
ENDBRANCH  69  92
ENDBRANCH  43  44
ENDBRANCH  35  38
ENDBRANCH  33  34
ENDBRANCH  32  33
ENDBRANCH  31  32
ENDBRANCH   1  31
TORSDOF 16
ENDMDL
MODEL 2
REMARK VINA RESULT:     -13.5      3.172      8.120
REMARK SMILES Cc1nccn1C1(C(=O)NCCCCCCNC(=O)c2ccc(-c3c4nc(c(-c5c(F)c(F)c(F)c(F)c5F)c5ccc([nH]5)c(-c5c(F)c(F)c(F)c(F)c5F)c5nc(c(-c6c(F)c(F)c(F)c(F)c6F)c6ccc3[nH]6)C=C5)C=C4)cc2)CCN(C(=O)[C@@H]2C[C@H]2c2ccccc2)CC1
REMARK SMILES IDX 13 1 12 2 11 3 10 4 8 5 9 6 7 8 83 9 98 10 84 11 97 12 85 13
REMARK SMILES IDX 86 14 87 15 6 16 1 17 2 18 3 19 4 20 5 21 88 22 89 23 90 24
REMARK SMILES IDX 91 25 92 26 96 27 93 28 95 29 94 30 14 31 15 32 16 33 17 34
REMARK SMILES IDX 18 35 19 37 20 38 21 39 82 40 22 41 81 42 23 43 24 44 25 45
REMARK SMILES IDX 75 46 26 47 80 48 74 49 76 50 27 51 79 52 73 53 72 54 28 56
REMARK SMILES IDX 60 57 40 58 59 59 41 60 44 61 58 62 77 63 42 64 43 65 57 67
REMARK SMILES IDX 78 68 45 69 29 70 30 71 38 72 31 73 32 74 36 75 39 76 33 77
REMARK SMILES IDX 34 78 37 79 35 80 61 81 62 82 70 83 63 84 64 85 68 86 71 87
REMARK SMILES IDX 65 88 66 89 69 90 67 91 46 92 47 93 55 94 48 95 49 96 53 97
REMARK SMILES IDX 56 98 50 99 51 100 54 101 52 102
REMARK H PARENT 10 7 17 36 76 55 44 66
REMARK Flexibility Score: inf
ROOT
ATOM      1  C   UNL A   1      37.578  20.966  25.542  1.00  0.00     0.002 C 
ENDROOT
BRANCH   1   2
ATOM      2  C   UNL A   1      36.746  21.419  24.332  1.00  0.00     0.021 C 
BRANCH   2   3
ATOM      3  C   UNL A   1      36.779  22.923  24.038  1.00  0.00     0.116 C 
BRANCH   3   4
ATOM      4  N   UNL A   1      35.759  23.289  23.073  1.00  0.00    -0.354 N 
ATOM      5  C   UNL A   1      34.440  23.638  23.163  1.00  0.00     0.246 C 
ATOM      6  O   UNL A   1      33.879  23.577  22.066  1.00  0.00    -0.272 OA
ATOM      7  H   UNL A   1      36.090  23.285  22.145  1.00  0.00     0.163 HD
BRANCH   5   8
ATOM      8  C   UNL A   1      33.721  24.043  24.529  1.00  0.00     0.127 C 
ATOM      9  C   UNL A   1      34.546  25.243  25.076  1.00  0.00     0.061 C 
ATOM     10  C   UNL A   1      32.252  24.369  24.152  1.00  0.00     0.061 C 
ATOM     11  C   UNL A   1      33.790  26.495  25.537  1.00  0.00     0.122 C 
ATOM     12  C   UNL A   1      31.644  25.367  25.110  1.00  0.00     0.122 C 
ATOM     13  N   UNL A   1      32.407  26.606  25.080  1.00  0.00    -0.342 N 
ATOM     14  C   UNL A   1      31.917  27.908  24.891  1.00  0.00     0.226 C 
ATOM     15  O   UNL A   1      32.581  28.881  25.246  1.00  0.00    -0.275 OA
BRANCH   8  16
ATOM     16  N   UNL A   1      33.687  22.922  25.559  1.00  0.00    -0.320 N 
ATOM     17  C   UNL A   1      32.655  20.815  24.338  1.00  0.00     0.087 C 
ATOM     18  C   UNL A   1      33.260  21.584  25.457  1.00  0.00     0.106 A 
ATOM     19  N   UNL A   1      33.475  20.928  26.583  1.00  0.00    -0.242 NA
ATOM     20  C   UNL A   1      34.039  21.798  27.443  1.00  0.00     0.131 A 
ATOM     21  C   UNL A   1      34.212  23.008  26.835  1.00  0.00     0.108 A 
ENDBRANCH   8  16
BRANCH  14  22
ATOM     22  C   UNL A   1      30.637  28.223  24.181  1.00  0.00     0.087 C 
ATOM     23  C   UNL A   1      30.324  27.600  22.844  1.00  0.00     0.023 C 
ATOM     24  C   UNL A   1      30.469  29.095  22.977  1.00  0.00     0.032 C 
BRANCH  24  25
ATOM     25  C   UNL A   1      29.362  30.062  22.733  1.00  0.00    -0.044 A 
ATOM     26  C   UNL A   1      28.831  30.195  21.442  1.00  0.00     0.004 A 
ATOM     27  C   UNL A   1      29.126  31.088  23.661  1.00  0.00     0.004 A 
ATOM     28  C   UNL A   1      28.192  31.370  21.052  1.00  0.00     0.000 A 
ATOM     29  C   UNL A   1      28.490  32.265  23.273  1.00  0.00     0.000 A 
ATOM     30  C   UNL A   1      28.051  32.416  21.960  1.00  0.00     0.000 A 
ENDBRANCH  24  25
ENDBRANCH  14  22
ENDBRANCH   5   8
ENDBRANCH   3   4
ENDBRANCH   2   3
ENDBRANCH   1   2
BRANCH   1  31
ATOM     31  C   UNL A   1      38.772  21.854  25.929  1.00  0.00     0.002 C 
BRANCH  31  32
ATOM     32  C   UNL A   1      40.038  21.142  26.426  1.00  0.00     0.021 C 
BRANCH  32  33
ATOM     33  C   UNL A   1      41.091  22.077  26.994  1.00  0.00     0.116 C 
BRANCH  33  34
ATOM     34  N   UNL A   1      42.184  22.376  26.062  1.00  0.00    -0.352 N 
ATOM     35  C   UNL A   1      42.685  23.625  25.709  1.00  0.00     0.251 C 
ATOM     36  H   UNL A   1      42.613  21.600  25.635  1.00  0.00     0.163 HD
ATOM     37  O   UNL A   1      43.328  23.799  24.693  1.00  0.00    -0.269 OA
BRANCH  35  38
ATOM     38  C   UNL A   1      42.422  24.743  26.635  1.00  0.00     0.039 A 
ATOM     39  C   UNL A   1      43.092  24.914  27.849  1.00  0.00     0.014 A 
ATOM     40  C   UNL A   1      41.512  25.687  26.188  1.00  0.00     0.014 A 
ATOM     41  C   UNL A   1      42.872  26.093  28.563  1.00  0.00     0.010 A 
ATOM     42  C   UNL A   1      41.544  26.937  26.721  1.00  0.00     0.010 A 
ATOM     43  C   UNL A   1      42.099  27.108  27.976  1.00  0.00    -0.014 A 
BRANCH  43  44
ATOM     44  C   UNL A   1      41.853  28.391  28.615  1.00  0.00     0.031 A 
ATOM     45  C   UNL A   1      42.832  29.456  28.283  1.00  0.00     0.074 A 
ATOM     46  C   UNL A   1      40.703  28.641  29.285  1.00  0.00     0.049 A 
ATOM     47  N   UNL A   1      43.664  30.031  29.085  1.00  0.00    -0.248 NA
ATOM     48  C   UNL A   1      43.000  29.844  26.873  1.00  0.00     0.031 C 
ATOM     49  C   UNL A   1      39.514  27.788  29.450  1.00  0.00     0.029 A 
ATOM     50  N   UNL A   1      40.314  29.788  29.899  1.00  0.00    -0.354 N 
ATOM     51  C   UNL A   1      44.343  30.981  28.327  1.00  0.00     0.074 A 
ATOM     52  C   UNL A   1      44.007  30.717  26.952  1.00  0.00     0.031 C 
ATOM     53  C   UNL A   1      38.471  28.526  29.889  1.00  0.00     0.029 A 
ATOM     54  C   UNL A   1      38.965  29.844  30.227  1.00  0.00     0.049 A 
ATOM     55  H   UNL A   1      40.938  30.523  30.095  1.00  0.00     0.167 HD
ATOM     56  C   UNL A   1      44.954  32.042  28.923  1.00  0.00     0.037 A 
ATOM     57  C   UNL A   1      38.302  30.912  30.734  1.00  0.00     0.037 A 
ATOM     58  C   UNL A   1      45.097  31.828  30.341  1.00  0.00     0.049 A 
ATOM     59  C   UNL A   1      39.327  31.805  31.334  1.00  0.00     0.074 A 
ATOM     60  C   UNL A   1      45.782  30.913  31.116  1.00  0.00     0.029 A 
ATOM     61  N   UNL A   1      44.152  32.384  31.169  1.00  0.00    -0.354 N 
ATOM     62  N   UNL A   1      40.045  31.474  32.372  1.00  0.00    -0.248 NA
ATOM     63  C   UNL A   1      39.899  32.833  30.476  1.00  0.00     0.031 C 
ATOM     64  C   UNL A   1      44.898  30.612  32.194  1.00  0.00     0.029 A 
ATOM     65  C   UNL A   1      43.765  31.416  32.059  1.00  0.00     0.049 A 
ATOM     66  H   UNL A   1      43.816  33.308  31.130  1.00  0.00     0.167 HD
ATOM     67  C   UNL A   1      41.325  31.925  32.076  1.00  0.00     0.074 A 
ATOM     68  C   UNL A   1      41.158  32.811  30.924  1.00  0.00     0.031 C 
ATOM     69  C   UNL A   1      42.428  31.312  32.598  1.00  0.00     0.037 A 
BRANCH  56  70
ATOM     70  C   UNL A   1      45.092  33.412  28.314  1.00  0.00     0.064 A 
ATOM     71  C   UNL A   1      46.381  33.944  28.108  1.00  0.00     0.173 A 
ATOM     72  C   UNL A   1      44.029  34.333  28.222  1.00  0.00     0.173 A 
ATOM     73  F   UNL A   1      47.465  33.156  28.183  1.00  0.00    -0.203 F 
ATOM     74  C   UNL A   1      46.592  35.311  27.918  1.00  0.00     0.198 A 
ATOM     75  C   UNL A   1      44.240  35.690  27.981  1.00  0.00     0.198 A 
ATOM     76  F   UNL A   1      42.762  33.986  28.478  1.00  0.00    -0.203 F 
ATOM     77  F   UNL A   1      47.842  35.790  27.859  1.00  0.00    -0.200 F 
ATOM     78  C   UNL A   1      45.522  36.185  27.864  1.00  0.00     0.200 A 
ATOM     79  F   UNL A   1      43.190  36.524  27.950  1.00  0.00    -0.200 F 
ATOM     80  F   UNL A   1      45.724  37.504  27.750  1.00  0.00    -0.200 F 
ENDBRANCH  56  70
BRANCH  57  81
ATOM     81  C   UNL A   1      36.935  31.367  30.385  1.00  0.00     0.064 A 
ATOM     82  C   UNL A   1      36.064  31.882  31.357  1.00  0.00     0.173 A 
ATOM     83  C   UNL A   1      36.558  31.562  29.041  1.00  0.00     0.173 A 
ATOM     84  F   UNL A   1      36.374  31.779  32.658  1.00  0.00    -0.203 F 
ATOM     85  C   UNL A   1      34.894  32.566  31.005  1.00  0.00     0.198 A 
ATOM     86  C   UNL A   1      35.393  32.244  28.691  1.00  0.00     0.198 A 
ATOM     87  F   UNL A   1      37.364  31.175  28.040  1.00  0.00    -0.203 F 
ATOM     88  F   UNL A   1      34.113  33.091  31.960  1.00  0.00    -0.200 F 
ATOM     89  C   UNL A   1      34.565  32.756  29.672  1.00  0.00     0.200 A 
ATOM     90  F   UNL A   1      35.108  32.455  27.397  1.00  0.00    -0.200 F 
ATOM     91  F   UNL A   1      33.478  33.464  29.335  1.00  0.00    -0.200 F 
ENDBRANCH  57  81
BRANCH  69  92
ATOM     92  C   UNL A   1      42.221  30.284  33.677  1.00  0.00     0.064 A 
ATOM     93  C   UNL A   1      42.058  28.908  33.435  1.00  0.00     0.173 A 
ATOM     94  C   UNL A   1      42.370  30.686  35.010  1.00  0.00     0.173 A 
ATOM     95  F   UNL A   1      42.001  28.428  32.189  1.00  0.00    -0.203 F 
ATOM     96  C   UNL A   1      42.017  27.986  34.482  1.00  0.00     0.198 A 
ATOM     97  C   UNL A   1      42.364  29.761  36.050  1.00  0.00     0.198 A 
ATOM     98  F   UNL A   1      42.585  31.979  35.298  1.00  0.00    -0.203 F 
ATOM     99  F   UNL A   1      41.863  26.678  34.222  1.00  0.00    -0.200 F 
ATOM    100  C   UNL A   1      42.181  28.413  35.787  1.00  0.00     0.200 A 
ATOM    101  F   UNL A   1      42.572  30.176  37.308  1.00  0.00    -0.200 F 
ATOM    102  F   UNL A   1      42.190  27.525  36.791  1.00  0.00    -0.200 F 
ENDBRANCH  69  92
ENDBRANCH  43  44
ENDBRANCH  35  38
ENDBRANCH  33  34
ENDBRANCH  32  33
ENDBRANCH  31  32
ENDBRANCH   1  31
TORSDOF 16
ENDMDL
MODEL 3
REMARK VINA RESULT:     -13.5      1.544      4.889
REMARK SMILES Cc1nccn1C1(C(=O)NCCCCCCNC(=O)c2ccc(-c3c4nc(c(-c5c(F)c(F)c(F)c(F)c5F)c5ccc([nH]5)c(-c5c(F)c(F)c(F)c(F)c5F)c5nc(c(-c6c(F)c(F)c(F)c(F)c6F)c6ccc3[nH]6)C=C5)C=C4)cc2)CCN(C(=O)[C@@H]2C[C@H]2c2ccccc2)CC1
REMARK SMILES IDX 13 1 12 2 11 3 10 4 8 5 9 6 7 8 83 9 98 10 84 11 97 12 85 13
REMARK SMILES IDX 86 14 87 15 6 16 1 17 2 18 3 19 4 20 5 21 88 22 89 23 90 24
REMARK SMILES IDX 91 25 92 26 96 27 93 28 95 29 94 30 14 31 15 32 16 33 17 34
REMARK SMILES IDX 18 35 19 37 20 38 21 39 82 40 22 41 81 42 23 43 24 44 25 45
REMARK SMILES IDX 75 46 26 47 80 48 74 49 76 50 27 51 79 52 73 53 72 54 28 56
REMARK SMILES IDX 60 57 40 58 59 59 41 60 44 61 58 62 77 63 42 64 43 65 57 67
REMARK SMILES IDX 78 68 45 69 29 70 30 71 38 72 31 73 32 74 36 75 39 76 33 77
REMARK SMILES IDX 34 78 37 79 35 80 61 81 62 82 70 83 63 84 64 85 68 86 71 87
REMARK SMILES IDX 65 88 66 89 69 90 67 91 46 92 47 93 55 94 48 95 49 96 53 97
REMARK SMILES IDX 56 98 50 99 51 100 54 101 52 102
REMARK H PARENT 10 7 17 36 76 55 44 66
REMARK Flexibility Score: inf
ROOT
ATOM      1  C   UNL A   1      34.067  29.914  26.868  1.00  0.00     0.002 C 
ENDROOT
BRANCH   1   2
ATOM      2  C   UNL A   1      33.113  28.867  27.463  1.00  0.00     0.021 C 
BRANCH   2   3
ATOM      3  C   UNL A   1      31.748  28.754  26.774  1.00  0.00     0.116 C 
BRANCH   3   4
ATOM      4  N   UNL A   1      31.184  27.428  26.945  1.00  0.00    -0.354 N 
ATOM      5  C   UNL A   1      31.242  26.265  26.226  1.00  0.00     0.246 C 
ATOM      6  O   UNL A   1      30.370  25.469  26.583  1.00  0.00    -0.272 OA
ATOM      7  H   UNL A   1      30.639  27.345  27.761  1.00  0.00     0.163 HD
BRANCH   5   8
ATOM      8  C   UNL A   1      32.292  25.998  25.055  1.00  0.00     0.127 C 
ATOM      9  C   UNL A   1      33.659  25.819  25.775  1.00  0.00     0.061 C 
ATOM     10  C   UNL A   1      31.773  24.745  24.302  1.00  0.00     0.061 C 
ATOM     11  C   UNL A   1      34.528  24.614  25.395  1.00  0.00     0.122 C 
ATOM     12  C   UNL A   1      32.905  23.980  23.656  1.00  0.00     0.122 C 
ATOM     13  N   UNL A   1      33.847  23.541  24.675  1.00  0.00    -0.342 N 
ATOM     14  C   UNL A   1      34.339  22.243  24.882  1.00  0.00     0.226 C 
ATOM     15  O   UNL A   1      35.380  22.065  25.513  1.00  0.00    -0.275 OA
BRANCH   8  16
ATOM     16  N   UNL A   1      32.381  27.132  24.042  1.00  0.00    -0.320 N 
ATOM     17  C   UNL A   1      29.903  27.649  23.277  1.00  0.00     0.087 C 
ATOM     18  C   UNL A   1      31.379  27.817  23.329  1.00  0.00     0.106 A 
ATOM     19  N   UNL A   1      31.893  28.793  22.603  1.00  0.00    -0.242 NA
ATOM     20  C   UNL A   1      33.224  28.779  22.812  1.00  0.00     0.131 A 
ATOM     21  C   UNL A   1      33.544  27.802  23.710  1.00  0.00     0.108 A 
ENDBRANCH   8  16
BRANCH  14  22
ATOM     22  C   UNL A   1      33.621  21.001  24.455  1.00  0.00     0.087 C 
ATOM     23  C   UNL A   1      32.180  20.772  24.839  1.00  0.00     0.023 C 
ATOM     24  C   UNL A   1      33.258  19.832  25.316  1.00  0.00     0.032 C 
BRANCH  24  25
ATOM     25  C   UNL A   1      33.335  18.394  24.934  1.00  0.00    -0.044 A 
ATOM     26  C   UNL A   1      32.450  17.475  25.517  1.00  0.00     0.004 A 
ATOM     27  C   UNL A   1      34.500  17.904  24.323  1.00  0.00     0.004 A 
ATOM     28  C   UNL A   1      32.778  16.123  25.596  1.00  0.00     0.000 A 
ATOM     29  C   UNL A   1      34.831  16.554  24.404  1.00  0.00     0.000 A 
ATOM     30  C   UNL A   1      33.984  15.670  25.067  1.00  0.00     0.000 A 
ENDBRANCH  24  25
ENDBRANCH  14  22
ENDBRANCH   5   8
ENDBRANCH   3   4
ENDBRANCH   2   3
ENDBRANCH   1   2
BRANCH   1  31
ATOM     31  C   UNL A   1      35.046  30.587  27.844  1.00  0.00     0.002 C 
BRANCH  31  32
ATOM     32  C   UNL A   1      35.304  32.088  27.648  1.00  0.00     0.021 C 
BRANCH  32  33
ATOM     33  C   UNL A   1      36.317  32.673  28.615  1.00  0.00     0.116 C 
BRANCH  33  34
ATOM     34  N   UNL A   1      35.774  32.946  29.950  1.00  0.00    -0.352 N 
ATOM     35  C   UNL A   1      35.888  32.161  31.094  1.00  0.00     0.251 C 
ATOM     36  H   UNL A   1      35.266  33.784  30.048  1.00  0.00     0.163 HD
ATOM     37  O   UNL A   1      35.129  32.278  32.036  1.00  0.00    -0.269 OA
BRANCH  35  38
ATOM     38  C   UNL A   1      36.991  31.182  31.132  1.00  0.00     0.039 A 
ATOM     39  C   UNL A   1      36.821  29.817  30.886  1.00  0.00     0.014 A 
ATOM     40  C   UNL A   1      38.252  31.713  31.347  1.00  0.00     0.014 A 
ATOM     41  C   UNL A   1      37.961  29.018  30.793  1.00  0.00     0.010 A 
ATOM     42  C   UNL A   1      39.342  31.002  30.953  1.00  0.00     0.010 A 
ATOM     43  C   UNL A   1      39.224  29.631  30.817  1.00  0.00    -0.014 A 
BRANCH  43  44
ATOM     44  C   UNL A   1      40.470  28.892  30.677  1.00  0.00     0.031 A 
ATOM     45  C   UNL A   1      41.185  28.620  31.948  1.00  0.00     0.074 A 
ATOM     46  C   UNL A   1      40.827  28.321  29.502  1.00  0.00     0.049 A 
ATOM     47  N   UNL A   1      42.336  29.076  32.312  1.00  0.00    -0.248 NA
ATOM     48  C   UNL A   1      40.492  27.853  32.996  1.00  0.00     0.031 C 
ATOM     49  C   UNL A   1      40.084  28.253  28.232  1.00  0.00     0.029 A 
ATOM     50  N   UNL A   1      41.929  27.578  29.223  1.00  0.00    -0.354 N 
ATOM     51  C   UNL A   1      42.602  28.518  33.558  1.00  0.00     0.074 A 
ATOM     52  C   UNL A   1      41.376  27.903  33.996  1.00  0.00     0.031 C 
ATOM     53  C   UNL A   1      40.631  27.318  27.425  1.00  0.00     0.029 A 
ATOM     54  C   UNL A   1      41.868  26.871  28.029  1.00  0.00     0.049 A 
ATOM     55  H   UNL A   1      42.710  27.542  29.822  1.00  0.00     0.167 HD
ATOM     56  C   UNL A   1      43.878  28.426  34.024  1.00  0.00     0.037 A 
ATOM     57  C   UNL A   1      42.775  25.971  27.578  1.00  0.00     0.037 A 
ATOM     58  C   UNL A   1      44.768  29.266  33.264  1.00  0.00     0.049 A 
ATOM     59  C   UNL A   1      44.042  26.242  28.302  1.00  0.00     0.074 A 
ATOM     60  C   UNL A   1      44.872  30.627  33.057  1.00  0.00     0.029 A 
ATOM     61  N   UNL A   1      45.491  28.679  32.253  1.00  0.00    -0.354 N 
ATOM     62  N   UNL A   1      44.729  27.343  28.157  1.00  0.00    -0.248 NA
ATOM     63  C   UNL A   1      44.264  25.524  29.549  1.00  0.00     0.031 C 
ATOM     64  C   UNL A   1      45.214  30.762  31.678  1.00  0.00     0.029 A 
ATOM     65  C   UNL A   1      45.378  29.482  31.147  1.00  0.00     0.049 A 
ATOM     66  H   UNL A   1      45.998  27.838  32.313  1.00  0.00     0.167 HD
ATOM     67  C   UNL A   1      45.133  27.681  29.442  1.00  0.00     0.074 A 
ATOM     68  C   UNL A   1      44.872  26.488  30.248  1.00  0.00     0.031 C 
ATOM     69  C   UNL A   1      45.362  28.981  29.792  1.00  0.00     0.037 A 
BRANCH  56  70
ATOM     70  C   UNL A   1      44.396  27.324  34.909  1.00  0.00     0.064 A 
ATOM     71  C   UNL A   1      44.261  25.986  34.489  1.00  0.00     0.173 A 
ATOM     72  C   UNL A   1      44.725  27.508  36.268  1.00  0.00     0.173 A 
ATOM     73  F   UNL A   1      43.941  25.698  33.218  1.00  0.00    -0.203 F 
ATOM     74  C   UNL A   1      44.356  24.919  35.385  1.00  0.00     0.198 A 
ATOM     75  C   UNL A   1      44.869  26.438  37.149  1.00  0.00     0.198 A 
ATOM     76  F   UNL A   1      44.801  28.723  36.824  1.00  0.00    -0.203 F 
ATOM     77  F   UNL A   1      44.089  23.674  34.968  1.00  0.00    -0.200 F 
ATOM     78  C   UNL A   1      44.650  25.146  36.717  1.00  0.00     0.200 A 
ATOM     79  F   UNL A   1      45.138  26.680  38.441  1.00  0.00    -0.200 F 
ATOM     80  F   UNL A   1      44.674  24.133  37.592  1.00  0.00    -0.200 F 
ENDBRANCH  56  70
BRANCH  57  81
ATOM     81  C   UNL A   1      42.498  24.693  26.879  1.00  0.00     0.064 A 
ATOM     82  C   UNL A   1      43.132  24.368  25.670  1.00  0.00     0.173 A 
ATOM     83  C   UNL A   1      41.813  23.646  27.528  1.00  0.00     0.173 A 
ATOM     84  F   UNL A   1      43.844  25.295  25.015  1.00  0.00    -0.203 F 
ATOM     85  C   UNL A   1      43.098  23.067  25.151  1.00  0.00     0.198 A 
ATOM     86  C   UNL A   1      41.779  22.351  27.011  1.00  0.00     0.198 A 
ATOM     87  F   UNL A   1      41.242  23.841  28.727  1.00  0.00    -0.203 F 
ATOM     88  F   UNL A   1      43.760  22.780  24.022  1.00  0.00    -0.200 F 
ATOM     89  C   UNL A   1      42.431  22.058  25.828  1.00  0.00     0.200 A 
ATOM     90  F   UNL A   1      41.164  21.376  27.696  1.00  0.00    -0.200 F 
ATOM     91  F   UNL A   1      42.449  20.801  25.363  1.00  0.00    -0.200 F 
ENDBRANCH  57  81
BRANCH  69  92
ATOM     92  C   UNL A   1      45.385  30.013  28.698  1.00  0.00     0.064 A 
ATOM     93  C   UNL A   1      44.288  30.823  28.352  1.00  0.00     0.173 A 
ATOM     94  C   UNL A   1      46.615  30.313  28.099  1.00  0.00     0.173 A 
ATOM     95  F   UNL A   1      43.101  30.665  28.945  1.00  0.00    -0.203 F 
ATOM     96  C   UNL A   1      44.414  31.862  27.430  1.00  0.00     0.198 A 
ATOM     97  C   UNL A   1      46.746  31.372  27.205  1.00  0.00     0.198 A 
ATOM     98  F   UNL A   1      47.710  29.611  28.432  1.00  0.00    -0.203 F 
ATOM     99  F   UNL A   1      43.350  32.621  27.121  1.00  0.00    -0.200 F 
ATOM    100  C   UNL A   1      45.646  32.142  26.866  1.00  0.00     0.200 A 
ATOM    101  F   UNL A   1      47.952  31.668  26.700  1.00  0.00    -0.200 F 
ATOM    102  F   UNL A   1      45.780  33.169  26.016  1.00  0.00    -0.200 F 
ENDBRANCH  69  92
ENDBRANCH  43  44
ENDBRANCH  35  38
ENDBRANCH  33  34
ENDBRANCH  32  33
ENDBRANCH  31  32
ENDBRANCH   1  31
TORSDOF 16
ENDMDL
