MODEL 1
REMARK VINA RESULT:     -12.5      0.000      0.000
REMARK SMILES COC(=O)c1c(NC(=O)[C@@H]2[C@H]3CC[C@H](CC3)[C@H]2C(=O)NCCCCCCNC(=O)c2ccc(-c3c4nc(c(-c5c(F)c(F)c(F)c(F)c5F)c5ccc([nH]5)c(-c5c(F)c(F)c(F)c(F)c5F)c5nc(c(-c6c(F)c(F)c(F)c(F)c6F)c6ccc3[nH]6)C=C5)C=C4)cc2)sc(C)c1-c1ccc(C)cc1
REMARK SMILES IDX 22 1 21 2 20 3 18 4 19 5 17 7 10 8 11 9 16 10 12 11 14 12
REMARK SMILES IDX 15 13 13 14 8 15 7 16 9 18 6 19 5 20 96 21 93 22 94 23 95 24
REMARK SMILES IDX 3 25 4 26 2 27 1 28 97 29 98 30 103 31 99 32 102 33 100 34
REMARK SMILES IDX 101 35 23 36 24 37 25 38 26 39 27 40 28 41 29 43 30 44 31 45
REMARK SMILES IDX 92 46 32 47 91 48 33 49 34 50 35 51 85 52 36 53 90 54 84 55
REMARK SMILES IDX 86 56 37 57 89 58 83 59 82 60 38 62 70 63 50 64 69 65 51 66
REMARK SMILES IDX 54 67 68 68 87 69 52 70 53 71 67 73 88 74 55 75 39 76 40 77
REMARK SMILES IDX 48 78 41 79 42 80 46 81 49 82 43 83 44 84 47 85 45 86 71 87
REMARK SMILES IDX 72 88 80 89 73 90 74 91 78 92 81 93 75 94 76 95 79 96 77 97
REMARK SMILES IDX 56 98 57 99 65 100 58 101 59 102 63 103 66 104 60 105 61 106
REMARK SMILES IDX 64 107 62 108
REMARK H PARENT 20 6 7 17 27 42 86 61 54 72
REMARK Flexibility Score: inf
ROOT
ATOM      1  C   UNL A   1      33.485  29.817  27.367  1.00  0.00     0.021 C 
ENDROOT
BRANCH   1   2
ATOM      2  C   UNL A   1      34.217  28.980  26.327  1.00  0.00     0.116 C 
BRANCH   2   3
ATOM      3  N   UNL A   1      34.106  27.555  26.501  1.00  0.00    -0.356 N 
ATOM      4  C   UNL A   1      33.654  26.589  25.657  1.00  0.00     0.224 C 
ATOM      5  O   UNL A   1      33.896  25.425  26.001  1.00  0.00    -0.275 OA
ATOM      6  H   UNL A   1      34.409  27.224  27.378  1.00  0.00     0.163 HD
BRANCH   4   7
ATOM      7  C   UNL A   1      32.879  26.843  24.345  1.00  0.00     0.094 C 
ATOM      8  C   UNL A   1      32.428  25.575  23.582  1.00  0.00     0.094 C 
ATOM      9  C   UNL A   1      30.978  25.780  23.039  1.00  0.00     0.002 C 
ATOM     10  C   UNL A   1      29.982  26.031  24.192  1.00  0.00     0.005 C 
ATOM     11  C   UNL A   1      30.912  27.050  22.165  1.00  0.00     0.005 C 
ATOM     12  C   UNL A   1      31.713  27.862  24.427  1.00  0.00     0.002 C 
ATOM     13  C   UNL A   1      30.418  27.262  25.005  1.00  0.00     0.005 C 
ATOM     14  C   UNL A   1      31.379  28.276  22.971  1.00  0.00     0.005 C 
BRANCH   8  15
ATOM     15  C   UNL A   1      33.370  25.219  22.425  1.00  0.00     0.229 C 
ATOM     16  N   UNL A   1      34.120  24.080  22.360  1.00  0.00    -0.317 N 
ATOM     17  H   UNL A   1      34.588  23.990  21.499  1.00  0.00     0.170 HD
ATOM     18  O   UNL A   1      33.449  25.967  21.441  1.00  0.00    -0.274 OA
BRANCH  16  19
ATOM     19  C   UNL A   1      34.379  23.021  23.215  1.00  0.00     0.111 A 
ATOM     20  C   UNL A   1      33.584  21.892  23.396  1.00  0.00     0.102 A 
ATOM     21  C   UNL A   1      34.253  20.911  24.239  1.00  0.00     0.012 A 
ATOM     22  S   UNL A   1      35.718  22.986  24.236  1.00  0.00    -0.122 S 
ATOM     23  C   UNL A   1      35.497  21.357  24.656  1.00  0.00     0.012 A 
ATOM     24  C   UNL A   1      36.595  20.670  25.398  1.00  0.00     0.057 C 
BRANCH  20  25
ATOM     25  C   UNL A   1      32.266  21.759  22.774  1.00  0.00     0.341 C 
ATOM     26  O   UNL A   1      32.058  21.036  21.807  1.00  0.00    -0.246 OA
BRANCH  25  27
ATOM     27  O   UNL A   1      31.329  22.565  23.346  1.00  0.00    -0.465 OA
ATOM     28  C   UNL A   1      31.189  22.435  24.759  1.00  0.00     0.282 C 
ENDBRANCH  25  27
ENDBRANCH  20  25
BRANCH  21  29
ATOM     29  C   UNL A   1      33.771  19.585  24.610  1.00  0.00    -0.016 A 
ATOM     30  C   UNL A   1      32.950  19.402  25.726  1.00  0.00     0.009 A 
ATOM     31  C   UNL A   1      34.166  18.475  23.853  1.00  0.00     0.009 A 
ATOM     32  C   UNL A   1      32.541  18.116  26.089  1.00  0.00     0.004 A 
ATOM     33  C   UNL A   1      33.744  17.194  24.208  1.00  0.00     0.004 A 
ATOM     34  C   UNL A   1      32.934  17.004  25.331  1.00  0.00    -0.051 A 
ATOM     35  C   UNL A   1      32.513  15.625  25.744  1.00  0.00     0.044 C 
ENDBRANCH  21  29
ENDBRANCH  16  19
ENDBRANCH   8  15
ENDBRANCH   4   7
ENDBRANCH   2   3
ENDBRANCH   1   2
BRANCH   1  36
ATOM     36  C   UNL A   1      31.970  29.871  27.201  1.00  0.00     0.002 C 
BRANCH  36  37
ATOM     37  C   UNL A   1      31.447  30.934  26.229  1.00  0.00     0.002 C 
BRANCH  37  38
ATOM     38  C   UNL A   1      31.341  32.360  26.784  1.00  0.00     0.021 C 
BRANCH  38  39
ATOM     39  C   UNL A   1      32.663  33.113  26.912  1.00  0.00     0.116 C 
BRANCH  39  40
ATOM     40  N   UNL A   1      32.515  34.356  27.649  1.00  0.00    -0.352 N 
ATOM     41  C   UNL A   1      33.112  34.785  28.802  1.00  0.00     0.251 C 
ATOM     42  H   UNL A   1      31.881  34.996  27.251  1.00  0.00     0.163 HD
ATOM     43  O   UNL A   1      32.680  35.785  29.371  1.00  0.00    -0.269 OA
BRANCH  41  44
ATOM     44  C   UNL A   1      34.264  34.060  29.379  1.00  0.00     0.039 A 
ATOM     45  C   UNL A   1      35.551  34.486  29.041  1.00  0.00     0.014 A 
ATOM     46  C   UNL A   1      34.092  32.939  30.196  1.00  0.00     0.014 A 
ATOM     47  C   UNL A   1      36.661  33.815  29.555  1.00  0.00     0.010 A 
ATOM     48  C   UNL A   1      35.201  32.318  30.771  1.00  0.00     0.010 A 
ATOM     49  C   UNL A   1      36.497  32.745  30.449  1.00  0.00    -0.014 A 
BRANCH  49  50
ATOM     50  C   UNL A   1      37.683  32.089  31.060  1.00  0.00     0.031 A 
ATOM     51  C   UNL A   1      38.155  32.477  32.435  1.00  0.00     0.074 A 
ATOM     52  C   UNL A   1      38.348  31.153  30.355  1.00  0.00     0.049 A 
ATOM     53  N   UNL A   1      39.159  31.999  33.128  1.00  0.00    -0.248 NA
ATOM     54  C   UNL A   1      37.422  33.557  33.116  1.00  0.00     0.031 C 
ATOM     55  C   UNL A   1      38.021  30.734  28.990  1.00  0.00     0.029 A 
ATOM     56  N   UNL A   1      39.433  30.381  30.685  1.00  0.00    -0.354 N 
ATOM     57  C   UNL A   1      39.181  32.720  34.315  1.00  0.00     0.074 A 
ATOM     58  C   UNL A   1      38.125  33.704  34.231  1.00  0.00     0.031 C 
ATOM     59  C   UNL A   1      38.863  29.759  28.614  1.00  0.00     0.029 A 
ATOM     60  C   UNL A   1      39.815  29.512  29.691  1.00  0.00     0.049 A 
ATOM     61  H   UNL A   1      39.895  30.443  31.552  1.00  0.00     0.167 HD
ATOM     62  C   UNL A   1      39.996  32.560  35.385  1.00  0.00     0.037 A 
ATOM     63  C   UNL A   1      40.822  28.619  29.652  1.00  0.00     0.037 A 
ATOM     64  C   UNL A   1      41.029  31.559  35.474  1.00  0.00     0.049 A 
ATOM     65  C   UNL A   1      41.706  28.465  30.861  1.00  0.00     0.074 A 
ATOM     66  C   UNL A   1      41.857  31.270  36.544  1.00  0.00     0.029 A 
ATOM     67  N   UNL A   1      41.381  30.690  34.451  1.00  0.00    -0.354 N 
ATOM     68  N   UNL A   1      41.653  29.089  32.013  1.00  0.00    -0.248 NA
ATOM     69  C   UNL A   1      42.783  27.470  30.768  1.00  0.00     0.031 C 
ATOM     70  C   UNL A   1      42.753  30.271  36.149  1.00  0.00     0.029 A 
ATOM     71  C   UNL A   1      42.437  29.888  34.856  1.00  0.00     0.049 A 
ATOM     72  H   UNL A   1      40.946  30.650  33.569  1.00  0.00     0.167 HD
ATOM     73  C   UNL A   1      42.667  28.542  32.789  1.00  0.00     0.074 A 
ATOM     74  C   UNL A   1      43.296  27.514  31.987  1.00  0.00     0.031 C 
ATOM     75  C   UNL A   1      43.049  28.866  34.049  1.00  0.00     0.037 A 
BRANCH  62  76
ATOM     76  C   UNL A   1      39.813  33.477  36.560  1.00  0.00     0.064 A 
ATOM     77  C   UNL A   1      38.952  33.156  37.620  1.00  0.00     0.173 A 
ATOM     78  C   UNL A   1      40.580  34.648  36.670  1.00  0.00     0.173 A 
ATOM     79  F   UNL A   1      38.189  32.055  37.562  1.00  0.00    -0.203 F 
ATOM     80  C   UNL A   1      38.858  33.979  38.741  1.00  0.00     0.198 A 
ATOM     81  C   UNL A   1      40.505  35.451  37.805  1.00  0.00     0.198 A 
ATOM     82  F   UNL A   1      41.422  35.000  35.687  1.00  0.00    -0.203 F 
ATOM     83  F   UNL A   1      38.005  33.668  39.728  1.00  0.00    -0.200 F 
ATOM     84  C   UNL A   1      39.643  35.118  38.838  1.00  0.00     0.200 A 
ATOM     85  F   UNL A   1      41.276  36.543  37.903  1.00  0.00    -0.200 F 
ATOM     86  F   UNL A   1      39.568  35.895  39.927  1.00  0.00    -0.200 F 
ENDBRANCH  62  76
BRANCH  63  87
ATOM     87  C   UNL A   1      41.055  27.796  28.434  1.00  0.00     0.064 A 
ATOM     88  C   UNL A   1      41.874  28.255  27.392  1.00  0.00     0.173 A 
ATOM     89  C   UNL A   1      40.421  26.556  28.262  1.00  0.00     0.173 A 
ATOM     90  F   UNL A   1      42.490  29.442  27.499  1.00  0.00    -0.203 F 
ATOM     91  C   UNL A   1      42.013  27.532  26.210  1.00  0.00     0.198 A 
ATOM     92  C   UNL A   1      40.592  25.814  27.094  1.00  0.00     0.198 A 
ATOM     93  F   UNL A   1      39.634  26.063  29.228  1.00  0.00    -0.203 F 
ATOM     94  F   UNL A   1      42.739  28.033  25.202  1.00  0.00    -0.200 F 
ATOM     95  C   UNL A   1      41.374  26.310  26.062  1.00  0.00     0.200 A 
ATOM     96  F   UNL A   1      39.988  24.626  26.966  1.00  0.00    -0.200 F 
ATOM     97  F   UNL A   1      41.499  25.618  24.922  1.00  0.00    -0.200 F 
ENDBRANCH  63  87
BRANCH  75  98
ATOM     98  C   UNL A   1      44.176  28.070  34.646  1.00  0.00     0.064 A 
ATOM     99  C   UNL A   1      45.509  28.503  34.572  1.00  0.00     0.173 A 
ATOM    100  C   UNL A   1      43.917  26.859  35.306  1.00  0.00     0.173 A 
ATOM    101  F   UNL A   1      45.814  29.649  33.942  1.00  0.00    -0.203 F 
ATOM    102  C   UNL A   1      46.543  27.730  35.092  1.00  0.00     0.198 A 
ATOM    103  C   UNL A   1      44.951  26.108  35.860  1.00  0.00     0.198 A 
ATOM    104  F   UNL A   1      42.661  26.403  35.418  1.00  0.00    -0.203 F 
ATOM    105  F   UNL A   1      47.815  28.128  34.942  1.00  0.00    -0.200 F 
ATOM    106  C   UNL A   1      46.263  26.537  35.740  1.00  0.00     0.200 A 
ATOM    107  F   UNL A   1      44.676  24.965  36.505  1.00  0.00    -0.200 F 
ATOM    108  F   UNL A   1      47.261  25.793  36.239  1.00  0.00    -0.200 F 
ENDBRANCH  75  98
ENDBRANCH  49  50
ENDBRANCH  41  44
ENDBRANCH  39  40
ENDBRANCH  38  39
ENDBRANCH  37  38
ENDBRANCH  36  37
ENDBRANCH   1  36
TORSDOF 18
ENDMDL
MODEL 2
REMARK VINA RESULT:     -12.5      2.182      5.197
REMARK SMILES COC(=O)c1c(NC(=O)[C@@H]2[C@H]3CC[C@H](CC3)[C@H]2C(=O)NCCCCCCNC(=O)c2ccc(-c3c4nc(c(-c5c(F)c(F)c(F)c(F)c5F)c5ccc([nH]5)c(-c5c(F)c(F)c(F)c(F)c5F)c5nc(c(-c6c(F)c(F)c(F)c(F)c6F)c6ccc3[nH]6)C=C5)C=C4)cc2)sc(C)c1-c1ccc(C)cc1
REMARK SMILES IDX 22 1 21 2 20 3 18 4 19 5 17 7 10 8 11 9 16 10 12 11 14 12
REMARK SMILES IDX 15 13 13 14 8 15 7 16 9 18 6 19 5 20 96 21 93 22 94 23 95 24
REMARK SMILES IDX 3 25 4 26 2 27 1 28 97 29 98 30 103 31 99 32 102 33 100 34
REMARK SMILES IDX 101 35 23 36 24 37 25 38 26 39 27 40 28 41 29 43 30 44 31 45
REMARK SMILES IDX 92 46 32 47 91 48 33 49 34 50 35 51 85 52 36 53 90 54 84 55
REMARK SMILES IDX 86 56 37 57 89 58 83 59 82 60 38 62 70 63 50 64 69 65 51 66
REMARK SMILES IDX 54 67 68 68 87 69 52 70 53 71 67 73 88 74 55 75 39 76 40 77
REMARK SMILES IDX 48 78 41 79 42 80 46 81 49 82 43 83 44 84 47 85 45 86 71 87
REMARK SMILES IDX 72 88 80 89 73 90 74 91 78 92 81 93 75 94 76 95 79 96 77 97
REMARK SMILES IDX 56 98 57 99 65 100 58 101 59 102 63 103 66 104 60 105 61 106
REMARK SMILES IDX 64 107 62 108
REMARK H PARENT 20 6 7 17 27 42 86 61 54 72
REMARK Flexibility Score: inf
ROOT
ATOM      1  C   UNL A   1      31.252  24.638  26.255  1.00  0.00     0.021 C 
ENDROOT
BRANCH   1   2
ATOM      2  C   UNL A   1      31.805  23.367  26.885  1.00  0.00     0.116 C 
BRANCH   2   3
ATOM      3  N   UNL A   1      31.519  22.153  26.167  1.00  0.00    -0.356 N 
ATOM      4  C   UNL A   1      32.266  21.454  25.270  1.00  0.00     0.224 C 
ATOM      5  O   UNL A   1      31.847  20.323  24.995  1.00  0.00    -0.275 OA
ATOM      6  H   UNL A   1      30.634  21.763  26.355  1.00  0.00     0.163 HD
BRANCH   4   7
ATOM      7  C   UNL A   1      33.556  21.966  24.593  1.00  0.00     0.094 C 
ATOM      8  C   UNL A   1      33.525  23.442  24.130  1.00  0.00     0.094 C 
ATOM      9  C   UNL A   1      34.890  24.123  24.461  1.00  0.00     0.002 C 
ATOM     10  C   UNL A   1      35.172  24.098  25.978  1.00  0.00     0.005 C 
ATOM     11  C   UNL A   1      36.049  23.329  23.822  1.00  0.00     0.005 C 
ATOM     12  C   UNL A   1      34.884  21.667  25.338  1.00  0.00     0.002 C 
ATOM     13  C   UNL A   1      35.170  22.647  26.490  1.00  0.00     0.005 C 
ATOM     14  C   UNL A   1      36.027  21.869  24.311  1.00  0.00     0.005 C 
BRANCH   8  15
ATOM     15  C   UNL A   1      33.223  23.582  22.633  1.00  0.00     0.229 C 
ATOM     16  N   UNL A   1      32.324  24.461  22.103  1.00  0.00    -0.317 N 
ATOM     17  H   UNL A   1      32.340  24.464  21.118  1.00  0.00     0.170 HD
ATOM     18  O   UNL A   1      33.853  22.901  21.811  1.00  0.00    -0.274 OA
BRANCH  16  19
ATOM     19  C   UNL A   1      31.395  25.351  22.618  1.00  0.00     0.111 A 
ATOM     20  C   UNL A   1      31.442  26.739  22.529  1.00  0.00     0.102 A 
ATOM     21  C   UNL A   1      30.214  27.338  23.030  1.00  0.00     0.012 A 
ATOM     22  S   UNL A   1      30.056  24.849  23.510  1.00  0.00    -0.122 S 
ATOM     23  C   UNL A   1      29.322  26.378  23.480  1.00  0.00     0.012 A 
ATOM     24  C   UNL A   1      27.905  26.483  23.940  1.00  0.00     0.057 C 
BRANCH  20  25
ATOM     25  C   UNL A   1      32.597  27.445  21.972  1.00  0.00     0.341 C 
ATOM     26  O   UNL A   1      33.199  27.056  20.979  1.00  0.00    -0.246 OA
BRANCH  25  27
ATOM     27  O   UNL A   1      32.957  28.532  22.711  1.00  0.00    -0.465 OA
ATOM     28  C   UNL A   1      34.317  28.939  22.580  1.00  0.00     0.282 C 
ENDBRANCH  25  27
ENDBRANCH  20  25
BRANCH  21  29
ATOM     29  C   UNL A   1      29.861  28.753  23.051  1.00  0.00    -0.016 A 
ATOM     30  C   UNL A   1      29.195  29.347  21.975  1.00  0.00     0.009 A 
ATOM     31  C   UNL A   1      30.225  29.535  24.153  1.00  0.00     0.009 A 
ATOM     32  C   UNL A   1      28.910  30.715  21.998  1.00  0.00     0.004 A 
ATOM     33  C   UNL A   1      29.927  30.897  24.181  1.00  0.00     0.004 A 
ATOM     34  C   UNL A   1      29.273  31.499  23.102  1.00  0.00    -0.051 A 
ATOM     35  C   UNL A   1      28.988  32.971  23.106  1.00  0.00     0.044 C 
ENDBRANCH  21  29
ENDBRANCH  16  19
ENDBRANCH   8  15
ENDBRANCH   4   7
ENDBRANCH   2   3
ENDBRANCH   1   2
BRANCH   1  36
ATOM     36  C   UNL A   1      31.644  25.931  26.962  1.00  0.00     0.002 C 
BRANCH  36  37
ATOM     37  C   UNL A   1      32.357  26.972  26.092  1.00  0.00     0.002 C 
BRANCH  37  38
ATOM     38  C   UNL A   1      32.364  28.408  26.629  1.00  0.00     0.021 C 
BRANCH  38  39
ATOM     39  C   UNL A   1      33.343  29.359  25.944  1.00  0.00     0.116 C 
BRANCH  39  40
ATOM     40  N   UNL A   1      33.118  30.743  26.323  1.00  0.00    -0.352 N 
ATOM     41  C   UNL A   1      33.710  31.512  27.286  1.00  0.00     0.251 C 
ATOM     42  H   UNL A   1      32.423  31.204  25.797  1.00  0.00     0.163 HD
ATOM     43  O   UNL A   1      33.216  32.597  27.582  1.00  0.00    -0.269 OA
BRANCH  41  44
ATOM     44  C   UNL A   1      34.931  31.054  27.981  1.00  0.00     0.039 A 
ATOM     45  C   UNL A   1      36.047  31.895  27.984  1.00  0.00     0.014 A 
ATOM     46  C   UNL A   1      35.009  29.792  28.576  1.00  0.00     0.014 A 
ATOM     47  C   UNL A   1      37.222  31.489  28.616  1.00  0.00     0.010 A 
ATOM     48  C   UNL A   1      36.157  29.419  29.275  1.00  0.00     0.010 A 
ATOM     49  C   UNL A   1      37.278  30.260  29.296  1.00  0.00    -0.014 A 
BRANCH  49  50
ATOM     50  C   UNL A   1      38.503  29.870  30.041  1.00  0.00     0.031 A 
ATOM     51  C   UNL A   1      38.769  30.406  31.421  1.00  0.00     0.074 A 
ATOM     52  C   UNL A   1      39.391  29.044  29.453  1.00  0.00     0.049 A 
ATOM     53  N   UNL A   1      39.776  30.160  32.223  1.00  0.00    -0.248 NA
ATOM     54  C   UNL A   1      37.791  31.360  31.970  1.00  0.00     0.031 C 
ATOM     55  C   UNL A   1      39.273  28.506  28.096  1.00  0.00     0.029 A 
ATOM     56  N   UNL A   1      40.565  28.507  29.919  1.00  0.00    -0.354 N 
ATOM     57  C   UNL A   1      39.557  30.929  33.358  1.00  0.00     0.074 A 
ATOM     58  C   UNL A   1      38.350  31.690  33.127  1.00  0.00     0.031 C 
ATOM     59  C   UNL A   1      40.310  27.691  27.852  1.00  0.00     0.029 A 
ATOM     60  C   UNL A   1      41.189  27.679  29.016  1.00  0.00     0.049 A 
ATOM     61  H   UNL A   1      40.926  28.697  30.814  1.00  0.00     0.167 HD
ATOM     62  C   UNL A   1      40.286  30.977  34.499  1.00  0.00     0.037 A 
ATOM     63  C   UNL A   1      42.342  26.992  29.116  1.00  0.00     0.037 A 
ATOM     64  C   UNL A   1      41.473  30.194  34.735  1.00  0.00     0.049 A 
ATOM     65  C   UNL A   1      43.125  27.066  30.400  1.00  0.00     0.074 A 
ATOM     66  C   UNL A   1      42.240  30.119  35.885  1.00  0.00     0.029 A 
ATOM     67  N   UNL A   1      42.071  29.360  33.801  1.00  0.00    -0.354 N 
ATOM     68  N   UNL A   1      42.854  27.723  31.501  1.00  0.00    -0.248 NA
ATOM     69  C   UNL A   1      44.371  26.289  30.458  1.00  0.00     0.031 C 
ATOM     70  C   UNL A   1      43.336  29.289  35.628  1.00  0.00     0.029 A 
ATOM     71  C   UNL A   1      43.215  28.792  34.340  1.00  0.00     0.049 A 
ATOM     72  H   UNL A   1      41.733  29.195  32.892  1.00  0.00     0.167 HD
ATOM     73  C   UNL A   1      43.876  27.416  32.390  1.00  0.00     0.074 A 
ATOM     74  C   UNL A   1      44.754  26.487  31.709  1.00  0.00     0.031 C 
ATOM     75  C   UNL A   1      44.076  27.866  33.653  1.00  0.00     0.037 A 
BRANCH  62  76
ATOM     76  C   UNL A   1      39.832  31.898  35.594  1.00  0.00     0.064 A 
ATOM     77  C   UNL A   1      40.352  33.195  35.732  1.00  0.00     0.173 A 
ATOM     78  C   UNL A   1      38.796  31.513  36.459  1.00  0.00     0.173 A 
ATOM     79  F   UNL A   1      41.350  33.610  34.938  1.00  0.00    -0.203 F 
ATOM     80  C   UNL A   1      39.859  34.065  36.702  1.00  0.00     0.198 A 
ATOM     81  C   UNL A   1      38.286  32.396  37.407  1.00  0.00     0.198 A 
ATOM     82  F   UNL A   1      38.260  30.287  36.369  1.00  0.00    -0.203 F 
ATOM     83  F   UNL A   1      40.393  35.288  36.835  1.00  0.00    -0.200 F 
ATOM     84  C   UNL A   1      38.819  33.670  37.529  1.00  0.00     0.200 A 
ATOM     85  F   UNL A   1      37.270  32.018  38.195  1.00  0.00    -0.200 F 
ATOM     86  F   UNL A   1      38.331  34.518  38.446  1.00  0.00    -0.200 F 
ENDBRANCH  62  76
BRANCH  63  87
ATOM     87  C   UNL A   1      42.833  26.170  27.976  1.00  0.00     0.064 A 
ATOM     88  C   UNL A   1      43.664  26.719  26.989  1.00  0.00     0.173 A 
ATOM     89  C   UNL A   1      42.438  24.833  27.821  1.00  0.00     0.173 A 
ATOM     90  F   UNL A   1      44.056  27.999  27.080  1.00  0.00    -0.203 F 
ATOM     91  C   UNL A   1      44.042  25.981  25.869  1.00  0.00     0.198 A 
ATOM     92  C   UNL A   1      42.849  24.082  26.721  1.00  0.00     0.198 A 
ATOM     93  F   UNL A   1      41.651  24.253  28.738  1.00  0.00    -0.203 F 
ATOM     94  F   UNL A   1      44.771  26.556  24.905  1.00  0.00    -0.200 F 
ATOM     95  C   UNL A   1      43.636  24.661  25.737  1.00  0.00     0.200 A 
ATOM     96  F   UNL A   1      42.470  22.802  26.608  1.00  0.00    -0.200 F 
ATOM     97  F   UNL A   1      43.991  23.953  24.657  1.00  0.00    -0.200 F 
ENDBRANCH  63  87
BRANCH  75  98
ATOM     98  C   UNL A   1      45.270  27.327  34.389  1.00  0.00     0.064 A 
ATOM     99  C   UNL A   1      46.517  27.971  34.351  1.00  0.00     0.173 A 
ATOM    100  C   UNL A   1      45.165  26.151  35.148  1.00  0.00     0.173 A 
ATOM    101  F   UNL A   1      46.676  29.093  33.631  1.00  0.00    -0.203 F 
ATOM    102  C   UNL A   1      47.622  27.432  35.002  1.00  0.00     0.198 A 
ATOM    103  C   UNL A   1      46.264  25.637  35.831  1.00  0.00     0.198 A 
ATOM    104  F   UNL A   1      43.995  25.500  35.230  1.00  0.00    -0.203 F 
ATOM    105  F   UNL A   1      48.820  28.025  34.888  1.00  0.00    -0.200 F 
ATOM    106  C   UNL A   1      47.494  26.269  35.746  1.00  0.00     0.200 A 
ATOM    107  F   UNL A   1      46.132  24.523  36.567  1.00  0.00    -0.200 F 
ATOM    108  F   UNL A   1      48.560  25.751  36.371  1.00  0.00    -0.200 F 
ENDBRANCH  75  98
ENDBRANCH  49  50
ENDBRANCH  41  44
ENDBRANCH  39  40
ENDBRANCH  38  39
ENDBRANCH  37  38
ENDBRANCH  36  37
ENDBRANCH   1  36
TORSDOF 18
ENDMDL
MODEL 3
REMARK VINA RESULT:     -12.2      2.160      8.534
REMARK SMILES COC(=O)c1c(NC(=O)[C@@H]2[C@H]3CC[C@H](CC3)[C@H]2C(=O)NCCCCCCNC(=O)c2ccc(-c3c4nc(c(-c5c(F)c(F)c(F)c(F)c5F)c5ccc([nH]5)c(-c5c(F)c(F)c(F)c(F)c5F)c5nc(c(-c6c(F)c(F)c(F)c(F)c6F)c6ccc3[nH]6)C=C5)C=C4)cc2)sc(C)c1-c1ccc(C)cc1
REMARK SMILES IDX 22 1 21 2 20 3 18 4 19 5 17 7 10 8 11 9 16 10 12 11 14 12
REMARK SMILES IDX 15 13 13 14 8 15 7 16 9 18 6 19 5 20 96 21 93 22 94 23 95 24
REMARK SMILES IDX 3 25 4 26 2 27 1 28 97 29 98 30 103 31 99 32 102 33 100 34
REMARK SMILES IDX 101 35 23 36 24 37 25 38 26 39 27 40 28 41 29 43 30 44 31 45
REMARK SMILES IDX 92 46 32 47 91 48 33 49 34 50 35 51 85 52 36 53 90 54 84 55
REMARK SMILES IDX 86 56 37 57 89 58 83 59 82 60 38 62 70 63 50 64 69 65 51 66
REMARK SMILES IDX 54 67 68 68 87 69 52 70 53 71 67 73 88 74 55 75 39 76 40 77
REMARK SMILES IDX 48 78 41 79 42 80 46 81 49 82 43 83 44 84 47 85 45 86 71 87
REMARK SMILES IDX 72 88 80 89 73 90 74 91 78 92 81 93 75 94 76 95 79 96 77 97
REMARK SMILES IDX 56 98 57 99 65 100 58 101 59 102 63 103 66 104 60 105 61 106
REMARK SMILES IDX 64 107 62 108
REMARK H PARENT 20 6 7 17 27 42 86 61 54 72
REMARK Flexibility Score: inf
ROOT
ATOM      1  C   UNL A   1      31.243  24.304  26.197  1.00  0.00     0.021 C 
ENDROOT
BRANCH   1   2
ATOM      2  C   UNL A   1      31.830  23.041  26.811  1.00  0.00     0.116 C 
BRANCH   2   3
ATOM      3  N   UNL A   1      31.616  21.836  26.053  1.00  0.00    -0.356 N 
ATOM      4  C   UNL A   1      32.403  21.212  25.135  1.00  0.00     0.224 C 
ATOM      5  O   UNL A   1      32.051  20.067  24.824  1.00  0.00    -0.275 OA
ATOM      6  H   UNL A   1      30.757  21.388  26.229  1.00  0.00     0.163 HD
BRANCH   4   7
ATOM      7  C   UNL A   1      33.658  21.822  24.476  1.00  0.00     0.094 C 
ATOM      8  C   UNL A   1      33.537  23.307  24.059  1.00  0.00     0.094 C 
ATOM      9  C   UNL A   1      34.859  24.059  24.412  1.00  0.00     0.002 C 
ATOM     10  C   UNL A   1      35.143  24.004  25.928  1.00  0.00     0.005 C 
ATOM     11  C   UNL A   1      36.063  23.357  23.749  1.00  0.00     0.005 C 
ATOM     12  C   UNL A   1      35.003  21.581  25.212  1.00  0.00     0.002 C 
ATOM     13  C   UNL A   1      35.230  22.540  26.394  1.00  0.00     0.005 C 
ATOM     14  C   UNL A   1      36.130  21.884  24.193  1.00  0.00     0.005 C 
BRANCH   8  15
ATOM     15  C   UNL A   1      33.227  23.475  22.566  1.00  0.00     0.229 C 
ATOM     16  N   UNL A   1      32.351  24.389  22.055  1.00  0.00    -0.317 N 
ATOM     17  H   UNL A   1      32.358  24.404  21.071  1.00  0.00     0.170 HD
ATOM     18  O   UNL A   1      33.826  22.785  21.730  1.00  0.00    -0.274 OA
BRANCH  16  19
ATOM     19  C   UNL A   1      31.456  25.302  22.591  1.00  0.00     0.111 A 
ATOM     20  C   UNL A   1      31.539  26.688  22.504  1.00  0.00     0.102 A 
ATOM     21  C   UNL A   1      30.336  27.318  23.030  1.00  0.00     0.012 A 
ATOM     22  S   UNL A   1      30.121  24.833  23.506  1.00  0.00    -0.122 S 
ATOM     23  C   UNL A   1      29.428  26.381  23.494  1.00  0.00     0.012 A 
ATOM     24  C   UNL A   1      28.023  26.523  23.981  1.00  0.00     0.057 C 
BRANCH  20  25
ATOM     25  C   UNL A   1      32.702  27.365  21.928  1.00  0.00     0.341 C 
ATOM     26  O   UNL A   1      33.434  26.839  21.099  1.00  0.00    -0.246 OA
BRANCH  25  27
ATOM     27  O   UNL A   1      32.907  28.603  22.457  1.00  0.00    -0.465 OA
ATOM     28  C   UNL A   1      34.266  28.931  22.741  1.00  0.00     0.282 C 
ENDBRANCH  25  27
ENDBRANCH  20  25
BRANCH  21  29
ATOM     29  C   UNL A   1      30.022  28.743  23.061  1.00  0.00    -0.016 A 
ATOM     30  C   UNL A   1      30.273  29.512  24.201  1.00  0.00     0.009 A 
ATOM     31  C   UNL A   1      29.430  29.340  21.942  1.00  0.00     0.009 A 
ATOM     32  C   UNL A   1      29.919  30.864  24.223  1.00  0.00     0.004 A 
ATOM     33  C   UNL A   1      29.092  30.693  21.960  1.00  0.00     0.004 A 
ATOM     34  C   UNL A   1      29.328  31.463  23.102  1.00  0.00    -0.051 A 
ATOM     35  C   UNL A   1      28.926  32.908  23.145  1.00  0.00     0.044 C 
ENDBRANCH  21  29
ENDBRANCH  16  19
ENDBRANCH   8  15
ENDBRANCH   4   7
ENDBRANCH   2   3
ENDBRANCH   1   2
BRANCH   1  36
ATOM     36  C   UNL A   1      31.608  25.600  26.914  1.00  0.00     0.002 C 
BRANCH  36  37
ATOM     37  C   UNL A   1      32.435  26.599  26.097  1.00  0.00     0.002 C 
BRANCH  37  38
ATOM     38  C   UNL A   1      32.525  28.021  26.664  1.00  0.00     0.021 C 
BRANCH  38  39
ATOM     39  C   UNL A   1      33.514  28.945  25.958  1.00  0.00     0.116 C 
BRANCH  39  40
ATOM     40  N   UNL A   1      33.192  30.347  26.158  1.00  0.00    -0.352 N 
ATOM     41  C   UNL A   1      33.691  31.260  27.046  1.00  0.00     0.251 C 
ATOM     42  H   UNL A   1      32.499  30.700  25.552  1.00  0.00     0.163 HD
ATOM     43  O   UNL A   1      33.122  32.339  27.189  1.00  0.00    -0.269 OA
BRANCH  41  44
ATOM     44  C   UNL A   1      34.901  30.963  27.842  1.00  0.00     0.039 A 
ATOM     45  C   UNL A   1      34.932  29.781  28.585  1.00  0.00     0.014 A 
ATOM     46  C   UNL A   1      35.973  31.857  27.909  1.00  0.00     0.014 A 
ATOM     47  C   UNL A   1      36.051  29.476  29.359  1.00  0.00     0.010 A 
ATOM     48  C   UNL A   1      37.124  31.515  28.620  1.00  0.00     0.010 A 
ATOM     49  C   UNL A   1      37.171  30.325  29.360  1.00  0.00    -0.014 A 
BRANCH  49  50
ATOM     50  C   UNL A   1      38.393  29.954  30.118  1.00  0.00     0.031 A 
ATOM     51  C   UNL A   1      39.392  28.985  29.545  1.00  0.00     0.074 A 
ATOM     52  C   UNL A   1      38.589  30.481  31.343  1.00  0.00     0.049 A 
ATOM     53  N   UNL A   1      40.520  28.561  30.059  1.00  0.00    -0.248 NA
ATOM     54  C   UNL A   1      39.076  28.395  28.233  1.00  0.00     0.031 C 
ATOM     55  C   UNL A   1      37.664  31.385  32.030  1.00  0.00     0.029 A 
ATOM     56  N   UNL A   1      39.627  30.337  32.229  1.00  0.00    -0.354 N 
ATOM     57  C   UNL A   1      41.040  27.656  29.142  1.00  0.00     0.074 A 
ATOM     58  C   UNL A   1      40.084  27.550  28.063  1.00  0.00     0.031 C 
ATOM     59  C   UNL A   1      38.191  31.743  33.210  1.00  0.00     0.029 A 
ATOM     60  C   UNL A   1      39.470  31.063  33.386  1.00  0.00     0.049 A 
ATOM     61  H   UNL A   1      40.411  29.769  32.052  1.00  0.00     0.167 HD
ATOM     62  C   UNL A   1      42.220  26.991  29.190  1.00  0.00     0.037 A 
ATOM     63  C   UNL A   1      40.265  31.164  34.467  1.00  0.00     0.037 A 
ATOM     64  C   UNL A   1      43.182  27.122  30.255  1.00  0.00     0.049 A 
ATOM     65  C   UNL A   1      41.571  30.414  34.483  1.00  0.00     0.074 A 
ATOM     66  C   UNL A   1      44.437  26.547  30.357  1.00  0.00     0.029 A 
ATOM     67  N   UNL A   1      42.992  27.873  31.406  1.00  0.00    -0.354 N 
ATOM     68  N   UNL A   1      42.093  29.637  33.566  1.00  0.00    -0.248 NA
ATOM     69  C   UNL A   1      42.404  30.567  35.683  1.00  0.00     0.031 C 
ATOM     70  C   UNL A   1      44.980  26.898  31.597  1.00  0.00     0.029 A 
ATOM     71  C   UNL A   1      44.094  27.748  32.237  1.00  0.00     0.049 A 
ATOM     72  H   UNL A   1      42.194  28.414  31.603  1.00  0.00     0.167 HD
ATOM     73  C   UNL A   1      43.326  29.235  34.064  1.00  0.00     0.074 A 
ATOM     74  C   UNL A   1      43.486  29.881  35.350  1.00  0.00     0.031 C 
ATOM     75  C   UNL A   1      44.241  28.400  33.512  1.00  0.00     0.037 A 
BRANCH  62  76
ATOM     76  C   UNL A   1      42.556  26.061  28.060  1.00  0.00     0.064 A 
ATOM     77  C   UNL A   1      42.150  24.718  28.064  1.00  0.00     0.173 A 
ATOM     78  C   UNL A   1      43.212  26.543  26.916  1.00  0.00     0.173 A 
ATOM     79  F   UNL A   1      41.529  24.203  29.135  1.00  0.00    -0.203 F 
ATOM     80  C   UNL A   1      42.399  23.891  26.970  1.00  0.00     0.198 A 
ATOM     81  C   UNL A   1      43.431  25.722  25.814  1.00  0.00     0.198 A 
ATOM     82  F   UNL A   1      43.618  27.820  26.858  1.00  0.00    -0.203 F 
ATOM     83  F   UNL A   1      42.029  22.602  27.009  1.00  0.00    -0.200 F 
ATOM     84  C   UNL A   1      43.027  24.396  25.842  1.00  0.00     0.200 A 
ATOM     85  F   UNL A   1      44.024  26.217  24.719  1.00  0.00    -0.200 F 
ATOM     86  F   UNL A   1      43.243  23.605  24.782  1.00  0.00    -0.200 F 
ENDBRANCH  62  76
BRANCH  63  87
ATOM     87  C   UNL A   1      39.861  32.006  35.626  1.00  0.00     0.064 A 
ATOM     88  C   UNL A   1      38.898  31.564  36.545  1.00  0.00     0.173 A 
ATOM     89  C   UNL A   1      40.390  33.292  35.810  1.00  0.00     0.173 A 
ATOM     90  F   UNL A   1      38.348  30.348  36.405  1.00  0.00    -0.203 F 
ATOM     91  C   UNL A   1      38.446  32.390  37.571  1.00  0.00     0.198 A 
ATOM     92  C   UNL A   1      39.966  34.104  36.861  1.00  0.00     0.198 A 
ATOM     93  F   UNL A   1      41.320  33.764  34.967  1.00  0.00    -0.203 F 
ATOM     94  F   UNL A   1      37.470  31.970  38.386  1.00  0.00    -0.200 F 
ATOM     95  C   UNL A   1      38.982  33.659  37.730  1.00  0.00     0.200 A 
ATOM     96  F   UNL A   1      40.502  35.321  37.020  1.00  0.00    -0.200 F 
ATOM     97  F   UNL A   1      38.542  34.458  38.711  1.00  0.00    -0.200 F 
ENDBRANCH  63  87
BRANCH  75  98
ATOM     98  C   UNL A   1      45.511  28.173  34.283  1.00  0.00     0.064 A 
ATOM     99  C   UNL A   1      45.639  27.124  35.206  1.00  0.00     0.173 A 
ATOM    100  C   UNL A   1      46.617  29.016  34.093  1.00  0.00     0.173 A 
ATOM    101  F   UNL A   1      44.608  26.295  35.435  1.00  0.00    -0.203 F 
ATOM    102  C   UNL A   1      46.808  26.958  35.944  1.00  0.00     0.198 A 
ATOM    103  C   UNL A   1      47.799  28.822  34.804  1.00  0.00     0.198 A 
ATOM    104  F   UNL A   1      46.555  30.028  33.215  1.00  0.00    -0.203 F 
ATOM    105  F   UNL A   1      46.879  25.994  36.874  1.00  0.00    -0.200 F 
ATOM    106  C   UNL A   1      47.888  27.802  35.738  1.00  0.00     0.200 A 
ATOM    107  F   UNL A   1      48.849  29.627  34.588  1.00  0.00    -0.200 F 
ATOM    108  F   UNL A   1      49.012  27.641  36.451  1.00  0.00    -0.200 F 
ENDBRANCH  75  98
ENDBRANCH  49  50
ENDBRANCH  41  44
ENDBRANCH  39  40
ENDBRANCH  38  39
ENDBRANCH  37  38
ENDBRANCH  36  37
ENDBRANCH   1  36
TORSDOF 18
ENDMDL
