MODEL 1
REMARK VINA RESULT:     -12.0      0.000      0.000
REMARK SMILES Cc1n[nH]c(C(=O)N[C@@H](CC(C)C)C(=O)NCCCCCCNC(=O)c2ccc(-c3c4nc(c(-c5c(F)c(F)c(F)c(F)c5F)c5ccc([nH]5)c(-c5c(F)c(F)c(F)c(F)c5F)c5nc(c(-c6c(F)c(F)c(F)c(F)c6F)c6ccc3[nH]6)C=C5)C=C4)cc2)n1
REMARK SMILES IDX 19 1 18 2 17 3 16 4 14 5 15 6 9 8 8 9 6 10 7 11 5 13 1 14
REMARK SMILES IDX 2 15 3 16 89 17 4 18 10 20 11 21 12 22 13 23 20 24 21 25
REMARK SMILES IDX 22 26 23 27 24 28 25 30 26 31 27 32 88 33 28 34 87 35 29 36
REMARK SMILES IDX 30 37 31 38 81 39 32 40 86 41 80 42 82 43 33 44 85 45 79 46
REMARK SMILES IDX 78 47 34 49 66 50 46 51 65 52 47 53 50 54 64 55 83 56 48 57
REMARK SMILES IDX 49 58 63 60 84 61 51 62 35 63 36 64 44 65 37 66 38 67 42 68
REMARK SMILES IDX 45 69 39 70 40 71 43 72 41 73 67 74 68 75 76 76 69 77 70 78
REMARK SMILES IDX 74 79 77 80 71 81 72 82 75 83 73 84 52 85 53 86 61 87 54 88
REMARK SMILES IDX 55 89 59 90 62 91 56 92 57 93 60 94 58 95
REMARK H PARENT 16 7 8 12 4 19 23 29 82 48 50 59
REMARK Flexibility Score: inf
ROOT
ATOM      1  C   UNL A   1      35.038  24.447  25.200  1.00  0.00     0.002 C 
ENDROOT
BRANCH   1   2
ATOM      2  C   UNL A   1      33.967  24.978  24.243  1.00  0.00     0.021 C 
BRANCH   2   3
ATOM      3  C   UNL A   1      33.681  26.470  24.347  1.00  0.00     0.116 C 
BRANCH   3   4
ATOM      4  N   UNL A   1      32.845  26.853  25.466  1.00  0.00    -0.354 N 
ATOM      5  C   UNL A   1      31.680  26.314  25.933  1.00  0.00     0.242 C 
ATOM      6  O   UNL A   1      31.331  26.629  27.075  1.00  0.00    -0.273 OA
ATOM      7  H   UNL A   1      33.169  27.631  25.975  1.00  0.00     0.163 HD
BRANCH   5   8
ATOM      8  C   UNL A   1      30.822  25.298  25.141  1.00  0.00     0.172 C 
BRANCH   8   9
ATOM      9  N   UNL A   1      30.043  24.441  26.029  1.00  0.00    -0.338 N 
ATOM     10  C   UNL A   1      30.348  23.335  26.791  1.00  0.00     0.289 C 
ATOM     11  O   UNL A   1      29.471  23.067  27.621  1.00  0.00    -0.266 OA
ATOM     12  H   UNL A   1      29.099  24.710  26.096  1.00  0.00     0.164 HD
BRANCH  10  13
ATOM     13  C   UNL A   1      31.534  22.505  26.619  1.00  0.00     0.214 A 
ATOM     14  C   UNL A   1      33.661  20.470  24.626  1.00  0.00     0.092 C 
ATOM     15  C   UNL A   1      32.995  21.275  25.669  1.00  0.00     0.148 A 
ATOM     16  N   UNL A   1      33.535  21.501  26.868  1.00  0.00    -0.159 NA
ATOM     17  N   UNL A   1      31.773  21.857  25.485  1.00  0.00    -0.207 NA
ATOM     18  N   UNL A   1      32.584  22.248  27.453  1.00  0.00    -0.255 N 
ATOM     19  H   UNL A   1      32.640  22.574  28.380  1.00  0.00     0.192 HD
ENDBRANCH  10  13
ENDBRANCH   8   9
BRANCH   8  20
ATOM     20  C   UNL A   1      30.023  25.780  23.910  1.00  0.00     0.038 C 
BRANCH  20  21
ATOM     21  C   UNL A   1      29.842  27.286  23.668  1.00  0.00    -0.015 C 
ATOM     22  C   UNL A   1      30.582  27.758  22.409  1.00  0.00     0.007 C 
ATOM     23  C   UNL A   1      28.360  27.640  23.500  1.00  0.00     0.007 C 
ENDBRANCH  20  21
ENDBRANCH   8  20
ENDBRANCH   5   8
ENDBRANCH   3   4
ENDBRANCH   2   3
ENDBRANCH   1   2
BRANCH   1  24
ATOM     24  C   UNL A   1      35.936  23.295  24.716  1.00  0.00     0.002 C 
BRANCH  24  25
ATOM     25  C   UNL A   1      36.855  22.594  25.728  1.00  0.00     0.021 C 
BRANCH  25  26
ATOM     26  C   UNL A   1      38.342  22.860  25.564  1.00  0.00     0.116 C 
BRANCH  26  27
ATOM     27  N   UNL A   1      39.188  22.122  26.508  1.00  0.00    -0.352 N 
ATOM     28  C   UNL A   1      40.236  22.608  27.270  1.00  0.00     0.251 C 
ATOM     29  H   UNL A   1      38.986  21.164  26.613  1.00  0.00     0.163 HD
ATOM     30  O   UNL A   1      41.101  21.857  27.727  1.00  0.00    -0.269 OA
BRANCH  28  31
ATOM     31  C   UNL A   1      40.292  24.051  27.545  1.00  0.00     0.039 A 
ATOM     32  C   UNL A   1      39.208  24.915  27.363  1.00  0.00     0.014 A 
ATOM     33  C   UNL A   1      41.487  24.517  28.073  1.00  0.00     0.014 A 
ATOM     34  C   UNL A   1      39.332  26.235  27.795  1.00  0.00     0.010 A 
ATOM     35  C   UNL A   1      41.507  25.708  28.731  1.00  0.00     0.010 A 
ATOM     36  C   UNL A   1      40.488  26.614  28.492  1.00  0.00    -0.014 A 
BRANCH  36  37
ATOM     37  C   UNL A   1      40.677  27.943  29.049  1.00  0.00     0.031 A 
ATOM     38  C   UNL A   1      41.737  28.748  28.394  1.00  0.00     0.074 A 
ATOM     39  C   UNL A   1      39.782  28.481  29.908  1.00  0.00     0.049 A 
ATOM     40  N   UNL A   1      42.849  29.153  28.908  1.00  0.00    -0.248 NA
ATOM     41  C   UNL A   1      41.607  29.028  26.955  1.00  0.00     0.031 C 
ATOM     42  C   UNL A   1      38.508  27.924  30.387  1.00  0.00     0.029 A 
ATOM     43  N   UNL A   1      39.785  29.718  30.468  1.00  0.00    -0.354 N 
ATOM     44  C   UNL A   1      43.476  29.907  27.921  1.00  0.00     0.074 A 
ATOM     45  C   UNL A   1      42.766  29.639  26.698  1.00  0.00     0.031 C 
ATOM     46  C   UNL A   1      37.769  28.897  30.966  1.00  0.00     0.029 A 
ATOM     47  C   UNL A   1      38.586  30.089  31.064  1.00  0.00     0.049 A 
ATOM     48  H   UNL A   1      40.574  30.306  30.452  1.00  0.00     0.167 HD
ATOM     49  C   UNL A   1      44.368  30.881  28.251  1.00  0.00     0.037 A 
ATOM     50  C   UNL A   1      38.288  31.305  31.583  1.00  0.00     0.037 A 
ATOM     51  C   UNL A   1      44.821  30.725  29.612  1.00  0.00     0.049 A 
ATOM     52  C   UNL A   1      39.581  31.990  31.843  1.00  0.00     0.074 A 
ATOM     53  C   UNL A   1      45.482  29.727  30.303  1.00  0.00     0.029 A 
ATOM     54  N   UNL A   1      44.250  31.522  30.576  1.00  0.00    -0.354 N 
ATOM     55  N   UNL A   1      40.445  31.578  32.732  1.00  0.00    -0.248 NA
ATOM     56  C   UNL A   1      40.126  32.813  30.774  1.00  0.00     0.031 C 
ATOM     57  C   UNL A   1      44.851  29.688  31.583  1.00  0.00     0.029 A 
ATOM     58  C   UNL A   1      43.901  30.709  31.625  1.00  0.00     0.049 A 
ATOM     59  H   UNL A   1      44.117  32.496  30.524  1.00  0.00     0.167 HD
ATOM     60  C   UNL A   1      41.683  31.728  32.121  1.00  0.00     0.074 A 
ATOM     61  C   UNL A   1      41.427  32.555  30.942  1.00  0.00     0.031 C 
ATOM     62  C   UNL A   1      42.738  30.928  32.456  1.00  0.00     0.037 A 
BRANCH  49  63
ATOM     63  C   UNL A   1      44.547  32.176  27.494  1.00  0.00     0.064 A 
ATOM     64  C   UNL A   1      45.728  32.371  26.748  1.00  0.00     0.173 A 
ATOM     65  C   UNL A   1      43.770  33.335  27.710  1.00  0.00     0.173 A 
ATOM     66  F   UNL A   1      46.548  31.342  26.486  1.00  0.00    -0.203 F 
ATOM     67  C   UNL A   1      46.142  33.641  26.337  1.00  0.00     0.198 A 
ATOM     68  C   UNL A   1      44.160  34.591  27.251  1.00  0.00     0.198 A 
ATOM     69  F   UNL A   1      42.666  33.327  28.465  1.00  0.00    -0.203 F 
ATOM     70  F   UNL A   1      47.337  33.792  25.751  1.00  0.00    -0.200 F 
ATOM     71  C   UNL A   1      45.362  34.751  26.597  1.00  0.00     0.200 A 
ATOM     72  F   UNL A   1      43.395  35.658  27.526  1.00  0.00    -0.200 F 
ATOM     73  F   UNL A   1      45.788  35.977  26.266  1.00  0.00    -0.200 F 
ENDBRANCH  49  63
BRANCH  50  74
ATOM     74  C   UNL A   1      36.985  32.011  31.544  1.00  0.00     0.064 A 
ATOM     75  C   UNL A   1      36.263  32.285  32.715  1.00  0.00     0.173 A 
ATOM     76  C   UNL A   1      36.550  32.666  30.373  1.00  0.00     0.173 A 
ATOM     77  F   UNL A   1      36.643  31.743  33.881  1.00  0.00    -0.203 F 
ATOM     78  C   UNL A   1      35.178  33.170  32.719  1.00  0.00     0.198 A 
ATOM     79  C   UNL A   1      35.466  33.545  30.376  1.00  0.00     0.198 A 
ATOM     80  F   UNL A   1      37.227  32.536  29.222  1.00  0.00    -0.203 F 
ATOM     81  F   UNL A   1      34.544  33.447  33.867  1.00  0.00    -0.200 F 
ATOM     82  C   UNL A   1      34.786  33.805  31.551  1.00  0.00     0.200 A 
ATOM     83  F   UNL A   1      35.125  34.183  29.248  1.00  0.00    -0.200 F 
ATOM     84  F   UNL A   1      33.784  34.695  31.566  1.00  0.00    -0.200 F 
ENDBRANCH  50  74
BRANCH  62  85
ATOM     85  C   UNL A   1      42.589  30.024  33.652  1.00  0.00     0.064 A 
ATOM     86  C   UNL A   1      42.760  30.447  34.981  1.00  0.00     0.173 A 
ATOM     87  C   UNL A   1      42.083  28.734  33.454  1.00  0.00     0.173 A 
ATOM     88  F   UNL A   1      43.146  31.696  35.262  1.00  0.00    -0.203 F 
ATOM     89  C   UNL A   1      42.470  29.610  36.058  1.00  0.00     0.198 A 
ATOM     90  C   UNL A   1      41.761  27.909  34.528  1.00  0.00     0.198 A 
ATOM     91  F   UNL A   1      41.843  28.293  32.209  1.00  0.00    -0.203 F 
ATOM     92  F   UNL A   1      42.642  30.044  37.315  1.00  0.00    -0.200 F 
ATOM     93  C   UNL A   1      41.961  28.343  35.830  1.00  0.00     0.200 A 
ATOM     94  F   UNL A   1      41.222  26.703  34.304  1.00  0.00    -0.200 F 
ATOM     95  F   UNL A   1      41.634  27.553  36.862  1.00  0.00    -0.200 F 
ENDBRANCH  62  85
ENDBRANCH  36  37
ENDBRANCH  28  31
ENDBRANCH  26  27
ENDBRANCH  25  26
ENDBRANCH  24  25
ENDBRANCH   1  24
TORSDOF 17
ENDMDL
MODEL 2
REMARK VINA RESULT:     -11.8      0.978      2.008
REMARK SMILES Cc1n[nH]c(C(=O)N[C@@H](CC(C)C)C(=O)NCCCCCCNC(=O)c2ccc(-c3c4nc(c(-c5c(F)c(F)c(F)c(F)c5F)c5ccc([nH]5)c(-c5c(F)c(F)c(F)c(F)c5F)c5nc(c(-c6c(F)c(F)c(F)c(F)c6F)c6ccc3[nH]6)C=C5)C=C4)cc2)n1
REMARK SMILES IDX 19 1 18 2 17 3 16 4 14 5 15 6 9 8 8 9 6 10 7 11 5 13 1 14
REMARK SMILES IDX 2 15 3 16 89 17 4 18 10 20 11 21 12 22 13 23 20 24 21 25
REMARK SMILES IDX 22 26 23 27 24 28 25 30 26 31 27 32 88 33 28 34 87 35 29 36
REMARK SMILES IDX 30 37 31 38 81 39 32 40 86 41 80 42 82 43 33 44 85 45 79 46
REMARK SMILES IDX 78 47 34 49 66 50 46 51 65 52 47 53 50 54 64 55 83 56 48 57
REMARK SMILES IDX 49 58 63 60 84 61 51 62 35 63 36 64 44 65 37 66 38 67 42 68
REMARK SMILES IDX 45 69 39 70 40 71 43 72 41 73 67 74 68 75 76 76 69 77 70 78
REMARK SMILES IDX 74 79 77 80 71 81 72 82 75 83 73 84 52 85 53 86 61 87 54 88
REMARK SMILES IDX 55 89 59 90 62 91 56 92 57 93 60 94 58 95
REMARK H PARENT 16 7 8 12 4 19 23 29 82 48 50 59
REMARK Flexibility Score: inf
ROOT
ATOM      1  C   UNL A   1      35.646  23.655  24.311  1.00  0.00     0.002 C 
ENDROOT
BRANCH   1   2
ATOM      2  C   UNL A   1      34.623  24.779  24.504  1.00  0.00     0.021 C 
BRANCH   2   3
ATOM      3  C   UNL A   1      34.097  24.945  25.923  1.00  0.00     0.116 C 
BRANCH   3   4
ATOM      4  N   UNL A   1      33.517  26.242  26.210  1.00  0.00    -0.354 N 
ATOM      5  C   UNL A   1      32.225  26.674  26.137  1.00  0.00     0.242 C 
ATOM      6  O   UNL A   1      31.948  27.726  26.725  1.00  0.00    -0.273 OA
ATOM      7  H   UNL A   1      34.163  26.925  26.505  1.00  0.00     0.163 HD
BRANCH   5   8
ATOM      8  C   UNL A   1      31.093  25.897  25.421  1.00  0.00     0.172 C 
BRANCH   8   9
ATOM      9  N   UNL A   1      30.504  24.882  26.287  1.00  0.00    -0.338 N 
ATOM     10  C   UNL A   1      30.750  23.540  26.483  1.00  0.00     0.289 C 
ATOM     11  O   UNL A   1      30.218  23.100  27.509  1.00  0.00    -0.266 OA
ATOM     12  H   UNL A   1      29.775  25.228  26.850  1.00  0.00     0.164 HD
BRANCH  10  13
ATOM     13  C   UNL A   1      31.492  22.686  25.565  1.00  0.00     0.214 A 
ATOM     14  C   UNL A   1      33.796  20.059  24.912  1.00  0.00     0.092 C 
ATOM     15  C   UNL A   1      32.802  21.150  24.876  1.00  0.00     0.148 A 
ATOM     16  N   UNL A   1      32.221  21.567  23.750  1.00  0.00    -0.159 NA
ATOM     17  N   UNL A   1      32.395  21.815  25.998  1.00  0.00    -0.207 NA
ATOM     18  N   UNL A   1      31.429  22.551  24.207  1.00  0.00    -0.255 N 
ATOM     19  H   UNL A   1      30.866  23.112  23.627  1.00  0.00     0.192 HD
ENDBRANCH  10  13
ENDBRANCH   8   9
BRANCH   8  20
ATOM     20  C   UNL A   1      30.044  26.677  24.600  1.00  0.00     0.038 C 
BRANCH  20  21
ATOM     21  C   UNL A   1      30.205  26.789  23.077  1.00  0.00    -0.015 C 
ATOM     22  C   UNL A   1      30.335  28.248  22.619  1.00  0.00     0.007 C 
ATOM     23  C   UNL A   1      31.454  26.037  22.600  1.00  0.00     0.007 C 
ENDBRANCH  20  21
ENDBRANCH   8  20
ENDBRANCH   5   8
ENDBRANCH   3   4
ENDBRANCH   2   3
ENDBRANCH   1   2
BRANCH   1  24
ATOM     24  C   UNL A   1      36.871  23.622  25.242  1.00  0.00     0.002 C 
BRANCH  24  25
ATOM     25  C   UNL A   1      37.793  22.394  25.211  1.00  0.00     0.021 C 
BRANCH  25  26
ATOM     26  C   UNL A   1      38.742  22.251  26.389  1.00  0.00     0.116 C 
BRANCH  26  27
ATOM     27  N   UNL A   1      40.120  21.918  26.009  1.00  0.00    -0.352 N 
ATOM     28  C   UNL A   1      41.234  22.737  26.051  1.00  0.00     0.251 C 
ATOM     29  H   UNL A   1      40.269  21.001  25.685  1.00  0.00     0.163 HD
ATOM     30  O   UNL A   1      42.237  22.493  25.374  1.00  0.00    -0.269 OA
BRANCH  28  31
ATOM     31  C   UNL A   1      41.213  23.906  26.941  1.00  0.00     0.039 A 
ATOM     32  C   UNL A   1      41.971  23.999  28.112  1.00  0.00     0.014 A 
ATOM     33  C   UNL A   1      40.432  24.971  26.517  1.00  0.00     0.014 A 
ATOM     34  C   UNL A   1      41.982  25.212  28.800  1.00  0.00     0.010 A 
ATOM     35  C   UNL A   1      40.660  26.211  27.028  1.00  0.00     0.010 A 
ATOM     36  C   UNL A   1      41.329  26.317  28.235  1.00  0.00    -0.014 A 
BRANCH  36  37
ATOM     37  C   UNL A   1      41.350  27.641  28.835  1.00  0.00     0.031 A 
ATOM     38  C   UNL A   1      42.473  28.505  28.398  1.00  0.00     0.074 A 
ATOM     39  C   UNL A   1      40.288  28.121  29.521  1.00  0.00     0.049 A 
ATOM     40  N   UNL A   1      43.452  28.947  29.114  1.00  0.00    -0.248 NA
ATOM     41  C   UNL A   1      42.598  28.811  26.963  1.00  0.00     0.031 C 
ATOM     42  C   UNL A   1      38.974  27.499  29.748  1.00  0.00     0.029 A 
ATOM     43  N   UNL A   1      40.129  29.345  30.088  1.00  0.00    -0.354 N 
ATOM     44  C   UNL A   1      44.213  29.750  28.271  1.00  0.00     0.074 A 
ATOM     45  C   UNL A   1      43.755  29.477  26.934  1.00  0.00     0.031 C 
ATOM     46  C   UNL A   1      38.097  28.426  30.192  1.00  0.00     0.029 A 
ATOM     47  C   UNL A   1      38.825  29.650  30.456  1.00  0.00     0.049 A 
ATOM     48  H   UNL A   1      40.879  29.967  30.226  1.00  0.00     0.167 HD
ATOM     49  C   UNL A   1      44.983  30.754  28.773  1.00  0.00     0.037 A 
ATOM     50  C   UNL A   1      38.379  30.841  30.927  1.00  0.00     0.037 A 
ATOM     51  C   UNL A   1      45.184  30.588  30.192  1.00  0.00     0.049 A 
ATOM     52  C   UNL A   1      39.569  31.575  31.431  1.00  0.00     0.074 A 
ATOM     53  C   UNL A   1      45.752  29.605  30.980  1.00  0.00     0.029 A 
ATOM     54  N   UNL A   1      44.409  31.338  31.045  1.00  0.00    -0.354 N 
ATOM     55  N   UNL A   1      40.273  31.182  32.459  1.00  0.00    -0.248 NA
ATOM     56  C   UNL A   1      40.263  32.444  30.492  1.00  0.00     0.031 C 
ATOM     57  C   UNL A   1      44.899  29.511  32.121  1.00  0.00     0.029 A 
ATOM     58  C   UNL A   1      43.911  30.489  31.999  1.00  0.00     0.049 A 
ATOM     59  H   UNL A   1      44.242  32.307  30.981  1.00  0.00     0.167 HD
ATOM     60  C   UNL A   1      41.594  31.398  32.089  1.00  0.00     0.074 A 
ATOM     61  C   UNL A   1      41.521  32.239  30.895  1.00  0.00     0.031 C 
ATOM     62  C   UNL A   1      42.605  30.638  32.603  1.00  0.00     0.037 A 
BRANCH  49  63
ATOM     63  C   UNL A   1      45.238  32.071  28.079  1.00  0.00     0.064 A 
ATOM     64  C   UNL A   1      44.144  32.920  27.808  1.00  0.00     0.173 A 
ATOM     65  C   UNL A   1      46.435  32.394  27.404  1.00  0.00     0.173 A 
ATOM     66  F   UNL A   1      42.953  32.705  28.388  1.00  0.00    -0.203 F 
ATOM     67  C   UNL A   1      44.222  33.949  26.866  1.00  0.00     0.198 A 
ATOM     68  C   UNL A   1      46.523  33.454  26.506  1.00  0.00     0.198 A 
ATOM     69  F   UNL A   1      47.535  31.638  27.495  1.00  0.00    -0.203 F 
ATOM     70  F   UNL A   1      43.120  34.640  26.544  1.00  0.00    -0.200 F 
ATOM     71  C   UNL A   1      45.409  34.209  26.208  1.00  0.00     0.200 A 
ATOM     72  F   UNL A   1      47.681  33.682  25.868  1.00  0.00    -0.200 F 
ATOM     73  F   UNL A   1      45.470  35.148  25.255  1.00  0.00    -0.200 F 
ENDBRANCH  49  63
BRANCH  50  74
ATOM     74  C   UNL A   1      37.075  31.489  30.657  1.00  0.00     0.064 A 
ATOM     75  C   UNL A   1      36.158  31.752  31.685  1.00  0.00     0.173 A 
ATOM     76  C   UNL A   1      36.815  32.106  29.415  1.00  0.00     0.173 A 
ATOM     77  F   UNL A   1      36.360  31.246  32.910  1.00  0.00    -0.203 F 
ATOM     78  C   UNL A   1      35.054  32.590  31.489  1.00  0.00     0.198 A 
ATOM     79  C   UNL A   1      35.712  32.938  29.218  1.00  0.00     0.198 A 
ATOM     80  F   UNL A   1      37.678  31.985  28.395  1.00  0.00    -0.203 F 
ATOM     81  F   UNL A   1      34.228  32.859  32.510  1.00  0.00    -0.200 F 
ATOM     82  C   UNL A   1      34.837  33.188  30.258  1.00  0.00     0.200 A 
ATOM     83  F   UNL A   1      35.538  33.542  28.034  1.00  0.00    -0.200 F 
ATOM     84  F   UNL A   1      33.812  34.035  30.086  1.00  0.00    -0.200 F 
ENDBRANCH  50  74
BRANCH  62  85
ATOM     85  C   UNL A   1      42.281  29.703  33.739  1.00  0.00     0.064 A 
ATOM     86  C   UNL A   1      41.881  28.366  33.565  1.00  0.00     0.173 A 
ATOM     87  C   UNL A   1      42.556  30.121  35.046  1.00  0.00     0.173 A 
ATOM     88  F   UNL A   1      41.693  27.857  32.344  1.00  0.00    -0.203 F 
ATOM     89  C   UNL A   1      41.733  27.501  34.649  1.00  0.00     0.198 A 
ATOM     90  C   UNL A   1      42.441  29.248  36.125  1.00  0.00     0.198 A 
ATOM     91  F   UNL A   1      42.997  31.369  35.271  1.00  0.00    -0.203 F 
ATOM     92  F   UNL A   1      41.352  26.231  34.450  1.00  0.00    -0.200 F 
ATOM     93  C   UNL A   1      42.023  27.941  35.929  1.00  0.00     0.200 A 
ATOM     94  F   UNL A   1      42.770  29.664  37.356  1.00  0.00    -0.200 F 
ATOM     95  F   UNL A   1      41.930  27.100  36.967  1.00  0.00    -0.200 F 
ENDBRANCH  62  85
ENDBRANCH  36  37
ENDBRANCH  28  31
ENDBRANCH  26  27
ENDBRANCH  25  26
ENDBRANCH  24  25
ENDBRANCH   1  24
TORSDOF 17
ENDMDL
MODEL 3
REMARK VINA RESULT:     -11.7      3.292      8.800
REMARK SMILES Cc1n[nH]c(C(=O)N[C@@H](CC(C)C)C(=O)NCCCCCCNC(=O)c2ccc(-c3c4nc(c(-c5c(F)c(F)c(F)c(F)c5F)c5ccc([nH]5)c(-c5c(F)c(F)c(F)c(F)c5F)c5nc(c(-c6c(F)c(F)c(F)c(F)c6F)c6ccc3[nH]6)C=C5)C=C4)cc2)n1
REMARK SMILES IDX 19 1 18 2 17 3 16 4 14 5 15 6 9 8 8 9 6 10 7 11 5 13 1 14
REMARK SMILES IDX 2 15 3 16 89 17 4 18 10 20 11 21 12 22 13 23 20 24 21 25
REMARK SMILES IDX 22 26 23 27 24 28 25 30 26 31 27 32 88 33 28 34 87 35 29 36
REMARK SMILES IDX 30 37 31 38 81 39 32 40 86 41 80 42 82 43 33 44 85 45 79 46
REMARK SMILES IDX 78 47 34 49 66 50 46 51 65 52 47 53 50 54 64 55 83 56 48 57
REMARK SMILES IDX 49 58 63 60 84 61 51 62 35 63 36 64 44 65 37 66 38 67 42 68
REMARK SMILES IDX 45 69 39 70 40 71 43 72 41 73 67 74 68 75 76 76 69 77 70 78
REMARK SMILES IDX 74 79 77 80 71 81 72 82 75 83 73 84 52 85 53 86 61 87 54 88
REMARK SMILES IDX 55 89 59 90 62 91 56 92 57 93 60 94 58 95
REMARK H PARENT 16 7 8 12 4 19 23 29 82 48 50 59
REMARK Flexibility Score: inf
ROOT
ATOM      1  C   UNL A   1      33.955  27.987  26.685  1.00  0.00     0.002 C 
ENDROOT
BRANCH   1   2
ATOM      2  C   UNL A   1      33.627  27.175  25.428  1.00  0.00     0.021 C 
BRANCH   2   3
ATOM      3  C   UNL A   1      33.562  25.666  25.625  1.00  0.00     0.116 C 
BRANCH   3   4
ATOM      4  N   UNL A   1      34.513  24.908  24.839  1.00  0.00    -0.354 N 
ATOM      5  C   UNL A   1      34.354  24.219  23.671  1.00  0.00     0.242 C 
ATOM      6  O   UNL A   1      35.379  23.920  23.049  1.00  0.00    -0.273 OA
ATOM      7  H   UNL A   1      35.426  24.886  25.207  1.00  0.00     0.163 HD
BRANCH   5   8
ATOM      8  C   UNL A   1      32.977  23.854  23.065  1.00  0.00     0.172 C 
BRANCH   8   9
ATOM      9  N   UNL A   1      32.889  24.229  21.659  1.00  0.00    -0.338 N 
ATOM     10  C   UNL A   1      32.721  25.430  21.003  1.00  0.00     0.289 C 
ATOM     11  O   UNL A   1      32.979  25.358  19.796  1.00  0.00    -0.266 OA
ATOM     12  H   UNL A   1      32.964  23.462  21.048  1.00  0.00     0.164 HD
BRANCH  10  13
ATOM     13  C   UNL A   1      32.227  26.654  21.620  1.00  0.00     0.214 A 
ATOM     14  C   UNL A   1      29.636  28.573  23.117  1.00  0.00     0.092 C 
ATOM     15  C   UNL A   1      30.889  28.019  22.567  1.00  0.00     0.148 A 
ATOM     16  N   UNL A   1      32.059  28.655  22.641  1.00  0.00    -0.159 NA
ATOM     17  N   UNL A   1      30.947  26.806  21.941  1.00  0.00    -0.207 NA
ATOM     18  N   UNL A   1      32.873  27.791  22.013  1.00  0.00    -0.255 N 
ATOM     19  H   UNL A   1      33.829  27.960  21.853  1.00  0.00     0.192 HD
ENDBRANCH  10  13
ENDBRANCH   8   9
BRANCH   8  20
ATOM     20  C   UNL A   1      32.364  22.468  23.363  1.00  0.00     0.038 C 
BRANCH  20  21
ATOM     21  C   UNL A   1      32.335  21.947  24.807  1.00  0.00    -0.015 C 
ATOM     22  C   UNL A   1      31.122  22.477  25.584  1.00  0.00     0.007 C 
ATOM     23  C   UNL A   1      32.278  20.415  24.837  1.00  0.00     0.007 C 
ENDBRANCH  20  21
ENDBRANCH   8  20
ENDBRANCH   5   8
ENDBRANCH   3   4
ENDBRANCH   2   3
ENDBRANCH   1   2
BRANCH   1  24
ATOM     24  C   UNL A   1      32.945  29.056  27.140  1.00  0.00     0.002 C 
BRANCH  24  25
ATOM     25  C   UNL A   1      33.335  30.538  27.032  1.00  0.00     0.021 C 
BRANCH  25  26
ATOM     26  C   UNL A   1      34.723  30.894  27.538  1.00  0.00     0.116 C 
BRANCH  26  27
ATOM     27  N   UNL A   1      34.757  32.078  28.404  1.00  0.00    -0.352 N 
ATOM     28  C   UNL A   1      35.439  32.239  29.597  1.00  0.00     0.251 C 
ATOM     29  H   UNL A   1      34.230  32.852  28.100  1.00  0.00     0.163 HD
ATOM     30  O   UNL A   1      35.110  33.102  30.414  1.00  0.00    -0.269 OA
BRANCH  28  31
ATOM     31  C   UNL A   1      36.590  31.367  29.869  1.00  0.00     0.039 A 
ATOM     32  C   UNL A   1      36.490  29.981  30.024  1.00  0.00     0.014 A 
ATOM     33  C   UNL A   1      37.827  31.994  29.901  1.00  0.00     0.014 A 
ATOM     34  C   UNL A   1      37.665  29.239  30.134  1.00  0.00     0.010 A 
ATOM     35  C   UNL A   1      38.956  31.254  29.734  1.00  0.00     0.010 A 
ATOM     36  C   UNL A   1      38.896  29.892  29.973  1.00  0.00    -0.014 A 
BRANCH  36  37
ATOM     37  C   UNL A   1      40.171  29.194  29.992  1.00  0.00     0.031 A 
ATOM     38  C   UNL A   1      40.763  29.016  31.340  1.00  0.00     0.074 A 
ATOM     39  C   UNL A   1      40.632  28.538  28.903  1.00  0.00     0.049 A 
ATOM     40  N   UNL A   1      41.852  29.537  31.797  1.00  0.00    -0.248 NA
ATOM     41  C   UNL A   1      39.987  28.277  32.349  1.00  0.00     0.031 C 
ATOM     42  C   UNL A   1      39.988  28.348  27.595  1.00  0.00     0.029 A 
ATOM     43  N   UNL A   1      41.764  27.799  28.777  1.00  0.00    -0.354 N 
ATOM     44  C   UNL A   1      42.007  29.036  33.085  1.00  0.00     0.074 A 
ATOM     45  C   UNL A   1      40.750  28.428  33.434  1.00  0.00     0.031 C 
ATOM     46  C   UNL A   1      40.622  27.373  26.906  1.00  0.00     0.029 A 
ATOM     47  C   UNL A   1      41.815  27.003  27.640  1.00  0.00     0.049 A 
ATOM     48  H   UNL A   1      42.491  27.824  29.440  1.00  0.00     0.167 HD
ATOM     49  C   UNL A   1      43.241  28.946  33.654  1.00  0.00     0.037 A 
ATOM     50  C   UNL A   1      42.770  26.089  27.339  1.00  0.00     0.037 A 
ATOM     51  C   UNL A   1      44.196  29.760  32.943  1.00  0.00     0.049 A 
ATOM     52  C   UNL A   1      43.962  26.428  28.159  1.00  0.00     0.074 A 
ATOM     53  C   UNL A   1      44.298  31.109  32.663  1.00  0.00     0.029 A 
ATOM     54  N   UNL A   1      45.036  29.136  32.050  1.00  0.00    -0.354 N 
ATOM     55  N   UNL A   1      44.653  27.526  28.002  1.00  0.00    -0.248 NA
ATOM     56  C   UNL A   1      44.071  25.802  29.468  1.00  0.00     0.031 C 
ATOM     57  C   UNL A   1      44.777  31.170  31.320  1.00  0.00     0.029 A 
ATOM     58  C   UNL A   1      45.011  29.864  30.888  1.00  0.00     0.049 A 
ATOM     59  H   UNL A   1      45.559  28.318  32.215  1.00  0.00     0.167 HD
ATOM     60  C   UNL A   1      44.939  27.954  29.291  1.00  0.00     0.074 A 
ATOM     61  C   UNL A   1      44.613  26.816  30.150  1.00  0.00     0.031 C 
ATOM     62  C   UNL A   1      45.128  29.277  29.572  1.00  0.00     0.037 A 
BRANCH  49  63
ATOM     63  C   UNL A   1      43.672  27.851  34.602  1.00  0.00     0.064 A 
ATOM     64  C   UNL A   1      43.553  26.508  34.189  1.00  0.00     0.173 A 
ATOM     65  C   UNL A   1      43.902  28.042  35.982  1.00  0.00     0.173 A 
ATOM     66  F   UNL A   1      43.328  26.206  32.901  1.00  0.00    -0.203 F 
ATOM     67  C   UNL A   1      43.569  25.450  35.102  1.00  0.00     0.198 A 
ATOM     68  C   UNL A   1      43.970  26.980  36.881  1.00  0.00     0.198 A 
ATOM     69  F   UNL A   1      43.957  29.257  36.538  1.00  0.00    -0.203 F 
ATOM     70  F   UNL A   1      43.316  24.204  34.679  1.00  0.00    -0.200 F 
ATOM     71  C   UNL A   1      43.767  25.688  36.448  1.00  0.00     0.200 A 
ATOM     72  F   UNL A   1      44.150  27.234  38.185  1.00  0.00    -0.200 F 
ATOM     73  F   UNL A   1      43.713  24.685  37.334  1.00  0.00    -0.200 F 
ENDBRANCH  49  63
BRANCH  50  74
ATOM     74  C   UNL A   1      42.591  24.783  26.663  1.00  0.00     0.064 A 
ATOM     75  C   UNL A   1      43.245  24.484  25.459  1.00  0.00     0.173 A 
ATOM     76  C   UNL A   1      41.977  23.699  27.326  1.00  0.00     0.173 A 
ATOM     77  F   UNL A   1      43.898  25.446  24.792  1.00  0.00    -0.203 F 
ATOM     78  C   UNL A   1      43.294  23.179  24.953  1.00  0.00     0.198 A 
ATOM     79  C   UNL A   1      42.023  22.400  26.820  1.00  0.00     0.198 A 
ATOM     80  F   UNL A   1      41.401  23.868  28.526  1.00  0.00    -0.203 F 
ATOM     81  F   UNL A   1      43.973  22.923  23.826  1.00  0.00    -0.200 F 
ATOM     82  C   UNL A   1      42.690  22.137  25.639  1.00  0.00     0.200 A 
ATOM     83  F   UNL A   1      41.469  21.397  27.516  1.00  0.00    -0.200 F 
ATOM     84  F   UNL A   1      42.785  20.880  25.185  1.00  0.00    -0.200 F 
ENDBRANCH  50  74
BRANCH  62  85
ATOM     85  C   UNL A   1      45.230  30.238  28.416  1.00  0.00     0.064 A 
ATOM     86  C   UNL A   1      44.147  30.983  27.917  1.00  0.00     0.173 A 
ATOM     87  C   UNL A   1      46.500  30.546  27.915  1.00  0.00     0.173 A 
ATOM     88  F   UNL A   1      42.915  30.822  28.410  1.00  0.00    -0.203 F 
ATOM     89  C   UNL A   1      44.322  31.964  26.942  1.00  0.00     0.198 A 
ATOM     90  C   UNL A   1      46.681  31.549  26.965  1.00  0.00     0.198 A 
ATOM     91  F   UNL A   1      47.581  29.909  28.393  1.00  0.00    -0.203 F 
ATOM     92  F   UNL A   1      43.270  32.659  26.488  1.00  0.00    -0.200 F 
ATOM     93  C   UNL A   1      45.593  32.253  26.474  1.00  0.00     0.200 A 
ATOM     94  F   UNL A   1      47.917  31.858  26.551  1.00  0.00    -0.200 F 
ATOM     95  F   UNL A   1      45.772  33.229  25.573  1.00  0.00    -0.200 F 
ENDBRANCH  62  85
ENDBRANCH  36  37
ENDBRANCH  28  31
ENDBRANCH  26  27
ENDBRANCH  25  26
ENDBRANCH  24  25
ENDBRANCH   1  24
TORSDOF 17
ENDMDL
