MODEL 1
REMARK VINA RESULT:     -13.5      0.000      0.000
REMARK SMILES Cc1cccc(O[C@H](C)C(=O)N2CCC[C@@H](C(=O)NCCCCCCNC(=O)c3ccc(-c4c5nc(c(-c6c(F)c(F)c(F)c(F)c6F)c6ccc([nH]6)c(-c6c(F)c(F)c(F)c(F)c6F)c6nc(c(-c7c(F)c(F)c(F)c(F)c7F)c7ccc4[nH]7)C=C6)C=C5)cc3)C2)c1
REMARK SMILES IDX 21 1 20 2 19 3 17 4 18 5 16 7 12 8 13 9 92 10 14 11 15 12
REMARK SMILES IDX 10 13 11 14 8 15 9 16 7 17 6 18 1 19 2 20 3 21 93 22 4 23
REMARK SMILES IDX 5 24 22 25 23 26 24 27 25 28 26 29 27 30 28 32 29 33 30 34
REMARK SMILES IDX 91 35 31 36 90 37 32 38 33 39 34 40 84 41 35 42 89 43 83 44
REMARK SMILES IDX 85 45 36 46 88 47 82 48 81 49 37 51 69 52 49 53 68 54 50 55
REMARK SMILES IDX 53 56 67 57 86 58 51 59 52 60 66 62 87 63 54 64 38 65 39 66
REMARK SMILES IDX 47 67 40 68 41 69 45 70 48 71 42 72 43 73 46 74 44 75 70 76
REMARK SMILES IDX 71 77 79 78 72 79 73 80 77 81 80 82 74 83 75 84 78 85 76 86
REMARK SMILES IDX 55 87 56 88 64 89 57 90 58 91 62 92 65 93 59 94 60 95 63 96
REMARK SMILES IDX 61 97
REMARK H PARENT 19 6 26 31 85 50 53 61
REMARK Flexibility Score: inf
ROOT
ATOM      1  C   UNL A   1      30.759  29.224  23.458  1.00  0.00     0.021 C 
ENDROOT
BRANCH   1   2
ATOM      2  C   UNL A   1      30.193  27.844  23.134  1.00  0.00     0.116 C 
BRANCH   2   3
ATOM      3  N   UNL A   1      30.956  27.209  22.081  1.00  0.00    -0.356 N 
ATOM      4  C   UNL A   1      31.980  26.320  22.122  1.00  0.00     0.224 C 
ATOM      5  O   UNL A   1      32.536  26.065  21.049  1.00  0.00    -0.275 OA
ATOM      6  H   UNL A   1      30.685  27.470  21.171  1.00  0.00     0.163 HD
BRANCH   4   7
ATOM      7  C   UNL A   1      32.415  25.595  23.390  1.00  0.00     0.098 C 
ATOM      8  N   UNL A   1      32.777  23.485  24.621  1.00  0.00    -0.339 N 
ATOM      9  C   UNL A   1      34.002  24.016  25.232  1.00  0.00     0.119 C 
ATOM     10  C   UNL A   1      32.440  24.064  23.316  1.00  0.00     0.133 C 
ATOM     11  C   UNL A   1      34.009  25.539  25.315  1.00  0.00     0.022 C 
ATOM     12  C   UNL A   1      33.721  26.164  23.954  1.00  0.00     0.017 C 
BRANCH   8  13
ATOM     13  C   UNL A   1      32.125  22.460  25.290  1.00  0.00     0.263 C 
ATOM     14  O   UNL A   1      30.945  22.618  25.644  1.00  0.00    -0.271 OA
BRANCH  13  15
ATOM     15  C   UNL A   1      32.816  21.125  25.698  1.00  0.00     0.259 C 
ATOM     16  C   UNL A   1      33.653  21.084  26.970  1.00  0.00     0.064 C 
BRANCH  15  17
ATOM     17  O   UNL A   1      32.155  19.915  25.328  1.00  0.00    -0.481 OA
BRANCH  17  18
ATOM     18  C   UNL A   1      32.726  18.981  24.527  1.00  0.00     0.120 A 
ATOM     19  C   UNL A   1      34.785  15.831  25.192  1.00  0.00     0.044 C 
ATOM     20  C   UNL A   1      33.992  16.892  24.486  1.00  0.00    -0.047 A 
ATOM     21  C   UNL A   1      33.718  16.771  23.124  1.00  0.00     0.003 A 
ATOM     22  C   UNL A   1      33.506  18.013  25.175  1.00  0.00     0.049 A 
ATOM     23  C   UNL A   1      32.904  17.703  22.486  1.00  0.00     0.004 A 
ATOM     24  C   UNL A   1      32.402  18.801  23.189  1.00  0.00     0.046 A 
ENDBRANCH  17  18
ENDBRANCH  15  17
ENDBRANCH  13  15
ENDBRANCH   8  13
ENDBRANCH   4   7
ENDBRANCH   2   3
ENDBRANCH   1   2
BRANCH   1  25
ATOM     25  C   UNL A   1      32.003  29.240  24.357  1.00  0.00     0.002 C 
BRANCH  25  26
ATOM     26  C   UNL A   1      31.752  29.307  25.869  1.00  0.00     0.002 C 
BRANCH  26  27
ATOM     27  C   UNL A   1      32.417  30.472  26.601  1.00  0.00     0.021 C 
BRANCH  27  28
ATOM     28  C   UNL A   1      33.803  30.168  27.165  1.00  0.00     0.116 C 
BRANCH  28  29
ATOM     29  N   UNL A   1      34.290  31.181  28.093  1.00  0.00    -0.352 N 
ATOM     30  C   UNL A   1      35.405  31.188  28.917  1.00  0.00     0.251 C 
ATOM     31  H   UNL A   1      33.735  31.992  28.144  1.00  0.00     0.163 HD
ATOM     32  O   UNL A   1      35.620  32.142  29.639  1.00  0.00    -0.269 OA
BRANCH  30  33
ATOM     33  C   UNL A   1      36.398  30.088  28.831  1.00  0.00     0.039 A 
ATOM     34  C   UNL A   1      36.655  29.328  29.980  1.00  0.00     0.014 A 
ATOM     35  C   UNL A   1      37.159  29.883  27.685  1.00  0.00     0.014 A 
ATOM     36  C   UNL A   1      37.812  28.550  30.052  1.00  0.00     0.010 A 
ATOM     37  C   UNL A   1      38.345  29.186  27.784  1.00  0.00     0.010 A 
ATOM     38  C   UNL A   1      38.708  28.580  28.988  1.00  0.00    -0.014 A 
BRANCH  38  39
ATOM     39  C   UNL A   1      40.092  28.133  29.071  1.00  0.00     0.031 A 
ATOM     40  C   UNL A   1      40.517  26.832  28.516  1.00  0.00     0.074 A 
ATOM     41  C   UNL A   1      41.033  28.994  29.521  1.00  0.00     0.049 A 
ATOM     42  N   UNL A   1      41.566  26.196  28.919  1.00  0.00    -0.248 NA
ATOM     43  C   UNL A   1      39.786  26.131  27.465  1.00  0.00     0.031 C 
ATOM     44  C   UNL A   1      42.481  28.882  29.356  1.00  0.00     0.029 A 
ATOM     45  N   UNL A   1      40.867  30.087  30.387  1.00  0.00    -0.354 N 
ATOM     46  C   UNL A   1      41.809  25.190  28.018  1.00  0.00     0.074 A 
ATOM     47  C   UNL A   1      40.636  25.140  27.173  1.00  0.00     0.031 C 
ATOM     48  C   UNL A   1      43.085  29.633  30.290  1.00  0.00     0.029 A 
ATOM     49  C   UNL A   1      42.045  30.134  31.169  1.00  0.00     0.049 A 
ATOM     50  H   UNL A   1      40.092  30.694  30.439  1.00  0.00     0.167 HD
ATOM     51  C   UNL A   1      43.033  24.594  27.976  1.00  0.00     0.037 A 
ATOM     52  C   UNL A   1      42.023  29.970  32.522  1.00  0.00     0.037 A 
ATOM     53  C   UNL A   1      43.954  25.175  28.941  1.00  0.00     0.049 A 
ATOM     54  C   UNL A   1      42.892  28.845  33.023  1.00  0.00     0.074 A 
ATOM     55  C   UNL A   1      44.950  26.132  28.819  1.00  0.00     0.029 A 
ATOM     56  N   UNL A   1      43.720  25.024  30.302  1.00  0.00    -0.354 N 
ATOM     57  N   UNL A   1      43.280  27.846  32.282  1.00  0.00    -0.248 NA
ATOM     58  C   UNL A   1      43.373  28.740  34.395  1.00  0.00     0.031 C 
ATOM     59  C   UNL A   1      45.325  26.552  30.115  1.00  0.00     0.029 A 
ATOM     60  C   UNL A   1      44.559  25.848  31.027  1.00  0.00     0.049 A 
ATOM     61  H   UNL A   1      43.053  24.416  30.694  1.00  0.00     0.167 HD
ATOM     62  C   UNL A   1      44.038  26.980  33.032  1.00  0.00     0.074 A 
ATOM     63  C   UNL A   1      44.076  27.595  34.345  1.00  0.00     0.031 C 
ATOM     64  C   UNL A   1      44.557  25.839  32.482  1.00  0.00     0.037 A 
BRANCH  51  65
ATOM     65  C   UNL A   1      43.450  23.692  26.845  1.00  0.00     0.064 A 
ATOM     66  C   UNL A   1      43.076  22.334  26.805  1.00  0.00     0.173 A 
ATOM     67  C   UNL A   1      44.263  24.124  25.781  1.00  0.00     0.173 A 
ATOM     68  F   UNL A   1      42.242  21.806  27.708  1.00  0.00    -0.203 F 
ATOM     69  C   UNL A   1      43.567  21.452  25.838  1.00  0.00     0.198 A 
ATOM     70  C   UNL A   1      44.793  23.234  24.843  1.00  0.00     0.198 A 
ATOM     71  F   UNL A   1      44.553  25.424  25.622  1.00  0.00    -0.203 F 
ATOM     72  F   UNL A   1      43.190  20.167  25.859  1.00  0.00    -0.200 F 
ATOM     73  C   UNL A   1      44.453  21.895  24.878  1.00  0.00     0.200 A 
ATOM     74  F   UNL A   1      45.647  23.680  23.910  1.00  0.00    -0.200 F 
ATOM     75  F   UNL A   1      44.967  21.039  23.986  1.00  0.00    -0.200 F 
ENDBRANCH  51  65
BRANCH  52  76
ATOM     76  C   UNL A   1      40.742  30.404  33.137  1.00  0.00     0.064 A 
ATOM     77  C   UNL A   1      40.481  31.785  33.215  1.00  0.00     0.173 A 
ATOM     78  C   UNL A   1      39.653  29.529  33.234  1.00  0.00     0.173 A 
ATOM     79  F   UNL A   1      41.494  32.663  33.121  1.00  0.00    -0.203 F 
ATOM     80  C   UNL A   1      39.178  32.273  33.255  1.00  0.00     0.198 A 
ATOM     81  C   UNL A   1      38.349  30.024  33.288  1.00  0.00     0.198 A 
ATOM     82  F   UNL A   1      39.837  28.204  33.146  1.00  0.00    -0.203 F 
ATOM     83  F   UNL A   1      38.957  33.594  33.200  1.00  0.00    -0.200 F 
ATOM     84  C   UNL A   1      38.112  31.390  33.259  1.00  0.00     0.200 A 
ATOM     85  F   UNL A   1      37.313  29.172  33.262  1.00  0.00    -0.200 F 
ATOM     86  F   UNL A   1      36.856  31.856  33.187  1.00  0.00    -0.200 F 
ENDBRANCH  52  76
BRANCH  64  87
ATOM     87  C   UNL A   1      45.212  24.664  33.187  1.00  0.00     0.064 A 
ATOM     88  C   UNL A   1      46.529  24.651  33.671  1.00  0.00     0.173 A 
ATOM     89  C   UNL A   1      44.447  23.513  33.520  1.00  0.00     0.173 A 
ATOM     90  F   UNL A   1      47.338  25.709  33.539  1.00  0.00    -0.203 F 
ATOM     91  C   UNL A   1      47.054  23.560  34.376  1.00  0.00     0.198 A 
ATOM     92  C   UNL A   1      44.954  22.456  34.274  1.00  0.00     0.198 A 
ATOM     93  F   UNL A   1      43.164  23.382  33.153  1.00  0.00    -0.203 F 
ATOM     94  F   UNL A   1      48.332  23.588  34.780  1.00  0.00    -0.200 F 
ATOM     95  C   UNL A   1      46.265  22.471  34.690  1.00  0.00     0.200 A 
ATOM     96  F   UNL A   1      44.153  21.434  34.609  1.00  0.00    -0.200 F 
ATOM     97  F   UNL A   1      46.759  21.454  35.408  1.00  0.00    -0.200 F 
ENDBRANCH  64  87
ENDBRANCH  38  39
ENDBRANCH  30  33
ENDBRANCH  28  29
ENDBRANCH  27  28
ENDBRANCH  26  27
ENDBRANCH  25  26
ENDBRANCH   1  25
TORSDOF 17
ENDMDL
MODEL 2
REMARK VINA RESULT:     -13.5      1.356      2.511
REMARK SMILES Cc1cccc(O[C@H](C)C(=O)N2CCC[C@@H](C(=O)NCCCCCCNC(=O)c3ccc(-c4c5nc(c(-c6c(F)c(F)c(F)c(F)c6F)c6ccc([nH]6)c(-c6c(F)c(F)c(F)c(F)c6F)c6nc(c(-c7c(F)c(F)c(F)c(F)c7F)c7ccc4[nH]7)C=C6)C=C5)cc3)C2)c1
REMARK SMILES IDX 21 1 20 2 19 3 17 4 18 5 16 7 12 8 13 9 92 10 14 11 15 12
REMARK SMILES IDX 10 13 11 14 8 15 9 16 7 17 6 18 1 19 2 20 3 21 93 22 4 23
REMARK SMILES IDX 5 24 22 25 23 26 24 27 25 28 26 29 27 30 28 32 29 33 30 34
REMARK SMILES IDX 91 35 31 36 90 37 32 38 33 39 34 40 84 41 35 42 89 43 83 44
REMARK SMILES IDX 85 45 36 46 88 47 82 48 81 49 37 51 69 52 49 53 68 54 50 55
REMARK SMILES IDX 53 56 67 57 86 58 51 59 52 60 66 62 87 63 54 64 38 65 39 66
REMARK SMILES IDX 47 67 40 68 41 69 45 70 48 71 42 72 43 73 46 74 44 75 70 76
REMARK SMILES IDX 71 77 79 78 72 79 73 80 77 81 80 82 74 83 75 84 78 85 76 86
REMARK SMILES IDX 55 87 56 88 64 89 57 90 58 91 62 92 65 93 59 94 60 95 63 96
REMARK SMILES IDX 61 97
REMARK H PARENT 19 6 26 31 85 50 53 61
REMARK Flexibility Score: inf
ROOT
ATOM      1  C   UNL A   1      33.780  28.938  23.887  1.00  0.00     0.021 C 
ENDROOT
BRANCH   1   2
ATOM      2  C   UNL A   1      32.867  28.768  22.676  1.00  0.00     0.116 C 
BRANCH   2   3
ATOM      3  N   UNL A   1      33.226  27.585  21.924  1.00  0.00    -0.356 N 
ATOM      4  C   UNL A   1      32.958  26.271  22.130  1.00  0.00     0.224 C 
ATOM      5  O   UNL A   1      33.529  25.466  21.387  1.00  0.00    -0.275 OA
ATOM      6  H   UNL A   1      33.761  27.766  21.118  1.00  0.00     0.163 HD
BRANCH   4   7
ATOM      7  C   UNL A   1      31.962  25.767  23.166  1.00  0.00     0.098 C 
ATOM      8  N   UNL A   1      31.500  24.886  25.427  1.00  0.00    -0.339 N 
ATOM      9  C   UNL A   1      30.266  25.677  25.516  1.00  0.00     0.119 C 
ATOM     10  C   UNL A   1      32.533  25.455  24.555  1.00  0.00     0.133 C 
ATOM     11  C   UNL A   1      29.675  26.007  24.149  1.00  0.00     0.022 C 
ATOM     12  C   UNL A   1      30.717  26.657  23.244  1.00  0.00     0.017 C 
BRANCH   8  13
ATOM     13  C   UNL A   1      31.588  23.752  26.219  1.00  0.00     0.263 C 
ATOM     14  O   UNL A   1      31.240  23.813  27.410  1.00  0.00    -0.271 OA
BRANCH  13  15
ATOM     15  C   UNL A   1      32.177  22.399  25.720  1.00  0.00     0.259 C 
ATOM     16  C   UNL A   1      32.064  22.044  24.243  1.00  0.00     0.064 C 
BRANCH  15  17
ATOM     17  O   UNL A   1      33.317  21.893  26.414  1.00  0.00    -0.481 OA
BRANCH  17  18
ATOM     18  C   UNL A   1      34.543  21.798  25.842  1.00  0.00     0.120 A 
ATOM     19  C   UNL A   1      37.675  23.987  25.925  1.00  0.00     0.044 C 
ATOM     20  C   UNL A   1      36.748  22.835  25.666  1.00  0.00    -0.047 A 
ATOM     21  C   UNL A   1      37.225  21.679  25.048  1.00  0.00     0.003 A 
ATOM     22  C   UNL A   1      35.398  22.891  26.043  1.00  0.00     0.049 A 
ATOM     23  C   UNL A   1      36.394  20.573  24.892  1.00  0.00     0.004 A 
ATOM     24  C   UNL A   1      35.058  20.630  25.295  1.00  0.00     0.046 A 
ENDBRANCH  17  18
ENDBRANCH  15  17
ENDBRANCH  13  15
ENDBRANCH   8  13
ENDBRANCH   4   7
ENDBRANCH   2   3
ENDBRANCH   1   2
BRANCH   1  25
ATOM     25  C   UNL A   1      33.115  28.737  25.256  1.00  0.00     0.002 C 
BRANCH  25  26
ATOM     26  C   UNL A   1      32.162  29.844  25.722  1.00  0.00     0.002 C 
BRANCH  26  27
ATOM     27  C   UNL A   1      32.586  30.599  26.982  1.00  0.00     0.021 C 
BRANCH  27  28
ATOM     28  C   UNL A   1      34.004  30.299  27.461  1.00  0.00     0.116 C 
BRANCH  28  29
ATOM     29  N   UNL A   1      34.531  31.295  28.386  1.00  0.00    -0.352 N 
ATOM     30  C   UNL A   1      35.690  31.298  29.146  1.00  0.00     0.251 C 
ATOM     31  H   UNL A   1      33.970  32.097  28.489  1.00  0.00     0.163 HD
ATOM     32  O   UNL A   1      35.934  32.236  29.879  1.00  0.00    -0.269 OA
BRANCH  30  33
ATOM     33  C   UNL A   1      36.691  30.213  28.976  1.00  0.00     0.039 A 
ATOM     34  C   UNL A   1      36.826  29.264  29.998  1.00  0.00     0.014 A 
ATOM     35  C   UNL A   1      37.569  30.197  27.899  1.00  0.00     0.014 A 
ATOM     36  C   UNL A   1      37.971  28.468  30.056  1.00  0.00     0.010 A 
ATOM     37  C   UNL A   1      38.741  29.476  28.000  1.00  0.00     0.010 A 
ATOM     38  C   UNL A   1      38.976  28.667  29.113  1.00  0.00    -0.014 A 
BRANCH  38  39
ATOM     39  C   UNL A   1      40.344  28.191  29.263  1.00  0.00     0.031 A 
ATOM     40  C   UNL A   1      40.779  26.898  28.694  1.00  0.00     0.074 A 
ATOM     41  C   UNL A   1      41.272  29.021  29.793  1.00  0.00     0.049 A 
ATOM     42  N   UNL A   1      41.791  26.232  29.139  1.00  0.00    -0.248 NA
ATOM     43  C   UNL A   1      40.099  26.242  27.582  1.00  0.00     0.031 C 
ATOM     44  C   UNL A   1      42.725  28.886  29.708  1.00  0.00     0.029 A 
ATOM     45  N   UNL A   1      41.074  30.091  30.680  1.00  0.00    -0.354 N 
ATOM     46  C   UNL A   1      42.069  25.248  28.223  1.00  0.00     0.074 A 
ATOM     47  C   UNL A   1      40.947  25.244  27.310  1.00  0.00     0.031 C 
ATOM     48  C   UNL A   1      43.286  29.598  30.697  1.00  0.00     0.029 A 
ATOM     49  C   UNL A   1      42.206  30.093  31.529  1.00  0.00     0.049 A 
ATOM     50  H   UNL A   1      40.309  30.711  30.705  1.00  0.00     0.167 HD
ATOM     51  C   UNL A   1      43.283  24.630  28.234  1.00  0.00     0.037 A 
ATOM     52  C   UNL A   1      42.101  29.890  32.874  1.00  0.00     0.037 A 
ATOM     53  C   UNL A   1      44.156  25.165  29.268  1.00  0.00     0.049 A 
ATOM     54  C   UNL A   1      42.920  28.734  33.390  1.00  0.00     0.074 A 
ATOM     55  C   UNL A   1      45.173  26.106  29.233  1.00  0.00     0.029 A 
ATOM     56  N   UNL A   1      43.840  24.980  30.608  1.00  0.00    -0.354 N 
ATOM     57  N   UNL A   1      43.333  27.751  32.643  1.00  0.00    -0.248 NA
ATOM     58  C   UNL A   1      43.318  28.581  34.784  1.00  0.00     0.031 C 
ATOM     59  C   UNL A   1      45.479  26.481  30.560  1.00  0.00     0.029 A 
ATOM     60  C   UNL A   1      44.649  25.766  31.405  1.00  0.00     0.049 A 
ATOM     61  H   UNL A   1      43.141  24.373  30.942  1.00  0.00     0.167 HD
ATOM     62  C   UNL A   1      44.031  26.849  33.409  1.00  0.00     0.074 A 
ATOM     63  C   UNL A   1      44.003  27.425  34.740  1.00  0.00     0.031 C 
ATOM     64  C   UNL A   1      44.561  25.715  32.857  1.00  0.00     0.037 A 
BRANCH  51  65
ATOM     65  C   UNL A   1      43.750  23.753  27.102  1.00  0.00     0.064 A 
ATOM     66  C   UNL A   1      44.623  24.235  26.106  1.00  0.00     0.173 A 
ATOM     67  C   UNL A   1      43.325  22.422  26.939  1.00  0.00     0.173 A 
ATOM     68  F   UNL A   1      45.168  25.455  26.177  1.00  0.00    -0.203 F 
ATOM     69  C   UNL A   1      44.956  23.481  24.978  1.00  0.00     0.198 A 
ATOM     70  C   UNL A   1      43.618  21.686  25.787  1.00  0.00     0.198 A 
ATOM     71  F   UNL A   1      42.623  21.802  27.899  1.00  0.00    -0.203 F 
ATOM     72  F   UNL A   1      45.778  23.996  24.054  1.00  0.00    -0.200 F 
ATOM     73  C   UNL A   1      44.425  22.220  24.801  1.00  0.00     0.200 A 
ATOM     74  F   UNL A   1      43.101  20.458  25.633  1.00  0.00    -0.200 F 
ATOM     75  F   UNL A   1      44.699  21.520  23.693  1.00  0.00    -0.200 F 
ENDBRANCH  51  65
BRANCH  52  76
ATOM     76  C   UNL A   1      40.795  30.331  33.426  1.00  0.00     0.064 A 
ATOM     77  C   UNL A   1      40.580  31.711  33.595  1.00  0.00     0.173 A 
ATOM     78  C   UNL A   1      39.669  29.499  33.373  1.00  0.00     0.173 A 
ATOM     79  F   UNL A   1      41.629  32.550  33.647  1.00  0.00    -0.203 F 
ATOM     80  C   UNL A   1      39.297  32.251  33.578  1.00  0.00     0.198 A 
ATOM     81  C   UNL A   1      38.384  30.044  33.370  1.00  0.00     0.198 A 
ATOM     82  F   UNL A   1      39.810  28.178  33.191  1.00  0.00    -0.203 F 
ATOM     83  F   UNL A   1      39.131  33.580  33.614  1.00  0.00    -0.200 F 
ATOM     84  C   UNL A   1      38.201  31.418  33.434  1.00  0.00     0.200 A 
ATOM     85  F   UNL A   1      37.322  29.242  33.200  1.00  0.00    -0.200 F 
ATOM     86  F   UNL A   1      36.973  31.941  33.307  1.00  0.00    -0.200 F 
ENDBRANCH  52  76
BRANCH  64  87
ATOM     87  C   UNL A   1      45.154  24.508  33.563  1.00  0.00     0.064 A 
ATOM     88  C   UNL A   1      44.471  23.307  33.810  1.00  0.00     0.173 A 
ATOM     89  C   UNL A   1      46.534  24.488  33.908  1.00  0.00     0.173 A 
ATOM     90  F   UNL A   1      43.199  23.131  33.435  1.00  0.00    -0.203 F 
ATOM     91  C   UNL A   1      45.097  22.202  34.404  1.00  0.00     0.198 A 
ATOM     92  C   UNL A   1      47.166  23.366  34.443  1.00  0.00     0.198 A 
ATOM     93  F   UNL A   1      47.331  25.548  33.712  1.00  0.00    -0.203 F 
ATOM     94  F   UNL A   1      44.382  21.095  34.652  1.00  0.00    -0.200 F 
ATOM     95  C   UNL A   1      46.443  22.226  34.706  1.00  0.00     0.200 A 
ATOM     96  F   UNL A   1      48.486  23.397  34.679  1.00  0.00    -0.200 F 
ATOM     97  F   UNL A   1      47.045  21.149  35.227  1.00  0.00    -0.200 F 
ENDBRANCH  64  87
ENDBRANCH  38  39
ENDBRANCH  30  33
ENDBRANCH  28  29
ENDBRANCH  27  28
ENDBRANCH  26  27
ENDBRANCH  25  26
ENDBRANCH   1  25
TORSDOF 17
ENDMDL
MODEL 3
REMARK VINA RESULT:     -13.1      3.714     10.173
REMARK SMILES Cc1cccc(O[C@H](C)C(=O)N2CCC[C@@H](C(=O)NCCCCCCNC(=O)c3ccc(-c4c5nc(c(-c6c(F)c(F)c(F)c(F)c6F)c6ccc([nH]6)c(-c6c(F)c(F)c(F)c(F)c6F)c6nc(c(-c7c(F)c(F)c(F)c(F)c7F)c7ccc4[nH]7)C=C6)C=C5)cc3)C2)c1
REMARK SMILES IDX 21 1 20 2 19 3 17 4 18 5 16 7 12 8 13 9 92 10 14 11 15 12
REMARK SMILES IDX 10 13 11 14 8 15 9 16 7 17 6 18 1 19 2 20 3 21 93 22 4 23
REMARK SMILES IDX 5 24 22 25 23 26 24 27 25 28 26 29 27 30 28 32 29 33 30 34
REMARK SMILES IDX 91 35 31 36 90 37 32 38 33 39 34 40 84 41 35 42 89 43 83 44
REMARK SMILES IDX 85 45 36 46 88 47 82 48 81 49 37 51 69 52 49 53 68 54 50 55
REMARK SMILES IDX 53 56 67 57 86 58 51 59 52 60 66 62 87 63 54 64 38 65 39 66
REMARK SMILES IDX 47 67 40 68 41 69 45 70 48 71 42 72 43 73 46 74 44 75 70 76
REMARK SMILES IDX 71 77 79 78 72 79 73 80 77 81 80 82 74 83 75 84 78 85 76 86
REMARK SMILES IDX 55 87 56 88 64 89 57 90 58 91 62 92 65 93 59 94 60 95 63 96
REMARK SMILES IDX 61 97
REMARK H PARENT 19 6 26 31 85 50 53 61
REMARK Flexibility Score: inf
ROOT
ATOM      1  C   UNL A   1      34.652  19.744  24.767  1.00  0.00     0.021 C 
ENDROOT
BRANCH   1   2
ATOM      2  C   UNL A   1      33.136  19.917  24.830  1.00  0.00     0.116 C 
BRANCH   2   3
ATOM      3  N   UNL A   1      32.587  20.120  23.507  1.00  0.00    -0.356 N 
ATOM      4  C   UNL A   1      32.203  21.246  22.854  1.00  0.00     0.224 C 
ATOM      5  O   UNL A   1      31.627  21.090  21.773  1.00  0.00    -0.275 OA
ATOM      6  H   UNL A   1      32.470  19.292  22.986  1.00  0.00     0.163 HD
BRANCH   4   7
ATOM      7  C   UNL A   1      32.503  22.653  23.355  1.00  0.00     0.098 C 
ATOM      8  N   UNL A   1      32.326  24.369  25.122  1.00  0.00    -0.339 N 
ATOM      9  C   UNL A   1      33.695  24.828  24.855  1.00  0.00     0.119 C 
ATOM     10  C   UNL A   1      32.076  22.961  24.795  1.00  0.00     0.133 C 
ATOM     11  C   UNL A   1      34.150  24.532  23.430  1.00  0.00     0.022 C 
ATOM     12  C   UNL A   1      33.956  23.058  23.088  1.00  0.00     0.017 C 
BRANCH   8  13
ATOM     13  C   UNL A   1      31.456  25.271  25.716  1.00  0.00     0.263 C 
ATOM     14  O   UNL A   1      30.706  24.883  26.627  1.00  0.00    -0.271 OA
BRANCH  13  15
ATOM     15  C   UNL A   1      31.305  26.750  25.252  1.00  0.00     0.259 C 
ATOM     16  C   UNL A   1      31.771  27.867  26.178  1.00  0.00     0.064 C 
BRANCH  15  17
ATOM     17  O   UNL A   1      31.396  27.002  23.850  1.00  0.00    -0.481 OA
BRANCH  17  18
ATOM     18  C   UNL A   1      30.540  27.825  23.194  1.00  0.00     0.120 A 
ATOM     19  C   UNL A   1      26.769  28.414  23.390  1.00  0.00     0.044 C 
ATOM     20  C   UNL A   1      28.218  28.566  23.028  1.00  0.00    -0.047 A 
ATOM     21  C   UNL A   1      28.631  29.628  22.224  1.00  0.00     0.003 A 
ATOM     22  C   UNL A   1      29.181  27.658  23.494  1.00  0.00     0.049 A 
ATOM     23  C   UNL A   1      29.985  29.827  21.964  1.00  0.00     0.004 A 
ATOM     24  C   UNL A   1      30.938  28.931  22.455  1.00  0.00     0.046 A 
ENDBRANCH  17  18
ENDBRANCH  15  17
ENDBRANCH  13  15
ENDBRANCH   8  13
ENDBRANCH   4   7
ENDBRANCH   2   3
ENDBRANCH   1   2
BRANCH   1  25
ATOM     25  C   UNL A   1      35.477  20.856  25.429  1.00  0.00     0.002 C 
BRANCH  25  26
ATOM     26  C   UNL A   1      36.720  21.331  24.666  1.00  0.00     0.002 C 
BRANCH  26  27
ATOM     27  C   UNL A   1      38.036  21.277  25.442  1.00  0.00     0.021 C 
BRANCH  27  28
ATOM     28  C   UNL A   1      38.575  22.634  25.885  1.00  0.00     0.116 C 
BRANCH  28  29
ATOM     29  N   UNL A   1      39.991  22.615  26.232  1.00  0.00    -0.352 N 
ATOM     30  C   UNL A   1      40.817  23.620  26.709  1.00  0.00     0.251 C 
ATOM     31  H   UNL A   1      40.433  21.744  26.106  1.00  0.00     0.163 HD
ATOM     32  O   UNL A   1      41.992  23.392  26.919  1.00  0.00    -0.269 OA
BRANCH  30  33
ATOM     33  C   UNL A   1      40.243  24.940  27.076  1.00  0.00     0.039 A 
ATOM     34  C   UNL A   1      40.630  26.066  26.336  1.00  0.00     0.014 A 
ATOM     35  C   UNL A   1      39.442  25.097  28.201  1.00  0.00     0.014 A 
ATOM     36  C   UNL A   1      40.418  27.343  26.857  1.00  0.00     0.010 A 
ATOM     37  C   UNL A   1      39.307  26.351  28.759  1.00  0.00     0.010 A 
ATOM     38  C   UNL A   1      39.858  27.467  28.125  1.00  0.00    -0.014 A 
BRANCH  38  39
ATOM     39  C   UNL A   1      39.919  28.678  28.932  1.00  0.00     0.031 A 
ATOM     40  C   UNL A   1      38.879  29.723  28.835  1.00  0.00     0.074 A 
ATOM     41  C   UNL A   1      40.858  28.774  29.902  1.00  0.00     0.049 A 
ATOM     42  N   UNL A   1      39.079  30.956  29.162  1.00  0.00    -0.248 NA
ATOM     43  C   UNL A   1      37.527  29.467  28.349  1.00  0.00     0.031 C 
ATOM     44  C   UNL A   1      40.873  29.709  31.024  1.00  0.00     0.029 A 
ATOM     45  N   UNL A   1      42.105  28.132  29.968  1.00  0.00    -0.354 N 
ATOM     46  C   UNL A   1      37.853  31.571  29.211  1.00  0.00     0.074 A 
ATOM     47  C   UNL A   1      36.926  30.628  28.627  1.00  0.00     0.031 C 
ATOM     48  C   UNL A   1      42.128  29.815  31.485  1.00  0.00     0.029 A 
ATOM     49  C   UNL A   1      42.977  29.063  30.581  1.00  0.00     0.049 A 
ATOM     50  H   UNL A   1      42.326  27.225  29.655  1.00  0.00     0.167 HD
ATOM     51  C   UNL A   1      37.711  32.755  29.872  1.00  0.00     0.037 A 
ATOM     52  C   UNL A   1      44.069  29.565  29.937  1.00  0.00     0.037 A 
ATOM     53  C   UNL A   1      38.959  33.192  30.479  1.00  0.00     0.049 A 
ATOM     54  C   UNL A   1      44.092  31.070  29.842  1.00  0.00     0.074 A 
ATOM     55  C   UNL A   1      39.456  33.084  31.769  1.00  0.00     0.029 A 
ATOM     56  N   UNL A   1      40.033  33.554  29.676  1.00  0.00    -0.354 N 
ATOM     57  N   UNL A   1      43.030  31.817  29.942  1.00  0.00    -0.248 NA
ATOM     58  C   UNL A   1      45.302  31.848  29.606  1.00  0.00     0.031 C 
ATOM     59  C   UNL A   1      40.834  33.394  31.743  1.00  0.00     0.029 A 
ATOM     60  C   UNL A   1      41.177  33.693  30.437  1.00  0.00     0.049 A 
ATOM     61  H   UNL A   1      39.985  33.694  28.702  1.00  0.00     0.167 HD
ATOM     62  C   UNL A   1      43.378  33.137  29.791  1.00  0.00     0.074 A 
ATOM     63  C   UNL A   1      44.815  33.102  29.597  1.00  0.00     0.031 C 
ATOM     64  C   UNL A   1      42.433  34.126  29.844  1.00  0.00     0.037 A 
BRANCH  51  65
ATOM     65  C   UNL A   1      36.361  33.336  30.200  1.00  0.00     0.064 A 
ATOM     66  C   UNL A   1      35.555  33.939  29.213  1.00  0.00     0.173 A 
ATOM     67  C   UNL A   1      35.831  33.353  31.503  1.00  0.00     0.173 A 
ATOM     68  F   UNL A   1      35.898  33.924  27.919  1.00  0.00    -0.203 F 
ATOM     69  C   UNL A   1      34.366  34.602  29.523  1.00  0.00     0.198 A 
ATOM     70  C   UNL A   1      34.668  34.059  31.821  1.00  0.00     0.198 A 
ATOM     71  F   UNL A   1      36.427  32.676  32.495  1.00  0.00    -0.203 F 
ATOM     72  F   UNL A   1      33.649  35.172  28.545  1.00  0.00    -0.200 F 
ATOM     73  C   UNL A   1      33.941  34.693  30.832  1.00  0.00     0.200 A 
ATOM     74  F   UNL A   1      34.262  34.132  33.097  1.00  0.00    -0.200 F 
ATOM     75  F   UNL A   1      32.831  35.378  31.137  1.00  0.00    -0.200 F 
ENDBRANCH  51  65
BRANCH  52  76
ATOM     76  C   UNL A   1      44.621  28.632  28.921  1.00  0.00     0.064 A 
ATOM     77  C   UNL A   1      45.365  27.527  29.374  1.00  0.00     0.173 A 
ATOM     78  C   UNL A   1      44.087  28.571  27.628  1.00  0.00     0.173 A 
ATOM     79  F   UNL A   1      45.893  27.538  30.610  1.00  0.00    -0.203 F 
ATOM     80  C   UNL A   1      45.458  26.361  28.620  1.00  0.00     0.198 A 
ATOM     81  C   UNL A   1      44.195  27.404  26.870  1.00  0.00     0.198 A 
ATOM     82  F   UNL A   1      43.351  29.585  27.149  1.00  0.00    -0.203 F 
ATOM     83  F   UNL A   1      46.065  25.281  29.132  1.00  0.00    -0.200 F 
ATOM     84  C   UNL A   1      44.845  26.290  27.381  1.00  0.00     0.200 A 
ATOM     85  F   UNL A   1      43.578  27.322  25.683  1.00  0.00    -0.200 F 
ATOM     86  F   UNL A   1      44.840  25.135  26.700  1.00  0.00    -0.200 F 
ENDBRANCH  52  76
BRANCH  64  87
ATOM     87  C   UNL A   1      42.579  35.593  29.478  1.00  0.00     0.064 A 
ATOM     88  C   UNL A   1      43.365  36.521  30.178  1.00  0.00     0.173 A 
ATOM     89  C   UNL A   1      42.001  36.092  28.278  1.00  0.00     0.173 A 
ATOM     90  F   UNL A   1      44.067  36.172  31.263  1.00  0.00    -0.203 F 
ATOM     91  C   UNL A   1      43.515  37.846  29.749  1.00  0.00     0.198 A 
ATOM     92  C   UNL A   1      42.202  37.394  27.823  1.00  0.00     0.198 A 
ATOM     93  F   UNL A   1      41.242  35.324  27.482  1.00  0.00    -0.203 F 
ATOM     94  F   UNL A   1      44.246  38.698  30.481  1.00  0.00    -0.200 F 
ATOM     95  C   UNL A   1      42.947  38.278  28.567  1.00  0.00     0.200 A 
ATOM     96  F   UNL A   1      41.683  37.774  26.646  1.00  0.00    -0.200 F 
ATOM     97  F   UNL A   1      43.136  39.533  28.137  1.00  0.00    -0.200 F 
ENDBRANCH  64  87
ENDBRANCH  38  39
ENDBRANCH  30  33
ENDBRANCH  28  29
ENDBRANCH  27  28
ENDBRANCH  26  27
ENDBRANCH  25  26
ENDBRANCH   1  25
TORSDOF 17
ENDMDL
