MODEL 1
REMARK VINA RESULT:     -11.0      0.000      0.000
REMARK SMILES C[NH2+][C@@]1(C(=O)NCCCCCCNC(=O)c2ccc(-c3c4nc(c(-c5c(F)c(F)c(F)c(F)c5F)c5ccc([nH]5)c(-c5c(F)c(F)c(F)c(F)c5F)c5nc(c(-c6c(F)c(F)c(F)c(F)c6F)c6ccc3[nH]6)C=C5)C=C4)cc2)CC[C@H](SC(C)C)C1
REMARK SMILES IDX 9 1 8 2 7 3 6 4 4 5 5 6 3 8 79 9 86 10 80 11 81 12 2 13 1 14
REMARK SMILES IDX 82 17 83 18 84 19 85 20 10 21 11 22 12 23 13 24 14 25 15 27
REMARK SMILES IDX 16 28 17 29 78 30 18 31 77 32 19 33 20 34 21 35 71 36 22 37
REMARK SMILES IDX 76 38 70 39 72 40 23 41 75 42 69 43 68 44 24 46 56 47 36 48
REMARK SMILES IDX 55 49 37 50 40 51 54 52 73 53 38 54 39 55 53 57 74 58 41 59
REMARK SMILES IDX 25 60 26 61 34 62 27 63 28 64 32 65 35 66 29 67 30 68 33 69
REMARK SMILES IDX 31 70 57 71 58 72 66 73 59 74 60 75 64 76 67 77 61 78 62 79
REMARK SMILES IDX 65 80 63 81 42 82 43 83 51 84 44 85 45 86 49 87 52 88 46 89
REMARK SMILES IDX 47 90 50 91 48 92
REMARK H PARENT 6 7 2 15 2 16 13 26 72 45 40 56
REMARK Flexibility Score: inf
ROOT
ATOM      1  C   UNL A   1      32.332  29.992  27.251  1.00  0.00     0.002 C 
ENDROOT
BRANCH   1   2
ATOM      2  C   UNL A   1      33.521  29.253  26.643  1.00  0.00     0.021 C 
BRANCH   2   3
ATOM      3  C   UNL A   1      33.282  27.787  26.312  1.00  0.00     0.116 C 
BRANCH   3   4
ATOM      4  N   UNL A   1      31.970  27.293  26.634  1.00  0.00    -0.351 N 
ATOM      5  C   UNL A   1      31.042  26.665  25.858  1.00  0.00     0.281 C 
ATOM      6  O   UNL A   1      30.186  26.036  26.500  1.00  0.00    -0.268 OA
ATOM      7  H   UNL A   1      31.697  27.432  27.568  1.00  0.00     0.163 HD
BRANCH   5   8
ATOM      8  C   UNL A   1      31.023  26.655  24.267  1.00  0.00     0.176 C 
ATOM      9  C   UNL A   1      31.818  27.835  23.682  1.00  0.00     0.080 C 
ATOM     10  C   UNL A   1      29.646  26.745  23.581  1.00  0.00     0.093 C 
ATOM     11  C   UNL A   1      30.798  28.884  23.258  1.00  0.00     0.022 C 
ATOM     12  C   UNL A   1      29.546  28.115  22.849  1.00  0.00     0.054 C 
BRANCH   8  13
ATOM     13  N   UNL A   1      31.738  25.422  23.801  1.00  0.00    -0.336 N 
ATOM     14  C   UNL A   1      30.883  24.415  23.174  1.00  0.00     0.331 C 
ATOM     15  H   UNL A   1      32.446  25.703  23.121  1.00  0.00     0.346 HD
ATOM     16  H   UNL A   1      32.132  24.986  24.635  1.00  0.00     0.346 HD
ENDBRANCH   8  13
BRANCH  12  17
ATOM     17  S   UNL A   1      27.816  28.720  23.126  1.00  0.00    -0.155 SA
BRANCH  17  18
ATOM     18  C   UNL A   1      27.653  30.502  22.709  1.00  0.00     0.040 C 
ATOM     19  C   UNL A   1      28.262  31.578  23.586  1.00  0.00     0.019 C 
ATOM     20  C   UNL A   1      28.063  30.698  21.251  1.00  0.00     0.019 C 
ENDBRANCH  17  18
ENDBRANCH  12  17
ENDBRANCH   5   8
ENDBRANCH   3   4
ENDBRANCH   2   3
ENDBRANCH   1   2
BRANCH   1  21
ATOM     21  C   UNL A   1      31.483  30.822  26.281  1.00  0.00     0.002 C 
BRANCH  21  22
ATOM     22  C   UNL A   1      31.403  32.328  26.548  1.00  0.00     0.021 C 
BRANCH  22  23
ATOM     23  C   UNL A   1      32.677  32.985  27.072  1.00  0.00     0.116 C 
BRANCH  23  24
ATOM     24  N   UNL A   1      32.435  34.304  27.627  1.00  0.00    -0.352 N 
ATOM     25  C   UNL A   1      33.001  34.932  28.707  1.00  0.00     0.251 C 
ATOM     26  H   UNL A   1      31.755  34.834  27.151  1.00  0.00     0.163 HD
ATOM     27  O   UNL A   1      32.529  35.989  29.111  1.00  0.00    -0.269 OA
BRANCH  25  28
ATOM     28  C   UNL A   1      34.166  34.341  29.405  1.00  0.00     0.039 A 
ATOM     29  C   UNL A   1      33.937  33.584  30.558  1.00  0.00     0.014 A 
ATOM     30  C   UNL A   1      35.475  34.570  28.971  1.00  0.00     0.014 A 
ATOM     31  C   UNL A   1      35.013  33.017  31.246  1.00  0.00     0.010 A 
ATOM     32  C   UNL A   1      36.543  33.951  29.621  1.00  0.00     0.010 A 
ATOM     33  C   UNL A   1      36.324  33.174  30.769  1.00  0.00    -0.014 A 
BRANCH  33  34
ATOM     34  C   UNL A   1      37.472  32.540  31.466  1.00  0.00     0.031 A 
ATOM     35  C   UNL A   1      38.200  31.387  30.834  1.00  0.00     0.074 A 
ATOM     36  C   UNL A   1      37.823  32.965  32.694  1.00  0.00     0.049 A 
ATOM     37  N   UNL A   1      39.183  30.665  31.313  1.00  0.00    -0.248 NA
ATOM     38  C   UNL A   1      37.748  30.972  29.497  1.00  0.00     0.031 C 
ATOM     39  C   UNL A   1      37.167  34.045  33.432  1.00  0.00     0.029 A 
ATOM     40  N   UNL A   1      38.810  32.532  33.545  1.00  0.00    -0.354 N 
ATOM     41  C   UNL A   1      39.454  29.705  30.345  1.00  0.00     0.074 A 
ATOM     42  C   UNL A   1      38.502  29.906  29.275  1.00  0.00     0.031 C 
ATOM     43  C   UNL A   1      37.777  34.199  34.619  1.00  0.00     0.029 A 
ATOM     44  C   UNL A   1      38.843  33.208  34.740  1.00  0.00     0.049 A 
ATOM     45  H   UNL A   1      39.435  31.806  33.320  1.00  0.00     0.167 HD
ATOM     46  C   UNL A   1      40.421  28.757  30.342  1.00  0.00     0.037 A 
ATOM     47  C   UNL A   1      39.637  33.043  35.815  1.00  0.00     0.037 A 
ATOM     48  C   UNL A   1      41.385  28.578  31.397  1.00  0.00     0.049 A 
ATOM     49  C   UNL A   1      40.706  31.986  35.785  1.00  0.00     0.074 A 
ATOM     50  C   UNL A   1      42.446  27.691  31.456  1.00  0.00     0.029 A 
ATOM     51  N   UNL A   1      41.402  29.298  32.583  1.00  0.00    -0.354 N 
ATOM     52  N   UNL A   1      40.999  31.132  34.834  1.00  0.00    -0.248 NA
ATOM     53  C   UNL A   1      41.562  31.875  36.975  1.00  0.00     0.031 C 
ATOM     54  C   UNL A   1      43.076  27.842  32.695  1.00  0.00     0.029 A 
ATOM     55  C   UNL A   1      42.440  28.858  33.390  1.00  0.00     0.049 A 
ATOM     56  H   UNL A   1      40.769  30.015  32.817  1.00  0.00     0.167 HD
ATOM     57  C   UNL A   1      42.085  30.401  35.298  1.00  0.00     0.074 A 
ATOM     58  C   UNL A   1      42.409  30.922  36.610  1.00  0.00     0.031 C 
ATOM     59  C   UNL A   1      42.752  29.389  34.692  1.00  0.00     0.037 A 
BRANCH  46  60
ATOM     60  C   UNL A   1      40.487  27.836  29.158  1.00  0.00     0.064 A 
ATOM     61  C   UNL A   1      41.332  28.097  28.067  1.00  0.00     0.173 A 
ATOM     62  C   UNL A   1      39.721  26.661  29.126  1.00  0.00     0.173 A 
ATOM     63  F   UNL A   1      42.078  29.212  28.043  1.00  0.00    -0.203 F 
ATOM     64  C   UNL A   1      41.382  27.233  26.977  1.00  0.00     0.198 A 
ATOM     65  C   UNL A   1      39.797  25.784  28.048  1.00  0.00     0.198 A 
ATOM     66  F   UNL A   1      38.903  26.360  30.145  1.00  0.00    -0.203 F 
ATOM     67  F   UNL A   1      42.157  27.530  25.925  1.00  0.00    -0.200 F 
ATOM     68  C   UNL A   1      40.621  26.075  26.970  1.00  0.00     0.200 A 
ATOM     69  F   UNL A   1      39.070  24.658  28.048  1.00  0.00    -0.200 F 
ATOM     70  F   UNL A   1      40.674  25.242  25.922  1.00  0.00    -0.200 F 
ENDBRANCH  46  60
BRANCH  47  71
ATOM     71  C   UNL A   1      39.459  33.915  37.005  1.00  0.00     0.064 A 
ATOM     72  C   UNL A   1      40.038  35.190  37.056  1.00  0.00     0.173 A 
ATOM     73  C   UNL A   1      38.704  33.495  38.109  1.00  0.00     0.173 A 
ATOM     74  F   UNL A   1      40.786  35.627  36.032  1.00  0.00    -0.203 F 
ATOM     75  C   UNL A   1      39.884  36.005  38.176  1.00  0.00     0.198 A 
ATOM     76  C   UNL A   1      38.528  34.322  39.216  1.00  0.00     0.198 A 
ATOM     77  F   UNL A   1      38.124  32.286  38.107  1.00  0.00    -0.203 F 
ATOM     78  F   UNL A   1      40.483  37.203  38.216  1.00  0.00    -0.200 F 
ATOM     79  C   UNL A   1      39.124  35.574  39.252  1.00  0.00     0.200 A 
ATOM     80  F   UNL A   1      37.779  33.907  40.248  1.00  0.00    -0.200 F 
ATOM     81  F   UNL A   1      38.970  36.361  40.325  1.00  0.00    -0.200 F 
ENDBRANCH  47  71
BRANCH  59  82
ATOM     82  C   UNL A   1      43.918  28.796  35.427  1.00  0.00     0.064 A 
ATOM     83  C   UNL A   1      45.223  29.277  35.246  1.00  0.00     0.173 A 
ATOM     84  C   UNL A   1      43.721  27.761  36.354  1.00  0.00     0.173 A 
ATOM     85  F   UNL A   1      45.465  30.254  34.360  1.00  0.00    -0.203 F 
ATOM     86  C   UNL A   1      46.292  28.727  35.949  1.00  0.00     0.198 A 
ATOM     87  C   UNL A   1      44.788  27.232  37.076  1.00  0.00     0.198 A 
ATOM     88  F   UNL A   1      42.491  27.270  36.568  1.00  0.00    -0.203 F 
ATOM     89  F   UNL A   1      47.537  29.171  35.727  1.00  0.00    -0.200 F 
ATOM     90  C   UNL A   1      46.072  27.711  36.869  1.00  0.00     0.200 A 
ATOM     91  F   UNL A   1      44.573  26.260  37.973  1.00  0.00    -0.200 F 
ATOM     92  F   UNL A   1      47.102  27.188  37.549  1.00  0.00    -0.200 F 
ENDBRANCH  59  82
ENDBRANCH  33  34
ENDBRANCH  25  28
ENDBRANCH  23  24
ENDBRANCH  22  23
ENDBRANCH  21  22
ENDBRANCH   1  21
TORSDOF 16
ENDMDL
MODEL 2
REMARK VINA RESULT:     -10.9      0.736      7.375
REMARK SMILES C[NH2+][C@@]1(C(=O)NCCCCCCNC(=O)c2ccc(-c3c4nc(c(-c5c(F)c(F)c(F)c(F)c5F)c5ccc([nH]5)c(-c5c(F)c(F)c(F)c(F)c5F)c5nc(c(-c6c(F)c(F)c(F)c(F)c6F)c6ccc3[nH]6)C=C5)C=C4)cc2)CC[C@H](SC(C)C)C1
REMARK SMILES IDX 9 1 8 2 7 3 6 4 4 5 5 6 3 8 79 9 86 10 80 11 81 12 2 13 1 14
REMARK SMILES IDX 82 17 83 18 84 19 85 20 10 21 11 22 12 23 13 24 14 25 15 27
REMARK SMILES IDX 16 28 17 29 78 30 18 31 77 32 19 33 20 34 21 35 71 36 22 37
REMARK SMILES IDX 76 38 70 39 72 40 23 41 75 42 69 43 68 44 24 46 56 47 36 48
REMARK SMILES IDX 55 49 37 50 40 51 54 52 73 53 38 54 39 55 53 57 74 58 41 59
REMARK SMILES IDX 25 60 26 61 34 62 27 63 28 64 32 65 35 66 29 67 30 68 33 69
REMARK SMILES IDX 31 70 57 71 58 72 66 73 59 74 60 75 64 76 67 77 61 78 62 79
REMARK SMILES IDX 65 80 63 81 42 82 43 83 51 84 44 85 45 86 49 87 52 88 46 89
REMARK SMILES IDX 47 90 50 91 48 92
REMARK H PARENT 6 7 2 15 2 16 13 26 72 45 40 56
REMARK Flexibility Score: inf
ROOT
ATOM      1  C   UNL A   1      32.030  29.869  27.122  1.00  0.00     0.002 C 
ENDROOT
BRANCH   1   2
ATOM      2  C   UNL A   1      33.269  29.136  26.615  1.00  0.00     0.021 C 
BRANCH   2   3
ATOM      3  C   UNL A   1      33.110  27.634  26.427  1.00  0.00     0.116 C 
BRANCH   3   4
ATOM      4  N   UNL A   1      31.801  27.115  26.720  1.00  0.00    -0.351 N 
ATOM      5  C   UNL A   1      30.896  26.484  25.920  1.00  0.00     0.281 C 
ATOM      6  O   UNL A   1      30.039  25.833  26.539  1.00  0.00    -0.268 OA
ATOM      7  H   UNL A   1      31.511  27.236  27.652  1.00  0.00     0.163 HD
BRANCH   5   8
ATOM      8  C   UNL A   1      30.903  26.497  24.329  1.00  0.00     0.176 C 
ATOM      9  C   UNL A   1      31.712  27.682  23.774  1.00  0.00     0.080 C 
ATOM     10  C   UNL A   1      29.537  26.604  23.622  1.00  0.00     0.093 C 
ATOM     11  C   UNL A   1      30.705  28.742  23.348  1.00  0.00     0.022 C 
ATOM     12  C   UNL A   1      29.456  27.985  22.909  1.00  0.00     0.054 C 
BRANCH   8  13
ATOM     13  N   UNL A   1      31.620  25.268  23.857  1.00  0.00    -0.336 N 
ATOM     14  C   UNL A   1      30.750  24.147  23.503  1.00  0.00     0.331 C 
ATOM     15  H   UNL A   1      32.167  25.516  23.032  1.00  0.00     0.346 HD
ATOM     16  H   UNL A   1      32.193  24.952  24.639  1.00  0.00     0.346 HD
ENDBRANCH   8  13
BRANCH  12  17
ATOM     17  S   UNL A   1      27.725  28.594  23.166  1.00  0.00    -0.155 SA
BRANCH  17  18
ATOM     18  C   UNL A   1      27.552  30.355  22.669  1.00  0.00     0.040 C 
ATOM     19  C   UNL A   1      27.973  31.481  23.592  1.00  0.00     0.019 C 
ATOM     20  C   UNL A   1      28.169  30.531  21.284  1.00  0.00     0.019 C 
ENDBRANCH  17  18
ENDBRANCH  12  17
ENDBRANCH   5   8
ENDBRANCH   3   4
ENDBRANCH   2   3
ENDBRANCH   1   2
BRANCH   1  21
ATOM     21  C   UNL A   1      31.360  30.831  26.134  1.00  0.00     0.002 C 
BRANCH  21  22
ATOM     22  C   UNL A   1      31.333  32.313  26.524  1.00  0.00     0.021 C 
BRANCH  22  23
ATOM     23  C   UNL A   1      32.648  32.898  27.029  1.00  0.00     0.116 C 
BRANCH  23  24
ATOM     24  N   UNL A   1      32.476  34.195  27.656  1.00  0.00    -0.352 N 
ATOM     25  C   UNL A   1      33.110  34.752  28.738  1.00  0.00     0.251 C 
ATOM     26  H   UNL A   1      31.794  34.769  27.237  1.00  0.00     0.163 HD
ATOM     27  O   UNL A   1      32.692  35.803  29.212  1.00  0.00    -0.269 OA
BRANCH  25  28
ATOM     28  C   UNL A   1      34.283  34.092  29.353  1.00  0.00     0.039 A 
ATOM     29  C   UNL A   1      34.069  33.212  30.419  1.00  0.00     0.014 A 
ATOM     30  C   UNL A   1      35.587  34.370  28.933  1.00  0.00     0.014 A 
ATOM     31  C   UNL A   1      35.153  32.575  31.029  1.00  0.00     0.010 A 
ATOM     32  C   UNL A   1      36.663  33.686  29.499  1.00  0.00     0.010 A 
ATOM     33  C   UNL A   1      36.458  32.788  30.556  1.00  0.00    -0.014 A 
BRANCH  33  34
ATOM     34  C   UNL A   1      37.615  32.084  31.167  1.00  0.00     0.031 A 
ATOM     35  C   UNL A   1      38.100  32.466  32.537  1.00  0.00     0.074 A 
ATOM     36  C   UNL A   1      38.266  31.138  30.463  1.00  0.00     0.049 A 
ATOM     37  N   UNL A   1      39.128  32.011  33.210  1.00  0.00    -0.248 NA
ATOM     38  C   UNL A   1      37.344  33.517  33.236  1.00  0.00     0.031 C 
ATOM     39  C   UNL A   1      37.921  30.709  29.107  1.00  0.00     0.029 A 
ATOM     40  N   UNL A   1      39.362  30.376  30.785  1.00  0.00    -0.354 N 
ATOM     41  C   UNL A   1      39.150  32.729  34.398  1.00  0.00     0.074 A 
ATOM     42  C   UNL A   1      38.064  33.683  34.335  1.00  0.00     0.031 C 
ATOM     43  C   UNL A   1      38.780  29.752  28.718  1.00  0.00     0.029 A 
ATOM     44  C   UNL A   1      39.754  29.524  29.782  1.00  0.00     0.049 A 
ATOM     45  H   UNL A   1      39.823  30.435  31.652  1.00  0.00     0.167 HD
ATOM     46  C   UNL A   1      39.988  32.592  35.454  1.00  0.00     0.037 A 
ATOM     47  C   UNL A   1      40.788  28.663  29.722  1.00  0.00     0.037 A 
ATOM     48  C   UNL A   1      41.052  31.624  35.525  1.00  0.00     0.049 A 
ATOM     49  C   UNL A   1      41.701  28.526  30.908  1.00  0.00     0.074 A 
ATOM     50  C   UNL A   1      41.911  31.360  36.578  1.00  0.00     0.029 A 
ATOM     51  N   UNL A   1      41.405  30.761  34.497  1.00  0.00    -0.354 N 
ATOM     52  N   UNL A   1      41.669  29.160  32.056  1.00  0.00    -0.248 NA
ATOM     53  C   UNL A   1      42.792  27.547  30.796  1.00  0.00     0.031 C 
ATOM     54  C   UNL A   1      42.812  30.371  36.171  1.00  0.00     0.029 A 
ATOM     55  C   UNL A   1      42.484  29.981  34.882  1.00  0.00     0.049 A 
ATOM     56  H   UNL A   1      40.954  30.710  33.623  1.00  0.00     0.167 HD
ATOM     57  C   UNL A   1      42.714  28.642  32.809  1.00  0.00     0.074 A 
ATOM     58  C   UNL A   1      43.353  27.629  31.994  1.00  0.00     0.031 C 
ATOM     59  C   UNL A   1      43.108  28.975  34.062  1.00  0.00     0.037 A 
BRANCH  46  60
ATOM     60  C   UNL A   1      39.790  33.514  36.623  1.00  0.00     0.064 A 
ATOM     61  C   UNL A   1      40.460  34.744  36.713  1.00  0.00     0.173 A 
ATOM     62  C   UNL A   1      38.894  33.179  37.650  1.00  0.00     0.173 A 
ATOM     63  F   UNL A   1      41.334  35.107  35.763  1.00  0.00    -0.203 F 
ATOM     64  C   UNL A   1      40.265  35.587  37.804  1.00  0.00     0.198 A 
ATOM     65  C   UNL A   1      38.679  34.039  38.723  1.00  0.00     0.198 A 
ATOM     66  F   UNL A   1      38.223  32.018  37.609  1.00  0.00    -0.203 F 
ATOM     67  F   UNL A   1      40.954  36.733  37.893  1.00  0.00    -0.200 F 
ATOM     68  C   UNL A   1      39.370  35.239  38.803  1.00  0.00     0.200 A 
ATOM     69  F   UNL A   1      37.804  33.706  39.683  1.00  0.00    -0.200 F 
ATOM     70  F   UNL A   1      39.180  36.054  39.849  1.00  0.00    -0.200 F 
ENDBRANCH  46  60
BRANCH  47  71
ATOM     71  C   UNL A   1      41.000  27.848  28.497  1.00  0.00     0.064 A 
ATOM     72  C   UNL A   1      41.845  28.295  27.472  1.00  0.00     0.173 A 
ATOM     73  C   UNL A   1      40.369  26.608  28.330  1.00  0.00     0.173 A 
ATOM     74  F   UNL A   1      42.455  29.485  27.579  1.00  0.00    -0.203 F 
ATOM     75  C   UNL A   1      42.037  27.539  26.318  1.00  0.00     0.198 A 
ATOM     76  C   UNL A   1      40.583  25.841  27.187  1.00  0.00     0.198 A 
ATOM     77  F   UNL A   1      39.555  26.132  29.284  1.00  0.00    -0.203 F 
ATOM     78  F   UNL A   1      42.817  28.009  25.335  1.00  0.00    -0.200 F 
ATOM     79  C   UNL A   1      41.411  26.310  26.178  1.00  0.00     0.200 A 
ATOM     80  F   UNL A   1      39.988  24.645  27.063  1.00  0.00    -0.200 F 
ATOM     81  F   UNL A   1      41.601  25.581  25.071  1.00  0.00    -0.200 F 
ENDBRANCH  47  71
BRANCH  59  82
ATOM     82  C   UNL A   1      44.268  28.220  34.642  1.00  0.00     0.064 A 
ATOM     83  C   UNL A   1      45.583  28.695  34.533  1.00  0.00     0.173 A 
ATOM     84  C   UNL A   1      44.055  27.027  35.350  1.00  0.00     0.173 A 
ATOM     85  F   UNL A   1      45.840  29.822  33.852  1.00  0.00    -0.203 F 
ATOM     86  C   UNL A   1      46.646  27.990  35.091  1.00  0.00     0.198 A 
ATOM     87  C   UNL A   1      45.118  26.340  35.932  1.00  0.00     0.198 A 
ATOM     88  F   UNL A   1      42.816  26.534  35.487  1.00  0.00    -0.203 F 
ATOM     89  F   UNL A   1      47.900  28.439  34.936  1.00  0.00    -0.200 F 
ATOM     90  C   UNL A   1      46.412  26.818  35.797  1.00  0.00     0.200 A 
ATOM     91  F   UNL A   1      44.888  25.215  36.623  1.00  0.00    -0.200 F 
ATOM     92  F   UNL A   1      47.436  26.145  36.339  1.00  0.00    -0.200 F 
ENDBRANCH  59  82
ENDBRANCH  33  34
ENDBRANCH  25  28
ENDBRANCH  23  24
ENDBRANCH  22  23
ENDBRANCH  21  22
ENDBRANCH   1  21
TORSDOF 16
ENDMDL
MODEL 3
REMARK VINA RESULT:     -10.8      0.815      1.868
REMARK SMILES C[NH2+][C@@]1(C(=O)NCCCCCCNC(=O)c2ccc(-c3c4nc(c(-c5c(F)c(F)c(F)c(F)c5F)c5ccc([nH]5)c(-c5c(F)c(F)c(F)c(F)c5F)c5nc(c(-c6c(F)c(F)c(F)c(F)c6F)c6ccc3[nH]6)C=C5)C=C4)cc2)CC[C@H](SC(C)C)C1
REMARK SMILES IDX 9 1 8 2 7 3 6 4 4 5 5 6 3 8 79 9 86 10 80 11 81 12 2 13 1 14
REMARK SMILES IDX 82 17 83 18 84 19 85 20 10 21 11 22 12 23 13 24 14 25 15 27
REMARK SMILES IDX 16 28 17 29 78 30 18 31 77 32 19 33 20 34 21 35 71 36 22 37
REMARK SMILES IDX 76 38 70 39 72 40 23 41 75 42 69 43 68 44 24 46 56 47 36 48
REMARK SMILES IDX 55 49 37 50 40 51 54 52 73 53 38 54 39 55 53 57 74 58 41 59
REMARK SMILES IDX 25 60 26 61 34 62 27 63 28 64 32 65 35 66 29 67 30 68 33 69
REMARK SMILES IDX 31 70 57 71 58 72 66 73 59 74 60 75 64 76 67 77 61 78 62 79
REMARK SMILES IDX 65 80 63 81 42 82 43 83 51 84 44 85 45 86 49 87 52 88 46 89
REMARK SMILES IDX 47 90 50 91 48 92
REMARK H PARENT 6 7 2 15 2 16 13 26 72 45 40 56
REMARK Flexibility Score: inf
ROOT
ATOM      1  C   UNL A   1      32.303  30.032  26.953  1.00  0.00     0.002 C 
ENDROOT
BRANCH   1   2
ATOM      2  C   UNL A   1      31.634  28.834  27.623  1.00  0.00     0.021 C 
BRANCH   2   3
ATOM      3  C   UNL A   1      32.327  27.496  27.414  1.00  0.00     0.116 C 
BRANCH   3   4
ATOM      4  N   UNL A   1      33.234  27.442  26.299  1.00  0.00    -0.351 N 
ATOM      5  C   UNL A   1      32.998  27.258  24.970  1.00  0.00     0.281 C 
ATOM      6  O   UNL A   1      33.923  27.635  24.234  1.00  0.00    -0.268 OA
ATOM      7  H   UNL A   1      34.182  27.557  26.536  1.00  0.00     0.163 HD
BRANCH   5   8
ATOM      8  C   UNL A   1      31.660  26.665  24.344  1.00  0.00     0.176 C 
ATOM      9  C   UNL A   1      31.920  25.986  22.988  1.00  0.00     0.080 C 
ATOM     10  C   UNL A   1      30.517  27.659  24.060  1.00  0.00     0.093 C 
ATOM     11  C   UNL A   1      31.476  26.969  21.912  1.00  0.00     0.022 C 
ATOM     12  C   UNL A   1      30.328  27.769  22.519  1.00  0.00     0.054 C 
BRANCH   8  13
ATOM     13  N   UNL A   1      31.167  25.575  25.248  1.00  0.00    -0.336 N 
ATOM     14  C   UNL A   1      29.770  25.703  25.660  1.00  0.00     0.331 C 
ATOM     15  H   UNL A   1      31.272  24.685  24.759  1.00  0.00     0.346 HD
ATOM     16  H   UNL A   1      31.725  25.634  26.100  1.00  0.00     0.346 HD
ENDBRANCH   8  13
BRANCH  12  17
ATOM     17  S   UNL A   1      30.007  29.560  22.168  1.00  0.00    -0.155 SA
BRANCH  17  18
ATOM     18  C   UNL A   1      28.785  30.267  23.344  1.00  0.00     0.040 C 
ATOM     19  C   UNL A   1      28.710  31.758  23.606  1.00  0.00     0.019 C 
ATOM     20  C   UNL A   1      27.405  29.708  23.004  1.00  0.00     0.019 C 
ENDBRANCH  17  18
ENDBRANCH  12  17
ENDBRANCH   5   8
ENDBRANCH   3   4
ENDBRANCH   2   3
ENDBRANCH   1   2
BRANCH   1  21
ATOM     21  C   UNL A   1      31.392  30.933  26.112  1.00  0.00     0.002 C 
BRANCH  21  22
ATOM     22  C   UNL A   1      31.341  32.416  26.497  1.00  0.00     0.021 C 
BRANCH  22  23
ATOM     23  C   UNL A   1      32.592  32.978  27.166  1.00  0.00     0.116 C 
BRANCH  23  24
ATOM     24  N   UNL A   1      32.389  34.318  27.686  1.00  0.00    -0.352 N 
ATOM     25  C   UNL A   1      32.999  34.968  28.728  1.00  0.00     0.251 C 
ATOM     26  H   UNL A   1      31.705  34.845  27.214  1.00  0.00     0.163 HD
ATOM     27  O   UNL A   1      32.558  36.047  29.113  1.00  0.00    -0.269 OA
BRANCH  25  28
ATOM     28  C   UNL A   1      34.174  34.379  29.409  1.00  0.00     0.039 A 
ATOM     29  C   UNL A   1      33.964  33.637  30.576  1.00  0.00     0.014 A 
ATOM     30  C   UNL A   1      35.475  34.594  28.947  1.00  0.00     0.014 A 
ATOM     31  C   UNL A   1      35.050  33.071  31.249  1.00  0.00     0.010 A 
ATOM     32  C   UNL A   1      36.552  33.976  29.582  1.00  0.00     0.010 A 
ATOM     33  C   UNL A   1      36.352  33.214  30.743  1.00  0.00    -0.014 A 
BRANCH  33  34
ATOM     34  C   UNL A   1      37.510  32.581  31.424  1.00  0.00     0.031 A 
ATOM     35  C   UNL A   1      38.222  31.420  30.789  1.00  0.00     0.074 A 
ATOM     36  C   UNL A   1      37.885  33.014  32.643  1.00  0.00     0.049 A 
ATOM     37  N   UNL A   1      39.211  30.698  31.255  1.00  0.00    -0.248 NA
ATOM     38  C   UNL A   1      37.745  30.998  29.463  1.00  0.00     0.031 C 
ATOM     39  C   UNL A   1      37.246  34.102  33.385  1.00  0.00     0.029 A 
ATOM     40  N   UNL A   1      38.885  32.584  33.479  1.00  0.00    -0.354 N 
ATOM     41  C   UNL A   1      39.461  29.731  30.290  1.00  0.00     0.074 A 
ATOM     42  C   UNL A   1      38.491  29.927  29.235  1.00  0.00     0.031 C 
ATOM     43  C   UNL A   1      37.877  34.262  34.559  1.00  0.00     0.029 A 
ATOM     44  C   UNL A   1      38.942  33.268  34.668  1.00  0.00     0.049 A 
ATOM     45  H   UNL A   1      39.503  31.853  33.248  1.00  0.00     0.167 HD
ATOM     46  C   UNL A   1      40.425  28.779  30.276  1.00  0.00     0.037 A 
ATOM     47  C   UNL A   1      39.754  33.108  35.730  1.00  0.00     0.037 A 
ATOM     48  C   UNL A   1      41.407  28.604  31.315  1.00  0.00     0.049 A 
ATOM     49  C   UNL A   1      40.819  32.047  35.689  1.00  0.00     0.074 A 
ATOM     50  C   UNL A   1      42.466  27.713  31.362  1.00  0.00     0.029 A 
ATOM     51  N   UNL A   1      41.447  29.333  32.495  1.00  0.00    -0.354 N 
ATOM     52  N   UNL A   1      41.092  31.185  34.740  1.00  0.00    -0.248 NA
ATOM     53  C   UNL A   1      41.695  31.942  36.864  1.00  0.00     0.031 C 
ATOM     54  C   UNL A   1      43.118  27.872  32.589  1.00  0.00     0.029 A 
ATOM     55  C   UNL A   1      42.498  28.895  33.287  1.00  0.00     0.049 A 
ATOM     56  H   UNL A   1      40.822  30.054  32.735  1.00  0.00     0.167 HD
ATOM     57  C   UNL A   1      42.183  30.454  35.190  1.00  0.00     0.074 A 
ATOM     58  C   UNL A   1      42.532  30.983  36.492  1.00  0.00     0.031 C 
ATOM     59  C   UNL A   1      42.835  29.434  34.579  1.00  0.00     0.037 A 
BRANCH  46  60
ATOM     60  C   UNL A   1      40.467  27.849  29.098  1.00  0.00     0.064 A 
ATOM     61  C   UNL A   1      41.318  28.080  28.006  1.00  0.00     0.173 A 
ATOM     62  C   UNL A   1      39.669  26.695  29.074  1.00  0.00     0.173 A 
ATOM     63  F   UNL A   1      42.094  29.175  27.976  1.00  0.00    -0.203 F 
ATOM     64  C   UNL A   1      41.345  27.208  26.922  1.00  0.00     0.198 A 
ATOM     65  C   UNL A   1      39.722  25.809  28.001  1.00  0.00     0.198 A 
ATOM     66  F   UNL A   1      38.843  26.422  30.095  1.00  0.00    -0.203 F 
ATOM     67  F   UNL A   1      42.129  27.477  25.868  1.00  0.00    -0.200 F 
ATOM     68  C   UNL A   1      40.553  26.070  26.922  1.00  0.00     0.200 A 
ATOM     69  F   UNL A   1      38.965  24.703  28.009  1.00  0.00    -0.200 F 
ATOM     70  F   UNL A   1      40.584  25.229  25.879  1.00  0.00    -0.200 F 
ENDBRANCH  46  60
BRANCH  47  71
ATOM     71  C   UNL A   1      39.601  33.990  36.916  1.00  0.00     0.064 A 
ATOM     72  C   UNL A   1      38.835  33.589  38.019  1.00  0.00     0.173 A 
ATOM     73  C   UNL A   1      40.221  35.246  36.974  1.00  0.00     0.173 A 
ATOM     74  F   UNL A   1      38.206  32.404  38.001  1.00  0.00    -0.203 F 
ATOM     75  C   UNL A   1      38.680  34.419  39.127  1.00  0.00     0.198 A 
ATOM     76  C   UNL A   1      40.088  36.063  38.094  1.00  0.00     0.198 A 
ATOM     77  F   UNL A   1      40.971  35.675  35.947  1.00  0.00    -0.203 F 
ATOM     78  F   UNL A   1      37.907  34.028  40.150  1.00  0.00    -0.200 F 
ATOM     79  C   UNL A   1      39.311  35.652  39.167  1.00  0.00     0.200 A 
ATOM     80  F   UNL A   1      40.713  37.249  38.135  1.00  0.00    -0.200 F 
ATOM     81  F   UNL A   1      39.167  36.447  40.236  1.00  0.00    -0.200 F 
ENDBRANCH  47  71
BRANCH  59  82
ATOM     82  C   UNL A   1      44.012  28.842  35.298  1.00  0.00     0.064 A 
ATOM     83  C   UNL A   1      43.864  27.778  36.200  1.00  0.00     0.173 A 
ATOM     84  C   UNL A   1      45.308  29.320  35.052  1.00  0.00     0.173 A 
ATOM     85  F   UNL A   1      42.643  27.297  36.481  1.00  0.00    -0.203 F 
ATOM     86  C   UNL A   1      44.968  27.229  36.847  1.00  0.00     0.198 A 
ATOM     87  C   UNL A   1      46.413  28.750  35.679  1.00  0.00     0.198 A 
ATOM     88  F   UNL A   1      45.504  30.332  34.194  1.00  0.00    -0.203 F 
ATOM     89  F   UNL A   1      44.798  26.243  37.738  1.00  0.00    -0.200 F 
ATOM     90  C   UNL A   1      46.242  27.710  36.579  1.00  0.00     0.200 A 
ATOM     91  F   UNL A   1      47.644  29.207  35.411  1.00  0.00    -0.200 F 
ATOM     92  F   UNL A   1      47.304  27.176  37.197  1.00  0.00    -0.200 F 
ENDBRANCH  59  82
ENDBRANCH  33  34
ENDBRANCH  25  28
ENDBRANCH  23  24
ENDBRANCH  22  23
ENDBRANCH  21  22
ENDBRANCH   1  21
TORSDOF 16
ENDMDL
