MODEL 1
REMARK VINA RESULT:     -12.9      0.000      0.000
REMARK SMILES Cc1c[nH]c(C[N@@H+](C)[C@@H](C(=O)NCCCCCCNC(=O)c2ccc(-c3c4nc(c(-c5c(F)c(F)c(F)c(F)c5F)c5ccc([nH]5)c(-c5c(F)c(F)c(F)c(F)c5F)c5nc(c(-c6c(F)c(F)c(F)c(F)c6F)c6ccc3[nH]6)C=C5)C=C4)cc2)c2ccc(NC(=O)N3CCCC3)cc2)n1
REMARK SMILES IDX 15 1 14 2 13 3 12 4 10 5 11 6 9 8 7 9 8 10 6 12 5 13 1 14
REMARK SMILES IDX 2 15 3 16 99 17 4 18 85 20 86 21 98 22 87 23 97 24 88 25
REMARK SMILES IDX 89 26 90 27 91 29 92 30 93 31 96 32 94 33 95 34 16 35 17 36
REMARK SMILES IDX 18 37 19 38 20 39 21 41 22 42 23 43 84 44 24 45 83 46 25 47
REMARK SMILES IDX 26 48 27 49 77 50 28 51 82 52 76 53 78 54 29 55 81 56 75 57
REMARK SMILES IDX 74 58 30 60 62 61 42 62 61 63 43 64 46 65 60 66 79 67 44 68
REMARK SMILES IDX 45 69 59 71 80 72 47 73 31 74 32 75 40 76 33 77 34 78 38 79
REMARK SMILES IDX 41 80 35 81 36 82 39 83 37 84 63 85 64 86 72 87 65 88 66 89
REMARK SMILES IDX 70 90 73 91 67 92 68 93 71 94 69 95 48 96 49 97 57 98 50 99
REMARK SMILES IDX 51 100 55 101 58 102 52 103 53 104 56 105 54 106
REMARK H PARENT 12 7 7 11 4 19 89 28 19 40 78 59 46 70
REMARK Flexibility Score: inf
ROOT
ATOM      1  C   UNL A   1      36.862  21.685  25.753  1.00  0.00     0.002 C 
ENDROOT
BRANCH   1   2
ATOM      2  C   UNL A   1      37.292  23.145  25.563  1.00  0.00     0.021 C 
BRANCH   2   3
ATOM      3  C   UNL A   1      36.120  24.113  25.379  1.00  0.00     0.116 C 
BRANCH   3   4
ATOM      4  N   UNL A   1      35.457  23.820  24.127  1.00  0.00    -0.351 N 
ATOM      5  C   UNL A   1      34.242  23.221  23.947  1.00  0.00     0.283 C 
ATOM      6  O   UNL A   1      34.088  22.591  22.893  1.00  0.00    -0.268 OA
ATOM      7  H   UNL A   1      35.938  24.083  23.309  1.00  0.00     0.163 HD
BRANCH   5   8
ATOM      8  C   UNL A   1      33.110  23.393  25.016  1.00  0.00     0.305 C 
BRANCH   8   9
ATOM      9  N   UNL A   1      32.477  22.089  25.364  1.00  0.00    -0.317 N 
ATOM     10  C   UNL A   1      31.113  22.164  25.847  1.00  0.00     0.334 C 
ATOM     11  H   UNL A   1      32.431  21.684  24.429  1.00  0.00     0.349 HD
BRANCH   9  12
ATOM     12  C   UNL A   1      33.281  21.123  26.127  1.00  0.00     0.339 C 
BRANCH  12  13
ATOM     13  C   UNL A   1      33.208  19.731  25.583  1.00  0.00     0.161 A 
ATOM     14  C   UNL A   1      33.640  17.210  23.118  1.00  0.00     0.068 C 
ATOM     15  C   UNL A   1      33.304  17.984  24.332  1.00  0.00     0.056 A 
ATOM     16  C   UNL A   1      32.924  17.535  25.576  1.00  0.00     0.107 A 
ATOM     17  N   UNL A   1      33.403  19.354  24.333  1.00  0.00    -0.233 NA
ATOM     18  N   UNL A   1      32.902  18.649  26.370  1.00  0.00    -0.344 N 
ATOM     19  H   UNL A   1      32.704  18.670  27.334  1.00  0.00     0.167 HD
ENDBRANCH  12  13
ENDBRANCH   9  12
ENDBRANCH   8   9
BRANCH   8  20
ATOM     20  C   UNL A   1      32.073  24.443  24.578  1.00  0.00     0.019 A 
ATOM     21  C   UNL A   1      31.284  25.139  25.502  1.00  0.00     0.012 A 
ATOM     22  C   UNL A   1      31.902  24.757  23.220  1.00  0.00     0.012 A 
ATOM     23  C   UNL A   1      30.589  26.285  25.115  1.00  0.00     0.027 A 
ATOM     24  C   UNL A   1      31.222  25.917  22.839  1.00  0.00     0.027 A 
ATOM     25  C   UNL A   1      30.694  26.759  23.812  1.00  0.00     0.042 A 
BRANCH  25  26
ATOM     26  N   UNL A   1      30.329  28.063  23.436  1.00  0.00    -0.308 N 
ATOM     27  C   UNL A   1      30.611  29.267  24.010  1.00  0.00     0.321 C 
ATOM     28  H   UNL A   1      29.777  28.116  22.622  1.00  0.00     0.171 HD
ATOM     29  O   UNL A   1      29.852  30.213  23.791  1.00  0.00    -0.248 OA
ATOM     30  N   UNL A   1      31.720  29.410  24.796  1.00  0.00    -0.325 N 
ATOM     31  C   UNL A   1      33.050  28.884  24.555  1.00  0.00     0.121 C 
ATOM     32  C   UNL A   1      31.791  30.448  25.799  1.00  0.00     0.121 C 
ATOM     33  C   UNL A   1      33.686  28.918  25.932  1.00  0.00     0.023 C 
ATOM     34  C   UNL A   1      33.060  30.146  26.596  1.00  0.00     0.023 C 
ENDBRANCH  25  26
ENDBRANCH   8  20
ENDBRANCH   5   8
ENDBRANCH   3   4
ENDBRANCH   2   3
ENDBRANCH   1   2
BRANCH   1  35
ATOM     35  C   UNL A   1      37.253  20.749  24.606  1.00  0.00     0.002 C 
BRANCH  35  36
ATOM     36  C   UNL A   1      38.189  19.606  25.003  1.00  0.00     0.021 C 
BRANCH  36  37
ATOM     37  C   UNL A   1      39.297  20.004  25.972  1.00  0.00     0.116 C 
BRANCH  37  38
ATOM     38  N   UNL A   1      40.359  19.012  26.020  1.00  0.00    -0.352 N 
ATOM     39  C   UNL A   1      41.717  19.196  26.074  1.00  0.00     0.251 C 
ATOM     40  H   UNL A   1      40.060  18.074  26.011  1.00  0.00     0.163 HD
ATOM     41  O   UNL A   1      42.479  18.255  25.885  1.00  0.00    -0.269 OA
BRANCH  39  42
ATOM     42  C   UNL A   1      42.259  20.542  26.348  1.00  0.00     0.039 A 
ATOM     43  C   UNL A   1      42.611  21.362  25.273  1.00  0.00     0.014 A 
ATOM     44  C   UNL A   1      42.430  20.989  27.663  1.00  0.00     0.014 A 
ATOM     45  C   UNL A   1      43.081  22.653  25.516  1.00  0.00     0.010 A 
ATOM     46  C   UNL A   1      42.831  22.300  27.901  1.00  0.00     0.010 A 
ATOM     47  C   UNL A   1      43.167  23.143  26.830  1.00  0.00    -0.014 A 
BRANCH  47  48
ATOM     48  C   UNL A   1      43.611  24.532  27.103  1.00  0.00     0.031 A 
ATOM     49  C   UNL A   1      42.631  25.552  27.611  1.00  0.00     0.074 A 
ATOM     50  C   UNL A   1      44.882  24.889  26.835  1.00  0.00     0.049 A 
ATOM     51  N   UNL A   1      42.811  26.826  27.849  1.00  0.00    -0.248 NA
ATOM     52  C   UNL A   1      41.258  25.084  27.859  1.00  0.00     0.031 C 
ATOM     53  C   UNL A   1      45.913  24.001  26.296  1.00  0.00     0.029 A 
ATOM     54  N   UNL A   1      45.521  26.096  26.972  1.00  0.00    -0.354 N 
ATOM     55  C   UNL A   1      41.577  27.311  28.262  1.00  0.00     0.074 A 
ATOM     56  C   UNL A   1      40.643  26.208  28.190  1.00  0.00     0.031 C 
ATOM     57  C   UNL A   1      47.060  24.686  26.167  1.00  0.00     0.029 A 
ATOM     58  C   UNL A   1      46.837  26.070  26.579  1.00  0.00     0.049 A 
ATOM     59  H   UNL A   1      45.079  26.904  27.318  1.00  0.00     0.167 HD
ATOM     60  C   UNL A   1      41.258  28.557  28.688  1.00  0.00     0.037 A 
ATOM     61  C   UNL A   1      47.756  27.053  26.546  1.00  0.00     0.037 A 
ATOM     62  C   UNL A   1      42.197  29.644  28.782  1.00  0.00     0.049 A 
ATOM     63  C   UNL A   1      47.372  28.431  27.014  1.00  0.00     0.074 A 
ATOM     64  C   UNL A   1      41.988  30.925  29.261  1.00  0.00     0.029 A 
ATOM     65  N   UNL A   1      43.525  29.576  28.386  1.00  0.00    -0.354 N 
ATOM     66  N   UNL A   1      46.221  28.858  27.472  1.00  0.00    -0.248 NA
ATOM     67  C   UNL A   1      48.418  29.462  26.964  1.00  0.00     0.031 C 
ATOM     68  C   UNL A   1      43.176  31.647  29.109  1.00  0.00     0.029 A 
ATOM     69  C   UNL A   1      44.140  30.802  28.584  1.00  0.00     0.049 A 
ATOM     70  H   UNL A   1      43.965  28.776  28.017  1.00  0.00     0.167 HD
ATOM     71  C   UNL A   1      46.410  30.197  27.788  1.00  0.00     0.074 A 
ATOM     72  C   UNL A   1      47.792  30.506  27.486  1.00  0.00     0.031 C 
ATOM     73  C   UNL A   1      45.518  31.090  28.283  1.00  0.00     0.037 A 
BRANCH  60  74
ATOM     74  C   UNL A   1      39.834  28.812  29.089  1.00  0.00     0.064 A 
ATOM     75  C   UNL A   1      39.404  28.655  30.416  1.00  0.00     0.173 A 
ATOM     76  C   UNL A   1      38.897  29.258  28.145  1.00  0.00     0.173 A 
ATOM     77  F   UNL A   1      40.258  28.220  31.354  1.00  0.00    -0.203 F 
ATOM     78  C   UNL A   1      38.083  28.908  30.776  1.00  0.00     0.198 A 
ATOM     79  C   UNL A   1      37.584  29.540  28.516  1.00  0.00     0.198 A 
ATOM     80  F   UNL A   1      39.256  29.430  26.864  1.00  0.00    -0.203 F 
ATOM     81  F   UNL A   1      37.685  28.705  32.039  1.00  0.00    -0.200 F 
ATOM     82  C   UNL A   1      37.177  29.358  29.829  1.00  0.00     0.200 A 
ATOM     83  F   UNL A   1      36.712  29.987  27.601  1.00  0.00    -0.200 F 
ATOM     84  F   UNL A   1      35.908  29.609  30.178  1.00  0.00    -0.200 F 
ENDBRANCH  60  74
BRANCH  61  85
ATOM     85  C   UNL A   1      49.135  26.767  26.070  1.00  0.00     0.064 A 
ATOM     86  C   UNL A   1      49.499  26.999  24.737  1.00  0.00     0.173 A 
ATOM     87  C   UNL A   1      50.113  26.250  26.933  1.00  0.00     0.173 A 
ATOM     88  F   UNL A   1      48.592  27.473  23.869  1.00  0.00    -0.203 F 
ATOM     89  C   UNL A   1      50.781  26.703  24.277  1.00  0.00     0.198 A 
ATOM     90  C   UNL A   1      51.404  25.983  26.481  1.00  0.00     0.198 A 
ATOM     91  F   UNL A   1      49.818  26.017  28.220  1.00  0.00    -0.203 F 
ATOM     92  F   UNL A   1      51.087  26.889  22.987  1.00  0.00    -0.200 F 
ATOM     93  C   UNL A   1      51.734  26.201  25.151  1.00  0.00     0.200 A 
ATOM     94  F   UNL A   1      52.325  25.513  27.331  1.00  0.00    -0.200 F 
ATOM     95  F   UNL A   1      52.967  25.920  24.710  1.00  0.00    -0.200 F 
ENDBRANCH  61  85
BRANCH  73  96
ATOM     96  C   UNL A   1      46.016  32.481  28.554  1.00  0.00     0.064 A 
ATOM     97  C   UNL A   1      45.932  33.494  27.588  1.00  0.00     0.173 A 
ATOM     98  C   UNL A   1      46.545  32.813  29.811  1.00  0.00     0.173 A 
ATOM     99  F   UNL A   1      45.449  33.222  26.366  1.00  0.00    -0.203 F 
ATOM    100  C   UNL A   1      46.380  34.783  27.863  1.00  0.00     0.198 A 
ATOM    101  C   UNL A   1      46.963  34.110  30.092  1.00  0.00     0.198 A 
ATOM    102  F   UNL A   1      46.641  31.882  30.772  1.00  0.00    -0.203 F 
ATOM    103  F   UNL A   1      46.333  35.723  26.909  1.00  0.00    -0.200 F 
ATOM    104  C   UNL A   1      46.888  35.092  29.116  1.00  0.00     0.200 A 
ATOM    105  F   UNL A   1      47.440  34.410  31.307  1.00  0.00    -0.200 F 
ATOM    106  F   UNL A   1      47.309  36.336  29.380  1.00  0.00    -0.200 F 
ENDBRANCH  73  96
ENDBRANCH  47  48
ENDBRANCH  39  42
ENDBRANCH  37  38
ENDBRANCH  36  37
ENDBRANCH  35  36
ENDBRANCH   1  35
TORSDOF 18
ENDMDL
MODEL 2
REMARK VINA RESULT:     -12.8      0.151      1.518
REMARK SMILES Cc1c[nH]c(C[N@@H+](C)[C@@H](C(=O)NCCCCCCNC(=O)c2ccc(-c3c4nc(c(-c5c(F)c(F)c(F)c(F)c5F)c5ccc([nH]5)c(-c5c(F)c(F)c(F)c(F)c5F)c5nc(c(-c6c(F)c(F)c(F)c(F)c6F)c6ccc3[nH]6)C=C5)C=C4)cc2)c2ccc(NC(=O)N3CCCC3)cc2)n1
REMARK SMILES IDX 15 1 14 2 13 3 12 4 10 5 11 6 9 8 7 9 8 10 6 12 5 13 1 14
REMARK SMILES IDX 2 15 3 16 99 17 4 18 85 20 86 21 98 22 87 23 97 24 88 25
REMARK SMILES IDX 89 26 90 27 91 29 92 30 93 31 96 32 94 33 95 34 16 35 17 36
REMARK SMILES IDX 18 37 19 38 20 39 21 41 22 42 23 43 84 44 24 45 83 46 25 47
REMARK SMILES IDX 26 48 27 49 77 50 28 51 82 52 76 53 78 54 29 55 81 56 75 57
REMARK SMILES IDX 74 58 30 60 62 61 42 62 61 63 43 64 46 65 60 66 79 67 44 68
REMARK SMILES IDX 45 69 59 71 80 72 47 73 31 74 32 75 40 76 33 77 34 78 38 79
REMARK SMILES IDX 41 80 35 81 36 82 39 83 37 84 63 85 64 86 72 87 65 88 66 89
REMARK SMILES IDX 70 90 73 91 67 92 68 93 71 94 69 95 48 96 49 97 57 98 50 99
REMARK SMILES IDX 51 100 55 101 58 102 52 103 53 104 56 105 54 106
REMARK H PARENT 12 7 7 11 4 19 89 28 19 40 78 59 46 70
REMARK Flexibility Score: inf
ROOT
ATOM      1  C   UNL A   1      36.859  21.715  25.752  1.00  0.00     0.002 C 
ENDROOT
BRANCH   1   2
ATOM      2  C   UNL A   1      37.325  23.159  25.523  1.00  0.00     0.021 C 
BRANCH   2   3
ATOM      3  C   UNL A   1      36.177  24.166  25.418  1.00  0.00     0.116 C 
BRANCH   3   4
ATOM      4  N   UNL A   1      35.550  24.035  24.121  1.00  0.00    -0.351 N 
ATOM      5  C   UNL A   1      34.347  23.456  23.832  1.00  0.00     0.283 C 
ATOM      6  O   UNL A   1      34.227  22.967  22.700  1.00  0.00    -0.268 OA
ATOM      7  H   UNL A   1      36.049  24.406  23.358  1.00  0.00     0.163 HD
BRANCH   5   8
ATOM      8  C   UNL A   1      33.185  23.478  24.883  1.00  0.00     0.305 C 
BRANCH   8   9
ATOM      9  N   UNL A   1      32.581  22.129  25.066  1.00  0.00    -0.317 N 
ATOM     10  C   UNL A   1      31.145  22.106  25.258  1.00  0.00     0.334 C 
ATOM     11  H   UNL A   1      32.754  21.752  24.134  1.00  0.00     0.349 HD
BRANCH   9  12
ATOM     12  C   UNL A   1      33.273  21.186  25.959  1.00  0.00     0.339 C 
BRANCH  12  13
ATOM     13  C   UNL A   1      33.153  19.761  25.522  1.00  0.00     0.161 A 
ATOM     14  C   UNL A   1      33.386  17.070  23.215  1.00  0.00     0.068 C 
ATOM     15  C   UNL A   1      33.148  17.929  24.394  1.00  0.00     0.056 A 
ATOM     16  C   UNL A   1      32.865  17.572  25.692  1.00  0.00     0.107 A 
ATOM     17  N   UNL A   1      33.250  19.295  24.290  1.00  0.00    -0.233 NA
ATOM     18  N   UNL A   1      32.908  18.739  26.404  1.00  0.00    -0.344 N 
ATOM     19  H   UNL A   1      32.785  18.829  27.377  1.00  0.00     0.167 HD
ENDBRANCH  12  13
ENDBRANCH   9  12
ENDBRANCH   8   9
BRANCH   8  20
ATOM     20  C   UNL A   1      32.131  24.545  24.537  1.00  0.00     0.019 A 
ATOM     21  C   UNL A   1      31.381  25.196  25.525  1.00  0.00     0.012 A 
ATOM     22  C   UNL A   1      31.903  24.921  23.204  1.00  0.00     0.012 A 
ATOM     23  C   UNL A   1      30.670  26.357  25.220  1.00  0.00     0.027 A 
ATOM     24  C   UNL A   1      31.206  26.095  22.905  1.00  0.00     0.027 A 
ATOM     25  C   UNL A   1      30.720  26.891  23.937  1.00  0.00     0.042 A 
BRANCH  25  26
ATOM     26  N   UNL A   1      30.339  28.210  23.638  1.00  0.00    -0.308 N 
ATOM     27  C   UNL A   1      30.661  29.388  24.241  1.00  0.00     0.321 C 
ATOM     28  H   UNL A   1      29.739  28.297  22.862  1.00  0.00     0.171 HD
ATOM     29  O   UNL A   1      29.894  30.344  24.108  1.00  0.00    -0.248 OA
ATOM     30  N   UNL A   1      31.816  29.497  24.964  1.00  0.00    -0.325 N 
ATOM     31  C   UNL A   1      33.127  28.978  24.621  1.00  0.00     0.121 C 
ATOM     32  C   UNL A   1      31.953  30.493  26.001  1.00  0.00     0.121 C 
ATOM     33  C   UNL A   1      33.845  28.955  25.957  1.00  0.00     0.023 C 
ATOM     34  C   UNL A   1      33.266  30.156  26.707  1.00  0.00     0.023 C 
ENDBRANCH  25  26
ENDBRANCH   8  20
ENDBRANCH   5   8
ENDBRANCH   3   4
ENDBRANCH   2   3
ENDBRANCH   1   2
BRANCH   1  35
ATOM     35  C   UNL A   1      37.208  20.744  24.622  1.00  0.00     0.002 C 
BRANCH  35  36
ATOM     36  C   UNL A   1      38.185  19.633  25.010  1.00  0.00     0.021 C 
BRANCH  36  37
ATOM     37  C   UNL A   1      39.306  20.076  25.946  1.00  0.00     0.116 C 
BRANCH  37  38
ATOM     38  N   UNL A   1      40.358  19.077  26.042  1.00  0.00    -0.352 N 
ATOM     39  C   UNL A   1      41.715  19.252  26.134  1.00  0.00     0.251 C 
ATOM     40  H   UNL A   1      40.053  18.141  26.042  1.00  0.00     0.163 HD
ATOM     41  O   UNL A   1      42.476  18.303  25.984  1.00  0.00    -0.269 OA
BRANCH  39  42
ATOM     42  C   UNL A   1      42.260  20.599  26.399  1.00  0.00     0.039 A 
ATOM     43  C   UNL A   1      42.615  21.411  25.319  1.00  0.00     0.014 A 
ATOM     44  C   UNL A   1      42.429  21.055  27.711  1.00  0.00     0.014 A 
ATOM     45  C   UNL A   1      43.087  22.703  25.554  1.00  0.00     0.010 A 
ATOM     46  C   UNL A   1      42.832  22.367  27.940  1.00  0.00     0.010 A 
ATOM     47  C   UNL A   1      43.171  23.201  26.865  1.00  0.00    -0.014 A 
BRANCH  47  48
ATOM     48  C   UNL A   1      43.617  24.592  27.129  1.00  0.00     0.031 A 
ATOM     49  C   UNL A   1      42.638  25.617  27.627  1.00  0.00     0.074 A 
ATOM     50  C   UNL A   1      44.891  24.944  26.862  1.00  0.00     0.049 A 
ATOM     51  N   UNL A   1      42.820  26.893  27.856  1.00  0.00    -0.248 NA
ATOM     52  C   UNL A   1      41.264  25.154  27.874  1.00  0.00     0.031 C 
ATOM     53  C   UNL A   1      45.921  24.050  26.333  1.00  0.00     0.029 A 
ATOM     54  N   UNL A   1      45.532  26.151  26.992  1.00  0.00    -0.354 N 
ATOM     55  C   UNL A   1      41.586  27.383  28.262  1.00  0.00     0.074 A 
ATOM     56  C   UNL A   1      40.650  26.282  28.195  1.00  0.00     0.031 C 
ATOM     57  C   UNL A   1      47.070  24.732  26.201  1.00  0.00     0.029 A 
ATOM     58  C   UNL A   1      46.849  26.119  26.603  1.00  0.00     0.049 A 
ATOM     59  H   UNL A   1      45.090  26.962  27.331  1.00  0.00     0.167 HD
ATOM     60  C   UNL A   1      41.268  28.633  28.678  1.00  0.00     0.037 A 
ATOM     61  C   UNL A   1      47.770  27.100  26.566  1.00  0.00     0.037 A 
ATOM     62  C   UNL A   1      42.209  29.718  28.767  1.00  0.00     0.049 A 
ATOM     63  C   UNL A   1      47.388  28.482  27.022  1.00  0.00     0.074 A 
ATOM     64  C   UNL A   1      42.002  31.003  29.235  1.00  0.00     0.029 A 
ATOM     65  N   UNL A   1      43.538  29.645  28.375  1.00  0.00    -0.354 N 
ATOM     66  N   UNL A   1      46.236  28.915  27.474  1.00  0.00    -0.248 NA
ATOM     67  C   UNL A   1      48.436  29.510  26.968  1.00  0.00     0.031 C 
ATOM     68  C   UNL A   1      43.191  31.722  29.082  1.00  0.00     0.029 A 
ATOM     69  C   UNL A   1      44.156  30.871  28.566  1.00  0.00     0.049 A 
ATOM     70  H   UNL A   1      43.978  28.841  28.013  1.00  0.00     0.167 HD
ATOM     71  C   UNL A   1      46.426  30.256  27.781  1.00  0.00     0.074 A 
ATOM     72  C   UNL A   1      47.810  30.560  27.481  1.00  0.00     0.031 C 
ATOM     73  C   UNL A   1      45.536  31.154  28.266  1.00  0.00     0.037 A 
BRANCH  60  74
ATOM     74  C   UNL A   1      39.844  28.894  29.073  1.00  0.00     0.064 A 
ATOM     75  C   UNL A   1      38.887  29.318  28.137  1.00  0.00     0.173 A 
ATOM     76  C   UNL A   1      39.419  28.677  30.392  1.00  0.00     0.173 A 
ATOM     77  F   UNL A   1      39.244  29.550  26.866  1.00  0.00    -0.203 F 
ATOM     78  C   UNL A   1      37.566  29.543  28.515  1.00  0.00     0.198 A 
ATOM     79  C   UNL A   1      38.090  28.873  30.759  1.00  0.00     0.198 A 
ATOM     80  F   UNL A   1      40.291  28.266  31.325  1.00  0.00    -0.203 F 
ATOM     81  F   UNL A   1      36.682  29.994  27.615  1.00  0.00    -0.200 F 
ATOM     82  C   UNL A   1      37.167  29.313  29.823  1.00  0.00     0.200 A 
ATOM     83  F   UNL A   1      37.703  28.639  32.021  1.00  0.00    -0.200 F 
ATOM     84  F   UNL A   1      35.893  29.522  30.183  1.00  0.00    -0.200 F 
ENDBRANCH  60  74
BRANCH  61  85
ATOM     85  C   UNL A   1      49.150  26.808  26.096  1.00  0.00     0.064 A 
ATOM     86  C   UNL A   1      49.508  26.995  24.754  1.00  0.00     0.173 A 
ATOM     87  C   UNL A   1      50.134  26.329  26.973  1.00  0.00     0.173 A 
ATOM     88  F   UNL A   1      48.595  27.432  23.872  1.00  0.00    -0.203 F 
ATOM     89  C   UNL A   1      50.790  26.693  24.301  1.00  0.00     0.198 A 
ATOM     90  C   UNL A   1      51.425  26.056  26.527  1.00  0.00     0.198 A 
ATOM     91  F   UNL A   1      49.845  26.139  28.269  1.00  0.00    -0.203 F 
ATOM     92  F   UNL A   1      51.091  26.835  23.004  1.00  0.00    -0.200 F 
ATOM     93  C   UNL A   1      51.750  26.229  25.190  1.00  0.00     0.200 A 
ATOM     94  F   UNL A   1      52.353  25.622  27.390  1.00  0.00    -0.200 F 
ATOM     95  F   UNL A   1      52.984  25.942  24.755  1.00  0.00    -0.200 F 
ENDBRANCH  61  85
BRANCH  73  96
ATOM     96  C   UNL A   1      46.035  32.546  28.529  1.00  0.00     0.064 A 
ATOM     97  C   UNL A   1      46.610  32.900  29.759  1.00  0.00     0.173 A 
ATOM     98  C   UNL A   1      45.976  33.524  27.525  1.00  0.00     0.173 A 
ATOM     99  F   UNL A   1      46.675  32.005  30.756  1.00  0.00    -0.203 F 
ATOM    100  C   UNL A   1      47.087  34.189  29.980  1.00  0.00     0.198 A 
ATOM    101  C   UNL A   1      46.482  34.803  27.739  1.00  0.00     0.198 A 
ATOM    102  F   UNL A   1      45.442  33.234  26.328  1.00  0.00    -0.203 F 
ATOM    103  F   UNL A   1      47.589  34.519  31.178  1.00  0.00    -0.200 F 
ATOM    104  C   UNL A   1      47.029  35.136  28.968  1.00  0.00     0.200 A 
ATOM    105  F   UNL A   1      46.439  35.712  26.756  1.00  0.00    -0.200 F 
ATOM    106  F   UNL A   1      47.498  36.374  29.181  1.00  0.00    -0.200 F 
ENDBRANCH  73  96
ENDBRANCH  47  48
ENDBRANCH  39  42
ENDBRANCH  37  38
ENDBRANCH  36  37
ENDBRANCH  35  36
ENDBRANCH   1  35
TORSDOF 18
ENDMDL
MODEL 3
REMARK VINA RESULT:     -12.7      0.738      6.972
REMARK SMILES Cc1c[nH]c(C[N@@H+](C)[C@@H](C(=O)NCCCCCCNC(=O)c2ccc(-c3c4nc(c(-c5c(F)c(F)c(F)c(F)c5F)c5ccc([nH]5)c(-c5c(F)c(F)c(F)c(F)c5F)c5nc(c(-c6c(F)c(F)c(F)c(F)c6F)c6ccc3[nH]6)C=C5)C=C4)cc2)c2ccc(NC(=O)N3CCCC3)cc2)n1
REMARK SMILES IDX 15 1 14 2 13 3 12 4 10 5 11 6 9 8 7 9 8 10 6 12 5 13 1 14
REMARK SMILES IDX 2 15 3 16 99 17 4 18 85 20 86 21 98 22 87 23 97 24 88 25
REMARK SMILES IDX 89 26 90 27 91 29 92 30 93 31 96 32 94 33 95 34 16 35 17 36
REMARK SMILES IDX 18 37 19 38 20 39 21 41 22 42 23 43 84 44 24 45 83 46 25 47
REMARK SMILES IDX 26 48 27 49 77 50 28 51 82 52 76 53 78 54 29 55 81 56 75 57
REMARK SMILES IDX 74 58 30 60 62 61 42 62 61 63 43 64 46 65 60 66 79 67 44 68
REMARK SMILES IDX 45 69 59 71 80 72 47 73 31 74 32 75 40 76 33 77 34 78 38 79
REMARK SMILES IDX 41 80 35 81 36 82 39 83 37 84 63 85 64 86 72 87 65 88 66 89
REMARK SMILES IDX 70 90 73 91 67 92 68 93 71 94 69 95 48 96 49 97 57 98 50 99
REMARK SMILES IDX 51 100 55 101 58 102 52 103 53 104 56 105 54 106
REMARK H PARENT 12 7 7 11 4 19 89 28 19 40 78 59 46 70
REMARK Flexibility Score: inf
ROOT
ATOM      1  C   UNL A   1      36.930  21.967  24.905  1.00  0.00     0.002 C 
ENDROOT
BRANCH   1   2
ATOM      2  C   UNL A   1      36.650  22.629  23.550  1.00  0.00     0.021 C 
BRANCH   2   3
ATOM      3  C   UNL A   1      35.580  23.723  23.609  1.00  0.00     0.116 C 
BRANCH   3   4
ATOM      4  N   UNL A   1      34.452  23.325  22.796  1.00  0.00    -0.351 N 
ATOM      5  C   UNL A   1      33.260  22.806  23.220  1.00  0.00     0.283 C 
ATOM      6  O   UNL A   1      32.671  22.059  22.428  1.00  0.00    -0.268 OA
ATOM      7  H   UNL A   1      34.555  23.441  21.824  1.00  0.00     0.163 HD
BRANCH   5   8
ATOM      8  C   UNL A   1      32.677  23.204  24.618  1.00  0.00     0.305 C 
BRANCH   8   9
ATOM      9  N   UNL A   1      32.010  22.051  25.285  1.00  0.00    -0.317 N 
ATOM     10  C   UNL A   1      30.732  22.340  25.905  1.00  0.00     0.334 C 
ATOM     11  H   UNL A   1      31.810  21.487  24.460  1.00  0.00     0.349 HD
BRANCH   9  12
ATOM     12  C   UNL A   1      32.841  21.170  26.119  1.00  0.00     0.339 C 
BRANCH  12  13
ATOM     13  C   UNL A   1      32.907  19.764  25.613  1.00  0.00     0.161 A 
ATOM     14  C   UNL A   1      33.494  17.241  23.182  1.00  0.00     0.068 C 
ATOM     15  C   UNL A   1      33.141  18.005  24.398  1.00  0.00     0.056 A 
ATOM     16  C   UNL A   1      32.896  17.551  25.674  1.00  0.00     0.107 A 
ATOM     17  N   UNL A   1      33.070  19.376  24.361  1.00  0.00    -0.233 NA
ATOM     18  N   UNL A   1      32.786  18.677  26.442  1.00  0.00    -0.344 N 
ATOM     19  H   UNL A   1      32.646  18.703  27.416  1.00  0.00     0.167 HD
ENDBRANCH  12  13
ENDBRANCH   9  12
ENDBRANCH   8   9
BRANCH   8  20
ATOM     20  C   UNL A   1      31.754  24.431  24.517  1.00  0.00     0.019 A 
ATOM     21  C   UNL A   1      31.461  25.235  25.627  1.00  0.00     0.012 A 
ATOM     22  C   UNL A   1      31.190  24.804  23.287  1.00  0.00     0.012 A 
ATOM     23  C   UNL A   1      30.888  26.494  25.454  1.00  0.00     0.027 A 
ATOM     24  C   UNL A   1      30.633  26.074  23.114  1.00  0.00     0.027 A 
ATOM     25  C   UNL A   1      30.624  26.973  24.176  1.00  0.00     0.042 A 
BRANCH  25  26
ATOM     26  N   UNL A   1      30.387  28.330  23.896  1.00  0.00    -0.308 N 
ATOM     27  C   UNL A   1      30.876  29.458  24.484  1.00  0.00     0.321 C 
ATOM     28  H   UNL A   1      29.764  28.492  23.151  1.00  0.00     0.171 HD
ATOM     29  O   UNL A   1      30.222  30.499  24.389  1.00  0.00    -0.248 OA
ATOM     30  N   UNL A   1      32.070  29.426  25.147  1.00  0.00    -0.325 N 
ATOM     31  C   UNL A   1      33.292  28.758  24.739  1.00  0.00     0.121 C 
ATOM     32  C   UNL A   1      32.375  30.392  26.177  1.00  0.00     0.121 C 
ATOM     33  C   UNL A   1      34.068  28.642  26.037  1.00  0.00     0.023 C 
ATOM     34  C   UNL A   1      33.673  29.898  26.816  1.00  0.00     0.023 C 
ENDBRANCH  25  26
ENDBRANCH   8  20
ENDBRANCH   5   8
ENDBRANCH   3   4
ENDBRANCH   2   3
ENDBRANCH   1   2
BRANCH   1  35
ATOM     35  C   UNL A   1      36.666  20.460  24.948  1.00  0.00     0.002 C 
BRANCH  35  36
ATOM     36  C   UNL A   1      37.923  19.588  24.951  1.00  0.00     0.021 C 
BRANCH  36  37
ATOM     37  C   UNL A   1      39.096  20.175  25.730  1.00  0.00     0.116 C 
BRANCH  37  38
ATOM     38  N   UNL A   1      40.169  19.209  25.903  1.00  0.00    -0.352 N 
ATOM     39  C   UNL A   1      41.509  19.427  26.097  1.00  0.00     0.251 C 
ATOM     40  H   UNL A   1      39.895  18.264  25.877  1.00  0.00     0.163 HD
ATOM     41  O   UNL A   1      42.309  18.503  26.002  1.00  0.00    -0.269 OA
BRANCH  39  42
ATOM     42  C   UNL A   1      41.989  20.789  26.407  1.00  0.00     0.039 A 
ATOM     43  C   UNL A   1      42.262  21.667  25.355  1.00  0.00     0.014 A 
ATOM     44  C   UNL A   1      42.178  21.195  27.732  1.00  0.00     0.014 A 
ATOM     45  C   UNL A   1      42.671  22.971  25.633  1.00  0.00     0.010 A 
ATOM     46  C   UNL A   1      42.518  22.516  28.009  1.00  0.00     0.010 A 
ATOM     47  C   UNL A   1      42.774  23.415  26.962  1.00  0.00    -0.014 A 
BRANCH  47  48
ATOM     48  C   UNL A   1      43.153  24.815  27.276  1.00  0.00     0.031 A 
ATOM     49  C   UNL A   1      44.562  25.284  27.049  1.00  0.00     0.074 A 
ATOM     50  C   UNL A   1      42.241  25.645  27.819  1.00  0.00     0.049 A 
ATOM     51  N   UNL A   1      45.101  26.447  27.317  1.00  0.00    -0.248 NA
ATOM     52  C   UNL A   1      45.499  24.309  26.469  1.00  0.00     0.031 C 
ATOM     53  C   UNL A   1      40.855  25.291  28.129  1.00  0.00     0.029 A 
ATOM     54  N   UNL A   1      42.347  26.954  28.218  1.00  0.00    -0.354 N 
ATOM     55  C   UNL A   1      46.436  26.337  26.950  1.00  0.00     0.074 A 
ATOM     56  C   UNL A   1      46.640  24.980  26.492  1.00  0.00     0.031 C 
ATOM     57  C   UNL A   1      40.234  26.362  28.649  1.00  0.00     0.029 A 
ATOM     58  C   UNL A   1      41.186  27.465  28.744  1.00  0.00     0.049 A 
ATOM     59  H   UNL A   1      43.177  27.477  28.134  1.00  0.00     0.167 HD
ATOM     60  C   UNL A   1      47.398  27.291  26.969  1.00  0.00     0.037 A 
ATOM     61  C   UNL A   1      40.923  28.683  29.253  1.00  0.00     0.037 A 
ATOM     62  C   UNL A   1      47.183  28.647  27.402  1.00  0.00     0.049 A 
ATOM     63  C   UNL A   1      42.013  29.721  29.273  1.00  0.00     0.074 A 
ATOM     64  C   UNL A   1      48.075  29.705  27.400  1.00  0.00     0.029 A 
ATOM     65  N   UNL A   1      45.990  29.132  27.918  1.00  0.00    -0.354 N 
ATOM     66  N   UNL A   1      43.251  29.628  28.855  1.00  0.00    -0.248 NA
ATOM     67  C   UNL A   1      41.666  31.035  29.832  1.00  0.00     0.031 C 
ATOM     68  C   UNL A   1      47.438  30.816  27.959  1.00  0.00     0.029 A 
ATOM     69  C   UNL A   1      46.131  30.466  28.263  1.00  0.00     0.049 A 
ATOM     70  H   UNL A   1      45.165  28.604  28.024  1.00  0.00     0.167 HD
ATOM     71  C   UNL A   1      43.824  30.873  29.076  1.00  0.00     0.074 A 
ATOM     72  C   UNL A   1      42.791  31.711  29.649  1.00  0.00     0.031 C 
ATOM     73  C   UNL A   1      45.091  31.286  28.827  1.00  0.00     0.037 A 
BRANCH  60  74
ATOM     74  C   UNL A   1      48.772  26.903  26.505  1.00  0.00     0.064 A 
ATOM     75  C   UNL A   1      49.718  26.356  27.385  1.00  0.00     0.173 A 
ATOM     76  C   UNL A   1      49.132  27.039  25.156  1.00  0.00     0.173 A 
ATOM     77  F   UNL A   1      49.427  26.215  28.686  1.00  0.00    -0.203 F 
ATOM     78  C   UNL A   1      50.984  25.988  26.937  1.00  0.00     0.198 A 
ATOM     79  C   UNL A   1      50.389  26.641  24.706  1.00  0.00     0.198 A 
ATOM     80  F   UNL A   1      48.264  27.552  24.271  1.00  0.00    -0.203 F 
ATOM     81  F   UNL A   1      51.888  25.513  27.806  1.00  0.00    -0.200 F 
ATOM     82  C   UNL A   1      51.316  26.123  25.598  1.00  0.00     0.200 A 
ATOM     83  F   UNL A   1      50.704  26.760  23.409  1.00  0.00    -0.200 F 
ATOM     84  F   UNL A   1      52.532  25.760  25.167  1.00  0.00    -0.200 F 
ENDBRANCH  60  74
BRANCH  61  85
ATOM     85  C   UNL A   1      39.565  28.997  29.769  1.00  0.00     0.064 A 
ATOM     86  C   UNL A   1      38.583  29.540  28.929  1.00  0.00     0.173 A 
ATOM     87  C   UNL A   1      39.221  28.768  31.110  1.00  0.00     0.173 A 
ATOM     88  F   UNL A   1      38.870  29.795  27.643  1.00  0.00    -0.203 F 
ATOM     89  C   UNL A   1      37.318  29.865  29.414  1.00  0.00     0.198 A 
ATOM     90  C   UNL A   1      37.947  29.065  31.588  1.00  0.00     0.198 A 
ATOM     91  F   UNL A   1      40.122  28.244  31.954  1.00  0.00    -0.203 F 
ATOM     92  F   UNL A   1      36.416  30.428  28.600  1.00  0.00    -0.200 F 
ATOM     93  C   UNL A   1      36.999  29.622  30.742  1.00  0.00     0.200 A 
ATOM     94  F   UNL A   1      37.638  28.815  32.867  1.00  0.00    -0.200 F 
ATOM     95  F   UNL A   1      35.782  29.932  31.207  1.00  0.00    -0.200 F 
ENDBRANCH  61  85
BRANCH  73  96
ATOM     96  C   UNL A   1      45.425  32.715  29.149  1.00  0.00     0.064 A 
ATOM     97  C   UNL A   1      45.975  33.080  30.386  1.00  0.00     0.173 A 
ATOM     98  C   UNL A   1      45.230  33.722  28.192  1.00  0.00     0.173 A 
ATOM     99  F   UNL A   1      46.164  32.156  31.340  1.00  0.00    -0.203 F 
ATOM    100  C   UNL A   1      46.297  34.406  30.661  1.00  0.00     0.198 A 
ATOM    101  C   UNL A   1      45.583  35.042  28.459  1.00  0.00     0.198 A 
ATOM    102  F   UNL A   1      44.714  33.423  26.990  1.00  0.00    -0.203 F 
ATOM    103  F   UNL A   1      46.778  34.740  31.867  1.00  0.00    -0.200 F 
ATOM    104  C   UNL A   1      46.108  35.384  29.696  1.00  0.00     0.200 A 
ATOM    105  F   UNL A   1      45.413  35.982  27.520  1.00  0.00    -0.200 F 
ATOM    106  F   UNL A   1      46.428  36.658  29.959  1.00  0.00    -0.200 F 
ENDBRANCH  73  96
ENDBRANCH  47  48
ENDBRANCH  39  42
ENDBRANCH  37  38
ENDBRANCH  36  37
ENDBRANCH  35  36
ENDBRANCH   1  35
TORSDOF 18
ENDMDL
