MODEL 1
REMARK VINA RESULT:     -12.3      0.000      0.000
REMARK SMILES C[C@H](O)[C@H](C)[N@H+]1Cc2ccccc2C[C@@H]1C(=O)NCCCCCCNC(=O)c1ccc(-c2c3nc(c(-c4c(F)c(F)c(F)c(F)c4F)c4ccc([nH]4)c(-c4c(F)c(F)c(F)c(F)c4F)c4nc(c(-c5c(F)c(F)c(F)c(F)c5F)c5ccc2[nH]5)C=C4)C=C3)cc1
REMARK SMILES IDX 21 1 20 2 19 3 18 4 16 5 17 6 15 8 6 9 7 10 8 12 14 13 9 14
REMARK SMILES IDX 13 15 10 16 12 17 11 18 4 19 5 20 2 21 1 22 3 23 22 25 23 26
REMARK SMILES IDX 24 27 25 28 26 29 27 31 28 32 29 33 90 34 30 35 89 36 31 37
REMARK SMILES IDX 32 38 33 39 83 40 34 41 88 42 82 43 84 44 35 45 87 46 81 47
REMARK SMILES IDX 80 48 36 50 68 51 48 52 67 53 49 54 52 55 66 56 85 57 50 58
REMARK SMILES IDX 51 59 65 61 86 62 53 63 37 64 38 65 46 66 39 67 40 68 44 69
REMARK SMILES IDX 47 70 41 71 42 72 45 73 43 74 69 75 70 76 78 77 71 78 72 79
REMARK SMILES IDX 76 80 79 81 73 82 74 83 77 84 75 85 54 86 55 87 63 88 56 89
REMARK SMILES IDX 57 90 61 91 64 92 58 93 59 94 62 95 60 96
REMARK H PARENT 18 7 6 11 3 24 25 30 84 49 52 60
REMARK Flexibility Score: inf
ROOT
ATOM      1  C   UNL A   1      32.305  29.866  27.274  1.00  0.00     0.002 C 
ENDROOT
BRANCH   1   2
ATOM      2  C   UNL A   1      33.820  29.656  27.161  1.00  0.00     0.021 C 
BRANCH   2   3
ATOM      3  C   UNL A   1      34.207  28.544  26.186  1.00  0.00     0.116 C 
BRANCH   3   4
ATOM      4  N   UNL A   1      33.372  27.388  26.406  1.00  0.00    -0.351 N 
ATOM      5  C   UNL A   1      32.378  26.863  25.634  1.00  0.00     0.278 C 
ATOM      6  O   UNL A   1      31.634  26.058  26.198  1.00  0.00    -0.268 OA
ATOM      7  H   UNL A   1      33.547  26.902  27.244  1.00  0.00     0.163 HD
BRANCH   5   8
ATOM      8  C   UNL A   1      32.289  27.225  24.120  1.00  0.00     0.279 C 
ATOM      9  N   UNL A   1      30.988  26.817  23.564  1.00  0.00    -0.316 N 
ATOM     10  C   UNL A   1      30.921  25.493  22.928  1.00  0.00     0.300 C 
ATOM     11  H   UNL A   1      30.553  26.727  24.482  1.00  0.00     0.349 HD
ATOM     12  C   UNL A   1      32.098  24.571  23.148  1.00  0.00     0.010 A 
ATOM     13  C   UNL A   1      33.515  26.598  23.417  1.00  0.00     0.111 C 
ATOM     14  C   UNL A   1      31.942  23.180  23.126  1.00  0.00     0.010 A 
ATOM     15  C   UNL A   1      33.383  25.107  23.301  1.00  0.00    -0.033 A 
ATOM     16  C   UNL A   1      33.055  22.344  23.246  1.00  0.00     0.001 A 
ATOM     17  C   UNL A   1      34.499  24.270  23.387  1.00  0.00     0.004 A 
ATOM     18  C   UNL A   1      34.332  22.889  23.363  1.00  0.00     0.000 A 
BRANCH   9  19
ATOM     19  C   UNL A   1      30.078  27.807  22.951  1.00  0.00     0.210 C 
ATOM     20  C   UNL A   1      28.621  27.544  23.362  1.00  0.00     0.078 C 
BRANCH  19  21
ATOM     21  C   UNL A   1      30.425  29.342  22.922  1.00  0.00     0.169 C 
ATOM     22  C   UNL A   1      29.361  30.345  23.352  1.00  0.00     0.045 C 
BRANCH  21  23
ATOM     23  O   UNL A   1      30.827  29.710  21.591  1.00  0.00    -0.387 OA
ATOM     24  H   UNL A   1      30.055  29.697  21.005  1.00  0.00     0.211 HD
ENDBRANCH  21  23
ENDBRANCH  19  21
ENDBRANCH   9  19
ENDBRANCH   5   8
ENDBRANCH   3   4
ENDBRANCH   2   3
ENDBRANCH   1   2
BRANCH   1  25
ATOM     25  C   UNL A   1      31.718  30.819  26.230  1.00  0.00     0.002 C 
BRANCH  25  26
ATOM     26  C   UNL A   1      31.494  32.247  26.732  1.00  0.00     0.021 C 
BRANCH  26  27
ATOM     27  C   UNL A   1      32.768  32.953  27.187  1.00  0.00     0.116 C 
BRANCH  27  28
ATOM     28  N   UNL A   1      32.503  34.316  27.615  1.00  0.00    -0.352 N 
ATOM     29  C   UNL A   1      33.029  35.013  28.673  1.00  0.00     0.251 C 
ATOM     30  H   UNL A   1      31.853  34.812  27.066  1.00  0.00     0.163 HD
ATOM     31  O   UNL A   1      32.529  36.073  29.028  1.00  0.00    -0.269 OA
BRANCH  29  32
ATOM     32  C   UNL A   1      34.197  34.470  29.394  1.00  0.00     0.039 A 
ATOM     33  C   UNL A   1      33.996  33.823  30.615  1.00  0.00     0.014 A 
ATOM     34  C   UNL A   1      35.486  34.607  28.872  1.00  0.00     0.014 A 
ATOM     35  C   UNL A   1      35.084  33.265  31.288  1.00  0.00     0.010 A 
ATOM     36  C   UNL A   1      36.559  33.985  29.504  1.00  0.00     0.010 A 
ATOM     37  C   UNL A   1      36.370  33.313  30.722  1.00  0.00    -0.014 A 
BRANCH  37  38
ATOM     38  C   UNL A   1      37.525  32.665  31.390  1.00  0.00     0.031 A 
ATOM     39  C   UNL A   1      38.222  31.502  30.738  1.00  0.00     0.074 A 
ATOM     40  C   UNL A   1      37.903  33.082  32.614  1.00  0.00     0.049 A 
ATOM     41  N   UNL A   1      39.202  30.765  31.194  1.00  0.00    -0.248 NA
ATOM     42  C   UNL A   1      37.733  31.094  29.412  1.00  0.00     0.031 C 
ATOM     43  C   UNL A   1      37.270  34.164  33.371  1.00  0.00     0.029 A 
ATOM     44  N   UNL A   1      38.901  32.637  33.445  1.00  0.00    -0.354 N 
ATOM     45  C   UNL A   1      39.432  29.799  30.223  1.00  0.00     0.074 A 
ATOM     46  C   UNL A   1      38.461  30.013  29.174  1.00  0.00     0.031 C 
ATOM     47  C   UNL A   1      37.902  34.307  34.547  1.00  0.00     0.029 A 
ATOM     48  C   UNL A   1      38.957  33.303  34.645  1.00  0.00     0.049 A 
ATOM     49  H   UNL A   1      39.518  31.909  33.204  1.00  0.00     0.167 HD
ATOM     50  C   UNL A   1      40.381  28.834  30.203  1.00  0.00     0.037 A 
ATOM     51  C   UNL A   1      39.758  33.116  35.711  1.00  0.00     0.037 A 
ATOM     52  C   UNL A   1      41.368  28.648  31.235  1.00  0.00     0.049 A 
ATOM     53  C   UNL A   1      40.810  32.040  35.654  1.00  0.00     0.074 A 
ATOM     54  C   UNL A   1      42.425  27.757  31.264  1.00  0.00     0.029 A 
ATOM     55  N   UNL A   1      41.413  29.363  32.422  1.00  0.00    -0.354 N 
ATOM     56  N   UNL A   1      41.078  31.193  34.690  1.00  0.00    -0.248 NA
ATOM     57  C   UNL A   1      41.679  31.900  36.831  1.00  0.00     0.031 C 
ATOM     58  C   UNL A   1      43.073  27.888  32.497  1.00  0.00     0.029 A 
ATOM     59  C   UNL A   1      42.460  28.908  33.206  1.00  0.00     0.049 A 
ATOM     60  H   UNL A   1      40.793  30.086  32.671  1.00  0.00     0.167 HD
ATOM     61  C   UNL A   1      42.161  30.442  35.130  1.00  0.00     0.074 A 
ATOM     62  C   UNL A   1      42.512  30.948  36.440  1.00  0.00     0.031 C 
ATOM     63  C   UNL A   1      42.804  29.427  34.506  1.00  0.00     0.037 A 
BRANCH  50  64
ATOM     64  C   UNL A   1      40.406  27.894  29.032  1.00  0.00     0.064 A 
ATOM     65  C   UNL A   1      39.631  26.724  29.004  1.00  0.00     0.173 A 
ATOM     66  C   UNL A   1      41.166  28.203  27.893  1.00  0.00     0.173 A 
ATOM     67  F   UNL A   1      38.894  26.377  30.070  1.00  0.00    -0.203 F 
ATOM     68  C   UNL A   1      39.631  25.891  27.888  1.00  0.00     0.198 A 
ATOM     69  C   UNL A   1      41.139  27.384  26.767  1.00  0.00     0.198 A 
ATOM     70  F   UNL A   1      41.920  29.312  27.864  1.00  0.00    -0.203 F 
ATOM     71  F   UNL A   1      38.913  24.759  27.899  1.00  0.00    -0.200 F 
ATOM     72  C   UNL A   1      40.376  26.227  26.768  1.00  0.00     0.200 A 
ATOM     73  F   UNL A   1      41.847  27.720  25.680  1.00  0.00    -0.200 F 
ATOM     74  F   UNL A   1      40.361  25.433  25.688  1.00  0.00    -0.200 F 
ENDBRANCH  50  64
BRANCH  51  75
ATOM     75  C   UNL A   1      39.601  33.964  36.923  1.00  0.00     0.064 A 
ATOM     76  C   UNL A   1      38.823  33.539  38.009  1.00  0.00     0.173 A 
ATOM     77  C   UNL A   1      40.204  35.228  37.009  1.00  0.00     0.173 A 
ATOM     78  F   UNL A   1      38.210  32.346  37.969  1.00  0.00    -0.203 F 
ATOM     79  C   UNL A   1      38.627  34.358  39.119  1.00  0.00     0.198 A 
ATOM     80  C   UNL A   1      40.035  36.032  38.134  1.00  0.00     0.198 A 
ATOM     81  F   UNL A   1      40.964  35.681  36.002  1.00  0.00    -0.203 F 
ATOM     82  F   UNL A   1      37.829  33.952  40.116  1.00  0.00    -0.200 F 
ATOM     83  C   UNL A   1      39.237  35.602  39.183  1.00  0.00     0.200 A 
ATOM     84  F   UNL A   1      40.641  37.225  38.198  1.00  0.00    -0.200 F 
ATOM     85  F   UNL A   1      39.046  36.390  40.250  1.00  0.00    -0.200 F 
ENDBRANCH  51  75
BRANCH  63  86
ATOM     86  C   UNL A   1      43.982  28.818  35.212  1.00  0.00     0.064 A 
ATOM     87  C   UNL A   1      43.833  27.754  36.114  1.00  0.00     0.173 A 
ATOM     88  C   UNL A   1      45.281  29.279  34.949  1.00  0.00     0.173 A 
ATOM     89  F   UNL A   1      42.611  27.286  36.411  1.00  0.00    -0.203 F 
ATOM     90  C   UNL A   1      44.940  27.194  36.749  1.00  0.00     0.198 A 
ATOM     91  C   UNL A   1      46.387  28.693  35.558  1.00  0.00     0.198 A 
ATOM     92  F   UNL A   1      45.480  30.288  34.088  1.00  0.00    -0.203 F 
ATOM     93  F   UNL A   1      44.769  26.215  37.647  1.00  0.00    -0.200 F 
ATOM     94  C   UNL A   1      46.215  27.658  36.463  1.00  0.00     0.200 A 
ATOM     95  F   UNL A   1      47.620  29.132  35.269  1.00  0.00    -0.200 F 
ATOM     96  F   UNL A   1      47.278  27.112  37.069  1.00  0.00    -0.200 F 
ENDBRANCH  63  86
ENDBRANCH  37  38
ENDBRANCH  29  32
ENDBRANCH  27  28
ENDBRANCH  26  27
ENDBRANCH  25  26
ENDBRANCH   1  25
TORSDOF 16
ENDMDL
MODEL 2
REMARK VINA RESULT:     -12.2      0.725      7.391
REMARK SMILES C[C@H](O)[C@H](C)[N@H+]1Cc2ccccc2C[C@@H]1C(=O)NCCCCCCNC(=O)c1ccc(-c2c3nc(c(-c4c(F)c(F)c(F)c(F)c4F)c4ccc([nH]4)c(-c4c(F)c(F)c(F)c(F)c4F)c4nc(c(-c5c(F)c(F)c(F)c(F)c5F)c5ccc2[nH]5)C=C4)C=C3)cc1
REMARK SMILES IDX 21 1 20 2 19 3 18 4 16 5 17 6 15 8 6 9 7 10 8 12 14 13 9 14
REMARK SMILES IDX 13 15 10 16 12 17 11 18 4 19 5 20 2 21 1 22 3 23 22 25 23 26
REMARK SMILES IDX 24 27 25 28 26 29 27 31 28 32 29 33 90 34 30 35 89 36 31 37
REMARK SMILES IDX 32 38 33 39 83 40 34 41 88 42 82 43 84 44 35 45 87 46 81 47
REMARK SMILES IDX 80 48 36 50 68 51 48 52 67 53 49 54 52 55 66 56 85 57 50 58
REMARK SMILES IDX 51 59 65 61 86 62 53 63 37 64 38 65 46 66 39 67 40 68 44 69
REMARK SMILES IDX 47 70 41 71 42 72 45 73 43 74 69 75 70 76 78 77 71 78 72 79
REMARK SMILES IDX 76 80 79 81 73 82 74 83 77 84 75 85 54 86 55 87 63 88 56 89
REMARK SMILES IDX 57 90 61 91 64 92 58 93 59 94 62 95 60 96
REMARK H PARENT 18 7 6 11 3 24 25 30 84 49 52 60
REMARK Flexibility Score: inf
ROOT
ATOM      1  C   UNL A   1      32.956  30.201  27.153  1.00  0.00     0.002 C 
ENDROOT
BRANCH   1   2
ATOM      2  C   UNL A   1      32.853  28.702  27.454  1.00  0.00     0.021 C 
BRANCH   2   3
ATOM      3  C   UNL A   1      31.413  28.206  27.582  1.00  0.00     0.116 C 
BRANCH   3   4
ATOM      4  N   UNL A   1      31.326  26.837  27.131  1.00  0.00    -0.351 N 
ATOM      5  C   UNL A   1      31.217  26.335  25.868  1.00  0.00     0.278 C 
ATOM      6  O   UNL A   1      30.860  25.157  25.793  1.00  0.00    -0.268 OA
ATOM      7  H   UNL A   1      31.348  26.162  27.847  1.00  0.00     0.163 HD
BRANCH   5   8
ATOM      8  C   UNL A   1      31.618  27.208  24.640  1.00  0.00     0.279 C 
ATOM      9  N   UNL A   1      30.763  26.900  23.482  1.00  0.00    -0.316 N 
ATOM     10  C   UNL A   1      31.265  25.896  22.533  1.00  0.00     0.300 C 
ATOM     11  H   UNL A   1      30.052  26.440  24.050  1.00  0.00     0.349 HD
ATOM     12  C   UNL A   1      32.460  25.081  22.970  1.00  0.00     0.010 A 
ATOM     13  C   UNL A   1      33.131  27.006  24.396  1.00  0.00     0.111 C 
ATOM     14  C   UNL A   1      32.668  23.784  22.486  1.00  0.00     0.010 A 
ATOM     15  C   UNL A   1      33.420  25.653  23.814  1.00  0.00    -0.033 A 
ATOM     16  C   UNL A   1      33.823  23.078  22.836  1.00  0.00     0.001 A 
ATOM     17  C   UNL A   1      34.591  24.958  24.136  1.00  0.00     0.004 A 
ATOM     18  C   UNL A   1      34.788  23.670  23.648  1.00  0.00     0.000 A 
BRANCH   9  19
ATOM     19  C   UNL A   1      29.938  27.947  22.844  1.00  0.00     0.210 C 
ATOM     20  C   UNL A   1      28.455  27.777  23.208  1.00  0.00     0.078 C 
BRANCH  19  21
ATOM     21  C   UNL A   1      30.383  29.457  22.832  1.00  0.00     0.169 C 
ATOM     22  C   UNL A   1      29.467  30.499  23.462  1.00  0.00     0.045 C 
BRANCH  21  23
ATOM     23  O   UNL A   1      30.609  29.871  21.473  1.00  0.00    -0.387 OA
ATOM     24  H   UNL A   1      30.172  30.722  21.318  1.00  0.00     0.211 HD
ENDBRANCH  21  23
ENDBRANCH  19  21
ENDBRANCH   9  19
ENDBRANCH   5   8
ENDBRANCH   3   4
ENDBRANCH   2   3
ENDBRANCH   1   2
BRANCH   1  25
ATOM     25  C   UNL A   1      31.695  30.811  26.534  1.00  0.00     0.002 C 
BRANCH  25  26
ATOM     26  C   UNL A   1      31.509  32.303  26.818  1.00  0.00     0.021 C 
BRANCH  26  27
ATOM     27  C   UNL A   1      32.807  33.046  27.119  1.00  0.00     0.116 C 
BRANCH  27  28
ATOM     28  N   UNL A   1      32.554  34.361  27.686  1.00  0.00    -0.352 N 
ATOM     29  C   UNL A   1      33.078  34.935  28.816  1.00  0.00     0.251 C 
ATOM     30  H   UNL A   1      31.917  34.920  27.186  1.00  0.00     0.163 HD
ATOM     31  O   UNL A   1      32.587  35.959  29.276  1.00  0.00    -0.269 OA
BRANCH  29  32
ATOM     32  C   UNL A   1      34.231  34.303  29.488  1.00  0.00     0.039 A 
ATOM     33  C   UNL A   1      33.999  33.459  30.576  1.00  0.00     0.014 A 
ATOM     34  C   UNL A   1      35.535  34.550  29.051  1.00  0.00     0.014 A 
ATOM     35  C   UNL A   1      35.074  32.820  31.193  1.00  0.00     0.010 A 
ATOM     36  C   UNL A   1      36.598  33.854  29.618  1.00  0.00     0.010 A 
ATOM     37  C   UNL A   1      36.379  32.986  30.699  1.00  0.00    -0.014 A 
BRANCH  37  38
ATOM     38  C   UNL A   1      37.525  32.259  31.301  1.00  0.00     0.031 A 
ATOM     39  C   UNL A   1      38.033  32.643  32.663  1.00  0.00     0.074 A 
ATOM     40  C   UNL A   1      38.149  31.300  30.591  1.00  0.00     0.049 A 
ATOM     41  N   UNL A   1      39.059  32.174  33.326  1.00  0.00    -0.248 NA
ATOM     42  C   UNL A   1      37.309  33.717  33.363  1.00  0.00     0.031 C 
ATOM     43  C   UNL A   1      37.783  30.878  29.237  1.00  0.00     0.029 A 
ATOM     44  N   UNL A   1      39.233  30.516  30.900  1.00  0.00    -0.354 N 
ATOM     45  C   UNL A   1      39.115  32.906  34.505  1.00  0.00     0.074 A 
ATOM     46  C   UNL A   1      38.049  33.881  34.450  1.00  0.00     0.031 C 
ATOM     47  C   UNL A   1      38.618  29.904  28.839  1.00  0.00     0.029 A 
ATOM     48  C   UNL A   1      39.601  29.661  29.890  1.00  0.00     0.049 A 
ATOM     49  H   UNL A   1      39.702  30.562  31.765  1.00  0.00     0.167 HD
ATOM     50  C   UNL A   1      39.969  32.762  35.545  1.00  0.00     0.037 A 
ATOM     51  C   UNL A   1      40.625  28.790  29.814  1.00  0.00     0.037 A 
ATOM     52  C   UNL A   1      41.006  31.766  35.609  1.00  0.00     0.049 A 
ATOM     53  C   UNL A   1      41.552  28.646  30.992  1.00  0.00     0.074 A 
ATOM     54  C   UNL A   1      41.864  31.482  36.657  1.00  0.00     0.029 A 
ATOM     55  N   UNL A   1      41.330  30.895  34.579  1.00  0.00    -0.354 N 
ATOM     56  N   UNL A   1      41.537  29.281  32.139  1.00  0.00    -0.248 NA
ATOM     57  C   UNL A   1      42.633  27.659  30.868  1.00  0.00     0.031 C 
ATOM     58  C   UNL A   1      42.749  30.483  36.238  1.00  0.00     0.029 A 
ATOM     59  C   UNL A   1      42.398  30.098  34.955  1.00  0.00     0.049 A 
ATOM     60  H   UNL A   1      40.869  30.852  33.710  1.00  0.00     0.167 HD
ATOM     61  C   UNL A   1      42.583  28.749  32.883  1.00  0.00     0.074 A 
ATOM     62  C   UNL A   1      43.200  27.727  32.063  1.00  0.00     0.031 C 
ATOM     63  C   UNL A   1      42.996  29.078  34.130  1.00  0.00     0.037 A 
BRANCH  50  64
ATOM     64  C   UNL A   1      39.829  33.703  36.708  1.00  0.00     0.064 A 
ATOM     65  C   UNL A   1      40.481  34.945  36.739  1.00  0.00     0.173 A 
ATOM     66  C   UNL A   1      38.976  33.385  37.776  1.00  0.00     0.173 A 
ATOM     67  F   UNL A   1      41.314  35.295  35.748  1.00  0.00    -0.203 F 
ATOM     68  C   UNL A   1      40.298  35.824  37.803  1.00  0.00     0.198 A 
ATOM     69  C   UNL A   1      38.771  34.278  38.823  1.00  0.00     0.198 A 
ATOM     70  F   UNL A   1      38.323  32.213  37.794  1.00  0.00    -0.203 F 
ATOM     71  F   UNL A   1      40.961  36.989  37.830  1.00  0.00    -0.200 F 
ATOM     72  C   UNL A   1      39.436  35.495  38.839  1.00  0.00     0.200 A 
ATOM     73  F   UNL A   1      37.925  33.965  39.814  1.00  0.00    -0.200 F 
ATOM     74  F   UNL A   1      39.248  36.350  39.854  1.00  0.00    -0.200 F 
ENDBRANCH  50  64
BRANCH  51  75
ATOM     75  C   UNL A   1      40.831  27.985  28.581  1.00  0.00     0.064 A 
ATOM     76  C   UNL A   1      41.634  28.457  27.532  1.00  0.00     0.173 A 
ATOM     77  C   UNL A   1      40.209  26.738  28.414  1.00  0.00     0.173 A 
ATOM     78  F   UNL A   1      42.236  29.651  27.634  1.00  0.00    -0.203 F 
ATOM     79  C   UNL A   1      41.779  27.729  26.352  1.00  0.00     0.198 A 
ATOM     80  C   UNL A   1      40.382  25.996  27.247  1.00  0.00     0.198 A 
ATOM     81  F   UNL A   1      39.437  26.236  29.388  1.00  0.00    -0.203 F 
ATOM     82  F   UNL A   1      42.502  28.233  25.342  1.00  0.00    -0.200 F 
ATOM     83  C   UNL A   1      41.157  26.498  26.213  1.00  0.00     0.200 A 
ATOM     84  F   UNL A   1      39.794  24.799  27.124  1.00  0.00    -0.200 F 
ATOM     85  F   UNL A   1      41.295  25.799  25.077  1.00  0.00    -0.200 F 
ENDBRANCH  51  75
BRANCH  63  86
ATOM     86  C   UNL A   1      44.145  28.300  34.706  1.00  0.00     0.064 A 
ATOM     87  C   UNL A   1      43.949  27.095  35.397  1.00  0.00     0.173 A 
ATOM     88  C   UNL A   1      45.464  28.746  34.527  1.00  0.00     0.173 A 
ATOM     89  F   UNL A   1      42.707  26.632  35.608  1.00  0.00    -0.203 F 
ATOM     90  C   UNL A   1      45.029  26.382  35.913  1.00  0.00     0.198 A 
ATOM     91  C   UNL A   1      46.542  28.012  35.013  1.00  0.00     0.198 A 
ATOM     92  F   UNL A   1      45.707  29.888  33.866  1.00  0.00    -0.203 F 
ATOM     93  F   UNL A   1      44.813  25.261  36.616  1.00  0.00    -0.200 F 
ATOM     94  C   UNL A   1      46.323  26.837  35.712  1.00  0.00     0.200 A 
ATOM     95  F   UNL A   1      47.793  28.445  34.803  1.00  0.00    -0.200 F 
ATOM     96  F   UNL A   1      47.360  26.143  36.201  1.00  0.00    -0.200 F 
ENDBRANCH  63  86
ENDBRANCH  37  38
ENDBRANCH  29  32
ENDBRANCH  27  28
ENDBRANCH  26  27
ENDBRANCH  25  26
ENDBRANCH   1  25
TORSDOF 16
ENDMDL
MODEL 3
REMARK VINA RESULT:     -12.2      1.094      2.138
REMARK SMILES C[C@H](O)[C@H](C)[N@H+]1Cc2ccccc2C[C@@H]1C(=O)NCCCCCCNC(=O)c1ccc(-c2c3nc(c(-c4c(F)c(F)c(F)c(F)c4F)c4ccc([nH]4)c(-c4c(F)c(F)c(F)c(F)c4F)c4nc(c(-c5c(F)c(F)c(F)c(F)c5F)c5ccc2[nH]5)C=C4)C=C3)cc1
REMARK SMILES IDX 21 1 20 2 19 3 18 4 16 5 17 6 15 8 6 9 7 10 8 12 14 13 9 14
REMARK SMILES IDX 13 15 10 16 12 17 11 18 4 19 5 20 2 21 1 22 3 23 22 25 23 26
REMARK SMILES IDX 24 27 25 28 26 29 27 31 28 32 29 33 90 34 30 35 89 36 31 37
REMARK SMILES IDX 32 38 33 39 83 40 34 41 88 42 82 43 84 44 35 45 87 46 81 47
REMARK SMILES IDX 80 48 36 50 68 51 48 52 67 53 49 54 52 55 66 56 85 57 50 58
REMARK SMILES IDX 51 59 65 61 86 62 53 63 37 64 38 65 46 66 39 67 40 68 44 69
REMARK SMILES IDX 47 70 41 71 42 72 45 73 43 74 69 75 70 76 78 77 71 78 72 79
REMARK SMILES IDX 76 80 79 81 73 82 74 83 77 84 75 85 54 86 55 87 63 88 56 89
REMARK SMILES IDX 57 90 61 91 64 92 58 93 59 94 62 95 60 96
REMARK H PARENT 18 7 6 11 3 24 25 30 84 49 52 60
REMARK Flexibility Score: inf
ROOT
ATOM      1  C   UNL A   1      32.852  30.187  26.827  1.00  0.00     0.002 C 
ENDROOT
BRANCH   1   2
ATOM      2  C   UNL A   1      32.686  28.724  27.254  1.00  0.00     0.021 C 
BRANCH   2   3
ATOM      3  C   UNL A   1      31.381  28.095  26.767  1.00  0.00     0.116 C 
BRANCH   3   4
ATOM      4  N   UNL A   1      31.304  26.723  27.210  1.00  0.00    -0.351 N 
ATOM      5  C   UNL A   1      31.540  25.567  26.527  1.00  0.00     0.278 C 
ATOM      6  O   UNL A   1      31.112  24.540  27.057  1.00  0.00    -0.268 OA
ATOM      7  H   UNL A   1      31.041  26.605  28.151  1.00  0.00     0.163 HD
BRANCH   5   8
ATOM      8  C   UNL A   1      32.380  25.590  25.215  1.00  0.00     0.279 C 
ATOM      9  N   UNL A   1      31.683  24.865  24.139  1.00  0.00    -0.316 N 
ATOM     10  C   UNL A   1      32.025  23.448  23.960  1.00  0.00     0.300 C 
ATOM     11  H   UNL A   1      30.783  24.894  24.617  1.00  0.00     0.349 HD
ATOM     12  C   UNL A   1      32.839  22.799  25.056  1.00  0.00     0.010 A 
ATOM     13  C   UNL A   1      33.788  25.045  25.550  1.00  0.00     0.111 C 
ATOM     14  C   UNL A   1      32.741  21.427  25.316  1.00  0.00     0.010 A 
ATOM     15  C   UNL A   1      33.766  23.562  25.778  1.00  0.00    -0.033 A 
ATOM     16  C   UNL A   1      33.564  20.831  26.276  1.00  0.00     0.001 A 
ATOM     17  C   UNL A   1      34.612  22.958  26.714  1.00  0.00     0.004 A 
ATOM     18  C   UNL A   1      34.506  21.593  26.963  1.00  0.00     0.000 A 
BRANCH   9  19
ATOM     19  C   UNL A   1      31.318  25.542  22.876  1.00  0.00     0.210 C 
ATOM     20  C   UNL A   1      30.480  26.801  23.149  1.00  0.00     0.078 C 
BRANCH  19  21
ATOM     21  C   UNL A   1      32.367  25.758  21.722  1.00  0.00     0.169 C 
ATOM     22  C   UNL A   1      33.417  26.851  21.878  1.00  0.00     0.045 C 
BRANCH  21  23
ATOM     23  O   UNL A   1      31.668  26.028  20.495  1.00  0.00    -0.387 OA
ATOM     24  H   UNL A   1      31.073  25.290  20.293  1.00  0.00     0.211 HD
ENDBRANCH  21  23
ENDBRANCH  19  21
ENDBRANCH   9  19
ENDBRANCH   5   8
ENDBRANCH   3   4
ENDBRANCH   2   3
ENDBRANCH   1   2
BRANCH   1  25
ATOM     25  C   UNL A   1      31.574  30.842  26.296  1.00  0.00     0.002 C 
BRANCH  25  26
ATOM     26  C   UNL A   1      31.433  32.326  26.640  1.00  0.00     0.021 C 
BRANCH  26  27
ATOM     27  C   UNL A   1      32.664  32.929  27.309  1.00  0.00     0.116 C 
BRANCH  27  28
ATOM     28  N   UNL A   1      32.454  34.323  27.664  1.00  0.00    -0.352 N 
ATOM     29  C   UNL A   1      33.021  35.058  28.674  1.00  0.00     0.251 C 
ATOM     30  H   UNL A   1      31.813  34.810  27.098  1.00  0.00     0.163 HD
ATOM     31  O   UNL A   1      32.564  36.154  28.976  1.00  0.00    -0.269 OA
BRANCH  29  32
ATOM     32  C   UNL A   1      34.181  34.514  29.408  1.00  0.00     0.039 A 
ATOM     33  C   UNL A   1      33.969  33.886  30.637  1.00  0.00     0.014 A 
ATOM     34  C   UNL A   1      35.474  34.632  28.889  1.00  0.00     0.014 A 
ATOM     35  C   UNL A   1      35.048  33.328  31.322  1.00  0.00     0.010 A 
ATOM     36  C   UNL A   1      36.537  34.009  29.535  1.00  0.00     0.010 A 
ATOM     37  C   UNL A   1      36.337  33.356  30.761  1.00  0.00    -0.014 A 
BRANCH  37  38
ATOM     38  C   UNL A   1      37.484  32.707  31.443  1.00  0.00     0.031 A 
ATOM     39  C   UNL A   1      38.185  31.542  30.801  1.00  0.00     0.074 A 
ATOM     40  C   UNL A   1      37.848  33.125  32.670  1.00  0.00     0.049 A 
ATOM     41  N   UNL A   1      39.159  30.803  31.269  1.00  0.00    -0.248 NA
ATOM     42  C   UNL A   1      37.710  31.132  29.470  1.00  0.00     0.031 C 
ATOM     43  C   UNL A   1      37.209  34.210  33.419  1.00  0.00     0.029 A 
ATOM     44  N   UNL A   1      38.836  32.679  33.514  1.00  0.00    -0.354 N 
ATOM     45  C   UNL A   1      39.397  29.835  30.302  1.00  0.00     0.074 A 
ATOM     46  C   UNL A   1      38.439  30.050  29.242  1.00  0.00     0.031 C 
ATOM     47  C   UNL A   1      37.828  34.354  34.601  1.00  0.00     0.029 A 
ATOM     48  C   UNL A   1      38.880  33.347  34.713  1.00  0.00     0.049 A 
ATOM     49  H   UNL A   1      39.454  31.950  33.281  1.00  0.00     0.167 HD
ATOM     50  C   UNL A   1      40.345  28.868  30.295  1.00  0.00     0.037 A 
ATOM     51  C   UNL A   1      39.668  33.160  35.788  1.00  0.00     0.037 A 
ATOM     52  C   UNL A   1      41.319  28.682  31.338  1.00  0.00     0.049 A 
ATOM     53  C   UNL A   1      40.719  32.082  35.745  1.00  0.00     0.074 A 
ATOM     54  C   UNL A   1      42.375  27.789  31.381  1.00  0.00     0.029 A 
ATOM     55  N   UNL A   1      41.353  29.399  32.525  1.00  0.00    -0.354 N 
ATOM     56  N   UNL A   1      40.995  31.233  34.786  1.00  0.00    -0.248 NA
ATOM     57  C   UNL A   1      41.574  31.942  36.932  1.00  0.00     0.031 C 
ATOM     58  C   UNL A   1      43.008  27.920  32.620  1.00  0.00     0.029 A 
ATOM     59  C   UNL A   1      42.390  28.942  33.322  1.00  0.00     0.049 A 
ATOM     60  H   UNL A   1      40.731  30.124  32.765  1.00  0.00     0.167 HD
ATOM     61  C   UNL A   1      42.072  30.481  35.239  1.00  0.00     0.074 A 
ATOM     62  C   UNL A   1      42.409  30.988  36.553  1.00  0.00     0.031 C 
ATOM     63  C   UNL A   1      42.720  29.463  34.624  1.00  0.00     0.037 A 
BRANCH  50  64
ATOM     64  C   UNL A   1      40.381  27.926  29.126  1.00  0.00     0.064 A 
ATOM     65  C   UNL A   1      39.609  26.754  29.094  1.00  0.00     0.173 A 
ATOM     66  C   UNL A   1      41.149  28.235  27.993  1.00  0.00     0.173 A 
ATOM     67  F   UNL A   1      38.864  26.407  30.154  1.00  0.00    -0.203 F 
ATOM     68  C   UNL A   1      39.619  25.919  27.980  1.00  0.00     0.198 A 
ATOM     69  C   UNL A   1      41.133  27.414  26.868  1.00  0.00     0.198 A 
ATOM     70  F   UNL A   1      41.901  29.345  27.967  1.00  0.00    -0.203 F 
ATOM     71  F   UNL A   1      38.904  24.785  27.986  1.00  0.00    -0.200 F 
ATOM     72  C   UNL A   1      40.372  26.255  26.864  1.00  0.00     0.200 A 
ATOM     73  F   UNL A   1      41.849  27.749  25.786  1.00  0.00    -0.200 F 
ATOM     74  F   UNL A   1      40.368  25.459  25.786  1.00  0.00    -0.200 F 
ENDBRANCH  50  64
BRANCH  51  75
ATOM     75  C   UNL A   1      39.499  34.010  36.997  1.00  0.00     0.064 A 
ATOM     76  C   UNL A   1      40.112  35.268  37.090  1.00  0.00     0.173 A 
ATOM     77  C   UNL A   1      38.744  33.571  38.095  1.00  0.00     0.173 A 
ATOM     78  F   UNL A   1      40.861  35.725  36.075  1.00  0.00    -0.203 F 
ATOM     79  C   UNL A   1      40.003  36.039  38.246  1.00  0.00     0.198 A 
ATOM     80  C   UNL A   1      38.608  34.358  39.237  1.00  0.00     0.198 A 
ATOM     81  F   UNL A   1      38.131  32.380  38.057  1.00  0.00    -0.203 F 
ATOM     82  F   UNL A   1      40.650  37.210  38.331  1.00  0.00    -0.200 F 
ATOM     83  C   UNL A   1      39.248  35.586  39.316  1.00  0.00     0.200 A 
ATOM     84  F   UNL A   1      37.862  33.924  40.262  1.00  0.00    -0.200 F 
ATOM     85  F   UNL A   1      39.145  36.327  40.429  1.00  0.00    -0.200 F 
ENDBRANCH  51  75
BRANCH  63  86
ATOM     86  C   UNL A   1      43.888  28.853  35.344  1.00  0.00     0.064 A 
ATOM     87  C   UNL A   1      45.198  29.321  35.159  1.00  0.00     0.173 A 
ATOM     88  C   UNL A   1      43.688  27.810  36.263  1.00  0.00     0.173 A 
ATOM     89  F   UNL A   1      45.445  30.306  34.281  1.00  0.00    -0.203 F 
ATOM     90  C   UNL A   1      46.266  28.750  35.846  1.00  0.00     0.198 A 
ATOM     91  C   UNL A   1      44.754  27.266  36.974  1.00  0.00     0.198 A 
ATOM     92  F   UNL A   1      42.455  27.331  36.484  1.00  0.00    -0.203 F 
ATOM     93  F   UNL A   1      47.514  29.178  35.613  1.00  0.00    -0.200 F 
ATOM     94  C   UNL A   1      46.042  27.730  36.759  1.00  0.00     0.200 A 
ATOM     95  F   UNL A   1      44.533  26.292  37.868  1.00  0.00    -0.200 F 
ATOM     96  F   UNL A   1      47.071  27.188  37.425  1.00  0.00    -0.200 F 
ENDBRANCH  63  86
ENDBRANCH  37  38
ENDBRANCH  29  32
ENDBRANCH  27  28
ENDBRANCH  26  27
ENDBRANCH  25  26
ENDBRANCH   1  25
TORSDOF 16
ENDMDL
