MODEL 1
REMARK VINA RESULT:      -9.6      0.000      0.000
REMARK SMILES [NH3+][C@H](CC[S@@](=O)[O-])C(=O)NCCCCCCNC(=O)c1ccc(-c2c3nc(c(-c4c(F)c(F)c(F)c(F)c4F)c4ccc([nH]4)c(-c4c(F)c(F)c(F)c(F)c4F)c4nc(c(-c5c(F)c(F)c(F)c(F)c5F)c5ccc2[nH]5)C=C4)C=C3)cc1
REMARK SMILES IDX 13 1 12 2 11 3 10 4 8 5 9 6 2 8 1 9 3 13 4 14 5 15 6 16 7 17
REMARK SMILES IDX 14 18 15 19 16 20 17 21 18 22 19 24 20 25 21 26 82 27 22 28
REMARK SMILES IDX 81 29 23 30 24 31 25 32 75 33 26 34 80 35 74 36 76 37 27 38
REMARK SMILES IDX 79 39 73 40 72 41 28 43 60 44 40 45 59 46 41 47 44 48 58 49
REMARK SMILES IDX 77 50 42 51 43 52 57 54 78 55 45 56 29 57 30 58 38 59 31 60
REMARK SMILES IDX 32 61 36 62 39 63 33 64 34 65 37 66 35 67 61 68 62 69 70 70
REMARK SMILES IDX 63 71 64 72 68 73 71 74 65 75 66 76 69 77 67 78 46 79 47 80
REMARK SMILES IDX 55 81 48 82 49 83 53 84 56 85 50 86 51 87 54 88 52 89
REMARK H PARENT 10 7 1 10 1 11 1 12 17 23 76 42 44 53
REMARK Flexibility Score: inf
ROOT
ATOM      1  C   UNL A   1      37.659  33.178  30.911  1.00  0.00     0.002 C 
ENDROOT
BRANCH   1   2
ATOM      2  C   UNL A   1      37.692  31.839  31.649  1.00  0.00     0.021 C 
BRANCH   2   3
ATOM      3  C   UNL A   1      37.016  31.871  33.026  1.00  0.00     0.116 C 
BRANCH   3   4
ATOM      4  N   UNL A   1      35.593  32.091  32.882  1.00  0.00    -0.351 N 
ATOM      5  C   UNL A   1      34.788  33.138  33.204  1.00  0.00     0.278 C 
ATOM      6  O   UNL A   1      33.574  32.957  33.049  1.00  0.00    -0.268 OA
ATOM      7  H   UNL A   1      35.114  31.336  32.469  1.00  0.00     0.163 HD
BRANCH   5   8
ATOM      8  C   UNL A   1      35.291  34.488  33.772  1.00  0.00     0.271 C 
BRANCH   8   9
ATOM      9  N   UNL A   1      34.857  34.716  35.158  1.00  0.00    -0.347 N 
ATOM     10  H   UNL A   1      33.998  35.265  35.159  1.00  0.00     0.345 HD
ATOM     11  H   UNL A   1      35.585  35.220  35.663  1.00  0.00     0.345 HD
ATOM     12  H   UNL A   1      34.687  33.819  35.612  1.00  0.00     0.345 HD
ENDBRANCH   8   9
BRANCH   8  13
ATOM     13  C   UNL A   1      35.191  35.695  32.818  1.00  0.00     0.088 C 
BRANCH  13  14
ATOM     14  C   UNL A   1      34.041  36.682  32.961  1.00  0.00     0.096 C 
BRANCH  14  15
ATOM     15  S   UNL A   1      32.477  36.209  32.150  1.00  0.00    -0.055 S 
ATOM     16  O   UNL A   1      31.354  36.767  32.971  1.00  0.00    -0.275 OA
ATOM     17  O   UNL A   1      32.601  37.231  30.925  1.00  0.00    -0.772 OA
ENDBRANCH  14  15
ENDBRANCH  13  14
ENDBRANCH   8  13
ENDBRANCH   5   8
ENDBRANCH   3   4
ENDBRANCH   2   3
ENDBRANCH   1   2
BRANCH   1  18
ATOM     18  C   UNL A   1      37.013  33.125  29.523  1.00  0.00     0.002 C 
BRANCH  18  19
ATOM     19  C   UNL A   1      35.521  32.768  29.496  1.00  0.00     0.021 C 
BRANCH  19  20
ATOM     20  C   UNL A   1      34.933  32.508  28.110  1.00  0.00     0.116 C 
BRANCH  20  21
ATOM     21  N   UNL A   1      34.264  31.220  28.029  1.00  0.00    -0.352 N 
ATOM     22  C   UNL A   1      34.773  29.951  27.955  1.00  0.00     0.251 C 
ATOM     23  H   UNL A   1      33.281  31.268  28.025  1.00  0.00     0.163 HD
ATOM     24  O   UNL A   1      34.022  29.013  27.688  1.00  0.00    -0.269 OA
BRANCH  22  25
ATOM     25  C   UNL A   1      36.210  29.685  28.181  1.00  0.00     0.039 A 
ATOM     26  C   UNL A   1      36.605  29.174  29.423  1.00  0.00     0.014 A 
ATOM     27  C   UNL A   1      37.176  29.991  27.217  1.00  0.00     0.014 A 
ATOM     28  C   UNL A   1      37.956  28.927  29.678  1.00  0.00     0.010 A 
ATOM     29  C   UNL A   1      38.518  29.682  27.449  1.00  0.00     0.010 A 
ATOM     30  C   UNL A   1      38.921  29.155  28.685  1.00  0.00    -0.014 A 
BRANCH  30  31
ATOM     31  C   UNL A   1      40.349  28.832  28.932  1.00  0.00     0.031 A 
ATOM     32  C   UNL A   1      41.240  29.796  29.663  1.00  0.00     0.074 A 
ATOM     33  C   UNL A   1      40.853  27.675  28.462  1.00  0.00     0.049 A 
ATOM     34  N   UNL A   1      42.505  29.673  29.984  1.00  0.00    -0.248 NA
ATOM     35  C   UNL A   1      40.642  31.076  30.068  1.00  0.00     0.031 C 
ATOM     36  C   UNL A   1      40.104  26.682  27.690  1.00  0.00     0.029 A 
ATOM     37  N   UNL A   1      42.112  27.137  28.566  1.00  0.00    -0.354 N 
ATOM     38  C   UNL A   1      42.855  30.862  30.611  1.00  0.00     0.074 A 
ATOM     39  C   UNL A   1      41.683  31.710  30.586  1.00  0.00     0.031 C 
ATOM     40  C   UNL A   1      40.906  25.640  27.422  1.00  0.00     0.029 A 
ATOM     41  C   UNL A   1      42.230  25.902  27.978  1.00  0.00     0.049 A 
ATOM     42  H   UNL A   1      42.857  27.593  29.018  1.00  0.00     0.167 HD
ATOM     43  C   UNL A   1      44.039  31.206  31.173  1.00  0.00     0.037 A 
ATOM     44  C   UNL A   1      43.286  25.070  27.905  1.00  0.00     0.037 A 
ATOM     45  C   UNL A   1      45.195  30.348  31.222  1.00  0.00     0.049 A 
ATOM     46  C   UNL A   1      44.583  25.469  28.552  1.00  0.00     0.074 A 
ATOM     47  C   UNL A   1      46.412  30.570  31.844  1.00  0.00     0.029 A 
ATOM     48  N   UNL A   1      45.279  29.102  30.616  1.00  0.00    -0.354 N 
ATOM     49  N   UNL A   1      44.874  26.557  29.220  1.00  0.00    -0.248 NA
ATOM     50  C   UNL A   1      45.695  24.515  28.438  1.00  0.00     0.031 C 
ATOM     51  C   UNL A   1      47.248  29.480  31.575  1.00  0.00     0.029 A 
ATOM     52  C   UNL A   1      46.536  28.556  30.825  1.00  0.00     0.049 A 
ATOM     53  H   UNL A   1      44.553  28.670  30.112  1.00  0.00     0.167 HD
ATOM     54  C   UNL A   1      46.194  26.413  29.627  1.00  0.00     0.074 A 
ATOM     55  C   UNL A   1      46.638  25.120  29.146  1.00  0.00     0.031 C 
ATOM     56  C   UNL A   1      46.968  27.273  30.334  1.00  0.00     0.037 A 
BRANCH  43  57
ATOM     57  C   UNL A   1      44.144  32.575  31.781  1.00  0.00     0.064 A 
ATOM     58  C   UNL A   1      44.578  33.683  31.036  1.00  0.00     0.173 A 
ATOM     59  C   UNL A   1      43.779  32.788  33.119  1.00  0.00     0.173 A 
ATOM     60  F   UNL A   1      44.948  33.532  29.756  1.00  0.00    -0.203 F 
ATOM     61  C   UNL A   1      44.676  34.944  31.618  1.00  0.00     0.198 A 
ATOM     62  C   UNL A   1      43.850  34.056  33.689  1.00  0.00     0.198 A 
ATOM     63  F   UNL A   1      43.349  31.766  33.874  1.00  0.00    -0.203 F 
ATOM     64  F   UNL A   1      45.144  35.976  30.902  1.00  0.00    -0.200 F 
ATOM     65  C   UNL A   1      44.307  35.132  32.942  1.00  0.00     0.200 A 
ATOM     66  F   UNL A   1      43.482  34.239  34.965  1.00  0.00    -0.200 F 
ATOM     67  F   UNL A   1      44.400  36.347  33.499  1.00  0.00    -0.200 F 
ENDBRANCH  43  57
BRANCH  44  68
ATOM     68  C   UNL A   1      43.142  23.751  27.237  1.00  0.00     0.064 A 
ATOM     69  C   UNL A   1      43.602  23.562  25.926  1.00  0.00     0.173 A 
ATOM     70  C   UNL A   1      42.556  22.658  27.890  1.00  0.00     0.173 A 
ATOM     71  F   UNL A   1      44.151  24.585  25.256  1.00  0.00    -0.203 F 
ATOM     72  C   UNL A   1      43.466  22.332  25.287  1.00  0.00     0.198 A 
ATOM     73  C   UNL A   1      42.443  21.422  27.258  1.00  0.00     0.198 A 
ATOM     74  F   UNL A   1      42.105  22.788  29.146  1.00  0.00    -0.203 F 
ATOM     75  F   UNL A   1      43.878  22.188  24.021  1.00  0.00    -0.200 F 
ATOM     76  C   UNL A   1      42.892  21.261  25.956  1.00  0.00     0.200 A 
ATOM     77  F   UNL A   1      41.900  20.385  27.912  1.00  0.00    -0.200 F 
ATOM     78  F   UNL A   1      42.766  20.076  25.343  1.00  0.00    -0.200 F 
ENDBRANCH  44  68
BRANCH  56  79
ATOM     79  C   UNL A   1      48.368  26.830  30.642  1.00  0.00     0.064 A 
ATOM     80  C   UNL A   1      48.658  26.038  31.764  1.00  0.00     0.173 A 
ATOM     81  C   UNL A   1      49.432  27.196  29.804  1.00  0.00     0.173 A 
ATOM     82  F   UNL A   1      47.679  25.678  32.606  1.00  0.00    -0.203 F 
ATOM     83  C   UNL A   1      49.967  25.659  32.053  1.00  0.00     0.198 A 
ATOM     84  C   UNL A   1      50.735  26.789  30.079  1.00  0.00     0.198 A 
ATOM     85  F   UNL A   1      49.209  27.948  28.715  1.00  0.00    -0.203 F 
ATOM     86  F   UNL A   1      50.227  24.952  33.161  1.00  0.00    -0.200 F 
ATOM     87  C   UNL A   1      51.002  26.030  31.208  1.00  0.00     0.200 A 
ATOM     88  F   UNL A   1      51.733  27.139  29.256  1.00  0.00    -0.200 F 
ATOM     89  F   UNL A   1      52.261  25.666  31.489  1.00  0.00    -0.200 F 
ENDBRANCH  56  79
ENDBRANCH  30  31
ENDBRANCH  22  25
ENDBRANCH  20  21
ENDBRANCH  19  20
ENDBRANCH  18  19
ENDBRANCH   1  18
TORSDOF 17
ENDMDL
MODEL 2
REMARK VINA RESULT:      -9.5      4.615     10.241
REMARK SMILES [NH3+][C@H](CC[S@@](=O)[O-])C(=O)NCCCCCCNC(=O)c1ccc(-c2c3nc(c(-c4c(F)c(F)c(F)c(F)c4F)c4ccc([nH]4)c(-c4c(F)c(F)c(F)c(F)c4F)c4nc(c(-c5c(F)c(F)c(F)c(F)c5F)c5ccc2[nH]5)C=C4)C=C3)cc1
REMARK SMILES IDX 13 1 12 2 11 3 10 4 8 5 9 6 2 8 1 9 3 13 4 14 5 15 6 16 7 17
REMARK SMILES IDX 14 18 15 19 16 20 17 21 18 22 19 24 20 25 21 26 82 27 22 28
REMARK SMILES IDX 81 29 23 30 24 31 25 32 75 33 26 34 80 35 74 36 76 37 27 38
REMARK SMILES IDX 79 39 73 40 72 41 28 43 60 44 40 45 59 46 41 47 44 48 58 49
REMARK SMILES IDX 77 50 42 51 43 52 57 54 78 55 45 56 29 57 30 58 38 59 31 60
REMARK SMILES IDX 32 61 36 62 39 63 33 64 34 65 37 66 35 67 61 68 62 69 70 70
REMARK SMILES IDX 63 71 64 72 68 73 71 74 65 75 66 76 69 77 67 78 46 79 47 80
REMARK SMILES IDX 55 81 48 82 49 83 53 84 56 85 50 86 51 87 54 88 52 89
REMARK H PARENT 10 7 1 10 1 11 1 12 17 23 76 42 44 53
REMARK Flexibility Score: inf
ROOT
ATOM      1  C   UNL A   1      31.997  29.975  26.596  1.00  0.00     0.002 C 
ENDROOT
BRANCH   1   2
ATOM      2  C   UNL A   1      31.428  28.557  26.550  1.00  0.00     0.021 C 
BRANCH   2   3
ATOM      3  C   UNL A   1      31.776  27.788  25.268  1.00  0.00     0.116 C 
BRANCH   3   4
ATOM      4  N   UNL A   1      30.656  26.971  24.853  1.00  0.00    -0.351 N 
ATOM      5  C   UNL A   1      29.745  27.101  23.853  1.00  0.00     0.278 C 
ATOM      6  O   UNL A   1      28.828  26.269  23.842  1.00  0.00    -0.268 OA
ATOM      7  H   UNL A   1      30.529  26.162  25.402  1.00  0.00     0.163 HD
BRANCH   5   8
ATOM      8  C   UNL A   1      29.770  28.221  22.784  1.00  0.00     0.271 C 
BRANCH   8   9
ATOM      9  N   UNL A   1      31.020  28.235  22.010  1.00  0.00    -0.347 N 
ATOM     10  H   UNL A   1      31.046  27.425  21.392  1.00  0.00     0.345 HD
ATOM     11  H   UNL A   1      31.814  28.204  22.647  1.00  0.00     0.345 HD
ATOM     12  H   UNL A   1      31.064  29.088  21.452  1.00  0.00     0.345 HD
ENDBRANCH   8   9
BRANCH   8  13
ATOM     13  C   UNL A   1      29.231  29.592  23.237  1.00  0.00     0.088 C 
BRANCH  13  14
ATOM     14  C   UNL A   1      28.958  30.678  22.206  1.00  0.00     0.096 C 
BRANCH  14  15
ATOM     15  S   UNL A   1      28.448  32.299  22.869  1.00  0.00    -0.055 S 
ATOM     16  O   UNL A   1      28.025  33.149  21.711  1.00  0.00    -0.275 OA
ATOM     17  O   UNL A   1      27.067  31.800  23.504  1.00  0.00    -0.772 OA
ENDBRANCH  14  15
ENDBRANCH  13  14
ENDBRANCH   8  13
ENDBRANCH   5   8
ENDBRANCH   3   4
ENDBRANCH   2   3
ENDBRANCH   1   2
BRANCH   1  18
ATOM     18  C   UNL A   1      31.188  31.013  25.811  1.00  0.00     0.002 C 
BRANCH  18  19
ATOM     19  C   UNL A   1      31.165  32.428  26.405  1.00  0.00     0.021 C 
BRANCH  19  20
ATOM     20  C   UNL A   1      32.393  32.816  27.225  1.00  0.00     0.116 C 
BRANCH  20  21
ATOM     21  N   UNL A   1      32.368  34.213  27.626  1.00  0.00    -0.352 N 
ATOM     22  C   UNL A   1      33.071  34.879  28.594  1.00  0.00     0.251 C 
ATOM     23  H   UNL A   1      31.740  34.775  27.116  1.00  0.00     0.163 HD
ATOM     24  O   UNL A   1      32.743  36.026  28.899  1.00  0.00    -0.269 OA
BRANCH  22  25
ATOM     25  C   UNL A   1      34.212  34.245  29.289  1.00  0.00     0.039 A 
ATOM     26  C   UNL A   1      33.948  33.428  30.394  1.00  0.00     0.014 A 
ATOM     27  C   UNL A   1      35.535  34.494  28.911  1.00  0.00     0.014 A 
ATOM     28  C   UNL A   1      35.001  32.827  31.086  1.00  0.00     0.010 A 
ATOM     29  C   UNL A   1      36.583  33.841  29.562  1.00  0.00     0.010 A 
ATOM     30  C   UNL A   1      36.326  33.007  30.661  1.00  0.00    -0.014 A 
BRANCH  30  31
ATOM     31  C   UNL A   1      37.443  32.317  31.356  1.00  0.00     0.031 A 
ATOM     32  C   UNL A   1      38.173  31.181  30.698  1.00  0.00     0.074 A 
ATOM     33  C   UNL A   1      37.775  32.698  32.605  1.00  0.00     0.049 A 
ATOM     34  N   UNL A   1      39.182  30.475  31.148  1.00  0.00    -0.248 NA
ATOM     35  C   UNL A   1      37.695  30.765  29.372  1.00  0.00     0.031 C 
ATOM     36  C   UNL A   1      37.107  33.750  33.371  1.00  0.00     0.029 A 
ATOM     37  N   UNL A   1      38.760  32.245  33.447  1.00  0.00    -0.354 N 
ATOM     38  C   UNL A   1      39.447  29.526  30.169  1.00  0.00     0.074 A 
ATOM     39  C   UNL A   1      38.465  29.716  29.123  1.00  0.00     0.031 C 
ATOM     40  C   UNL A   1      37.723  33.888  34.555  1.00  0.00     0.029 A 
ATOM     41  C   UNL A   1      38.810  32.919  34.642  1.00  0.00     0.049 A 
ATOM     42  H   UNL A   1      39.371  31.510  33.216  1.00  0.00     0.167 HD
ATOM     43  C   UNL A   1      40.431  28.594  30.138  1.00  0.00     0.037 A 
ATOM     44  C   UNL A   1      39.646  32.775  35.688  1.00  0.00     0.037 A 
ATOM     45  C   UNL A   1      41.424  28.427  31.167  1.00  0.00     0.049 A 
ATOM     46  C   UNL A   1      40.739  31.745  35.620  1.00  0.00     0.074 A 
ATOM     47  C   UNL A   1      42.512  27.572  31.189  1.00  0.00     0.029 A 
ATOM     48  N   UNL A   1      41.444  29.127  32.366  1.00  0.00    -0.354 N 
ATOM     49  N   UNL A   1      41.035  30.915  34.651  1.00  0.00    -0.248 NA
ATOM     50  C   UNL A   1      41.619  31.642  36.792  1.00  0.00     0.031 C 
ATOM     51  C   UNL A   1      43.163  27.720  32.419  1.00  0.00     0.029 A 
ATOM     52  C   UNL A   1      42.509  28.702  33.146  1.00  0.00     0.049 A 
ATOM     53  H   UNL A   1      40.797  29.822  32.624  1.00  0.00     0.167 HD
ATOM     54  C   UNL A   1      42.147  30.205  35.084  1.00  0.00     0.074 A 
ATOM     55  C   UNL A   1      42.484  30.719  36.397  1.00  0.00     0.031 C 
ATOM     56  C   UNL A   1      42.828  29.216  34.453  1.00  0.00     0.037 A 
BRANCH  43  57
ATOM     57  C   UNL A   1      40.480  27.680  28.948  1.00  0.00     0.064 A 
ATOM     58  C   UNL A   1      39.717  26.502  28.890  1.00  0.00     0.173 A 
ATOM     59  C   UNL A   1      41.277  27.999  27.839  1.00  0.00     0.173 A 
ATOM     60  F   UNL A   1      38.945  26.147  29.927  1.00  0.00    -0.203 F 
ATOM     61  C   UNL A   1      39.780  25.662  27.782  1.00  0.00     0.198 A 
ATOM     62  C   UNL A   1      41.315  27.171  26.720  1.00  0.00     0.198 A 
ATOM     63  F   UNL A   1      42.019  29.116  27.838  1.00  0.00    -0.203 F 
ATOM     64  F   UNL A   1      39.084  24.517  27.771  1.00  0.00    -0.200 F 
ATOM     65  C   UNL A   1      40.573  25.999  26.695  1.00  0.00     0.200 A 
ATOM     66  F   UNL A   1      42.073  27.503  25.665  1.00  0.00    -0.200 F 
ATOM     67  F   UNL A   1      40.630  25.190  25.628  1.00  0.00    -0.200 F 
ENDBRANCH  43  57
BRANCH  44  68
ATOM     68  C   UNL A   1      39.513  33.668  36.867  1.00  0.00     0.064 A 
ATOM     69  C   UNL A   1      40.192  34.894  36.914  1.00  0.00     0.173 A 
ATOM     70  C   UNL A   1      38.706  33.325  37.960  1.00  0.00     0.173 A 
ATOM     71  F   UNL A   1      40.992  35.255  35.900  1.00  0.00    -0.203 F 
ATOM     72  C   UNL A   1      40.081  35.736  38.018  1.00  0.00     0.198 A 
ATOM     73  C   UNL A   1      38.576  34.178  39.052  1.00  0.00     0.198 A 
ATOM     74  F   UNL A   1      38.033  32.165  37.960  1.00  0.00    -0.203 F 
ATOM     75  F   UNL A   1      40.771  36.883  38.055  1.00  0.00    -0.200 F 
ATOM     76  C   UNL A   1      39.268  35.380  39.085  1.00  0.00     0.200 A 
ATOM     77  F   UNL A   1      37.778  33.838  40.075  1.00  0.00    -0.200 F 
ATOM     78  F   UNL A   1      39.156  36.192  40.144  1.00  0.00    -0.200 F 
ENDBRANCH  44  68
BRANCH  56  79
ATOM     79  C   UNL A   1      44.014  28.642  35.171  1.00  0.00     0.064 A 
ATOM     80  C   UNL A   1      43.895  27.521  36.006  1.00  0.00     0.173 A 
ATOM     81  C   UNL A   1      45.285  29.215  35.018  1.00  0.00     0.173 A 
ATOM     82  F   UNL A   1      42.697  26.949  36.200  1.00  0.00    -0.203 F 
ATOM     83  C   UNL A   1      44.999  27.017  36.689  1.00  0.00     0.198 A 
ATOM     84  C   UNL A   1      46.392  28.689  35.678  1.00  0.00     0.198 A 
ATOM     85  F   UNL A   1      45.455  30.286  34.226  1.00  0.00    -0.203 F 
ATOM     86  F   UNL A   1      44.850  25.981  37.526  1.00  0.00    -0.200 F 
ATOM     87  C   UNL A   1      46.247  27.598  36.519  1.00  0.00     0.200 A 
ATOM     88  F   UNL A   1      47.600  29.245  35.505  1.00  0.00    -0.200 F 
ATOM     89  F   UNL A   1      47.308  27.112  37.179  1.00  0.00    -0.200 F 
ENDBRANCH  56  79
ENDBRANCH  30  31
ENDBRANCH  22  25
ENDBRANCH  20  21
ENDBRANCH  19  20
ENDBRANCH  18  19
ENDBRANCH   1  18
TORSDOF 17
ENDMDL
MODEL 3
REMARK VINA RESULT:      -9.4      4.444      7.090
REMARK SMILES [NH3+][C@H](CC[S@@](=O)[O-])C(=O)NCCCCCCNC(=O)c1ccc(-c2c3nc(c(-c4c(F)c(F)c(F)c(F)c4F)c4ccc([nH]4)c(-c4c(F)c(F)c(F)c(F)c4F)c4nc(c(-c5c(F)c(F)c(F)c(F)c5F)c5ccc2[nH]5)C=C4)C=C3)cc1
REMARK SMILES IDX 13 1 12 2 11 3 10 4 8 5 9 6 2 8 1 9 3 13 4 14 5 15 6 16 7 17
REMARK SMILES IDX 14 18 15 19 16 20 17 21 18 22 19 24 20 25 21 26 82 27 22 28
REMARK SMILES IDX 81 29 23 30 24 31 25 32 75 33 26 34 80 35 74 36 76 37 27 38
REMARK SMILES IDX 79 39 73 40 72 41 28 43 60 44 40 45 59 46 41 47 44 48 58 49
REMARK SMILES IDX 77 50 42 51 43 52 57 54 78 55 45 56 29 57 30 58 38 59 31 60
REMARK SMILES IDX 32 61 36 62 39 63 33 64 34 65 37 66 35 67 61 68 62 69 70 70
REMARK SMILES IDX 63 71 64 72 68 73 71 74 65 75 66 76 69 77 67 78 46 79 47 80
REMARK SMILES IDX 55 81 48 82 49 83 53 84 56 85 50 86 51 87 54 88 52 89
REMARK H PARENT 10 7 1 10 1 11 1 12 17 23 76 42 44 53
REMARK Flexibility Score: inf
ROOT
ATOM      1  C   UNL A   1      32.202  29.809  26.576  1.00  0.00     0.002 C 
ENDROOT
BRANCH   1   2
ATOM      2  C   UNL A   1      31.728  28.357  26.508  1.00  0.00     0.021 C 
BRANCH   2   3
ATOM      3  C   UNL A   1      31.995  27.677  25.158  1.00  0.00     0.116 C 
BRANCH   3   4
ATOM      4  N   UNL A   1      30.828  26.934  24.731  1.00  0.00    -0.351 N 
ATOM      5  C   UNL A   1      29.903  27.154  23.761  1.00  0.00     0.278 C 
ATOM      6  O   UNL A   1      28.948  26.367  23.732  1.00  0.00    -0.268 OA
ATOM      7  H   UNL A   1      30.676  26.106  25.244  1.00  0.00     0.163 HD
BRANCH   5   8
ATOM      8  C   UNL A   1      29.957  28.322  22.746  1.00  0.00     0.271 C 
BRANCH   8   9
ATOM      9  N   UNL A   1      31.284  28.478  22.133  1.00  0.00    -0.347 N 
ATOM     10  H   UNL A   1      32.005  28.297  22.832  1.00  0.00     0.345 HD
ATOM     11  H   UNL A   1      31.385  29.428  21.779  1.00  0.00     0.345 HD
ATOM     12  H   UNL A   1      31.383  27.815  21.364  1.00  0.00     0.345 HD
ENDBRANCH   8   9
BRANCH   8  13
ATOM     13  C   UNL A   1      29.248  29.620  23.180  1.00  0.00     0.088 C 
BRANCH  13  14
ATOM     14  C   UNL A   1      28.958  30.705  22.153  1.00  0.00     0.096 C 
BRANCH  14  15
ATOM     15  S   UNL A   1      28.490  32.335  22.824  1.00  0.00    -0.055 S 
ATOM     16  O   UNL A   1      27.997  33.171  21.683  1.00  0.00    -0.275 OA
ATOM     17  O   UNL A   1      27.149  31.846  23.548  1.00  0.00    -0.772 OA
ENDBRANCH  14  15
ENDBRANCH  13  14
ENDBRANCH   8  13
ENDBRANCH   5   8
ENDBRANCH   3   4
ENDBRANCH   2   3
ENDBRANCH   1   2
BRANCH   1  18
ATOM     18  C   UNL A   1      31.261  30.819  25.910  1.00  0.00     0.002 C 
BRANCH  18  19
ATOM     19  C   UNL A   1      31.285  32.237  26.495  1.00  0.00     0.021 C 
BRANCH  19  20
ATOM     20  C   UNL A   1      32.568  32.625  27.227  1.00  0.00     0.116 C 
BRANCH  20  21
ATOM     21  N   UNL A   1      32.560  34.014  27.654  1.00  0.00    -0.352 N 
ATOM     22  C   UNL A   1      33.313  34.665  28.594  1.00  0.00     0.251 C 
ATOM     23  H   UNL A   1      31.902  34.582  27.190  1.00  0.00     0.163 HD
ATOM     24  O   UNL A   1      32.997  35.805  28.938  1.00  0.00    -0.269 OA
BRANCH  22  25
ATOM     25  C   UNL A   1      34.493  34.024  29.213  1.00  0.00     0.039 A 
ATOM     26  C   UNL A   1      34.283  32.994  30.136  1.00  0.00     0.014 A 
ATOM     27  C   UNL A   1      35.793  34.465  28.948  1.00  0.00     0.014 A 
ATOM     28  C   UNL A   1      35.373  32.377  30.754  1.00  0.00     0.010 A 
ATOM     29  C   UNL A   1      36.884  33.805  29.517  1.00  0.00     0.010 A 
ATOM     30  C   UNL A   1      36.684  32.760  30.431  1.00  0.00    -0.014 A 
BRANCH  30  31
ATOM     31  C   UNL A   1      37.846  32.062  31.038  1.00  0.00     0.031 A 
ATOM     32  C   UNL A   1      38.297  32.390  32.433  1.00  0.00     0.074 A 
ATOM     33  C   UNL A   1      38.520  31.151  30.311  1.00  0.00     0.049 A 
ATOM     34  N   UNL A   1      39.278  31.870  33.130  1.00  0.00    -0.248 NA
ATOM     35  C   UNL A   1      37.567  33.458  33.132  1.00  0.00     0.031 C 
ATOM     36  C   UNL A   1      38.214  30.784  28.927  1.00  0.00     0.029 A 
ATOM     37  N   UNL A   1      39.597  30.365  30.634  1.00  0.00    -0.354 N 
ATOM     38  C   UNL A   1      39.292  32.556  34.337  1.00  0.00     0.074 A 
ATOM     39  C   UNL A   1      38.252  33.560  34.262  1.00  0.00     0.031 C 
ATOM     40  C   UNL A   1      39.060  29.820  28.532  1.00  0.00     0.029 A 
ATOM     41  C   UNL A   1      39.982  29.519  29.623  1.00  0.00     0.049 A 
ATOM     42  H   UNL A   1      40.050  30.403  31.506  1.00  0.00     0.167 HD
ATOM     43  C   UNL A   1      40.086  32.355  35.416  1.00  0.00     0.037 A 
ATOM     44  C   UNL A   1      40.963  28.599  29.584  1.00  0.00     0.037 A 
ATOM     45  C   UNL A   1      41.101  31.336  35.499  1.00  0.00     0.049 A 
ATOM     46  C   UNL A   1      41.820  28.384  30.800  1.00  0.00     0.074 A 
ATOM     47  C   UNL A   1      41.898  30.994  36.578  1.00  0.00     0.029 A 
ATOM     48  N   UNL A   1      41.464  30.497  34.455  1.00  0.00    -0.354 N 
ATOM     49  N   UNL A   1      41.764  28.977  31.967  1.00  0.00    -0.248 NA
ATOM     50  C   UNL A   1      42.869  27.362  30.693  1.00  0.00     0.031 C 
ATOM     51  C   UNL A   1      42.775  29.982  36.173  1.00  0.00     0.029 A 
ATOM     52  C   UNL A   1      42.493  29.658  34.855  1.00  0.00     0.049 A 
ATOM     53  H   UNL A   1      41.051  30.497  33.561  1.00  0.00     0.167 HD
ATOM     54  C   UNL A   1      42.754  28.388  32.742  1.00  0.00     0.074 A 
ATOM     55  C   UNL A   1      43.381  27.376  31.916  1.00  0.00     0.031 C 
ATOM     56  C   UNL A   1      43.113  28.661  34.020  1.00  0.00     0.037 A 
BRANCH  43  57
ATOM     57  C   UNL A   1      39.890  33.259  36.599  1.00  0.00     0.064 A 
ATOM     58  C   UNL A   1      40.681  34.403  36.793  1.00  0.00     0.173 A 
ATOM     59  C   UNL A   1      38.878  32.996  37.534  1.00  0.00     0.173 A 
ATOM     60  F   UNL A   1      41.667  34.695  35.933  1.00  0.00    -0.203 F 
ATOM     61  C   UNL A   1      40.489  35.227  37.899  1.00  0.00     0.198 A 
ATOM     62  C   UNL A   1      38.671  33.839  38.623  1.00  0.00     0.198 A 
ATOM     63  F   UNL A   1      38.088  31.921  37.392  1.00  0.00    -0.203 F 
ATOM     64  F   UNL A   1      41.292  36.283  38.092  1.00  0.00    -0.200 F 
ATOM     65  C   UNL A   1      39.482  34.949  38.810  1.00  0.00     0.200 A 
ATOM     66  F   UNL A   1      37.688  33.576  39.497  1.00  0.00    -0.200 F 
ATOM     67  F   UNL A   1      39.298  35.745  39.872  1.00  0.00    -0.200 F 
ENDBRANCH  43  57
BRANCH  44  68
ATOM     68  C   UNL A   1      41.152  27.772  28.364  1.00  0.00     0.064 A 
ATOM     69  C   UNL A   1      42.036  28.181  27.355  1.00  0.00     0.173 A 
ATOM     70  C   UNL A   1      40.467  26.563  28.184  1.00  0.00     0.173 A 
ATOM     71  F   UNL A   1      42.698  29.341  27.475  1.00  0.00    -0.203 F 
ATOM     72  C   UNL A   1      42.216  27.418  26.204  1.00  0.00     0.198 A 
ATOM     73  C   UNL A   1      40.667  25.789  27.044  1.00  0.00     0.198 A 
ATOM     74  F   UNL A   1      39.614  26.127  29.122  1.00  0.00    -0.203 F 
ATOM     75  F   UNL A   1      43.037  27.851  25.238  1.00  0.00    -0.200 F 
ATOM     76  C   UNL A   1      41.535  26.219  26.052  1.00  0.00     0.200 A 
ATOM     77  F   UNL A   1      40.018  24.623  26.906  1.00  0.00    -0.200 F 
ATOM     78  F   UNL A   1      41.713  25.482  24.947  1.00  0.00    -0.200 F 
ENDBRANCH  44  68
BRANCH  56  79
ATOM     79  C   UNL A   1      44.223  27.838  34.605  1.00  0.00     0.064 A 
ATOM     80  C   UNL A   1      45.557  28.273  34.569  1.00  0.00     0.173 A 
ATOM     81  C   UNL A   1      43.950  26.604  35.215  1.00  0.00     0.173 A 
ATOM     82  F   UNL A   1      45.872  29.436  33.981  1.00  0.00    -0.203 F 
ATOM     83  C   UNL A   1      46.580  27.485  35.090  1.00  0.00     0.198 A 
ATOM     84  C   UNL A   1      44.973  25.834  35.762  1.00  0.00     0.198 A 
ATOM     85  F   UNL A   1      42.691  26.145  35.281  1.00  0.00    -0.203 F 
ATOM     86  F   UNL A   1      47.853  27.894  34.993  1.00  0.00    -0.200 F 
ATOM     87  C   UNL A   1      46.287  26.270  35.691  1.00  0.00     0.200 A 
ATOM     88  F   UNL A   1      44.687  24.665  36.352  1.00  0.00    -0.200 F 
ATOM     89  F   UNL A   1      47.273  25.512  36.190  1.00  0.00    -0.200 F 
ENDBRANCH  56  79
ENDBRANCH  30  31
ENDBRANCH  22  25
ENDBRANCH  20  21
ENDBRANCH  19  20
ENDBRANCH  18  19
ENDBRANCH   1  18
TORSDOF 17
ENDMDL
