MODEL 1
REMARK VINA RESULT:     -11.8      0.000      0.000
REMARK SMILES O=C(C[C@H](NS(=O)(=O)c1cccs1)c1ccccc1Cl)NCCCCCCNC(=O)c1ccc(-c2c3nc(c(-c4c(F)c(F)c(F)c(F)c4F)c4ccc([nH]4)c(-c4c(F)c(F)c(F)c(F)c4F)c4nc(c(-c5c(F)c(F)c(F)c(F)c5F)c5ccc2[nH]5)C=C4)C=C3)cc1
REMARK SMILES IDX 23 1 22 2 21 3 1 4 2 5 3 7 4 8 14 9 15 10 19 11 16 12 18 13
REMARK SMILES IDX 20 14 17 15 5 16 6 18 7 19 8 20 9 21 10 22 13 23 11 24 12 25
REMARK SMILES IDX 24 26 25 27 26 28 27 29 28 30 29 31 30 33 31 34 32 35 93 36
REMARK SMILES IDX 33 37 92 38 34 39 35 40 36 41 86 42 37 43 91 44 85 45 87 46
REMARK SMILES IDX 38 47 90 48 84 49 83 50 39 52 71 53 51 54 70 55 52 56 55 57
REMARK SMILES IDX 69 58 88 59 53 60 54 61 68 63 89 64 56 65 40 66 41 67 49 68
REMARK SMILES IDX 42 69 43 70 47 71 50 72 44 73 45 74 48 75 46 76 72 77 73 78
REMARK SMILES IDX 81 79 74 80 75 81 79 82 82 83 76 84 77 85 80 86 78 87 57 88
REMARK SMILES IDX 58 89 66 90 59 91 60 92 64 93 67 94 61 95 62 96 65 97 63 98
REMARK H PARENT 21 6 5 17 28 32 87 51 55 62
REMARK Flexibility Score: inf
ROOT
ATOM      1  C   UNL A   1      33.215  28.629  26.078  1.00  0.00     0.021 C 
ENDROOT
BRANCH   1   2
ATOM      2  C   UNL A   1      32.445  27.481  26.726  1.00  0.00     0.116 C 
BRANCH   2   3
ATOM      3  N   UNL A   1      32.921  26.201  26.258  1.00  0.00    -0.356 N 
ATOM      4  O   UNL A   1      31.117  24.971  26.973  1.00  0.00    -0.275 OA
ATOM      5  C   UNL A   1      32.199  25.043  26.403  1.00  0.00     0.221 C 
ATOM      6  H   UNL A   1      33.799  26.156  25.815  1.00  0.00     0.163 HD
BRANCH   5   7
ATOM      7  C   UNL A   1      32.864  23.852  25.765  1.00  0.00     0.125 C 
BRANCH   7   8
ATOM      8  C   UNL A   1      33.940  24.251  24.745  1.00  0.00     0.111 C 
BRANCH   8   9
ATOM      9  C   UNL A   1      35.152  23.319  24.829  1.00  0.00    -0.011 A 
ATOM     10  C   UNL A   1      36.389  23.921  25.161  1.00  0.00     0.007 A 
ATOM     11  C   UNL A   1      35.141  21.921  24.653  1.00  0.00     0.045 A 
ATOM     12  C   UNL A   1      37.558  23.171  25.296  1.00  0.00     0.000 A 
ATOM     13  C   UNL A   1      36.325  21.178  24.760  1.00  0.00     0.021 A 
ATOM     14  Cl  UNL A   1      33.712  20.997  24.337  1.00  0.00    -0.084 Cl
ATOM     15  C   UNL A   1      37.529  21.799  25.083  1.00  0.00     0.002 A 
ENDBRANCH   8   9
BRANCH   8  16
ATOM     16  N   UNL A   1      33.437  24.434  23.373  1.00  0.00    -0.202 NA
ATOM     17  H   UNL A   1      32.519  23.991  23.350  1.00  0.00     0.142 HD
BRANCH  16  18
ATOM     18  S   UNL A   1      33.241  25.930  22.669  1.00  0.00     0.250 S 
ATOM     19  O   UNL A   1      34.118  26.825  23.396  1.00  0.00    -0.206 OA
ATOM     20  O   UNL A   1      33.356  25.755  21.243  1.00  0.00    -0.206 OA
BRANCH  18  21
ATOM     21  C   UNL A   1      31.596  26.484  23.008  1.00  0.00     0.134 A 
ATOM     22  C   UNL A   1      30.472  25.831  23.481  1.00  0.00     0.033 A 
ATOM     23  S   UNL A   1      31.295  28.146  22.745  1.00  0.00    -0.131 S 
ATOM     24  C   UNL A   1      29.353  26.704  23.608  1.00  0.00     0.013 A 
ATOM     25  C   UNL A   1      29.665  27.995  23.244  1.00  0.00     0.066 A 
ENDBRANCH  18  21
ENDBRANCH  16  18
ENDBRANCH   8  16
ENDBRANCH   7   8
ENDBRANCH   5   7
ENDBRANCH   2   3
ENDBRANCH   1   2
BRANCH   1  26
ATOM     26  C   UNL A   1      33.034  29.992  26.763  1.00  0.00     0.002 C 
BRANCH  26  27
ATOM     27  C   UNL A   1      31.621  30.577  26.704  1.00  0.00     0.002 C 
BRANCH  27  28
ATOM     28  C   UNL A   1      31.552  32.104  26.660  1.00  0.00     0.021 C 
BRANCH  28  29
ATOM     29  C   UNL A   1      32.709  32.822  27.349  1.00  0.00     0.116 C 
BRANCH  29  30
ATOM     30  N   UNL A   1      32.405  34.205  27.676  1.00  0.00    -0.352 N 
ATOM     31  C   UNL A   1      33.017  35.022  28.596  1.00  0.00     0.251 C 
ATOM     32  H   UNL A   1      31.663  34.611  27.171  1.00  0.00     0.163 HD
ATOM     33  O   UNL A   1      32.565  36.134  28.848  1.00  0.00    -0.269 OA
BRANCH  31  34
ATOM     34  C   UNL A   1      34.214  34.537  29.314  1.00  0.00     0.039 A 
ATOM     35  C   UNL A   1      34.057  33.954  30.575  1.00  0.00     0.014 A 
ATOM     36  C   UNL A   1      35.483  34.634  28.736  1.00  0.00     0.014 A 
ATOM     37  C   UNL A   1      35.164  33.407  31.228  1.00  0.00     0.010 A 
ATOM     38  C   UNL A   1      36.573  34.034  29.360  1.00  0.00     0.010 A 
ATOM     39  C   UNL A   1      36.425  33.411  30.610  1.00  0.00    -0.014 A 
BRANCH  39  40
ATOM     40  C   UNL A   1      37.606  32.770  31.244  1.00  0.00     0.031 A 
ATOM     41  C   UNL A   1      38.274  31.603  30.572  1.00  0.00     0.074 A 
ATOM     42  C   UNL A   1      38.018  33.176  32.461  1.00  0.00     0.049 A 
ATOM     43  N   UNL A   1      39.225  30.823  31.019  1.00  0.00    -0.248 NA
ATOM     44  C   UNL A   1      37.791  31.250  29.227  1.00  0.00     0.031 C 
ATOM     45  C   UNL A   1      37.429  34.271  33.234  1.00  0.00     0.029 A 
ATOM     46  N   UNL A   1      39.016  32.698  33.273  1.00  0.00    -0.354 N 
ATOM     47  C   UNL A   1      39.430  29.871  30.028  1.00  0.00     0.074 A 
ATOM     48  C   UNL A   1      38.485  30.151  28.969  1.00  0.00     0.031 C 
ATOM     49  C   UNL A   1      38.080  34.384  34.403  1.00  0.00     0.029 A 
ATOM     50  C   UNL A   1      39.104  33.347  34.482  1.00  0.00     0.049 A 
ATOM     51  H   UNL A   1      39.613  31.959  33.015  1.00  0.00     0.167 HD
ATOM     52  C   UNL A   1      40.334  28.864  30.002  1.00  0.00     0.037 A 
ATOM     53  C   UNL A   1      39.907  33.118  35.538  1.00  0.00     0.037 A 
ATOM     54  C   UNL A   1      41.306  28.620  31.033  1.00  0.00     0.049 A 
ATOM     55  C   UNL A   1      40.908  31.995  35.474  1.00  0.00     0.074 A 
ATOM     56  C   UNL A   1      42.319  27.676  31.054  1.00  0.00     0.029 A 
ATOM     57  N   UNL A   1      41.389  29.325  32.224  1.00  0.00    -0.354 N 
ATOM     58  N   UNL A   1      41.141  31.147  34.501  1.00  0.00    -0.248 NA
ATOM     59  C   UNL A   1      41.762  31.798  36.655  1.00  0.00     0.031 C 
ATOM     60  C   UNL A   1      42.990  27.784  32.277  1.00  0.00     0.029 A 
ATOM     61  C   UNL A   1      42.424  28.824  32.996  1.00  0.00     0.049 A 
ATOM     62  H   UNL A   1      40.801  30.070  32.482  1.00  0.00     0.167 HD
ATOM     63  C   UNL A   1      42.188  30.348  34.935  1.00  0.00     0.074 A 
ATOM     64  C   UNL A   1      42.552  30.811  36.256  1.00  0.00     0.031 C 
ATOM     65  C   UNL A   1      42.795  29.318  34.296  1.00  0.00     0.037 A 
BRANCH  52  66
ATOM     66  C   UNL A   1      40.326  27.944  28.818  1.00  0.00     0.064 A 
ATOM     67  C   UNL A   1      41.070  28.225  27.664  1.00  0.00     0.173 A 
ATOM     68  C   UNL A   1      39.628  26.727  28.872  1.00  0.00     0.173 A 
ATOM     69  F   UNL A   1      41.747  29.378  27.561  1.00  0.00    -0.203 F 
ATOM     70  C   UNL A   1      41.103  27.328  26.599  1.00  0.00     0.198 A 
ATOM     71  C   UNL A   1      39.684  25.822  27.817  1.00  0.00     0.198 A 
ATOM     72  F   UNL A   1      38.907  26.409  29.958  1.00  0.00    -0.203 F 
ATOM     73  F   UNL A   1      41.797  27.630  25.492  1.00  0.00    -0.200 F 
ATOM     74  C   UNL A   1      40.419  26.124  26.680  1.00  0.00     0.200 A 
ATOM     75  F   UNL A   1      39.034  24.653  27.902  1.00  0.00    -0.200 F 
ATOM     76  F   UNL A   1      40.468  25.254  25.662  1.00  0.00    -0.200 F 
ENDBRANCH  52  66
BRANCH  53  77
ATOM     77  C   UNL A   1      39.811  33.969  36.755  1.00  0.00     0.064 A 
ATOM     78  C   UNL A   1      38.984  33.600  37.825  1.00  0.00     0.173 A 
ATOM     79  C   UNL A   1      40.507  35.181  36.856  1.00  0.00     0.173 A 
ATOM     80  F   UNL A   1      38.279  32.461  37.764  1.00  0.00    -0.203 F 
ATOM     81  C   UNL A   1      38.832  34.426  38.936  1.00  0.00     0.198 A 
ATOM     82  C   UNL A   1      40.378  35.994  37.982  1.00  0.00     0.198 A 
ATOM     83  F   UNL A   1      41.314  35.580  35.861  1.00  0.00    -0.203 F 
ATOM     84  F   UNL A   1      37.987  34.078  39.917  1.00  0.00    -0.200 F 
ATOM     85  C   UNL A   1      39.530  35.621  39.015  1.00  0.00     0.200 A 
ATOM     86  F   UNL A   1      41.062  37.142  38.059  1.00  0.00    -0.200 F 
ATOM     87  F   UNL A   1      39.378  36.420  40.080  1.00  0.00    -0.200 F 
ENDBRANCH  53  77
BRANCH  65  88
ATOM     88  C   UNL A   1      43.952  28.659  34.984  1.00  0.00     0.064 A 
ATOM     89  C   UNL A   1      45.263  29.133  34.839  1.00  0.00     0.173 A 
ATOM     90  C   UNL A   1      43.735  27.572  35.845  1.00  0.00     0.173 A 
ATOM     91  F   UNL A   1      45.522  30.160  34.016  1.00  0.00    -0.203 F 
ATOM     92  C   UNL A   1      46.319  28.532  35.518  1.00  0.00     0.198 A 
ATOM     93  C   UNL A   1      44.789  26.991  36.543  1.00  0.00     0.198 A 
ATOM     94  F   UNL A   1      42.498  27.086  36.021  1.00  0.00    -0.203 F 
ATOM     95  F   UNL A   1      47.570  28.977  35.337  1.00  0.00    -0.200 F 
ATOM     96  C   UNL A   1      46.080  27.468  36.375  1.00  0.00     0.200 A 
ATOM     97  F   UNL A   1      44.555  25.972  37.381  1.00  0.00    -0.200 F 
ATOM     98  F   UNL A   1      47.097  26.899  37.038  1.00  0.00    -0.200 F 
ENDBRANCH  65  88
ENDBRANCH  39  40
ENDBRANCH  31  34
ENDBRANCH  29  30
ENDBRANCH  28  29
ENDBRANCH  27  28
ENDBRANCH  26  27
ENDBRANCH   1  26
TORSDOF 18
ENDMDL
MODEL 2
REMARK VINA RESULT:     -11.7      2.122      7.711
REMARK SMILES O=C(C[C@H](NS(=O)(=O)c1cccs1)c1ccccc1Cl)NCCCCCCNC(=O)c1ccc(-c2c3nc(c(-c4c(F)c(F)c(F)c(F)c4F)c4ccc([nH]4)c(-c4c(F)c(F)c(F)c(F)c4F)c4nc(c(-c5c(F)c(F)c(F)c(F)c5F)c5ccc2[nH]5)C=C4)C=C3)cc1
REMARK SMILES IDX 23 1 22 2 21 3 1 4 2 5 3 7 4 8 14 9 15 10 19 11 16 12 18 13
REMARK SMILES IDX 20 14 17 15 5 16 6 18 7 19 8 20 9 21 10 22 13 23 11 24 12 25
REMARK SMILES IDX 24 26 25 27 26 28 27 29 28 30 29 31 30 33 31 34 32 35 93 36
REMARK SMILES IDX 33 37 92 38 34 39 35 40 36 41 86 42 37 43 91 44 85 45 87 46
REMARK SMILES IDX 38 47 90 48 84 49 83 50 39 52 71 53 51 54 70 55 52 56 55 57
REMARK SMILES IDX 69 58 88 59 53 60 54 61 68 63 89 64 56 65 40 66 41 67 49 68
REMARK SMILES IDX 42 69 43 70 47 71 50 72 44 73 45 74 48 75 46 76 72 77 73 78
REMARK SMILES IDX 81 79 74 80 75 81 79 82 82 83 76 84 77 85 80 86 78 87 57 88
REMARK SMILES IDX 58 89 66 90 59 91 60 92 64 93 67 94 61 95 62 96 65 97 63 98
REMARK H PARENT 21 6 5 17 28 32 87 51 55 62
REMARK Flexibility Score: inf
ROOT
ATOM      1  C   UNL A   1      34.868  31.787  27.813  1.00  0.00     0.021 C 
ENDROOT
BRANCH   1   2
ATOM      2  C   UNL A   1      33.781  30.726  27.665  1.00  0.00     0.116 C 
BRANCH   2   3
ATOM      3  N   UNL A   1      33.867  30.062  26.386  1.00  0.00    -0.356 N 
ATOM      4  O   UNL A   1      31.698  30.457  25.737  1.00  0.00    -0.275 OA
ATOM      5  C   UNL A   1      32.812  30.001  25.509  1.00  0.00     0.221 C 
ATOM      6  H   UNL A   1      34.717  29.636  26.131  1.00  0.00     0.163 HD
BRANCH   5   7
ATOM      7  C   UNL A   1      33.167  29.329  24.210  1.00  0.00     0.125 C 
BRANCH   7   8
ATOM      8  C   UNL A   1      32.225  28.165  23.869  1.00  0.00     0.111 C 
BRANCH   8   9
ATOM      9  C   UNL A   1      32.743  26.848  24.453  1.00  0.00    -0.011 A 
ATOM     10  C   UNL A   1      33.650  26.115  23.651  1.00  0.00     0.007 A 
ATOM     11  C   UNL A   1      32.440  26.325  25.727  1.00  0.00     0.045 A 
ATOM     12  C   UNL A   1      34.213  24.915  24.088  1.00  0.00     0.000 A 
ATOM     13  C   UNL A   1      32.985  25.103  26.145  1.00  0.00     0.021 A 
ATOM     14  Cl  UNL A   1      31.429  27.122  26.884  1.00  0.00    -0.084 Cl
ATOM     15  C   UNL A   1      33.870  24.401  25.331  1.00  0.00     0.002 A 
ENDBRANCH   8   9
BRANCH   8  16
ATOM     16  N   UNL A   1      30.808  28.423  24.175  1.00  0.00    -0.202 NA
ATOM     17  H   UNL A   1      30.781  29.336  24.629  1.00  0.00     0.142 HD
BRANCH  16  18
ATOM     18  S   UNL A   1      29.618  28.454  23.011  1.00  0.00     0.250 S 
ATOM     19  O   UNL A   1      30.280  28.136  21.762  1.00  0.00    -0.206 OA
ATOM     20  O   UNL A   1      28.514  27.667  23.501  1.00  0.00    -0.206 OA
BRANCH  18  21
ATOM     21  C   UNL A   1      29.055  30.123  22.848  1.00  0.00     0.134 A 
ATOM     22  C   UNL A   1      28.956  31.165  23.752  1.00  0.00     0.033 A 
ATOM     23  S   UNL A   1      28.554  30.596  21.283  1.00  0.00    -0.131 S 
ATOM     24  C   UNL A   1      28.446  32.353  23.153  1.00  0.00     0.013 A 
ATOM     25  C   UNL A   1      28.189  32.182  21.811  1.00  0.00     0.066 A 
ENDBRANCH  18  21
ENDBRANCH  16  18
ENDBRANCH   8  16
ENDBRANCH   7   8
ENDBRANCH   5   7
ENDBRANCH   2   3
ENDBRANCH   1   2
BRANCH   1  26
ATOM     26  C   UNL A   1      34.617  32.816  28.925  1.00  0.00     0.002 C 
BRANCH  26  27
ATOM     27  C   UNL A   1      34.479  34.268  28.459  1.00  0.00     0.002 C 
BRANCH  27  28
ATOM     28  C   UNL A   1      33.151  34.938  28.813  1.00  0.00     0.021 C 
BRANCH  28  29
ATOM     29  C   UNL A   1      33.275  36.315  29.458  1.00  0.00     0.116 C 
BRANCH  29  30
ATOM     30  N   UNL A   1      32.463  36.456  30.656  1.00  0.00    -0.352 N 
ATOM     31  C   UNL A   1      32.620  35.839  31.874  1.00  0.00     0.251 C 
ATOM     32  H   UNL A   1      31.701  37.076  30.586  1.00  0.00     0.163 HD
ATOM     33  O   UNL A   1      31.776  35.966  32.756  1.00  0.00    -0.269 OA
BRANCH  31  34
ATOM     34  C   UNL A   1      33.803  34.984  32.108  1.00  0.00     0.039 A 
ATOM     35  C   UNL A   1      35.078  35.544  31.981  1.00  0.00     0.014 A 
ATOM     36  C   UNL A   1      33.654  33.644  32.473  1.00  0.00     0.014 A 
ATOM     37  C   UNL A   1      36.204  34.776  32.288  1.00  0.00     0.010 A 
ATOM     38  C   UNL A   1      34.773  32.901  32.838  1.00  0.00     0.010 A 
ATOM     39  C   UNL A   1      36.059  33.460  32.752  1.00  0.00    -0.014 A 
BRANCH  39  40
ATOM     40  C   UNL A   1      37.232  32.643  33.159  1.00  0.00     0.031 A 
ATOM     41  C   UNL A   1      37.931  32.933  34.458  1.00  0.00     0.074 A 
ATOM     42  C   UNL A   1      37.722  31.708  32.321  1.00  0.00     0.049 A 
ATOM     43  N   UNL A   1      39.044  32.432  34.929  1.00  0.00    -0.248 NA
ATOM     44  C   UNL A   1      37.308  33.940  35.333  1.00  0.00     0.031 C 
ATOM     45  C   UNL A   1      37.157  31.359  31.017  1.00  0.00     0.029 A 
ATOM     46  N   UNL A   1      38.822  30.894  32.434  1.00  0.00    -0.354 N 
ATOM     47  C   UNL A   1      39.271  33.084  36.135  1.00  0.00     0.074 A 
ATOM     48  C   UNL A   1      38.198  34.038  36.310  1.00  0.00     0.031 C 
ATOM     49  C   UNL A   1      37.910  30.400  30.454  1.00  0.00     0.029 A 
ATOM     50  C   UNL A   1      39.032  30.094  31.336  1.00  0.00     0.049 A 
ATOM     51  H   UNL A   1      39.406  30.885  33.226  1.00  0.00     0.167 HD
ATOM     52  C   UNL A   1      40.278  32.893  37.019  1.00  0.00     0.037 A 
ATOM     53  C   UNL A   1      40.027  29.227  31.067  1.00  0.00     0.037 A 
ATOM     54  C   UNL A   1      41.315  31.907  36.867  1.00  0.00     0.049 A 
ATOM     55  C   UNL A   1      41.128  29.030  32.076  1.00  0.00     0.074 A 
ATOM     56  C   UNL A   1      42.328  31.581  37.753  1.00  0.00     0.029 A 
ATOM     57  N   UNL A   1      41.469  31.088  35.760  1.00  0.00    -0.354 N 
ATOM     58  N   UNL A   1      41.291  29.601  33.245  1.00  0.00    -0.248 NA
ATOM     59  C   UNL A   1      42.182  28.066  31.729  1.00  0.00     0.031 C 
ATOM     60  C   UNL A   1      43.121  30.592  37.163  1.00  0.00     0.029 A 
ATOM     61  C   UNL A   1      42.575  30.271  35.931  1.00  0.00     0.049 A 
ATOM     62  H   UNL A   1      40.883  31.087  34.970  1.00  0.00     0.167 HD
ATOM     63  C   UNL A   1      42.438  29.038  33.786  1.00  0.00     0.074 A 
ATOM     64  C   UNL A   1      42.929  28.077  32.823  1.00  0.00     0.031 C 
ATOM     65  C   UNL A   1      43.032  29.296  34.977  1.00  0.00     0.037 A 
BRANCH  52  66
ATOM     66  C   UNL A   1      40.313  33.760  38.242  1.00  0.00     0.064 A 
ATOM     67  C   UNL A   1      39.611  33.419  39.406  1.00  0.00     0.173 A 
ATOM     68  C   UNL A   1      41.124  34.906  38.273  1.00  0.00     0.173 A 
ATOM     69  F   UNL A   1      38.816  32.339  39.423  1.00  0.00    -0.203 F 
ATOM     70  C   UNL A   1      39.707  34.202  40.554  1.00  0.00     0.198 A 
ATOM     71  C   UNL A   1      41.238  35.671  39.429  1.00  0.00     0.198 A 
ATOM     72  F   UNL A   1      41.822  35.270  37.187  1.00  0.00    -0.203 F 
ATOM     73  F   UNL A   1      39.003  33.874  41.646  1.00  0.00    -0.200 F 
ATOM     74  C   UNL A   1      40.527  35.321  40.568  1.00  0.00     0.200 A 
ATOM     75  F   UNL A   1      42.041  36.744  39.446  1.00  0.00    -0.200 F 
ATOM     76  F   UNL A   1      40.632  36.062  41.679  1.00  0.00    -0.200 F 
ENDBRANCH  52  66
BRANCH  53  77
ATOM     77  C   UNL A   1      40.036  28.466  29.788  1.00  0.00     0.064 A 
ATOM     78  C   UNL A   1      39.400  27.221  29.690  1.00  0.00     0.173 A 
ATOM     79  C   UNL A   1      40.712  28.945  28.657  1.00  0.00     0.173 A 
ATOM     80  F   UNL A   1      38.761  26.710  30.753  1.00  0.00    -0.203 F 
ATOM     81  C   UNL A   1      39.466  26.469  28.519  1.00  0.00     0.198 A 
ATOM     82  C   UNL A   1      40.752  28.206  27.477  1.00  0.00     0.198 A 
ATOM     83  F   UNL A   1      41.335  30.132  28.698  1.00  0.00    -0.203 F 
ATOM     84  F   UNL A   1      38.901  25.254  28.473  1.00  0.00    -0.200 F 
ATOM     85  C   UNL A   1      40.140  26.963  27.413  1.00  0.00     0.200 A 
ATOM     86  F   UNL A   1      41.396  28.690  26.407  1.00  0.00    -0.200 F 
ATOM     87  F   UNL A   1      40.211  26.236  26.289  1.00  0.00    -0.200 F 
ENDBRANCH  53  77
BRANCH  65  88
ATOM     88  C   UNL A   1      44.244  28.489  35.336  1.00  0.00     0.064 A 
ATOM     89  C   UNL A   1      45.540  28.927  35.026  1.00  0.00     0.173 A 
ATOM     90  C   UNL A   1      44.107  27.289  36.049  1.00  0.00     0.173 A 
ATOM     91  F   UNL A   1      45.721  30.061  34.332  1.00  0.00    -0.203 F 
ATOM     92  C   UNL A   1      46.654  28.183  35.403  1.00  0.00     0.198 A 
ATOM     93  C   UNL A   1      45.224  26.561  36.448  1.00  0.00     0.198 A 
ATOM     94  F   UNL A   1      42.889  26.831  36.374  1.00  0.00    -0.203 F 
ATOM     95  F   UNL A   1      47.882  28.600  35.064  1.00  0.00    -0.200 F 
ATOM     96  C   UNL A   1      46.495  27.006  36.120  1.00  0.00     0.200 A 
ATOM     97  F   UNL A   1      45.070  25.432  37.153  1.00  0.00    -0.200 F 
ATOM     98  F   UNL A   1      47.571  26.298  36.494  1.00  0.00    -0.200 F 
ENDBRANCH  65  88
ENDBRANCH  39  40
ENDBRANCH  31  34
ENDBRANCH  29  30
ENDBRANCH  28  29
ENDBRANCH  27  28
ENDBRANCH  26  27
ENDBRANCH   1  26
TORSDOF 18
ENDMDL
MODEL 3
REMARK VINA RESULT:     -11.6      2.211      7.821
REMARK SMILES O=C(C[C@H](NS(=O)(=O)c1cccs1)c1ccccc1Cl)NCCCCCCNC(=O)c1ccc(-c2c3nc(c(-c4c(F)c(F)c(F)c(F)c4F)c4ccc([nH]4)c(-c4c(F)c(F)c(F)c(F)c4F)c4nc(c(-c5c(F)c(F)c(F)c(F)c5F)c5ccc2[nH]5)C=C4)C=C3)cc1
REMARK SMILES IDX 23 1 22 2 21 3 1 4 2 5 3 7 4 8 14 9 15 10 19 11 16 12 18 13
REMARK SMILES IDX 20 14 17 15 5 16 6 18 7 19 8 20 9 21 10 22 13 23 11 24 12 25
REMARK SMILES IDX 24 26 25 27 26 28 27 29 28 30 29 31 30 33 31 34 32 35 93 36
REMARK SMILES IDX 33 37 92 38 34 39 35 40 36 41 86 42 37 43 91 44 85 45 87 46
REMARK SMILES IDX 38 47 90 48 84 49 83 50 39 52 71 53 51 54 70 55 52 56 55 57
REMARK SMILES IDX 69 58 88 59 53 60 54 61 68 63 89 64 56 65 40 66 41 67 49 68
REMARK SMILES IDX 42 69 43 70 47 71 50 72 44 73 45 74 48 75 46 76 72 77 73 78
REMARK SMILES IDX 81 79 74 80 75 81 79 82 82 83 76 84 77 85 80 86 78 87 57 88
REMARK SMILES IDX 58 89 66 90 59 91 60 92 64 93 67 94 61 95 62 96 65 97 63 98
REMARK H PARENT 21 6 5 17 28 32 87 51 55 62
REMARK Flexibility Score: inf
ROOT
ATOM      1  C   UNL A   1      34.451  31.795  27.707  1.00  0.00     0.021 C 
ENDROOT
BRANCH   1   2
ATOM      2  C   UNL A   1      33.280  30.890  27.335  1.00  0.00     0.116 C 
BRANCH   2   3
ATOM      3  N   UNL A   1      33.734  29.567  26.974  1.00  0.00    -0.356 N 
ATOM      4  O   UNL A   1      31.653  28.670  26.592  1.00  0.00    -0.275 OA
ATOM      5  C   UNL A   1      32.873  28.563  26.607  1.00  0.00     0.221 C 
ATOM      6  H   UNL A   1      34.700  29.378  26.991  1.00  0.00     0.163 HD
BRANCH   5   7
ATOM      7  C   UNL A   1      33.585  27.300  26.198  1.00  0.00     0.125 C 
BRANCH   7   8
ATOM      8  C   UNL A   1      32.619  26.194  25.751  1.00  0.00     0.111 C 
BRANCH   8   9
ATOM      9  C   UNL A   1      32.500  26.150  24.225  1.00  0.00    -0.011 A 
ATOM     10  C   UNL A   1      33.636  25.693  23.517  1.00  0.00     0.007 A 
ATOM     11  C   UNL A   1      31.356  26.476  23.469  1.00  0.00     0.045 A 
ATOM     12  C   UNL A   1      33.639  25.580  22.126  1.00  0.00     0.000 A 
ATOM     13  C   UNL A   1      31.377  26.390  22.069  1.00  0.00     0.021 A 
ATOM     14  Cl  UNL A   1      29.845  26.962  24.160  1.00  0.00    -0.084 Cl
ATOM     15  C   UNL A   1      32.513  25.942  21.400  1.00  0.00     0.002 A 
ENDBRANCH   8   9
BRANCH   8  16
ATOM     16  N   UNL A   1      32.883  24.878  26.355  1.00  0.00    -0.202 NA
ATOM     17  H   UNL A   1      33.182  25.063  27.312  1.00  0.00     0.142 HD
BRANCH  16  18
ATOM     18  S   UNL A   1      31.733  23.678  26.459  1.00  0.00     0.250 S 
ATOM     19  O   UNL A   1      32.043  22.937  27.663  1.00  0.00    -0.206 OA
ATOM     20  O   UNL A   1      30.445  24.297  26.265  1.00  0.00    -0.206 OA
BRANCH  18  21
ATOM     21  C   UNL A   1      31.991  22.554  25.118  1.00  0.00     0.134 A 
ATOM     22  C   UNL A   1      31.745  22.648  23.761  1.00  0.00     0.033 A 
ATOM     23  S   UNL A   1      32.713  21.057  25.524  1.00  0.00    -0.131 S 
ATOM     24  C   UNL A   1      32.134  21.473  23.057  1.00  0.00     0.013 A 
ATOM     25  C   UNL A   1      32.681  20.529  23.898  1.00  0.00     0.066 A 
ENDBRANCH  18  21
ENDBRANCH  16  18
ENDBRANCH   8  16
ENDBRANCH   7   8
ENDBRANCH   5   7
ENDBRANCH   2   3
ENDBRANCH   1   2
BRANCH   1  26
ATOM     26  C   UNL A   1      34.428  32.317  29.151  1.00  0.00     0.002 C 
BRANCH  26  27
ATOM     27  C   UNL A   1      34.656  33.823  29.311  1.00  0.00     0.002 C 
BRANCH  27  28
ATOM     28  C   UNL A   1      33.424  34.695  29.070  1.00  0.00     0.021 C 
BRANCH  28  29
ATOM     29  C   UNL A   1      33.500  36.098  29.664  1.00  0.00     0.116 C 
BRANCH  29  30
ATOM     30  N   UNL A   1      32.504  36.332  30.696  1.00  0.00    -0.352 N 
ATOM     31  C   UNL A   1      32.494  35.883  31.995  1.00  0.00     0.251 C 
ATOM     32  H   UNL A   1      31.735  36.887  30.430  1.00  0.00     0.163 HD
ATOM     33  O   UNL A   1      31.517  36.062  32.715  1.00  0.00    -0.269 OA
BRANCH  31  34
ATOM     34  C   UNL A   1      33.663  35.144  32.516  1.00  0.00     0.039 A 
ATOM     35  C   UNL A   1      33.495  33.824  32.943  1.00  0.00     0.014 A 
ATOM     36  C   UNL A   1      34.925  35.744  32.561  1.00  0.00     0.014 A 
ATOM     37  C   UNL A   1      34.605  33.081  33.351  1.00  0.00     0.010 A 
ATOM     38  C   UNL A   1      36.038  34.983  32.908  1.00  0.00     0.010 A 
ATOM     39  C   UNL A   1      35.890  33.643  33.303  1.00  0.00    -0.014 A 
BRANCH  39  40
ATOM     40  C   UNL A   1      37.099  32.856  33.658  1.00  0.00     0.031 A 
ATOM     41  C   UNL A   1      37.841  33.158  34.930  1.00  0.00     0.074 A 
ATOM     42  C   UNL A   1      37.580  31.938  32.797  1.00  0.00     0.049 A 
ATOM     43  N   UNL A   1      38.985  32.684  35.355  1.00  0.00    -0.248 NA
ATOM     44  C   UNL A   1      37.227  34.144  35.835  1.00  0.00     0.031 C 
ATOM     45  C   UNL A   1      36.973  31.580  31.514  1.00  0.00     0.029 A 
ATOM     46  N   UNL A   1      38.704  31.153  32.862  1.00  0.00    -0.354 N 
ATOM     47  C   UNL A   1      39.242  33.337  36.554  1.00  0.00     0.074 A 
ATOM     48  C   UNL A   1      38.152  34.261  36.777  1.00  0.00     0.031 C 
ATOM     49  C   UNL A   1      37.728  30.643  30.917  1.00  0.00     0.029 A 
ATOM     50  C   UNL A   1      38.892  30.363  31.752  1.00  0.00     0.049 A 
ATOM     51  H   UNL A   1      39.319  31.155  33.631  1.00  0.00     0.167 HD
ATOM     52  C   UNL A   1      40.288  33.168  37.397  1.00  0.00     0.037 A 
ATOM     53  C   UNL A   1      39.897  29.524  31.439  1.00  0.00     0.037 A 
ATOM     54  C   UNL A   1      41.344  32.211  37.199  1.00  0.00     0.049 A 
ATOM     55  C   UNL A   1      41.042  29.352  32.403  1.00  0.00     0.074 A 
ATOM     56  C   UNL A   1      42.399  31.907  38.042  1.00  0.00     0.029 A 
ATOM     57  N   UNL A   1      41.475  31.401  36.082  1.00  0.00    -0.354 N 
ATOM     58  N   UNL A   1      41.236  29.921  33.567  1.00  0.00    -0.248 NA
ATOM     59  C   UNL A   1      42.107  28.417  32.009  1.00  0.00     0.031 C 
ATOM     60  C   UNL A   1      43.194  30.942  37.415  1.00  0.00     0.029 A 
ATOM     61  C   UNL A   1      42.608  30.613  36.204  1.00  0.00     0.049 A 
ATOM     62  H   UNL A   1      40.858  31.388  35.316  1.00  0.00     0.167 HD
ATOM     63  C   UNL A   1      42.418  29.386  34.060  1.00  0.00     0.074 A 
ATOM     64  C   UNL A   1      42.896  28.443  33.073  1.00  0.00     0.031 C 
ATOM     65  C   UNL A   1      43.052  29.654  35.227  1.00  0.00     0.037 A 
BRANCH  52  66
ATOM     66  C   UNL A   1      40.349  34.031  38.622  1.00  0.00     0.064 A 
ATOM     67  C   UNL A   1      39.779  33.624  39.837  1.00  0.00     0.173 A 
ATOM     68  C   UNL A   1      41.056  35.243  38.599  1.00  0.00     0.173 A 
ATOM     69  F   UNL A   1      39.086  32.478  39.907  1.00  0.00    -0.203 F 
ATOM     70  C   UNL A   1      39.901  34.408  40.981  1.00  0.00     0.198 A 
ATOM     71  C   UNL A   1      41.199  36.010  39.750  1.00  0.00     0.198 A 
ATOM     72  F   UNL A   1      41.626  35.672  37.463  1.00  0.00    -0.203 F 
ATOM     73  F   UNL A   1      39.323  34.015  42.125  1.00  0.00    -0.200 F 
ATOM     74  C   UNL A   1      40.618  35.595  40.940  1.00  0.00     0.200 A 
ATOM     75  F   UNL A   1      41.903  37.150  39.713  1.00  0.00    -0.200 F 
ATOM     76  F   UNL A   1      40.751  36.338  42.047  1.00  0.00    -0.200 F 
ENDBRANCH  52  66
BRANCH  53  77
ATOM     77  C   UNL A   1      39.876  28.770  30.157  1.00  0.00     0.064 A 
ATOM     78  C   UNL A   1      39.327  27.481  30.092  1.00  0.00     0.173 A 
ATOM     79  C   UNL A   1      40.437  29.300  28.987  1.00  0.00     0.173 A 
ATOM     80  F   UNL A   1      38.802  26.921  31.191  1.00  0.00    -0.203 F 
ATOM     81  C   UNL A   1      39.370  26.739  28.914  1.00  0.00     0.198 A 
ATOM     82  C   UNL A   1      40.451  28.569  27.800  1.00  0.00     0.198 A 
ATOM     83  F   UNL A   1      40.973  30.530  28.994  1.00  0.00    -0.203 F 
ATOM     84  F   UNL A   1      38.893  25.486  28.896  1.00  0.00    -0.200 F 
ATOM     85  C   UNL A   1      39.929  27.284  27.768  1.00  0.00     0.200 A 
ATOM     86  F   UNL A   1      40.984  29.103  26.693  1.00  0.00    -0.200 F 
ATOM     87  F   UNL A   1      39.976  26.568  26.636  1.00  0.00    -0.200 F 
ENDBRANCH  53  77
BRANCH  65  88
ATOM     88  C   UNL A   1      44.298  28.878  35.534  1.00  0.00     0.064 A 
ATOM     89  C   UNL A   1      45.566  29.337  35.149  1.00  0.00     0.173 A 
ATOM     90  C   UNL A   1      44.224  27.687  36.271  1.00  0.00     0.173 A 
ATOM     91  F   UNL A   1      45.686  30.462  34.429  1.00  0.00    -0.203 F 
ATOM     92  C   UNL A   1      46.714  28.622  35.477  1.00  0.00     0.198 A 
ATOM     93  C   UNL A   1      45.376  26.989  36.621  1.00  0.00     0.198 A 
ATOM     94  F   UNL A   1      43.035  27.210  36.668  1.00  0.00    -0.203 F 
ATOM     95  F   UNL A   1      47.913  29.058  35.067  1.00  0.00    -0.200 F 
ATOM     96  C   UNL A   1      46.618  27.454  36.220  1.00  0.00     0.200 A 
ATOM     97  F   UNL A   1      45.283  25.869  37.351  1.00  0.00    -0.200 F 
ATOM     98  F   UNL A   1      47.727  26.774  36.546  1.00  0.00    -0.200 F 
ENDBRANCH  65  88
ENDBRANCH  39  40
ENDBRANCH  31  34
ENDBRANCH  29  30
ENDBRANCH  28  29
ENDBRANCH  27  28
ENDBRANCH  26  27
ENDBRANCH   1  26
TORSDOF 18
ENDMDL
