MODEL 1
REMARK VINA RESULT:     -12.8      0.000      0.000
REMARK SMILES Cc1cccc([C@H]2[C@@H](C(=O)NCCCCCCNC(=O)c3ccc(-c4c5nc(c(-c6c(F)c(F)c(F)c(F)c6F)c6ccc([nH]6)c(-c6c(F)c(F)c(F)c(F)c6F)c6nc(c(-c7c(F)c(F)c(F)c(F)c7F)c7ccc4[nH]7)C=C6)C=C5)cc3)CC(=O)N2C)c1
REMARK SMILES IDX 15 1 14 2 13 3 12 4 11 5 9 6 10 7 8 9 7 10 87 11 84 12 85 13
REMARK SMILES IDX 88 14 86 15 6 16 1 17 2 18 3 19 89 20 4 21 5 22 16 23 17 24
REMARK SMILES IDX 18 25 19 26 20 28 21 29 22 30 83 31 23 32 82 33 24 34 25 35
REMARK SMILES IDX 26 36 76 37 27 38 81 39 75 40 77 41 28 42 80 43 74 44 73 45
REMARK SMILES IDX 29 47 61 48 41 49 60 50 42 51 45 52 59 53 78 54 43 55 44 56
REMARK SMILES IDX 58 58 79 59 46 60 30 61 31 62 39 63 32 64 33 65 37 66 40 67
REMARK SMILES IDX 34 68 35 69 38 70 36 71 62 72 63 73 71 74 64 75 65 76 69 77
REMARK SMILES IDX 72 78 66 79 67 80 70 81 68 82 47 83 48 84 56 85 49 86 50 87
REMARK SMILES IDX 54 88 57 89 51 90 52 91 55 92 53 93
REMARK H PARENT 11 8 18 27 77 46 45 57
REMARK Flexibility Score: inf
ROOT
ATOM      1  C   UNL A   1      36.948  23.854  25.393  1.00  0.00     0.002 C 
ENDROOT
BRANCH   1   2
ATOM      2  C   UNL A   1      35.583  23.490  26.002  1.00  0.00     0.002 C 
BRANCH   2   3
ATOM      3  C   UNL A   1      34.432  24.489  25.819  1.00  0.00     0.021 C 
BRANCH   3   4
ATOM      4  C   UNL A   1      33.028  23.939  26.041  1.00  0.00     0.116 C 
BRANCH   4   5
ATOM      5  N   UNL A   1      32.105  24.896  26.613  1.00  0.00    -0.356 N 
ATOM      6  C   UNL A   1      31.292  25.786  25.985  1.00  0.00     0.226 C 
ATOM      7  O   UNL A   1      30.340  26.232  26.634  1.00  0.00    -0.275 OA
ATOM      8  H   UNL A   1      32.059  24.902  27.596  1.00  0.00     0.163 HD
BRANCH   6   9
ATOM      9  C   UNL A   1      31.513  26.268  24.563  1.00  0.00     0.115 C 
ATOM     10  C   UNL A   1      32.484  27.430  24.293  1.00  0.00     0.128 C 
ATOM     11  N   UNL A   1      31.892  28.090  23.135  1.00  0.00    -0.338 N 
ATOM     12  C   UNL A   1      30.229  26.562  23.788  1.00  0.00     0.116 C 
ATOM     13  C   UNL A   1      30.601  27.684  22.862  1.00  0.00     0.223 C 
ATOM     14  C   UNL A   1      32.657  28.930  22.234  1.00  0.00     0.147 C 
ATOM     15  O   UNL A   1      29.872  28.126  21.987  1.00  0.00    -0.275 OA
BRANCH  10  16
ATOM     16  C   UNL A   1      32.842  28.381  25.426  1.00  0.00    -0.024 A 
ATOM     17  C   UNL A   1      31.742  31.716  26.958  1.00  0.00     0.044 C 
ATOM     18  C   UNL A   1      32.505  30.446  26.713  1.00  0.00    -0.051 A 
ATOM     19  C   UNL A   1      33.627  30.143  27.487  1.00  0.00     0.003 A 
ATOM     20  C   UNL A   1      32.107  29.551  25.708  1.00  0.00     0.009 A 
ATOM     21  C   UNL A   1      34.358  28.983  27.239  1.00  0.00     0.001 A 
ATOM     22  C   UNL A   1      33.981  28.121  26.208  1.00  0.00     0.006 A 
ENDBRANCH  10  16
ENDBRANCH   6   9
ENDBRANCH   4   5
ENDBRANCH   3   4
ENDBRANCH   2   3
ENDBRANCH   1   2
BRANCH   1  23
ATOM     23  C   UNL A   1      37.998  22.744  25.307  1.00  0.00     0.021 C 
BRANCH  23  24
ATOM     24  C   UNL A   1      38.835  22.543  26.559  1.00  0.00     0.116 C 
BRANCH  24  25
ATOM     25  N   UNL A   1      40.267  22.711  26.368  1.00  0.00    -0.352 N 
ATOM     26  C   UNL A   1      41.024  23.876  26.408  1.00  0.00     0.251 C 
ATOM     27  H   UNL A   1      40.771  21.885  26.185  1.00  0.00     0.163 HD
ATOM     28  O   UNL A   1      42.213  23.851  26.175  1.00  0.00    -0.269 OA
BRANCH  26  29
ATOM     29  C   UNL A   1      40.377  25.131  26.873  1.00  0.00     0.039 A 
ATOM     30  C   UNL A   1      40.629  26.302  26.148  1.00  0.00     0.014 A 
ATOM     31  C   UNL A   1      39.732  25.193  28.104  1.00  0.00     0.014 A 
ATOM     32  C   UNL A   1      40.470  27.537  26.773  1.00  0.00     0.010 A 
ATOM     33  C   UNL A   1      39.677  26.404  28.763  1.00  0.00     0.010 A 
ATOM     34  C   UNL A   1      40.114  27.566  28.121  1.00  0.00    -0.014 A 
BRANCH  34  35
ATOM     35  C   UNL A   1      40.314  28.734  28.974  1.00  0.00     0.031 A 
ATOM     36  C   UNL A   1      39.257  29.753  29.131  1.00  0.00     0.074 A 
ATOM     37  C   UNL A   1      41.439  28.814  29.717  1.00  0.00     0.049 A 
ATOM     38  N   UNL A   1      39.482  30.971  29.495  1.00  0.00    -0.248 NA
ATOM     39  C   UNL A   1      37.850  29.484  28.865  1.00  0.00     0.031 C 
ATOM     40  C   UNL A   1      41.695  29.712  30.842  1.00  0.00     0.029 A 
ATOM     41  N   UNL A   1      42.680  28.198  29.478  1.00  0.00    -0.354 N 
ATOM     42  C   UNL A   1      38.268  31.554  29.778  1.00  0.00     0.074 A 
ATOM     43  C   UNL A   1      37.280  30.608  29.313  1.00  0.00     0.031 C 
ATOM     44  C   UNL A   1      43.020  29.827  31.013  1.00  0.00     0.029 A 
ATOM     45  C   UNL A   1      43.655  29.124  29.913  1.00  0.00     0.049 A 
ATOM     46  H   UNL A   1      42.836  27.307  29.087  1.00  0.00     0.167 HD
ATOM     47  C   UNL A   1      38.232  32.712  30.501  1.00  0.00     0.037 A 
ATOM     48  C   UNL A   1      44.556  29.677  29.052  1.00  0.00     0.037 A 
ATOM     49  C   UNL A   1      39.575  33.180  30.827  1.00  0.00     0.049 A 
ATOM     50  C   UNL A   1      44.510  31.185  28.998  1.00  0.00     0.074 A 
ATOM     51  C   UNL A   1      40.358  33.049  31.963  1.00  0.00     0.029 A 
ATOM     52  N   UNL A   1      40.422  33.615  29.814  1.00  0.00    -0.354 N 
ATOM     53  N   UNL A   1      43.482  31.891  29.376  1.00  0.00    -0.248 NA
ATOM     54  C   UNL A   1      45.599  32.010  28.485  1.00  0.00     0.031 C 
ATOM     55  C   UNL A   1      41.689  33.386  31.625  1.00  0.00     0.029 A 
ATOM     56  C   UNL A   1      41.716  33.729  30.284  1.00  0.00     0.049 A 
ATOM     57  H   UNL A   1      40.140  33.813  28.891  1.00  0.00     0.167 HD
ATOM     58  C   UNL A   1      43.733  33.221  29.150  1.00  0.00     0.074 A 
ATOM     59  C   UNL A   1      45.078  33.245  28.610  1.00  0.00     0.031 C 
ATOM     60  C   UNL A   1      42.797  34.179  29.422  1.00  0.00     0.037 A 
BRANCH  47  61
ATOM     61  C   UNL A   1      36.979  33.239  31.164  1.00  0.00     0.064 A 
ATOM     62  C   UNL A   1      36.751  33.055  32.546  1.00  0.00     0.173 A 
ATOM     63  C   UNL A   1      35.940  33.889  30.477  1.00  0.00     0.173 A 
ATOM     64  F   UNL A   1      37.694  32.557  33.355  1.00  0.00    -0.203 F 
ATOM     65  C   UNL A   1      35.534  33.373  33.155  1.00  0.00     0.198 A 
ATOM     66  C   UNL A   1      34.702  34.156  31.072  1.00  0.00     0.198 A 
ATOM     67  F   UNL A   1      36.108  34.325  29.220  1.00  0.00    -0.203 F 
ATOM     68  F   UNL A   1      35.373  33.160  34.469  1.00  0.00    -0.200 F 
ATOM     69  C   UNL A   1      34.494  33.883  32.409  1.00  0.00     0.200 A 
ATOM     70  F   UNL A   1      33.709  34.678  30.336  1.00  0.00    -0.200 F 
ATOM     71  F   UNL A   1      33.309  34.135  32.980  1.00  0.00    -0.200 F 
ENDBRANCH  47  61
BRANCH  48  72
ATOM     72  C   UNL A   1      44.885  28.797  27.901  1.00  0.00     0.064 A 
ATOM     73  C   UNL A   1      45.755  27.712  28.118  1.00  0.00     0.173 A 
ATOM     74  C   UNL A   1      44.087  28.769  26.751  1.00  0.00     0.173 A 
ATOM     75  F   UNL A   1      46.539  27.690  29.210  1.00  0.00    -0.203 F 
ATOM     76  C   UNL A   1      45.741  26.594  27.288  1.00  0.00     0.198 A 
ATOM     77  C   UNL A   1      44.085  27.651  25.913  1.00  0.00     0.198 A 
ATOM     78  F   UNL A   1      43.224  29.762  26.499  1.00  0.00    -0.203 F 
ATOM     79  F   UNL A   1      46.497  25.529  27.589  1.00  0.00    -0.200 F 
ATOM     80  C   UNL A   1      44.884  26.553  26.202  1.00  0.00     0.200 A 
ATOM     81  F   UNL A   1      43.235  27.596  24.879  1.00  0.00    -0.200 F 
ATOM     82  F   UNL A   1      44.794  25.441  25.458  1.00  0.00    -0.200 F 
ENDBRANCH  48  72
BRANCH  60  83
ATOM     83  C   UNL A   1      42.839  35.633  29.010  1.00  0.00     0.064 A 
ATOM     84  C   UNL A   1      42.147  36.163  27.910  1.00  0.00     0.173 A 
ATOM     85  C   UNL A   1      43.489  36.590  29.832  1.00  0.00     0.173 A 
ATOM     86  F   UNL A   1      41.390  35.390  27.121  1.00  0.00    -0.203 F 
ATOM     87  C   UNL A   1      42.155  37.531  27.617  1.00  0.00     0.198 A 
ATOM     88  C   UNL A   1      43.445  37.959  29.570  1.00  0.00     0.198 A 
ATOM     89  F   UNL A   1      44.163  36.230  30.933  1.00  0.00    -0.203 F 
ATOM     90  F   UNL A   1      41.511  37.979  26.529  1.00  0.00    -0.200 F 
ATOM     91  C   UNL A   1      42.793  38.429  28.452  1.00  0.00     0.200 A 
ATOM     92  F   UNL A   1      44.023  38.818  30.422  1.00  0.00    -0.200 F 
ATOM     93  F   UNL A   1      42.756  39.742  28.193  1.00  0.00    -0.200 F 
ENDBRANCH  60  83
ENDBRANCH  34  35
ENDBRANCH  26  29
ENDBRANCH  24  25
ENDBRANCH  23  24
ENDBRANCH   1  23
TORSDOF 14
ENDMDL
MODEL 2
REMARK VINA RESULT:     -12.8      3.936     10.305
REMARK SMILES Cc1cccc([C@H]2[C@@H](C(=O)NCCCCCCNC(=O)c3ccc(-c4c5nc(c(-c6c(F)c(F)c(F)c(F)c6F)c6ccc([nH]6)c(-c6c(F)c(F)c(F)c(F)c6F)c6nc(c(-c7c(F)c(F)c(F)c(F)c7F)c7ccc4[nH]7)C=C6)C=C5)cc3)CC(=O)N2C)c1
REMARK SMILES IDX 15 1 14 2 13 3 12 4 11 5 9 6 10 7 8 9 7 10 87 11 84 12 85 13
REMARK SMILES IDX 88 14 86 15 6 16 1 17 2 18 3 19 89 20 4 21 5 22 16 23 17 24
REMARK SMILES IDX 18 25 19 26 20 28 21 29 22 30 83 31 23 32 82 33 24 34 25 35
REMARK SMILES IDX 26 36 76 37 27 38 81 39 75 40 77 41 28 42 80 43 74 44 73 45
REMARK SMILES IDX 29 47 61 48 41 49 60 50 42 51 45 52 59 53 78 54 43 55 44 56
REMARK SMILES IDX 58 58 79 59 46 60 30 61 31 62 39 63 32 64 33 65 37 66 40 67
REMARK SMILES IDX 34 68 35 69 38 70 36 71 62 72 63 73 71 74 64 75 65 76 69 77
REMARK SMILES IDX 72 78 66 79 67 80 70 81 68 82 47 83 48 84 56 85 49 86 50 87
REMARK SMILES IDX 54 88 57 89 51 90 52 91 55 92 53 93
REMARK H PARENT 11 8 18 27 77 46 45 57
REMARK Flexibility Score: inf
ROOT
ATOM      1  C   UNL A   1      31.955  28.761  27.246  1.00  0.00     0.002 C 
ENDROOT
BRANCH   1   2
ATOM      2  C   UNL A   1      32.214  27.518  26.377  1.00  0.00     0.002 C 
BRANCH   2   3
ATOM      3  C   UNL A   1      31.210  26.361  26.471  1.00  0.00     0.021 C 
BRANCH   3   4
ATOM      4  C   UNL A   1      31.489  25.159  25.576  1.00  0.00     0.116 C 
BRANCH   4   5
ATOM      5  N   UNL A   1      31.775  23.940  26.301  1.00  0.00    -0.356 N 
ATOM      6  C   UNL A   1      32.977  23.388  26.612  1.00  0.00     0.226 C 
ATOM      7  O   UNL A   1      32.997  22.566  27.534  1.00  0.00    -0.275 OA
ATOM      8  H   UNL A   1      30.987  23.440  26.615  1.00  0.00     0.163 HD
BRANCH   6   9
ATOM      9  C   UNL A   1      34.265  23.708  25.875  1.00  0.00     0.115 C 
ATOM     10  C   UNL A   1      34.475  23.187  24.443  1.00  0.00     0.128 C 
ATOM     11  N   UNL A   1      35.916  22.974  24.379  1.00  0.00    -0.338 N 
ATOM     12  C   UNL A   1      35.538  23.397  26.660  1.00  0.00     0.116 C 
ATOM     13  C   UNL A   1      36.540  23.011  25.610  1.00  0.00     0.223 C 
ATOM     14  C   UNL A   1      36.650  22.939  23.129  1.00  0.00     0.147 C 
ATOM     15  O   UNL A   1      37.723  22.804  25.829  1.00  0.00    -0.275 OA
BRANCH  10  16
ATOM     16  C   UNL A   1      33.655  22.001  23.954  1.00  0.00    -0.024 A 
ATOM     17  C   UNL A   1      33.344  18.213  24.432  1.00  0.00     0.044 C 
ATOM     18  C   UNL A   1      33.106  19.608  23.929  1.00  0.00    -0.051 A 
ATOM     19  C   UNL A   1      32.160  19.837  22.927  1.00  0.00     0.003 A 
ATOM     20  C   UNL A   1      33.825  20.693  24.451  1.00  0.00     0.009 A 
ATOM     21  C   UNL A   1      31.962  21.125  22.433  1.00  0.00     0.001 A 
ATOM     22  C   UNL A   1      32.714  22.193  22.928  1.00  0.00     0.006 A 
ENDBRANCH  10  16
ENDBRANCH   6   9
ENDBRANCH   4   5
ENDBRANCH   3   4
ENDBRANCH   2   3
ENDBRANCH   1   2
BRANCH   1  23
ATOM     23  C   UNL A   1      32.705  30.044  26.880  1.00  0.00     0.021 C 
BRANCH  23  24
ATOM     24  C   UNL A   1      34.203  30.014  27.131  1.00  0.00     0.116 C 
BRANCH  24  25
ATOM     25  N   UNL A   1      34.679  31.000  28.090  1.00  0.00    -0.352 N 
ATOM     26  C   UNL A   1      35.800  30.952  28.910  1.00  0.00     0.251 C 
ATOM     27  H   UNL A   1      34.132  31.815  28.167  1.00  0.00     0.163 HD
ATOM     28  O   UNL A   1      36.031  31.844  29.697  1.00  0.00    -0.269 OA
BRANCH  26  29
ATOM     29  C   UNL A   1      36.783  29.855  28.711  1.00  0.00     0.039 A 
ATOM     30  C   UNL A   1      36.971  28.949  29.762  1.00  0.00     0.014 A 
ATOM     31  C   UNL A   1      37.647  29.853  27.621  1.00  0.00     0.014 A 
ATOM     32  C   UNL A   1      38.163  28.232  29.838  1.00  0.00     0.010 A 
ATOM     33  C   UNL A   1      38.872  29.231  27.747  1.00  0.00     0.010 A 
ATOM     34  C   UNL A   1      39.156  28.479  28.891  1.00  0.00    -0.014 A 
BRANCH  34  35
ATOM     35  C   UNL A   1      40.556  28.117  29.090  1.00  0.00     0.031 A 
ATOM     36  C   UNL A   1      41.118  26.887  28.499  1.00  0.00     0.074 A 
ATOM     37  C   UNL A   1      41.370  28.988  29.727  1.00  0.00     0.049 A 
ATOM     38  N   UNL A   1      42.169  26.288  28.950  1.00  0.00    -0.248 NA
ATOM     39  C   UNL A   1      40.519  26.212  27.354  1.00  0.00     0.031 C 
ATOM     40  C   UNL A   1      42.831  28.971  29.760  1.00  0.00     0.029 A 
ATOM     41  N   UNL A   1      41.015  29.990  30.647  1.00  0.00    -0.354 N 
ATOM     42  C   UNL A   1      42.543  25.343  28.023  1.00  0.00     0.074 A 
ATOM     43  C   UNL A   1      41.451  25.293  27.077  1.00  0.00     0.031 C 
ATOM     44  C   UNL A   1      43.250  29.671  30.825  1.00  0.00     0.029 A 
ATOM     45  C   UNL A   1      42.069  30.034  31.588  1.00  0.00     0.049 A 
ATOM     46  H   UNL A   1      40.200  30.544  30.637  1.00  0.00     0.167 HD
ATOM     47  C   UNL A   1      43.797  24.806  28.080  1.00  0.00     0.037 A 
ATOM     48  C   UNL A   1      41.870  29.737  32.903  1.00  0.00     0.037 A 
ATOM     49  C   UNL A   1      44.550  25.329  29.214  1.00  0.00     0.049 A 
ATOM     50  C   UNL A   1      42.723  28.600  33.413  1.00  0.00     0.074 A 
ATOM     51  C   UNL A   1      45.491  26.342  29.322  1.00  0.00     0.029 A 
ATOM     52  N   UNL A   1      44.153  25.021  30.510  1.00  0.00    -0.354 N 
ATOM     53  N   UNL A   1      43.275  27.708  32.641  1.00  0.00    -0.248 NA
ATOM     54  C   UNL A   1      42.991  28.360  34.827  1.00  0.00     0.031 C 
ATOM     55  C   UNL A   1      45.642  26.660  30.691  1.00  0.00     0.029 A 
ATOM     56  C   UNL A   1      44.800  25.837  31.418  1.00  0.00     0.049 A 
ATOM     57  H   UNL A   1      43.502  24.322  30.748  1.00  0.00     0.167 HD
ATOM     58  C   UNL A   1      43.934  26.782  33.410  1.00  0.00     0.074 A 
ATOM     59  C   UNL A   1      43.743  27.246  34.771  1.00  0.00     0.031 C 
ATOM     60  C   UNL A   1      44.568  25.710  32.848  1.00  0.00     0.037 A 
BRANCH  47  61
ATOM     61  C   UNL A   1      44.429  24.048  26.934  1.00  0.00     0.064 A 
ATOM     62  C   UNL A   1      44.113  22.693  26.691  1.00  0.00     0.173 A 
ATOM     63  C   UNL A   1      45.396  24.591  26.070  1.00  0.00     0.173 A 
ATOM     64  F   UNL A   1      43.130  22.070  27.352  1.00  0.00    -0.203 F 
ATOM     65  C   UNL A   1      44.802  21.917  25.755  1.00  0.00     0.198 A 
ATOM     66  C   UNL A   1      46.125  23.803  25.173  1.00  0.00     0.198 A 
ATOM     67  F   UNL A   1      45.633  25.910  26.040  1.00  0.00    -0.203 F 
ATOM     68  F   UNL A   1      44.466  20.631  25.581  1.00  0.00    -0.200 F 
ATOM     69  C   UNL A   1      45.838  22.461  25.027  1.00  0.00     0.200 A 
ATOM     70  F   UNL A   1      47.113  24.356  24.453  1.00  0.00    -0.200 F 
ATOM     71  F   UNL A   1      46.537  21.704  24.171  1.00  0.00    -0.200 F 
ENDBRANCH  47  61
BRANCH  48  72
ATOM     72  C   UNL A   1      40.494  30.041  33.373  1.00  0.00     0.064 A 
ATOM     73  C   UNL A   1      40.149  31.388  33.601  1.00  0.00     0.173 A 
ATOM     74  C   UNL A   1      39.450  29.121  33.223  1.00  0.00     0.173 A 
ATOM     75  F   UNL A   1      41.115  32.310  33.747  1.00  0.00    -0.203 F 
ATOM     76  C   UNL A   1      38.824  31.813  33.560  1.00  0.00     0.198 A 
ATOM     77  C   UNL A   1      38.121  29.550  33.197  1.00  0.00     0.198 A 
ATOM     78  F   UNL A   1      39.713  27.829  32.984  1.00  0.00    -0.203 F 
ATOM     79  F   UNL A   1      38.538  33.119  33.665  1.00  0.00    -0.200 F 
ATOM     80  C   UNL A   1      37.813  30.897  33.329  1.00  0.00     0.200 A 
ATOM     81  F   UNL A   1      37.143  28.670  32.942  1.00  0.00    -0.200 F 
ATOM     82  F   UNL A   1      36.546  31.315  33.191  1.00  0.00    -0.200 F 
ENDBRANCH  48  72
BRANCH  60  83
ATOM     83  C   UNL A   1      45.122  24.502  33.569  1.00  0.00     0.064 A 
ATOM     84  C   UNL A   1      44.380  23.346  33.860  1.00  0.00     0.173 A 
ATOM     85  C   UNL A   1      46.507  24.419  33.866  1.00  0.00     0.173 A 
ATOM     86  F   UNL A   1      43.089  23.241  33.520  1.00  0.00    -0.203 F 
ATOM     87  C   UNL A   1      44.959  22.223  34.459  1.00  0.00     0.198 A 
ATOM     88  C   UNL A   1      47.093  23.276  34.408  1.00  0.00     0.198 A 
ATOM     89  F   UNL A   1      47.343  25.436  33.613  1.00  0.00    -0.203 F 
ATOM     90  F   UNL A   1      44.195  21.162  34.754  1.00  0.00    -0.200 F 
ATOM     91  C   UNL A   1      46.316  22.183  34.722  1.00  0.00     0.200 A 
ATOM     92  F   UNL A   1      48.418  23.237  34.603  1.00  0.00    -0.200 F 
ATOM     93  F   UNL A   1      46.873  21.086  35.250  1.00  0.00    -0.200 F 
ENDBRANCH  60  83
ENDBRANCH  34  35
ENDBRANCH  26  29
ENDBRANCH  24  25
ENDBRANCH  23  24
ENDBRANCH   1  23
TORSDOF 14
ENDMDL
MODEL 3
REMARK VINA RESULT:     -12.8      1.248      2.442
REMARK SMILES Cc1cccc([C@H]2[C@@H](C(=O)NCCCCCCNC(=O)c3ccc(-c4c5nc(c(-c6c(F)c(F)c(F)c(F)c6F)c6ccc([nH]6)c(-c6c(F)c(F)c(F)c(F)c6F)c6nc(c(-c7c(F)c(F)c(F)c(F)c7F)c7ccc4[nH]7)C=C6)C=C5)cc3)CC(=O)N2C)c1
REMARK SMILES IDX 15 1 14 2 13 3 12 4 11 5 9 6 10 7 8 9 7 10 87 11 84 12 85 13
REMARK SMILES IDX 88 14 86 15 6 16 1 17 2 18 3 19 89 20 4 21 5 22 16 23 17 24
REMARK SMILES IDX 18 25 19 26 20 28 21 29 22 30 83 31 23 32 82 33 24 34 25 35
REMARK SMILES IDX 26 36 76 37 27 38 81 39 75 40 77 41 28 42 80 43 74 44 73 45
REMARK SMILES IDX 29 47 61 48 41 49 60 50 42 51 45 52 59 53 78 54 43 55 44 56
REMARK SMILES IDX 58 58 79 59 46 60 30 61 31 62 39 63 32 64 33 65 37 66 40 67
REMARK SMILES IDX 34 68 35 69 38 70 36 71 62 72 63 73 71 74 64 75 65 76 69 77
REMARK SMILES IDX 72 78 66 79 67 80 70 81 68 82 47 83 48 84 56 85 49 86 50 87
REMARK SMILES IDX 54 88 57 89 51 90 52 91 55 92 53 93
REMARK H PARENT 11 8 18 27 77 46 45 57
REMARK Flexibility Score: inf
ROOT
ATOM      1  C   UNL A   1      36.545  21.520  24.613  1.00  0.00     0.002 C 
ENDROOT
BRANCH   1   2
ATOM      2  C   UNL A   1      36.256  22.757  23.744  1.00  0.00     0.002 C 
BRANCH   2   3
ATOM      3  C   UNL A   1      34.820  22.952  23.238  1.00  0.00     0.021 C 
BRANCH   3   4
ATOM      4  C   UNL A   1      33.989  23.998  23.972  1.00  0.00     0.116 C 
BRANCH   4   5
ATOM      5  N   UNL A   1      33.640  25.146  23.163  1.00  0.00    -0.356 N 
ATOM      6  C   UNL A   1      33.622  26.462  23.501  1.00  0.00     0.226 C 
ATOM      7  O   UNL A   1      33.655  27.280  22.576  1.00  0.00    -0.275 OA
ATOM      8  H   UNL A   1      33.380  24.944  22.235  1.00  0.00     0.163 HD
BRANCH   6   9
ATOM      9  C   UNL A   1      33.537  26.960  24.932  1.00  0.00     0.115 C 
ATOM     10  C   UNL A   1      32.160  27.197  25.577  1.00  0.00     0.128 C 
ATOM     11  N   UNL A   1      32.411  28.309  26.486  1.00  0.00    -0.338 N 
ATOM     12  C   UNL A   1      34.391  28.193  25.224  1.00  0.00     0.116 C 
ATOM     13  C   UNL A   1      33.620  28.941  26.274  1.00  0.00     0.223 C 
ATOM     14  C   UNL A   1      31.571  28.589  27.635  1.00  0.00     0.147 C 
ATOM     15  O   UNL A   1      34.033  29.929  26.859  1.00  0.00    -0.275 OA
BRANCH  10  16
ATOM     16  C   UNL A   1      30.943  27.394  24.685  1.00  0.00    -0.024 A 
ATOM     17  C   UNL A   1      29.356  29.999  22.367  1.00  0.00     0.044 C 
ATOM     18  C   UNL A   1      29.576  28.734  23.146  1.00  0.00    -0.051 A 
ATOM     19  C   UNL A   1      28.612  27.725  23.127  1.00  0.00     0.003 A 
ATOM     20  C   UNL A   1      30.743  28.550  23.902  1.00  0.00     0.009 A 
ATOM     21  C   UNL A   1      28.796  26.565  23.878  1.00  0.00     0.001 A 
ATOM     22  C   UNL A   1      29.940  26.409  24.663  1.00  0.00     0.006 A 
ENDBRANCH  10  16
ENDBRANCH   6   9
ENDBRANCH   4   5
ENDBRANCH   3   4
ENDBRANCH   2   3
ENDBRANCH   1   2
BRANCH   1  23
ATOM     23  C   UNL A   1      37.933  21.415  25.249  1.00  0.00     0.021 C 
BRANCH  23  24
ATOM     24  C   UNL A   1      38.494  22.715  25.801  1.00  0.00     0.116 C 
BRANCH  24  25
ATOM     25  N   UNL A   1      39.912  22.678  26.122  1.00  0.00    -0.352 N 
ATOM     26  C   UNL A   1      40.742  23.711  26.540  1.00  0.00     0.251 C 
ATOM     27  H   UNL A   1      40.346  21.798  26.031  1.00  0.00     0.163 HD
ATOM     28  O   UNL A   1      41.925  23.523  26.719  1.00  0.00    -0.269 OA
BRANCH  26  29
ATOM     29  C   UNL A   1      40.129  25.018  26.894  1.00  0.00     0.039 A 
ATOM     30  C   UNL A   1      40.562  26.152  26.196  1.00  0.00     0.014 A 
ATOM     31  C   UNL A   1      39.326  25.154  28.023  1.00  0.00     0.014 A 
ATOM     32  C   UNL A   1      40.408  27.409  26.777  1.00  0.00     0.010 A 
ATOM     33  C   UNL A   1      39.268  26.380  28.652  1.00  0.00     0.010 A 
ATOM     34  C   UNL A   1      39.872  27.494  28.062  1.00  0.00    -0.014 A 
BRANCH  34  35
ATOM     35  C   UNL A   1      40.036  28.665  28.918  1.00  0.00     0.031 A 
ATOM     36  C   UNL A   1      38.989  29.702  29.000  1.00  0.00     0.074 A 
ATOM     37  C   UNL A   1      41.111  28.731  29.734  1.00  0.00     0.049 A 
ATOM     38  N   UNL A   1      39.211  30.919  29.371  1.00  0.00    -0.248 NA
ATOM     39  C   UNL A   1      37.598  29.455  28.643  1.00  0.00     0.031 C 
ATOM     40  C   UNL A   1      41.308  29.632  30.867  1.00  0.00     0.029 A 
ATOM     41  N   UNL A   1      42.354  28.092  29.580  1.00  0.00    -0.354 N 
ATOM     42  C   UNL A   1      37.992  31.525  29.570  1.00  0.00     0.074 A 
ATOM     43  C   UNL A   1      37.020  30.593  29.046  1.00  0.00     0.031 C 
ATOM     44  C   UNL A   1      42.621  29.726  31.125  1.00  0.00     0.029 A 
ATOM     45  C   UNL A   1      43.315  29.004  30.073  1.00  0.00     0.049 A 
ATOM     46  H   UNL A   1      42.520  27.196  29.206  1.00  0.00     0.167 HD
ATOM     47  C   UNL A   1      37.928  32.689  30.281  1.00  0.00     0.037 A 
ATOM     48  C   UNL A   1      44.279  29.536  29.269  1.00  0.00     0.037 A 
ATOM     49  C   UNL A   1      39.255  33.136  30.692  1.00  0.00     0.049 A 
ATOM     50  C   UNL A   1      44.263  31.044  29.204  1.00  0.00     0.074 A 
ATOM     51  C   UNL A   1      39.959  33.000  31.878  1.00  0.00     0.029 A 
ATOM     52  N   UNL A   1      40.174  33.549  29.734  1.00  0.00    -0.354 N 
ATOM     53  N   UNL A   1      43.226  31.770  29.508  1.00  0.00    -0.248 NA
ATOM     54  C   UNL A   1      45.398  31.847  28.758  1.00  0.00     0.031 C 
ATOM     55  C   UNL A   1      41.315  33.312  31.625  1.00  0.00     0.029 A 
ATOM     56  C   UNL A   1      41.436  33.644  30.288  1.00  0.00     0.049 A 
ATOM     57  H   UNL A   1      39.956  33.745  28.794  1.00  0.00     0.167 HD
ATOM     58  C   UNL A   1      43.514  33.094  29.292  1.00  0.00     0.074 A 
ATOM     59  C   UNL A   1      44.892  33.091  28.841  1.00  0.00     0.031 C 
ATOM     60  C   UNL A   1      42.579  34.069  29.496  1.00  0.00     0.037 A 
BRANCH  47  61
ATOM     61  C   UNL A   1      36.644  33.242  30.857  1.00  0.00     0.064 A 
ATOM     62  C   UNL A   1      35.706  33.912  30.042  1.00  0.00     0.173 A 
ATOM     63  C   UNL A   1      36.306  33.187  32.221  1.00  0.00     0.173 A 
ATOM     64  F   UNL A   1      35.829  33.946  28.709  1.00  0.00    -0.203 F 
ATOM     65  C   UNL A   1      34.598  34.583  30.566  1.00  0.00     0.198 A 
ATOM     66  C   UNL A   1      35.230  33.904  32.754  1.00  0.00     0.198 A 
ATOM     67  F   UNL A   1      36.983  32.401  33.069  1.00  0.00    -0.203 F 
ATOM     68  F   UNL A   1      33.752  35.215  29.741  1.00  0.00    -0.200 F 
ATOM     69  C   UNL A   1      34.384  34.616  31.927  1.00  0.00     0.200 A 
ATOM     70  F   UNL A   1      35.022  33.903  34.079  1.00  0.00    -0.200 F 
ATOM     71  F   UNL A   1      33.355  35.306  32.436  1.00  0.00    -0.200 F 
ENDBRANCH  47  61
BRANCH  48  72
ATOM     72  C   UNL A   1      44.667  28.642  28.148  1.00  0.00     0.064 A 
ATOM     73  C   UNL A   1      45.443  27.503  28.440  1.00  0.00     0.173 A 
ATOM     74  C   UNL A   1      43.990  28.669  26.923  1.00  0.00     0.173 A 
ATOM     75  F   UNL A   1      46.108  27.427  29.604  1.00  0.00    -0.203 F 
ATOM     76  C   UNL A   1      45.442  26.392  27.601  1.00  0.00     0.198 A 
ATOM     77  C   UNL A   1      44.004  27.557  26.078  1.00  0.00     0.198 A 
ATOM     78  F   UNL A   1      43.221  29.716  26.597  1.00  0.00    -0.203 F 
ATOM     79  F   UNL A   1      46.096  25.280  27.964  1.00  0.00    -0.200 F 
ATOM     80  C   UNL A   1      44.699  26.411  26.433  1.00  0.00     0.200 A 
ATOM     81  F   UNL A   1      43.260  27.561  24.963  1.00  0.00    -0.200 F 
ATOM     82  F   UNL A   1      44.616  25.310  25.672  1.00  0.00    -0.200 F 
ENDBRANCH  48  72
BRANCH  60  83
ATOM     83  C   UNL A   1      42.673  35.520  29.078  1.00  0.00     0.064 A 
ATOM     84  C   UNL A   1      42.005  36.070  27.973  1.00  0.00     0.173 A 
ATOM     85  C   UNL A   1      43.352  36.457  29.899  1.00  0.00     0.173 A 
ATOM     86  F   UNL A   1      41.225  35.320  27.184  1.00  0.00    -0.203 F 
ATOM     87  C   UNL A   1      42.062  37.435  27.675  1.00  0.00     0.198 A 
ATOM     88  C   UNL A   1      43.358  37.825  29.633  1.00  0.00     0.198 A 
ATOM     89  F   UNL A   1      44.010  36.078  31.005  1.00  0.00    -0.203 F 
ATOM     90  F   UNL A   1      41.439  37.901  26.583  1.00  0.00    -0.200 F 
ATOM     91  C   UNL A   1      42.727  38.314  28.510  1.00  0.00     0.200 A 
ATOM     92  F   UNL A   1      43.961  38.667  30.484  1.00  0.00    -0.200 F 
ATOM     93  F   UNL A   1      42.737  39.626  28.245  1.00  0.00    -0.200 F 
ENDBRANCH  60  83
ENDBRANCH  34  35
ENDBRANCH  26  29
ENDBRANCH  24  25
ENDBRANCH  23  24
ENDBRANCH   1  23
TORSDOF 14
ENDMDL
