MODEL 1
REMARK VINA RESULT:     -12.2      0.000      0.000
REMARK SMILES C[C@@H]1[C@H](C(=O)NCCCCCCNC(=O)c2ccc(-c3c4nc(c(-c5c(F)c(F)c(F)c(F)c5F)c5ccc([nH]5)c(-c5c(F)c(F)c(F)c(F)c5F)c5nc(c(-c6c(F)c(F)c(F)c(F)c6F)c6ccc3[nH]6)C=C5)C=C4)cc2)CCN1c1ccc(C(F)(F)F)cc1
REMARK SMILES IDX 9 1 8 2 7 3 6 4 4 5 5 6 3 8 1 9 2 10 81 11 79 12 80 13 82 14
REMARK SMILES IDX 83 15 91 16 84 17 90 18 85 19 86 20 87 21 88 22 89 23 10 24
REMARK SMILES IDX 11 25 12 26 13 27 14 28 15 30 16 31 17 32 78 33 18 34 77 35
REMARK SMILES IDX 19 36 20 37 21 38 71 39 22 40 76 41 70 42 72 43 23 44 75 45
REMARK SMILES IDX 69 46 68 47 24 49 56 50 36 51 55 52 37 53 40 54 54 55 73 56
REMARK SMILES IDX 38 57 39 58 53 60 74 61 41 62 25 63 26 64 34 65 27 66 28 67
REMARK SMILES IDX 32 68 35 69 29 70 30 71 33 72 31 73 57 74 58 75 66 76 59 77
REMARK SMILES IDX 60 78 64 79 67 80 61 81 62 82 65 83 63 84 42 85 43 86 51 87
REMARK SMILES IDX 44 88 45 89 49 90 52 91 46 92 47 93 50 94 48 95
REMARK H PARENT 6 7 13 29 72 48 40 59
REMARK Flexibility Score: inf
ROOT
ATOM      1  C   UNL A   1      36.815  21.867  25.090  1.00  0.00     0.002 C 
ENDROOT
BRANCH   1   2
ATOM      2  C   UNL A   1      36.554  22.650  23.800  1.00  0.00     0.021 C 
BRANCH   2   3
ATOM      3  C   UNL A   1      35.288  23.509  23.808  1.00  0.00     0.116 C 
BRANCH   3   4
ATOM      4  N   UNL A   1      34.135  22.729  24.212  1.00  0.00    -0.356 N 
ATOM      5  C   UNL A   1      32.976  23.083  24.822  1.00  0.00     0.225 C 
ATOM      6  O   UNL A   1      32.220  22.161  25.150  1.00  0.00    -0.275 OA
ATOM      7  H   UNL A   1      34.204  21.769  24.006  1.00  0.00     0.163 HD
BRANCH   5   8
ATOM      8  C   UNL A   1      32.566  24.519  25.099  1.00  0.00     0.102 C 
ATOM      9  C   UNL A   1      31.379  24.578  22.753  1.00  0.00     0.032 C 
ATOM     10  C   UNL A   1      31.856  25.326  23.988  1.00  0.00     0.091 C 
ATOM     11  N   UNL A   1      30.750  26.006  24.700  1.00  0.00    -0.368 N 
ATOM     12  C   UNL A   1      31.756  24.727  26.380  1.00  0.00     0.037 C 
ATOM     13  C   UNL A   1      31.026  26.039  26.135  1.00  0.00     0.118 C 
BRANCH  11  14
ATOM     14  C   UNL A   1      30.127  27.090  24.102  1.00  0.00     0.037 A 
ATOM     15  C   UNL A   1      28.782  27.076  23.717  1.00  0.00     0.026 A 
ATOM     16  C   UNL A   1      30.855  28.264  23.874  1.00  0.00     0.026 A 
ATOM     17  C   UNL A   1      28.184  28.196  23.127  1.00  0.00     0.015 A 
ATOM     18  C   UNL A   1      30.266  29.390  23.287  1.00  0.00     0.015 A 
ATOM     19  C   UNL A   1      28.920  29.367  22.909  1.00  0.00     0.056 A 
BRANCH  19  20
ATOM     20  C   UNL A   1      28.265  30.568  22.273  1.00  0.00     0.416 C 
ATOM     21  F   UNL A   1      29.154  31.563  22.001  1.00  0.00    -0.166 F 
ATOM     22  F   UNL A   1      27.665  30.269  21.088  1.00  0.00    -0.166 F 
ATOM     23  F   UNL A   1      27.296  31.136  23.046  1.00  0.00    -0.166 F 
ENDBRANCH  19  20
ENDBRANCH  11  14
ENDBRANCH   5   8
ENDBRANCH   3   4
ENDBRANCH   2   3
ENDBRANCH   1   2
BRANCH   1  24
ATOM     24  C   UNL A   1      36.592  20.356  25.001  1.00  0.00     0.002 C 
BRANCH  24  25
ATOM     25  C   UNL A   1      37.859  19.497  25.000  1.00  0.00     0.021 C 
BRANCH  25  26
ATOM     26  C   UNL A   1      39.051  20.083  25.752  1.00  0.00     0.116 C 
BRANCH  26  27
ATOM     27  N   UNL A   1      40.138  19.132  25.901  1.00  0.00    -0.352 N 
ATOM     28  C   UNL A   1      41.473  19.354  26.125  1.00  0.00     0.251 C 
ATOM     29  H   UNL A   1      39.878  18.185  25.831  1.00  0.00     0.163 HD
ATOM     30  O   UNL A   1      42.268  18.420  26.064  1.00  0.00    -0.269 OA
BRANCH  28  31
ATOM     31  C   UNL A   1      41.969  20.716  26.419  1.00  0.00     0.039 A 
ATOM     32  C   UNL A   1      42.177  21.594  25.351  1.00  0.00     0.014 A 
ATOM     33  C   UNL A   1      42.274  21.117  27.723  1.00  0.00     0.014 A 
ATOM     34  C   UNL A   1      42.648  22.886  25.593  1.00  0.00     0.010 A 
ATOM     35  C   UNL A   1      42.684  22.427  27.971  1.00  0.00     0.010 A 
ATOM     36  C   UNL A   1      42.887  23.320  26.908  1.00  0.00    -0.014 A 
BRANCH  36  37
ATOM     37  C   UNL A   1      43.370  24.698  27.175  1.00  0.00     0.031 A 
ATOM     38  C   UNL A   1      42.438  25.730  27.745  1.00  0.00     0.074 A 
ATOM     39  C   UNL A   1      44.640  25.029  26.872  1.00  0.00     0.049 A 
ATOM     40  N   UNL A   1      42.669  26.988  28.029  1.00  0.00    -0.248 NA
ATOM     41  C   UNL A   1      41.057  25.300  28.011  1.00  0.00     0.031 C 
ATOM     42  C   UNL A   1      45.627  24.130  26.272  1.00  0.00     0.029 A 
ATOM     43  N   UNL A   1      45.316  26.213  27.023  1.00  0.00    -0.354 N 
ATOM     44  C   UNL A   1      41.464  27.497  28.495  1.00  0.00     0.074 A 
ATOM     45  C   UNL A   1      40.491  26.429  28.409  1.00  0.00     0.031 C 
ATOM     46  C   UNL A   1      46.788  24.788  26.128  1.00  0.00     0.029 A 
ATOM     47  C   UNL A   1      46.621  26.159  26.599  1.00  0.00     0.049 A 
ATOM     48  H   UNL A   1      44.905  27.025  27.400  1.00  0.00     0.167 HD
ATOM     49  C   UNL A   1      41.199  28.736  28.974  1.00  0.00     0.037 A 
ATOM     50  C   UNL A   1      47.574  27.110  26.594  1.00  0.00     0.037 A 
ATOM     51  C   UNL A   1      42.174  29.789  29.087  1.00  0.00     0.049 A 
ATOM     52  C   UNL A   1      47.256  28.476  27.138  1.00  0.00     0.074 A 
ATOM     53  C   UNL A   1      42.019  31.057  29.619  1.00  0.00     0.029 A 
ATOM     54  N   UNL A   1      43.491  29.692  28.660  1.00  0.00    -0.354 N 
ATOM     55  N   UNL A   1      46.133  28.924  27.642  1.00  0.00    -0.248 NA
ATOM     56  C   UNL A   1      48.343  29.465  27.121  1.00  0.00     0.031 C 
ATOM     57  C   UNL A   1      43.231  31.742  29.478  1.00  0.00     0.029 A 
ATOM     58  C   UNL A   1      44.153  30.886  28.897  1.00  0.00     0.049 A 
ATOM     59  H   UNL A   1      43.894  28.894  28.249  1.00  0.00     0.167 HD
ATOM     60  C   UNL A   1      46.381  30.236  28.022  1.00  0.00     0.074 A 
ATOM     61  C   UNL A   1      47.768  30.507  27.706  1.00  0.00     0.031 C 
ATOM     62  C   UNL A   1      45.536  31.137  28.580  1.00  0.00     0.037 A 
BRANCH  49  63
ATOM     63  C   UNL A   1      39.795  29.020  29.422  1.00  0.00     0.064 A 
ATOM     64  C   UNL A   1      38.815  29.470  28.524  1.00  0.00     0.173 A 
ATOM     65  C   UNL A   1      39.415  28.807  30.755  1.00  0.00     0.173 A 
ATOM     66  F   UNL A   1      39.131  29.700  27.240  1.00  0.00    -0.203 F 
ATOM     67  C   UNL A   1      37.514  29.722  28.950  1.00  0.00     0.198 A 
ATOM     68  C   UNL A   1      38.105  29.033  31.171  1.00  0.00     0.198 A 
ATOM     69  F   UNL A   1      40.311  28.372  31.653  1.00  0.00    -0.203 F 
ATOM     70  F   UNL A   1      36.607  30.195  28.084  1.00  0.00    -0.200 F 
ATOM     71  C   UNL A   1      37.158  29.498  30.271  1.00  0.00     0.200 A 
ATOM     72  F   UNL A   1      37.760  28.804  32.447  1.00  0.00    -0.200 F 
ATOM     73  F   UNL A   1      35.903  29.735  30.678  1.00  0.00    -0.200 F 
ENDBRANCH  49  63
BRANCH  50  74
ATOM     74  C   UNL A   1      48.934  26.793  26.084  1.00  0.00     0.064 A 
ATOM     75  C   UNL A   1      49.266  27.019  24.741  1.00  0.00     0.173 A 
ATOM     76  C   UNL A   1      49.921  26.259  26.922  1.00  0.00     0.173 A 
ATOM     77  F   UNL A   1      48.348  27.509  23.896  1.00  0.00    -0.203 F 
ATOM     78  C   UNL A   1      50.534  26.705  24.251  1.00  0.00     0.198 A 
ATOM     79  C   UNL A   1      51.196  25.969  26.438  1.00  0.00     0.198 A 
ATOM     80  F   UNL A   1      49.653  26.029  28.216  1.00  0.00    -0.203 F 
ATOM     81  F   UNL A   1      50.812  26.891  22.955  1.00  0.00    -0.200 F 
ATOM     82  C   UNL A   1      51.497  26.185  25.101  1.00  0.00     0.200 A 
ATOM     83  F   UNL A   1      52.129  25.479  27.265  1.00  0.00    -0.200 F 
ATOM     84  F   UNL A   1      52.716  25.887  24.632  1.00  0.00    -0.200 F 
ENDBRANCH  50  74
BRANCH  62  85
ATOM     85  C   UNL A   1      46.095  32.490  28.907  1.00  0.00     0.064 A 
ATOM     86  C   UNL A   1      46.037  33.547  27.988  1.00  0.00     0.173 A 
ATOM     87  C   UNL A   1      46.661  32.741  30.165  1.00  0.00     0.173 A 
ATOM     88  F   UNL A   1      45.519  33.352  26.765  1.00  0.00    -0.203 F 
ATOM     89  C   UNL A   1      46.550  34.801  28.308  1.00  0.00     0.198 A 
ATOM     90  C   UNL A   1      47.149  34.003  30.492  1.00  0.00     0.198 A 
ATOM     91  F   UNL A   1      46.734  31.763  31.081  1.00  0.00    -0.203 F 
ATOM     92  F   UNL A   1      46.527  35.785  27.398  1.00  0.00    -0.200 F 
ATOM     93  C   UNL A   1      47.099  35.029  29.561  1.00  0.00     0.200 A 
ATOM     94  F   UNL A   1      47.668  34.225  31.707  1.00  0.00    -0.200 F 
ATOM     95  F   UNL A   1      47.588  36.239  29.869  1.00  0.00    -0.200 F 
ENDBRANCH  62  85
ENDBRANCH  36  37
ENDBRANCH  28  31
ENDBRANCH  26  27
ENDBRANCH  25  26
ENDBRANCH  24  25
ENDBRANCH   1  24
TORSDOF 15
ENDMDL
MODEL 2
REMARK VINA RESULT:     -12.2      5.627      9.724
REMARK SMILES C[C@@H]1[C@H](C(=O)NCCCCCCNC(=O)c2ccc(-c3c4nc(c(-c5c(F)c(F)c(F)c(F)c5F)c5ccc([nH]5)c(-c5c(F)c(F)c(F)c(F)c5F)c5nc(c(-c6c(F)c(F)c(F)c(F)c6F)c6ccc3[nH]6)C=C5)C=C4)cc2)CCN1c1ccc(C(F)(F)F)cc1
REMARK SMILES IDX 9 1 8 2 7 3 6 4 4 5 5 6 3 8 1 9 2 10 81 11 79 12 80 13 82 14
REMARK SMILES IDX 83 15 91 16 84 17 90 18 85 19 86 20 87 21 88 22 89 23 10 24
REMARK SMILES IDX 11 25 12 26 13 27 14 28 15 30 16 31 17 32 78 33 18 34 77 35
REMARK SMILES IDX 19 36 20 37 21 38 71 39 22 40 76 41 70 42 72 43 23 44 75 45
REMARK SMILES IDX 69 46 68 47 24 49 56 50 36 51 55 52 37 53 40 54 54 55 73 56
REMARK SMILES IDX 38 57 39 58 53 60 74 61 41 62 25 63 26 64 34 65 27 66 28 67
REMARK SMILES IDX 32 68 35 69 29 70 30 71 33 72 31 73 57 74 58 75 66 76 59 77
REMARK SMILES IDX 60 78 64 79 67 80 61 81 62 82 65 83 63 84 42 85 43 86 51 87
REMARK SMILES IDX 44 88 45 89 49 90 52 91 46 92 47 93 50 94 48 95
REMARK H PARENT 6 7 13 29 72 48 40 59
REMARK Flexibility Score: inf
ROOT
ATOM      1  C   UNL A   1      30.455  30.599  24.375  1.00  0.00     0.002 C 
ENDROOT
BRANCH   1   2
ATOM      2  C   UNL A   1      30.138  29.211  23.812  1.00  0.00     0.021 C 
BRANCH   2   3
ATOM      3  C   UNL A   1      30.653  28.952  22.396  1.00  0.00     0.116 C 
BRANCH   3   4
ATOM      4  N   UNL A   1      32.094  29.103  22.332  1.00  0.00    -0.356 N 
ATOM      5  C   UNL A   1      33.095  28.505  23.026  1.00  0.00     0.225 C 
ATOM      6  O   UNL A   1      34.237  28.934  22.828  1.00  0.00    -0.275 OA
ATOM      7  H   UNL A   1      32.402  29.756  21.664  1.00  0.00     0.163 HD
BRANCH   5   8
ATOM      8  C   UNL A   1      32.886  27.356  23.996  1.00  0.00     0.102 C 
ATOM      9  C   UNL A   1      33.363  25.677  22.030  1.00  0.00     0.032 C 
ATOM     10  C   UNL A   1      32.900  25.906  23.460  1.00  0.00     0.091 C 
ATOM     11  N   UNL A   1      33.727  25.175  24.447  1.00  0.00    -0.368 N 
ATOM     12  C   UNL A   1      33.790  27.377  25.231  1.00  0.00     0.037 C 
ATOM     13  C   UNL A   1      33.796  25.929  25.696  1.00  0.00     0.118 C 
BRANCH  11  14
ATOM     14  C   UNL A   1      33.659  23.791  24.490  1.00  0.00     0.037 A 
ATOM     15  C   UNL A   1      32.448  23.090  24.511  1.00  0.00     0.026 A 
ATOM     16  C   UNL A   1      34.842  23.043  24.505  1.00  0.00     0.026 A 
ATOM     17  C   UNL A   1      32.420  21.690  24.542  1.00  0.00     0.015 A 
ATOM     18  C   UNL A   1      34.825  21.643  24.533  1.00  0.00     0.015 A 
ATOM     19  C   UNL A   1      33.609  20.952  24.549  1.00  0.00     0.056 A 
BRANCH  19  20
ATOM     20  C   UNL A   1      33.567  19.444  24.582  1.00  0.00     0.416 C 
ATOM     21  F   UNL A   1      32.886  18.965  25.661  1.00  0.00    -0.166 F 
ATOM     22  F   UNL A   1      32.952  18.916  23.488  1.00  0.00    -0.166 F 
ATOM     23  F   UNL A   1      34.799  18.863  24.632  1.00  0.00    -0.166 F 
ENDBRANCH  19  20
ENDBRANCH  11  14
ENDBRANCH   5   8
ENDBRANCH   3   4
ENDBRANCH   2   3
ENDBRANCH   1   2
BRANCH   1  24
ATOM     24  C   UNL A   1      31.333  30.619  25.628  1.00  0.00     0.002 C 
BRANCH  24  25
ATOM     25  C   UNL A   1      31.219  31.872  26.499  1.00  0.00     0.021 C 
BRANCH  25  26
ATOM     26  C   UNL A   1      32.542  32.459  26.985  1.00  0.00     0.116 C 
BRANCH  26  27
ATOM     27  N   UNL A   1      32.405  33.823  27.463  1.00  0.00    -0.352 N 
ATOM     28  C   UNL A   1      33.110  34.487  28.434  1.00  0.00     0.251 C 
ATOM     29  H   UNL A   1      31.700  34.351  27.025  1.00  0.00     0.163 HD
ATOM     30  O   UNL A   1      32.741  35.595  28.810  1.00  0.00    -0.269 OA
BRANCH  28  31
ATOM     31  C   UNL A   1      34.305  33.868  29.050  1.00  0.00     0.039 A 
ATOM     32  C   UNL A   1      34.119  32.825  29.963  1.00  0.00     0.014 A 
ATOM     33  C   UNL A   1      35.594  34.334  28.775  1.00  0.00     0.014 A 
ATOM     34  C   UNL A   1      35.224  32.222  30.565  1.00  0.00     0.010 A 
ATOM     35  C   UNL A   1      36.700  33.691  29.328  1.00  0.00     0.010 A 
ATOM     36  C   UNL A   1      36.526  32.637  30.238  1.00  0.00    -0.014 A 
BRANCH  36  37
ATOM     37  C   UNL A   1      37.707  31.988  30.860  1.00  0.00     0.031 A 
ATOM     38  C   UNL A   1      38.157  32.392  32.236  1.00  0.00     0.074 A 
ATOM     39  C   UNL A   1      38.395  31.056  30.171  1.00  0.00     0.049 A 
ATOM     40  N   UNL A   1      39.173  31.954  32.937  1.00  0.00    -0.248 NA
ATOM     41  C   UNL A   1      37.376  33.443  32.905  1.00  0.00     0.031 C 
ATOM     42  C   UNL A   1      38.087  30.612  28.811  1.00  0.00     0.029 A 
ATOM     43  N   UNL A   1      39.500  30.320  30.520  1.00  0.00    -0.354 N 
ATOM     44  C   UNL A   1      39.158  32.682  34.119  1.00  0.00     0.074 A 
ATOM     45  C   UNL A   1      38.064  33.625  34.022  1.00  0.00     0.031 C 
ATOM     46  C   UNL A   1      38.965  29.663  28.450  1.00  0.00     0.029 A 
ATOM     47  C   UNL A   1      39.914  29.452  29.540  1.00  0.00     0.049 A 
ATOM     48  H   UNL A   1      39.952  30.406  31.391  1.00  0.00     0.167 HD
ATOM     49  C   UNL A   1      39.967  32.559  35.198  1.00  0.00     0.037 A 
ATOM     50  C   UNL A   1      40.942  28.584  29.524  1.00  0.00     0.037 A 
ATOM     51  C   UNL A   1      41.036  31.601  35.306  1.00  0.00     0.049 A 
ATOM     52  C   UNL A   1      41.822  28.461  30.738  1.00  0.00     0.074 A 
ATOM     53  C   UNL A   1      41.871  31.355  36.383  1.00  0.00     0.029 A 
ATOM     54  N   UNL A   1      41.417  30.729  34.297  1.00  0.00    -0.354 N 
ATOM     55  N   UNL A   1      41.754  29.105  31.877  1.00  0.00    -0.248 NA
ATOM     56  C   UNL A   1      42.917  27.484  30.666  1.00  0.00     0.031 C 
ATOM     57  C   UNL A   1      42.782  30.361  36.012  1.00  0.00     0.029 A 
ATOM     58  C   UNL A   1      42.488  29.957  34.719  1.00  0.00     0.049 A 
ATOM     59  H   UNL A   1      40.990  30.667  33.413  1.00  0.00     0.167 HD
ATOM     60  C   UNL A   1      42.777  28.597  32.665  1.00  0.00     0.074 A 
ATOM     61  C   UNL A   1      43.443  27.579  31.880  1.00  0.00     0.031 C 
ATOM     62  C   UNL A   1      43.136  28.945  33.925  1.00  0.00     0.037 A 
BRANCH  49  63
ATOM     63  C   UNL A   1      39.722  33.481  36.358  1.00  0.00     0.064 A 
ATOM     64  C   UNL A   1      40.335  34.740  36.436  1.00  0.00     0.173 A 
ATOM     65  C   UNL A   1      38.838  33.117  37.384  1.00  0.00     0.173 A 
ATOM     66  F   UNL A   1      41.199  35.131  35.485  1.00  0.00    -0.203 F 
ATOM     67  C   UNL A   1      40.093  35.590  37.512  1.00  0.00     0.198 A 
ATOM     68  C   UNL A   1      38.576  33.981  38.444  1.00  0.00     0.198 A 
ATOM     69  F   UNL A   1      38.220  31.927  37.354  1.00  0.00    -0.203 F 
ATOM     70  F   UNL A   1      40.726  36.769  37.588  1.00  0.00    -0.200 F 
ATOM     71  C   UNL A   1      39.210  35.213  38.511  1.00  0.00     0.200 A 
ATOM     72  F   UNL A   1      37.712  33.620  39.403  1.00  0.00    -0.200 F 
ATOM     73  F   UNL A   1      38.973  36.034  39.543  1.00  0.00    -0.200 F 
ENDBRANCH  49  63
BRANCH  50  74
ATOM     74  C   UNL A   1      41.178  27.735  28.327  1.00  0.00     0.064 A 
ATOM     75  C   UNL A   1      42.025  28.167  27.297  1.00  0.00     0.173 A 
ATOM     76  C   UNL A   1      40.561  26.485  28.187  1.00  0.00     0.173 A 
ATOM     77  F   UNL A   1      42.621  29.365  27.377  1.00  0.00    -0.203 F 
ATOM     78  C   UNL A   1      42.234  27.384  26.162  1.00  0.00     0.198 A 
ATOM     79  C   UNL A   1      40.790  25.692  27.063  1.00  0.00     0.198 A 
ATOM     80  F   UNL A   1      39.745  26.026  29.146  1.00  0.00    -0.203 F 
ATOM     81  F   UNL A   1      43.015  27.839  25.174  1.00  0.00    -0.200 F 
ATOM     82  C   UNL A   1      41.621  26.147  26.049  1.00  0.00     0.200 A 
ATOM     83  F   UNL A   1      40.206  24.490  26.963  1.00  0.00    -0.200 F 
ATOM     84  F   UNL A   1      41.824  25.393  24.960  1.00  0.00    -0.200 F 
ENDBRANCH  50  74
BRANCH  62  85
ATOM     85  C   UNL A   1      44.285  28.201  34.541  1.00  0.00     0.064 A 
ATOM     86  C   UNL A   1      44.093  26.990  35.220  1.00  0.00     0.173 A 
ATOM     87  C   UNL A   1      45.595  28.689  34.419  1.00  0.00     0.173 A 
ATOM     88  F   UNL A   1      42.857  26.491  35.376  1.00  0.00    -0.203 F 
ATOM     89  C   UNL A   1      45.170  26.306  35.778  1.00  0.00     0.198 A 
ATOM     90  C   UNL A   1      46.671  27.989  34.955  1.00  0.00     0.198 A 
ATOM     91  F   UNL A   1      45.830  29.841  33.773  1.00  0.00    -0.203 F 
ATOM     92  F   UNL A   1      44.959  25.173  36.463  1.00  0.00    -0.200 F 
ATOM     93  C   UNL A   1      46.457  26.802  35.639  1.00  0.00     0.200 A 
ATOM     94  F   UNL A   1      47.916  28.463  34.810  1.00  0.00    -0.200 F 
ATOM     95  F   UNL A   1      47.493  26.138  36.172  1.00  0.00    -0.200 F 
ENDBRANCH  62  85
ENDBRANCH  36  37
ENDBRANCH  28  31
ENDBRANCH  26  27
ENDBRANCH  25  26
ENDBRANCH  24  25
ENDBRANCH   1  24
TORSDOF 15
ENDMDL
MODEL 3
REMARK VINA RESULT:     -12.2      0.501      7.421
REMARK SMILES C[C@@H]1[C@H](C(=O)NCCCCCCNC(=O)c2ccc(-c3c4nc(c(-c5c(F)c(F)c(F)c(F)c5F)c5ccc([nH]5)c(-c5c(F)c(F)c(F)c(F)c5F)c5nc(c(-c6c(F)c(F)c(F)c(F)c6F)c6ccc3[nH]6)C=C5)C=C4)cc2)CCN1c1ccc(C(F)(F)F)cc1
REMARK SMILES IDX 9 1 8 2 7 3 6 4 4 5 5 6 3 8 1 9 2 10 81 11 79 12 80 13 82 14
REMARK SMILES IDX 83 15 91 16 84 17 90 18 85 19 86 20 87 21 88 22 89 23 10 24
REMARK SMILES IDX 11 25 12 26 13 27 14 28 15 30 16 31 17 32 78 33 18 34 77 35
REMARK SMILES IDX 19 36 20 37 21 38 71 39 22 40 76 41 70 42 72 43 23 44 75 45
REMARK SMILES IDX 69 46 68 47 24 49 56 50 36 51 55 52 37 53 40 54 54 55 73 56
REMARK SMILES IDX 38 57 39 58 53 60 74 61 41 62 25 63 26 64 34 65 27 66 28 67
REMARK SMILES IDX 32 68 35 69 29 70 30 71 33 72 31 73 57 74 58 75 66 76 59 77
REMARK SMILES IDX 60 78 64 79 67 80 61 81 62 82 65 83 63 84 42 85 43 86 51 87
REMARK SMILES IDX 44 88 45 89 49 90 52 91 46 92 47 93 50 94 48 95
REMARK H PARENT 6 7 13 29 72 48 40 59
REMARK Flexibility Score: inf
ROOT
ATOM      1  C   UNL A   1      37.260  21.979  24.484  1.00  0.00     0.002 C 
ENDROOT
BRANCH   1   2
ATOM      2  C   UNL A   1      36.366  22.656  23.442  1.00  0.00     0.021 C 
BRANCH   2   3
ATOM      3  C   UNL A   1      35.243  23.523  24.015  1.00  0.00     0.116 C 
BRANCH   3   4
ATOM      4  N   UNL A   1      34.066  22.725  24.298  1.00  0.00    -0.356 N 
ATOM      5  C   UNL A   1      32.865  23.050  24.838  1.00  0.00     0.225 C 
ATOM      6  O   UNL A   1      32.090  22.114  25.066  1.00  0.00    -0.275 OA
ATOM      7  H   UNL A   1      34.153  21.776  24.052  1.00  0.00     0.163 HD
BRANCH   5   8
ATOM      8  C   UNL A   1      32.432  24.471  25.153  1.00  0.00     0.102 C 
ATOM      9  C   UNL A   1      31.373  24.626  22.751  1.00  0.00     0.032 C 
ATOM     10  C   UNL A   1      31.778  25.323  24.040  1.00  0.00     0.091 C 
ATOM     11  N   UNL A   1      30.631  25.967  24.719  1.00  0.00    -0.368 N 
ATOM     12  C   UNL A   1      31.553  24.622  26.396  1.00  0.00     0.037 C 
ATOM     13  C   UNL A   1      30.829  25.940  26.166  1.00  0.00     0.118 C 
BRANCH  11  14
ATOM     14  C   UNL A   1      30.036  27.074  24.134  1.00  0.00     0.037 A 
ATOM     15  C   UNL A   1      28.705  27.079  23.700  1.00  0.00     0.026 A 
ATOM     16  C   UNL A   1      30.777  28.250  23.971  1.00  0.00     0.026 A 
ATOM     17  C   UNL A   1      28.134  28.221  23.125  1.00  0.00     0.015 A 
ATOM     18  C   UNL A   1      30.214  29.398  23.400  1.00  0.00     0.015 A 
ATOM     19  C   UNL A   1      28.882  29.395  22.973  1.00  0.00     0.056 A 
BRANCH  19  20
ATOM     20  C   UNL A   1      28.256  30.619  22.353  1.00  0.00     0.416 C 
ATOM     21  F   UNL A   1      27.653  30.349  21.162  1.00  0.00    -0.166 F 
ATOM     22  F   UNL A   1      27.294  31.170  23.143  1.00  0.00    -0.166 F 
ATOM     23  F   UNL A   1      29.146  31.620  22.100  1.00  0.00    -0.166 F 
ENDBRANCH  19  20
ENDBRANCH  11  14
ENDBRANCH   5   8
ENDBRANCH   3   4
ENDBRANCH   2   3
ENDBRANCH   1   2
BRANCH   1  24
ATOM     24  C   UNL A   1      36.904  20.527  24.815  1.00  0.00     0.002 C 
BRANCH  24  25
ATOM     25  C   UNL A   1      38.092  19.579  25.001  1.00  0.00     0.021 C 
BRANCH  25  26
ATOM     26  C   UNL A   1      39.162  20.050  25.983  1.00  0.00     0.116 C 
BRANCH  26  27
ATOM     27  N   UNL A   1      40.331  19.189  25.988  1.00  0.00    -0.352 N 
ATOM     28  C   UNL A   1      41.658  19.513  26.116  1.00  0.00     0.251 C 
ATOM     29  H   UNL A   1      40.144  18.229  25.885  1.00  0.00     0.163 HD
ATOM     30  O   UNL A   1      42.518  18.656  25.937  1.00  0.00    -0.269 OA
BRANCH  28  31
ATOM     31  C   UNL A   1      42.065  20.897  26.448  1.00  0.00     0.039 A 
ATOM     32  C   UNL A   1      42.263  21.802  25.401  1.00  0.00     0.014 A 
ATOM     33  C   UNL A   1      42.296  21.293  27.769  1.00  0.00     0.014 A 
ATOM     34  C   UNL A   1      42.651  23.113  25.680  1.00  0.00     0.010 A 
ATOM     35  C   UNL A   1      42.622  22.619  28.051  1.00  0.00     0.010 A 
ATOM     36  C   UNL A   1      42.814  23.539  27.009  1.00  0.00    -0.014 A 
BRANCH  36  37
ATOM     37  C   UNL A   1      43.208  24.937  27.313  1.00  0.00     0.031 A 
ATOM     38  C   UNL A   1      44.608  25.409  27.033  1.00  0.00     0.074 A 
ATOM     39  C   UNL A   1      42.314  25.774  27.874  1.00  0.00     0.049 A 
ATOM     40  N   UNL A   1      45.144  26.585  27.247  1.00  0.00    -0.248 NA
ATOM     41  C   UNL A   1      45.535  24.423  26.457  1.00  0.00     0.031 C 
ATOM     42  C   UNL A   1      40.940  25.423  28.236  1.00  0.00     0.029 A 
ATOM     43  N   UNL A   1      42.429  27.091  28.242  1.00  0.00    -0.354 N 
ATOM     44  C   UNL A   1      46.468  26.474  26.843  1.00  0.00     0.074 A 
ATOM     45  C   UNL A   1      46.669  25.105  26.419  1.00  0.00     0.031 C 
ATOM     46  C   UNL A   1      40.333  26.503  28.752  1.00  0.00     0.029 A 
ATOM     47  C   UNL A   1      41.280  27.614  28.782  1.00  0.00     0.049 A 
ATOM     48  H   UNL A   1      43.257  27.613  28.128  1.00  0.00     0.167 HD
ATOM     49  C   UNL A   1      47.423  27.434  26.806  1.00  0.00     0.037 A 
ATOM     50  C   UNL A   1      41.021  28.851  29.247  1.00  0.00     0.037 A 
ATOM     51  C   UNL A   1      47.215  28.803  27.200  1.00  0.00     0.049 A 
ATOM     52  C   UNL A   1      42.097  29.901  29.188  1.00  0.00     0.074 A 
ATOM     53  C   UNL A   1      48.100  29.865  27.139  1.00  0.00     0.029 A 
ATOM     54  N   UNL A   1      46.032  29.298  27.730  1.00  0.00    -0.354 N 
ATOM     55  N   UNL A   1      43.323  29.804  28.737  1.00  0.00    -0.248 NA
ATOM     56  C   UNL A   1      41.748  31.235  29.694  1.00  0.00     0.031 C 
ATOM     57  C   UNL A   1      47.467  30.994  27.668  1.00  0.00     0.029 A 
ATOM     58  C   UNL A   1      46.172  30.646  28.019  1.00  0.00     0.049 A 
ATOM     59  H   UNL A   1      45.215  28.770  27.878  1.00  0.00     0.167 HD
ATOM     60  C   UNL A   1      43.885  31.064  28.883  1.00  0.00     0.074 A 
ATOM     61  C   UNL A   1      42.859  31.915  29.449  1.00  0.00     0.031 C 
ATOM     62  C   UNL A   1      45.139  31.480  28.579  1.00  0.00     0.037 A 
BRANCH  49  63
ATOM     63  C   UNL A   1      48.785  27.039  26.312  1.00  0.00     0.064 A 
ATOM     64  C   UNL A   1      49.773  26.563  27.188  1.00  0.00     0.173 A 
ATOM     65  C   UNL A   1      49.094  27.102  24.946  1.00  0.00     0.173 A 
ATOM     66  F   UNL A   1      49.530  26.495  28.506  1.00  0.00    -0.203 F 
ATOM     67  C   UNL A   1      51.029  26.191  26.717  1.00  0.00     0.198 A 
ATOM     68  C   UNL A   1      50.343  26.703  24.475  1.00  0.00     0.198 A 
ATOM     69  F   UNL A   1      48.184  27.544  24.066  1.00  0.00    -0.203 F 
ATOM     70  F   UNL A   1      51.972  25.784  27.578  1.00  0.00    -0.200 F 
ATOM     71  C   UNL A   1      51.311  26.255  25.361  1.00  0.00     0.200 A 
ATOM     72  F   UNL A   1      50.610  26.754  23.162  1.00  0.00    -0.200 F 
ATOM     73  F   UNL A   1      52.519  25.892  24.909  1.00  0.00    -0.200 F 
ENDBRANCH  49  63
BRANCH  50  74
ATOM     74  C   UNL A   1      39.672  29.174  29.780  1.00  0.00     0.064 A 
ATOM     75  C   UNL A   1      39.398  29.066  31.151  1.00  0.00     0.173 A 
ATOM     76  C   UNL A   1      38.635  29.593  28.936  1.00  0.00     0.173 A 
ATOM     77  F   UNL A   1      40.353  28.650  31.994  1.00  0.00    -0.203 F 
ATOM     78  C   UNL A   1      38.129  29.349  31.655  1.00  0.00     0.198 A 
ATOM     79  C   UNL A   1      37.374  29.900  29.444  1.00  0.00     0.198 A 
ATOM     80  F   UNL A   1      38.849  29.716  27.618  1.00  0.00    -0.203 F 
ATOM     81  F   UNL A   1      37.882  29.197  32.962  1.00  0.00    -0.200 F 
ATOM     82  C   UNL A   1      37.121  29.770  30.802  1.00  0.00     0.200 A 
ATOM     83  F   UNL A   1      36.405  30.319  28.619  1.00  0.00    -0.200 F 
ATOM     84  F   UNL A   1      35.902  30.045  31.287  1.00  0.00    -0.200 F 
ENDBRANCH  50  74
BRANCH  62  85
ATOM     85  C   UNL A   1      45.462  32.923  28.829  1.00  0.00     0.064 A 
ATOM     86  C   UNL A   1      46.026  33.348  30.041  1.00  0.00     0.173 A 
ATOM     87  C   UNL A   1      45.239  33.885  27.833  1.00  0.00     0.173 A 
ATOM     88  F   UNL A   1      46.244  32.467  31.030  1.00  0.00    -0.203 F 
ATOM     89  C   UNL A   1      46.331  34.689  30.255  1.00  0.00     0.198 A 
ATOM     90  C   UNL A   1      45.570  35.221  28.041  1.00  0.00     0.198 A 
ATOM     91  F   UNL A   1      44.707  33.528  26.654  1.00  0.00    -0.203 F 
ATOM     92  F   UNL A   1      46.826  35.081  31.438  1.00  0.00    -0.200 F 
ATOM     93  C   UNL A   1      46.109  35.623  29.254  1.00  0.00     0.200 A 
ATOM     94  F   UNL A   1      45.366  36.120  27.068  1.00  0.00    -0.200 F 
ATOM     95  F   UNL A   1      46.409  36.913  29.461  1.00  0.00    -0.200 F 
ENDBRANCH  62  85
ENDBRANCH  36  37
ENDBRANCH  28  31
ENDBRANCH  26  27
ENDBRANCH  25  26
ENDBRANCH  24  25
ENDBRANCH   1  24
TORSDOF 15
ENDMDL
