MODEL 1
REMARK VINA RESULT:      -9.9      0.000      0.000
REMARK SMILES COCCS(=O)(=O)N[C@@H]1C=C[C@@H](C(=O)NCCCCCCNC(=O)c2ccc(-c3c4nc(c(-c5c(F)c(F)c(F)c(F)c5F)c5ccc([nH]5)c(-c5c(F)c(F)c(F)c(F)c5F)c5nc(c(-c6c(F)c(F)c(F)c(F)c6F)c6ccc3[nH]6)C=C5)C=C4)cc2)C1
REMARK SMILES IDX 17 1 16 2 15 3 13 4 14 5 12 7 9 8 10 9 88 10 11 11 8 12 5 14
REMARK SMILES IDX 6 15 7 16 4 17 3 18 2 19 1 20 18 21 19 22 20 23 21 24 22 25
REMARK SMILES IDX 23 26 24 28 25 29 26 30 87 31 27 32 86 33 28 34 29 35 30 36
REMARK SMILES IDX 80 37 31 38 85 39 79 40 81 41 32 42 84 43 78 44 77 45 33 47
REMARK SMILES IDX 65 48 45 49 64 50 46 51 49 52 63 53 82 54 47 55 48 56 62 58
REMARK SMILES IDX 83 59 50 60 34 61 35 62 43 63 36 64 37 65 41 66 44 67 38 68
REMARK SMILES IDX 39 69 42 70 40 71 66 72 67 73 75 74 68 75 69 76 73 77 76 78
REMARK SMILES IDX 70 79 71 80 74 81 72 82 51 83 52 84 60 85 53 86 54 87 58 88
REMARK SMILES IDX 61 89 55 90 56 91 59 92 57 93
REMARK H PARENT 15 6 8 13 22 27 81 46 49 57
REMARK Flexibility Score: inf
ROOT
ATOM      1  C   UNL A   1      40.876  22.134  27.663  1.00  0.00     0.021 C 
ENDROOT
BRANCH   1   2
ATOM      2  C   UNL A   1      39.708  22.743  26.887  1.00  0.00     0.116 C 
BRANCH   2   3
ATOM      3  N   UNL A   1      39.039  21.762  26.059  1.00  0.00    -0.356 N 
ATOM      4  C   UNL A   1      37.879  21.811  25.352  1.00  0.00     0.226 C 
ATOM      5  O   UNL A   1      37.593  20.805  24.693  1.00  0.00    -0.274 OA
ATOM      6  H   UNL A   1      39.512  20.900  25.997  1.00  0.00     0.163 HD
BRANCH   4   7
ATOM      7  C   UNL A   1      36.945  23.029  25.321  1.00  0.00     0.103 C 
ATOM      8  C   UNL A   1      34.921  23.402  23.951  1.00  0.00     0.093 C 
ATOM      9  C   UNL A   1      34.606  23.063  25.371  1.00  0.00    -0.011 C 
ATOM     10  C   UNL A   1      36.459  23.493  23.939  1.00  0.00     0.042 C 
ATOM     11  C   UNL A   1      35.694  22.837  26.110  1.00  0.00    -0.016 C 
BRANCH   8  12
ATOM     12  N   UNL A   1      34.267  24.665  23.635  1.00  0.00    -0.208 NA
ATOM     13  H   UNL A   1      33.663  24.891  24.425  1.00  0.00     0.141 HD
BRANCH  12  14
ATOM     14  S   UNL A   1      33.328  24.790  22.254  1.00  0.00     0.214 S 
ATOM     15  O   UNL A   1      33.445  23.545  21.523  1.00  0.00    -0.212 OA
ATOM     16  O   UNL A   1      33.743  26.033  21.640  1.00  0.00    -0.212 OA
BRANCH  14  17
ATOM     17  C   UNL A   1      31.652  25.017  22.860  1.00  0.00     0.182 C 
BRANCH  17  18
ATOM     18  C   UNL A   1      31.568  25.986  24.025  1.00  0.00     0.177 C 
BRANCH  18  19
ATOM     19  O   UNL A   1      30.680  25.489  25.026  1.00  0.00    -0.384 OA
ATOM     20  C   UNL A   1      31.308  25.329  26.291  1.00  0.00     0.194 C 
ENDBRANCH  18  19
ENDBRANCH  17  18
ENDBRANCH  14  17
ENDBRANCH  12  14
ENDBRANCH   8  12
ENDBRANCH   4   7
ENDBRANCH   2   3
ENDBRANCH   1   2
BRANCH   1  21
ATOM     21  C   UNL A   1      41.718  21.131  26.866  1.00  0.00     0.002 C 
BRANCH  21  22
ATOM     22  C   UNL A   1      42.053  19.825  27.598  1.00  0.00     0.002 C 
BRANCH  22  23
ATOM     23  C   UNL A   1      42.736  18.750  26.750  1.00  0.00     0.021 C 
BRANCH  23  24
ATOM     24  C   UNL A   1      42.768  19.031  25.250  1.00  0.00     0.116 C 
BRANCH  24  25
ATOM     25  N   UNL A   1      44.053  18.707  24.649  1.00  0.00    -0.352 N 
ATOM     26  C   UNL A   1      45.113  19.526  24.348  1.00  0.00     0.251 C 
ATOM     27  H   UNL A   1      44.181  17.758  24.424  1.00  0.00     0.163 HD
ATOM     28  O   UNL A   1      46.050  19.100  23.680  1.00  0.00    -0.269 OA
BRANCH  26  29
ATOM     29  C   UNL A   1      45.121  20.932  24.810  1.00  0.00     0.039 A 
ATOM     30  C   UNL A   1      45.489  21.206  26.131  1.00  0.00     0.014 A 
ATOM     31  C   UNL A   1      44.757  21.974  23.955  1.00  0.00     0.014 A 
ATOM     32  C   UNL A   1      45.553  22.529  26.572  1.00  0.00     0.010 A 
ATOM     33  C   UNL A   1      44.897  23.295  24.372  1.00  0.00     0.010 A 
ATOM     34  C   UNL A   1      45.294  23.588  25.686  1.00  0.00    -0.014 A 
BRANCH  34  35
ATOM     35  C   UNL A   1      45.436  25.004  26.118  1.00  0.00     0.031 A 
ATOM     36  C   UNL A   1      46.776  25.685  26.062  1.00  0.00     0.074 A 
ATOM     37  C   UNL A   1      44.369  25.659  26.614  1.00  0.00     0.049 A 
ATOM     38  N   UNL A   1      47.107  26.894  26.441  1.00  0.00    -0.248 NA
ATOM     39  C   UNL A   1      47.898  24.894  25.532  1.00  0.00     0.031 C 
ATOM     40  C   UNL A   1      43.026  25.094  26.764  1.00  0.00     0.029 A 
ATOM     41  N   UNL A   1      44.244  26.939  27.093  1.00  0.00    -0.354 N 
ATOM     42  C   UNL A   1      48.472  27.004  26.206  1.00  0.00     0.074 A 
ATOM     43  C   UNL A   1      48.919  25.720  25.709  1.00  0.00     0.031 C 
ATOM     44  C   UNL A   1      42.210  26.031  27.272  1.00  0.00     0.029 A 
ATOM     45  C   UNL A   1      42.977  27.246  27.524  1.00  0.00     0.049 A 
ATOM     46  H   UNL A   1      44.993  27.578  27.124  1.00  0.00     0.167 HD
ATOM     47  C   UNL A   1      49.275  28.083  26.366  1.00  0.00     0.037 A 
ATOM     48  C   UNL A   1      42.490  28.377  28.070  1.00  0.00     0.037 A 
ATOM     49  C   UNL A   1      48.822  29.363  26.847  1.00  0.00     0.049 A 
ATOM     50  C   UNL A   1      43.409  29.555  28.260  1.00  0.00     0.074 A 
ATOM     51  C   UNL A   1      49.545  30.534  26.993  1.00  0.00     0.029 A 
ATOM     52  N   UNL A   1      47.529  29.636  27.270  1.00  0.00    -0.354 N 
ATOM     53  N   UNL A   1      44.680  29.670  27.964  1.00  0.00    -0.248 NA
ATOM     54  C   UNL A   1      42.819  30.765  28.853  1.00  0.00     0.031 C 
ATOM     55  C   UNL A   1      48.706  31.498  27.560  1.00  0.00     0.029 A 
ATOM     56  C   UNL A   1      47.442  30.950  27.706  1.00  0.00     0.049 A 
ATOM     57  H   UNL A   1      46.784  28.993  27.262  1.00  0.00     0.167 HD
ATOM     58  C   UNL A   1      45.035  30.969  28.303  1.00  0.00     0.074 A 
ATOM     59  C   UNL A   1      43.840  31.608  28.812  1.00  0.00     0.031 C 
ATOM     60  C   UNL A   1      46.243  31.578  28.202  1.00  0.00     0.037 A 
BRANCH  47  61
ATOM     61  C   UNL A   1      50.729  27.927  26.020  1.00  0.00     0.064 A 
ATOM     62  C   UNL A   1      51.192  28.056  24.701  1.00  0.00     0.173 A 
ATOM     63  C   UNL A   1      51.678  27.687  27.025  1.00  0.00     0.173 A 
ATOM     64  F   UNL A   1      50.327  28.276  23.699  1.00  0.00    -0.203 F 
ATOM     65  C   UNL A   1      52.544  27.915  24.398  1.00  0.00     0.198 A 
ATOM     66  C   UNL A   1      53.034  27.582  26.723  1.00  0.00     0.198 A 
ATOM     67  F   UNL A   1      51.294  27.563  28.305  1.00  0.00    -0.203 F 
ATOM     68  F   UNL A   1      52.954  27.985  23.124  1.00  0.00    -0.200 F 
ATOM     69  C   UNL A   1      53.465  27.686  25.409  1.00  0.00     0.200 A 
ATOM     70  F   UNL A   1      53.924  27.378  27.704  1.00  0.00    -0.200 F 
ATOM     71  F   UNL A   1      54.766  27.560  25.117  1.00  0.00    -0.200 F 
ENDBRANCH  47  61
BRANCH  48  72
ATOM     72  C   UNL A   1      41.057  28.458  28.463  1.00  0.00     0.064 A 
ATOM     73  C   UNL A   1      40.090  28.938  27.570  1.00  0.00     0.173 A 
ATOM     74  C   UNL A   1      40.626  28.071  29.741  1.00  0.00     0.173 A 
ATOM     75  F   UNL A   1      40.453  29.340  26.342  1.00  0.00    -0.203 F 
ATOM     76  C   UNL A   1      38.753  29.054  27.946  1.00  0.00     0.198 A 
ATOM     77  C   UNL A   1      39.284  28.155  30.105  1.00  0.00     0.198 A 
ATOM     78  F   UNL A   1      41.509  27.599  30.633  1.00  0.00    -0.203 F 
ATOM     79  F   UNL A   1      37.859  29.568  27.091  1.00  0.00    -0.200 F 
ATOM     80  C   UNL A   1      38.350  28.656  29.212  1.00  0.00     0.200 A 
ATOM     81  F   UNL A   1      38.897  27.753  31.324  1.00  0.00    -0.200 F 
ATOM     82  F   UNL A   1      37.065  28.764  29.574  1.00  0.00    -0.200 F 
ENDBRANCH  48  72
BRANCH  60  83
ATOM     83  C   UNL A   1      46.327  33.022  28.610  1.00  0.00     0.064 A 
ATOM     84  C   UNL A   1      46.138  34.063  27.691  1.00  0.00     0.173 A 
ATOM     85  C   UNL A   1      46.562  33.365  29.951  1.00  0.00     0.173 A 
ATOM     86  F   UNL A   1      45.924  33.791  26.395  1.00  0.00    -0.203 F 
ATOM     87  C   UNL A   1      46.211  35.396  28.092  1.00  0.00     0.198 A 
ATOM     88  C   UNL A   1      46.598  34.696  30.356  1.00  0.00     0.198 A 
ATOM     89  F   UNL A   1      46.742  32.408  30.873  1.00  0.00    -0.203 F 
ATOM     90  F   UNL A   1      46.082  36.374  27.186  1.00  0.00    -0.200 F 
ATOM     91  C   UNL A   1      46.433  35.711  29.425  1.00  0.00     0.200 A 
ATOM     92  F   UNL A   1      46.794  34.997  31.646  1.00  0.00    -0.200 F 
ATOM     93  F   UNL A   1      46.493  36.993  29.811  1.00  0.00    -0.200 F 
ENDBRANCH  60  83
ENDBRANCH  34  35
ENDBRANCH  26  29
ENDBRANCH  24  25
ENDBRANCH  23  24
ENDBRANCH  22  23
ENDBRANCH  21  22
ENDBRANCH   1  21
TORSDOF 18
ENDMDL
MODEL 2
REMARK VINA RESULT:      -9.9      0.742      2.176
REMARK SMILES COCCS(=O)(=O)N[C@@H]1C=C[C@@H](C(=O)NCCCCCCNC(=O)c2ccc(-c3c4nc(c(-c5c(F)c(F)c(F)c(F)c5F)c5ccc([nH]5)c(-c5c(F)c(F)c(F)c(F)c5F)c5nc(c(-c6c(F)c(F)c(F)c(F)c6F)c6ccc3[nH]6)C=C5)C=C4)cc2)C1
REMARK SMILES IDX 17 1 16 2 15 3 13 4 14 5 12 7 9 8 10 9 88 10 11 11 8 12 5 14
REMARK SMILES IDX 6 15 7 16 4 17 3 18 2 19 1 20 18 21 19 22 20 23 21 24 22 25
REMARK SMILES IDX 23 26 24 28 25 29 26 30 87 31 27 32 86 33 28 34 29 35 30 36
REMARK SMILES IDX 80 37 31 38 85 39 79 40 81 41 32 42 84 43 78 44 77 45 33 47
REMARK SMILES IDX 65 48 45 49 64 50 46 51 49 52 63 53 82 54 47 55 48 56 62 58
REMARK SMILES IDX 83 59 50 60 34 61 35 62 43 63 36 64 37 65 41 66 44 67 38 68
REMARK SMILES IDX 39 69 42 70 40 71 66 72 67 73 75 74 68 75 69 76 73 77 76 78
REMARK SMILES IDX 70 79 71 80 74 81 72 82 51 83 52 84 60 85 53 86 54 87 58 88
REMARK SMILES IDX 61 89 55 90 56 91 59 92 57 93
REMARK H PARENT 15 6 8 13 22 27 81 46 49 57
REMARK Flexibility Score: inf
ROOT
ATOM      1  C   UNL A   1      40.725  22.832  27.566  1.00  0.00     0.021 C 
ENDROOT
BRANCH   1   2
ATOM      2  C   UNL A   1      39.442  23.297  26.876  1.00  0.00     0.116 C 
BRANCH   2   3
ATOM      3  N   UNL A   1      38.664  22.184  26.376  1.00  0.00    -0.356 N 
ATOM      4  C   UNL A   1      37.628  22.123  25.497  1.00  0.00     0.226 C 
ATOM      5  O   UNL A   1      37.197  20.995  25.231  1.00  0.00    -0.274 OA
ATOM      6  H   UNL A   1      38.935  21.309  26.738  1.00  0.00     0.163 HD
BRANCH   4   7
ATOM      7  C   UNL A   1      37.000  23.353  24.827  1.00  0.00     0.103 C 
ATOM      8  C   UNL A   1      34.867  23.530  23.590  1.00  0.00     0.093 C 
ATOM      9  C   UNL A   1      34.789  24.107  24.965  1.00  0.00    -0.011 C 
ATOM     10  C   UNL A   1      36.349  23.135  23.451  1.00  0.00     0.042 C 
ATOM     11  C   UNL A   1      35.931  23.994  25.646  1.00  0.00    -0.016 C 
BRANCH   8  12
ATOM     12  N   UNL A   1      34.455  24.560  22.646  1.00  0.00    -0.208 NA
ATOM     13  H   UNL A   1      34.637  25.459  23.092  1.00  0.00     0.141 HD
BRANCH  12  14
ATOM     14  S   UNL A   1      32.873  24.599  22.098  1.00  0.00     0.214 S 
ATOM     15  O   UNL A   1      32.251  23.339  22.446  1.00  0.00    -0.212 OA
ATOM     16  O   UNL A   1      32.974  25.001  20.712  1.00  0.00    -0.212 OA
BRANCH  14  17
ATOM     17  C   UNL A   1      32.111  25.954  23.000  1.00  0.00     0.182 C 
BRANCH  17  18
ATOM     18  C   UNL A   1      32.835  27.274  22.811  1.00  0.00     0.177 C 
BRANCH  18  19
ATOM     19  O   UNL A   1      33.961  27.357  23.685  1.00  0.00    -0.384 OA
ATOM     20  C   UNL A   1      33.600  27.679  25.022  1.00  0.00     0.194 C 
ENDBRANCH  18  19
ENDBRANCH  17  18
ENDBRANCH  14  17
ENDBRANCH  12  14
ENDBRANCH   8  12
ENDBRANCH   4   7
ENDBRANCH   2   3
ENDBRANCH   1   2
BRANCH   1  21
ATOM     21  C   UNL A   1      40.854  21.311  27.714  1.00  0.00     0.002 C 
BRANCH  21  22
ATOM     22  C   UNL A   1      42.288  20.768  27.684  1.00  0.00     0.002 C 
BRANCH  22  23
ATOM     23  C   UNL A   1      42.487  19.472  26.896  1.00  0.00     0.021 C 
BRANCH  23  24
ATOM     24  C   UNL A   1      42.453  19.626  25.377  1.00  0.00     0.116 C 
BRANCH  24  25
ATOM     25  N   UNL A   1      43.629  19.060  24.733  1.00  0.00    -0.352 N 
ATOM     26  C   UNL A   1      44.809  19.662  24.372  1.00  0.00     0.251 C 
ATOM     27  H   UNL A   1      43.569  18.100  24.523  1.00  0.00     0.163 HD
ATOM     28  O   UNL A   1      45.621  19.060  23.677  1.00  0.00    -0.269 OA
BRANCH  26  29
ATOM     29  C   UNL A   1      45.097  21.049  24.802  1.00  0.00     0.039 A 
ATOM     30  C   UNL A   1      44.975  22.083  23.869  1.00  0.00     0.014 A 
ATOM     31  C   UNL A   1      45.500  21.330  26.109  1.00  0.00     0.014 A 
ATOM     32  C   UNL A   1      45.193  23.404  24.267  1.00  0.00     0.010 A 
ATOM     33  C   UNL A   1      45.639  22.653  26.523  1.00  0.00     0.010 A 
ATOM     34  C   UNL A   1      45.490  23.704  25.606  1.00  0.00    -0.014 A 
BRANCH  34  35
ATOM     35  C   UNL A   1      45.644  25.111  26.062  1.00  0.00     0.031 A 
ATOM     36  C   UNL A   1      46.988  25.784  26.011  1.00  0.00     0.074 A 
ATOM     37  C   UNL A   1      44.584  25.765  26.575  1.00  0.00     0.049 A 
ATOM     38  N   UNL A   1      47.330  26.983  26.410  1.00  0.00    -0.248 NA
ATOM     39  C   UNL A   1      48.103  24.995  25.462  1.00  0.00     0.031 C 
ATOM     40  C   UNL A   1      43.238  25.207  26.721  1.00  0.00     0.029 A 
ATOM     41  N   UNL A   1      44.471  27.038  27.076  1.00  0.00    -0.354 N 
ATOM     42  C   UNL A   1      48.695  27.088  26.170  1.00  0.00     0.074 A 
ATOM     43  C   UNL A   1      49.130  25.810  25.649  1.00  0.00     0.031 C 
ATOM     44  C   UNL A   1      42.430  26.141  27.249  1.00  0.00     0.029 A 
ATOM     45  C   UNL A   1      43.207  27.346  27.519  1.00  0.00     0.049 A 
ATOM     46  H   UNL A   1      45.224  27.670  27.114  1.00  0.00     0.167 HD
ATOM     47  C   UNL A   1      49.506  28.159  26.345  1.00  0.00     0.037 A 
ATOM     48  C   UNL A   1      42.731  28.471  28.087  1.00  0.00     0.037 A 
ATOM     49  C   UNL A   1      49.065  29.433  26.850  1.00  0.00     0.049 A 
ATOM     50  C   UNL A   1      43.659  29.638  28.293  1.00  0.00     0.074 A 
ATOM     51  C   UNL A   1      49.796  30.596  27.013  1.00  0.00     0.029 A 
ATOM     52  N   UNL A   1      47.775  29.708  27.285  1.00  0.00    -0.354 N 
ATOM     53  N   UNL A   1      44.930  29.750  27.993  1.00  0.00    -0.248 NA
ATOM     54  C   UNL A   1      43.081  30.842  28.909  1.00  0.00     0.031 C 
ATOM     55  C   UNL A   1      48.967  31.556  27.601  1.00  0.00     0.029 A 
ATOM     56  C   UNL A   1      47.700  31.015  27.743  1.00  0.00     0.049 A 
ATOM     57  H   UNL A   1      47.025  29.070  27.269  1.00  0.00     0.167 HD
ATOM     58  C   UNL A   1      45.296  31.040  28.353  1.00  0.00     0.074 A 
ATOM     59  C   UNL A   1      44.108  31.679  28.878  1.00  0.00     0.031 C 
ATOM     60  C   UNL A   1      46.508  31.642  28.256  1.00  0.00     0.037 A 
BRANCH  47  61
ATOM     61  C   UNL A   1      50.957  27.999  25.990  1.00  0.00     0.064 A 
ATOM     62  C   UNL A   1      51.916  27.636  26.949  1.00  0.00     0.173 A 
ATOM     63  C   UNL A   1      51.389  28.168  24.666  1.00  0.00     0.173 A 
ATOM     64  F   UNL A   1      51.561  27.469  28.232  1.00  0.00    -0.203 F 
ATOM     65  C   UNL A   1      53.257  27.485  26.602  1.00  0.00     0.198 A 
ATOM     66  C   UNL A   1      52.724  27.982  24.316  1.00  0.00     0.198 A 
ATOM     67  F   UNL A   1      50.514  28.507  23.706  1.00  0.00    -0.203 F 
ATOM     68  F   UNL A   1      54.163  27.194  27.546  1.00  0.00    -0.200 F 
ATOM     69  C   UNL A   1      53.659  27.650  25.285  1.00  0.00     0.200 A 
ATOM     70  F   UNL A   1      53.107  28.125  23.039  1.00  0.00    -0.200 F 
ATOM     71  F   UNL A   1      54.947  27.495  24.951  1.00  0.00    -0.200 F 
ENDBRANCH  47  61
BRANCH  48  72
ATOM     72  C   UNL A   1      41.301  28.555  28.488  1.00  0.00     0.064 A 
ATOM     73  C   UNL A   1      40.889  28.180  29.775  1.00  0.00     0.173 A 
ATOM     74  C   UNL A   1      40.315  28.999  27.594  1.00  0.00     0.173 A 
ATOM     75  F   UNL A   1      41.790  27.730  30.662  1.00  0.00    -0.203 F 
ATOM     76  C   UNL A   1      39.545  28.219  30.143  1.00  0.00     0.198 A 
ATOM     77  C   UNL A   1      38.977  29.070  27.974  1.00  0.00     0.198 A 
ATOM     78  F   UNL A   1      40.656  29.376  26.353  1.00  0.00    -0.203 F 
ATOM     79  F   UNL A   1      39.174  27.802  31.361  1.00  0.00    -0.200 F 
ATOM     80  C   UNL A   1      38.591  28.670  29.243  1.00  0.00     0.200 A 
ATOM     81  F   UNL A   1      38.060  29.523  27.107  1.00  0.00    -0.200 F 
ATOM     82  F   UNL A   1      37.300  28.711  29.598  1.00  0.00    -0.200 F 
ENDBRANCH  48  72
BRANCH  60  83
ATOM     83  C   UNL A   1      46.604  33.078  28.689  1.00  0.00     0.064 A 
ATOM     84  C   UNL A   1      46.957  33.435  29.998  1.00  0.00     0.173 A 
ATOM     85  C   UNL A   1      46.375  34.112  27.767  1.00  0.00     0.173 A 
ATOM     86  F   UNL A   1      47.173  32.487  30.923  1.00  0.00    -0.203 F 
ATOM     87  C   UNL A   1      47.049  34.773  30.377  1.00  0.00     0.198 A 
ATOM     88  C   UNL A   1      46.503  35.447  28.138  1.00  0.00     0.198 A 
ATOM     89  F   UNL A   1      46.041  33.826  26.500  1.00  0.00    -0.203 F 
ATOM     90  F   UNL A   1      47.335  35.090  31.646  1.00  0.00    -0.200 F 
ATOM     91  C   UNL A   1      46.831  35.777  29.444  1.00  0.00     0.200 A 
ATOM     92  F   UNL A   1      46.310  36.414  27.232  1.00  0.00    -0.200 F 
ATOM     93  F   UNL A   1      46.929  37.063  29.808  1.00  0.00    -0.200 F 
ENDBRANCH  60  83
ENDBRANCH  34  35
ENDBRANCH  26  29
ENDBRANCH  24  25
ENDBRANCH  23  24
ENDBRANCH  22  23
ENDBRANCH  21  22
ENDBRANCH   1  21
TORSDOF 18
ENDMDL
MODEL 3
REMARK VINA RESULT:      -9.8      2.387      8.068
REMARK SMILES COCCS(=O)(=O)N[C@@H]1C=C[C@@H](C(=O)NCCCCCCNC(=O)c2ccc(-c3c4nc(c(-c5c(F)c(F)c(F)c(F)c5F)c5ccc([nH]5)c(-c5c(F)c(F)c(F)c(F)c5F)c5nc(c(-c6c(F)c(F)c(F)c(F)c6F)c6ccc3[nH]6)C=C5)C=C4)cc2)C1
REMARK SMILES IDX 17 1 16 2 15 3 13 4 14 5 12 7 9 8 10 9 88 10 11 11 8 12 5 14
REMARK SMILES IDX 6 15 7 16 4 17 3 18 2 19 1 20 18 21 19 22 20 23 21 24 22 25
REMARK SMILES IDX 23 26 24 28 25 29 26 30 87 31 27 32 86 33 28 34 29 35 30 36
REMARK SMILES IDX 80 37 31 38 85 39 79 40 81 41 32 42 84 43 78 44 77 45 33 47
REMARK SMILES IDX 65 48 45 49 64 50 46 51 49 52 63 53 82 54 47 55 48 56 62 58
REMARK SMILES IDX 83 59 50 60 34 61 35 62 43 63 36 64 37 65 41 66 44 67 38 68
REMARK SMILES IDX 39 69 42 70 40 71 66 72 67 73 75 74 68 75 69 76 73 77 76 78
REMARK SMILES IDX 70 79 71 80 74 81 72 82 51 83 52 84 60 85 53 86 54 87 58 88
REMARK SMILES IDX 61 89 55 90 56 91 59 92 57 93
REMARK H PARENT 15 6 8 13 22 27 81 46 49 57
REMARK Flexibility Score: inf
ROOT
ATOM      1  C   UNL A   1      36.886  22.749  23.910  1.00  0.00     0.021 C 
ENDROOT
BRANCH   1   2
ATOM      2  C   UNL A   1      35.497  23.242  23.506  1.00  0.00     0.116 C 
BRANCH   2   3
ATOM      3  N   UNL A   1      35.021  24.293  24.380  1.00  0.00    -0.356 N 
ATOM      4  C   UNL A   1      34.010  24.329  25.289  1.00  0.00     0.226 C 
ATOM      5  O   UNL A   1      33.880  25.380  25.927  1.00  0.00    -0.274 OA
ATOM      6  H   UNL A   1      35.522  25.138  24.303  1.00  0.00     0.163 HD
BRANCH   4   7
ATOM      7  C   UNL A   1      33.063  23.153  25.564  1.00  0.00     0.103 C 
ATOM      8  C   UNL A   1      33.399  20.747  25.106  1.00  0.00     0.093 C 
ATOM      9  C   UNL A   1      33.562  21.091  26.550  1.00  0.00    -0.011 C 
ATOM     10  C   UNL A   1      32.959  22.078  24.469  1.00  0.00     0.042 C 
ATOM     11  C   UNL A   1      33.405  22.392  26.800  1.00  0.00    -0.016 C 
BRANCH   8  12
ATOM     12  N   UNL A   1      32.392  19.699  25.005  1.00  0.00    -0.208 NA
ATOM     13  H   UNL A   1      32.134  19.444  25.958  1.00  0.00     0.141 HD
BRANCH  12  14
ATOM     14  S   UNL A   1      32.754  18.275  24.200  1.00  0.00     0.214 S 
ATOM     15  O   UNL A   1      34.172  18.279  23.908  1.00  0.00    -0.212 OA
ATOM     16  O   UNL A   1      31.791  18.207  23.123  1.00  0.00    -0.212 OA
BRANCH  14  17
ATOM     17  C   UNL A   1      32.350  16.974  25.372  1.00  0.00     0.182 C 
BRANCH  17  18
ATOM     18  C   UNL A   1      33.228  15.746  25.221  1.00  0.00     0.177 C 
BRANCH  18  19
ATOM     19  O   UNL A   1      34.363  15.833  26.083  1.00  0.00    -0.384 OA
ATOM     20  C   UNL A   1      35.595  15.821  25.375  1.00  0.00     0.194 C 
ENDBRANCH  18  19
ENDBRANCH  17  18
ENDBRANCH  14  17
ENDBRANCH  12  14
ENDBRANCH   8  12
ENDBRANCH   4   7
ENDBRANCH   2   3
ENDBRANCH   1   2
BRANCH   1  21
ATOM     21  C   UNL A   1      36.918  21.916  25.198  1.00  0.00     0.002 C 
BRANCH  21  22
ATOM     22  C   UNL A   1      36.813  20.399  25.001  1.00  0.00     0.002 C 
BRANCH  22  23
ATOM     23  C   UNL A   1      38.143  19.662  24.828  1.00  0.00     0.021 C 
BRANCH  23  24
ATOM     24  C   UNL A   1      39.257  20.106  25.772  1.00  0.00     0.116 C 
BRANCH  24  25
ATOM     25  N   UNL A   1      40.291  19.094  25.929  1.00  0.00    -0.352 N 
ATOM     26  C   UNL A   1      41.641  19.242  26.133  1.00  0.00     0.251 C 
ATOM     27  H   UNL A   1      39.975  18.163  25.883  1.00  0.00     0.163 HD
ATOM     28  O   UNL A   1      42.384  18.268  26.065  1.00  0.00    -0.269 OA
BRANCH  26  29
ATOM     29  C   UNL A   1      42.209  20.580  26.411  1.00  0.00     0.039 A 
ATOM     30  C   UNL A   1      42.658  21.358  25.340  1.00  0.00     0.014 A 
ATOM     31  C   UNL A   1      42.314  21.062  27.717  1.00  0.00     0.014 A 
ATOM     32  C   UNL A   1      43.150  22.643  25.576  1.00  0.00     0.010 A 
ATOM     33  C   UNL A   1      42.730  22.371  27.943  1.00  0.00     0.010 A 
ATOM     34  C   UNL A   1      43.155  23.176  26.875  1.00  0.00    -0.014 A 
BRANCH  34  35
ATOM     35  C   UNL A   1      43.600  24.572  27.131  1.00  0.00     0.031 A 
ATOM     36  C   UNL A   1      42.625  25.601  27.633  1.00  0.00     0.074 A 
ATOM     37  C   UNL A   1      44.871  24.926  26.859  1.00  0.00     0.049 A 
ATOM     38  N   UNL A   1      42.812  26.876  27.865  1.00  0.00    -0.248 NA
ATOM     39  C   UNL A   1      41.248  25.142  27.881  1.00  0.00     0.031 C 
ATOM     40  C   UNL A   1      45.901  24.033  26.326  1.00  0.00     0.029 A 
ATOM     41  N   UNL A   1      45.513  26.133  26.984  1.00  0.00    -0.354 N 
ATOM     42  C   UNL A   1      41.581  27.371  28.276  1.00  0.00     0.074 A 
ATOM     43  C   UNL A   1      40.640  26.274  28.202  1.00  0.00     0.031 C 
ATOM     44  C   UNL A   1      47.050  24.714  26.196  1.00  0.00     0.029 A 
ATOM     45  C   UNL A   1      46.829  26.101  26.594  1.00  0.00     0.049 A 
ATOM     46  H   UNL A   1      45.071  26.945  27.323  1.00  0.00     0.167 HD
ATOM     47  C   UNL A   1      41.268  28.619  28.701  1.00  0.00     0.037 A 
ATOM     48  C   UNL A   1      47.752  27.081  26.552  1.00  0.00     0.037 A 
ATOM     49  C   UNL A   1      42.212  29.703  28.787  1.00  0.00     0.049 A 
ATOM     50  C   UNL A   1      47.373  28.465  27.006  1.00  0.00     0.074 A 
ATOM     51  C   UNL A   1      42.008  30.990  29.255  1.00  0.00     0.029 A 
ATOM     52  N   UNL A   1      43.539  29.631  28.385  1.00  0.00    -0.354 N 
ATOM     53  N   UNL A   1      46.226  28.902  27.463  1.00  0.00    -0.248 NA
ATOM     54  C   UNL A   1      48.424  29.492  26.946  1.00  0.00     0.031 C 
ATOM     55  C   UNL A   1      43.193  31.712  29.081  1.00  0.00     0.029 A 
ATOM     56  C   UNL A   1      44.156  30.859  28.568  1.00  0.00     0.049 A 
ATOM     57  H   UNL A   1      43.977  28.826  28.025  1.00  0.00     0.167 HD
ATOM     58  C   UNL A   1      46.423  30.241  27.774  1.00  0.00     0.074 A 
ATOM     59  C   UNL A   1      47.806  30.540  27.470  1.00  0.00     0.031 C 
ATOM     60  C   UNL A   1      45.537  31.142  28.269  1.00  0.00     0.037 A 
BRANCH  47  61
ATOM     61  C   UNL A   1      39.844  28.882  29.103  1.00  0.00     0.064 A 
ATOM     62  C   UNL A   1      38.886  29.324  28.177  1.00  0.00     0.173 A 
ATOM     63  C   UNL A   1      39.422  28.650  30.420  1.00  0.00     0.173 A 
ATOM     64  F   UNL A   1      39.236  29.571  26.906  1.00  0.00    -0.203 F 
ATOM     65  C   UNL A   1      37.568  29.557  28.564  1.00  0.00     0.198 A 
ATOM     66  C   UNL A   1      38.096  28.850  30.796  1.00  0.00     0.198 A 
ATOM     67  F   UNL A   1      40.294  28.220  31.345  1.00  0.00    -0.203 F 
ATOM     68  F   UNL A   1      36.684  30.032  27.676  1.00  0.00    -0.200 F 
ATOM     69  C   UNL A   1      37.172  29.312  29.871  1.00  0.00     0.200 A 
ATOM     70  F   UNL A   1      37.712  28.597  32.055  1.00  0.00    -0.200 F 
ATOM     71  F   UNL A   1      35.902  29.528  30.239  1.00  0.00    -0.200 F 
ENDBRANCH  47  61
BRANCH  48  72
ATOM     72  C   UNL A   1      49.131  26.786  26.077  1.00  0.00     0.064 A 
ATOM     73  C   UNL A   1      49.488  26.977  24.735  1.00  0.00     0.173 A 
ATOM     74  C   UNL A   1      50.116  26.298  26.948  1.00  0.00     0.173 A 
ATOM     75  F   UNL A   1      48.578  27.423  23.856  1.00  0.00    -0.203 F 
ATOM     76  C   UNL A   1      50.767  26.664  24.276  1.00  0.00     0.198 A 
ATOM     77  C   UNL A   1      51.404  26.018  26.497  1.00  0.00     0.198 A 
ATOM     78  F   UNL A   1      49.830  26.103  28.244  1.00  0.00    -0.203 F 
ATOM     79  F   UNL A   1      51.064  26.804  22.977  1.00  0.00    -0.200 F 
ATOM     80  C   UNL A   1      51.726  26.191  25.160  1.00  0.00     0.200 A 
ATOM     81  F   UNL A   1      52.332  25.577  27.358  1.00  0.00    -0.200 F 
ATOM     82  F   UNL A   1      52.956  25.894  24.720  1.00  0.00    -0.200 F 
ENDBRANCH  48  72
BRANCH  60  83
ATOM     83  C   UNL A   1      46.045  32.528  28.552  1.00  0.00     0.064 A 
ATOM     84  C   UNL A   1      45.969  33.554  27.600  1.00  0.00     0.173 A 
ATOM     85  C   UNL A   1      46.582  32.841  29.811  1.00  0.00     0.173 A 
ATOM     86  F   UNL A   1      45.477  33.305  26.376  1.00  0.00    -0.203 F 
ATOM     87  C   UNL A   1      46.437  34.834  27.886  1.00  0.00     0.198 A 
ATOM     88  C   UNL A   1      47.016  34.130  30.107  1.00  0.00     0.198 A 
ATOM     89  F   UNL A   1      46.672  31.899  30.762  1.00  0.00    -0.203 F 
ATOM     90  F   UNL A   1      46.404  35.784  26.942  1.00  0.00    -0.200 F 
ATOM     91  C   UNL A   1      46.952  35.123  29.142  1.00  0.00     0.200 A 
ATOM     92  F   UNL A   1      47.496  34.410  31.325  1.00  0.00    -0.200 F 
ATOM     93  F   UNL A   1      47.393  36.358  29.418  1.00  0.00    -0.200 F 
ENDBRANCH  60  83
ENDBRANCH  34  35
ENDBRANCH  26  29
ENDBRANCH  24  25
ENDBRANCH  23  24
ENDBRANCH  22  23
ENDBRANCH  21  22
ENDBRANCH   1  21
TORSDOF 18
ENDMDL
