MODEL 1
REMARK VINA RESULT:     -12.7      0.000      0.000
REMARK SMILES Cc1cc(F)c([C@@](C)(C(=O)NCCCCCCNC(=O)c2ccc(-c3c4nc(c(-c5c(F)c(F)c(F)c(F)c5F)c5ccc([nH]5)c(-c5c(F)c(F)c(F)c(F)c5F)c5nc(c(-c6c(F)c(F)c(F)c(F)c6F)c6ccc3[nH]6)C=C5)C=C4)cc2)[NH+]2CC[NH2+]CC2)cc1F
REMARK SMILES IDX 15 1 14 2 13 3 12 4 11 5 9 6 10 7 7 9 8 10 6 11 1 12 2 13
REMARK SMILES IDX 3 14 91 15 4 16 90 17 92 18 5 19 84 20 85 21 89 22 86 24
REMARK SMILES IDX 88 25 87 26 16 29 17 30 18 31 19 32 20 34 21 35 22 36 83 37
REMARK SMILES IDX 23 38 82 39 24 40 25 41 26 42 76 43 27 44 81 45 75 46 77 47
REMARK SMILES IDX 28 48 80 49 74 50 73 51 29 53 61 54 41 55 60 56 42 57 45 58
REMARK SMILES IDX 59 59 78 60 43 61 44 62 58 64 79 65 46 66 30 67 31 68 39 69
REMARK SMILES IDX 32 70 33 71 37 72 40 73 34 74 35 75 38 76 36 77 62 78 63 79
REMARK SMILES IDX 71 80 64 81 65 82 69 83 72 84 66 85 67 86 70 87 68 88 47 89
REMARK SMILES IDX 48 90 56 91 49 92 50 93 54 94 57 95 51 96 52 97 55 98 53 99
REMARK H PARENT 11 8 84 23 87 27 87 28 18 33 77 52 45 63
REMARK Flexibility Score: inf
ROOT
ATOM      1  C   UNL A   1      31.748  30.642  26.241  1.00  0.00     0.002 C 
ENDROOT
BRANCH   1   2
ATOM      2  C   UNL A   1      33.195  30.157  26.409  1.00  0.00     0.002 C 
BRANCH   2   3
ATOM      3  C   UNL A   1      33.361  28.896  27.265  1.00  0.00     0.021 C 
BRANCH   3   4
ATOM      4  C   UNL A   1      32.705  27.667  26.649  1.00  0.00     0.116 C 
BRANCH   4   5
ATOM      5  N   UNL A   1      33.692  26.735  26.171  1.00  0.00    -0.350 N 
ATOM      6  C   UNL A   1      33.706  25.806  25.181  1.00  0.00     0.286 C 
ATOM      7  O   UNL A   1      34.836  25.310  25.043  1.00  0.00    -0.267 OA
ATOM      8  H   UNL A   1      34.540  26.781  26.670  1.00  0.00     0.163 HD
BRANCH   6   9
ATOM      9  C   UNL A   1      32.481  25.453  24.200  1.00  0.00     0.203 C 
ATOM     10  C   UNL A   1      33.168  24.830  22.950  1.00  0.00     0.096 C 
BRANCH   9  11
ATOM     11  C   UNL A   1      31.571  26.666  23.824  1.00  0.00     0.060 A 
ATOM     12  C   UNL A   1      28.840  29.796  22.417  1.00  0.00     0.047 C 
ATOM     13  C   UNL A   1      29.788  28.748  22.909  1.00  0.00    -0.012 A 
ATOM     14  C   UNL A   1      31.170  28.915  22.872  1.00  0.00     0.046 A 
ATOM     15  C   UNL A   1      29.305  27.563  23.440  1.00  0.00     0.126 A 
ATOM     16  C   UNL A   1      32.032  27.875  23.273  1.00  0.00     0.133 A 
ATOM     17  C   UNL A   1      30.171  26.577  23.922  1.00  0.00     0.053 A 
ATOM     18  F   UNL A   1      27.986  27.332  23.467  1.00  0.00    -0.207 F 
ATOM     19  F   UNL A   1      33.335  28.093  23.060  1.00  0.00    -0.206 F 
ENDBRANCH   9  11
BRANCH   9  20
ATOM     20  N   UNL A   1      31.675  24.349  24.838  1.00  0.00    -0.309 N 
ATOM     21  C   UNL A   1      31.473  23.050  24.185  1.00  0.00     0.325 C 
ATOM     22  C   UNL A   1      31.367  24.329  26.258  1.00  0.00     0.325 C 
ATOM     23  H   UNL A   1      30.981  24.972  24.426  1.00  0.00     0.349 HD
ATOM     24  C   UNL A   1      31.832  21.777  25.009  1.00  0.00     0.322 C 
ATOM     25  C   UNL A   1      32.056  23.169  26.997  1.00  0.00     0.322 C 
ATOM     26  N   UNL A   1      31.717  21.841  26.471  1.00  0.00    -0.337 N 
ATOM     27  H   UNL A   1      32.351  21.155  26.881  1.00  0.00     0.346 HD
ATOM     28  H   UNL A   1      30.747  21.645  26.718  1.00  0.00     0.346 HD
ENDBRANCH   9  20
ENDBRANCH   6   9
ENDBRANCH   4   5
ENDBRANCH   3   4
ENDBRANCH   2   3
ENDBRANCH   1   2
BRANCH   1  29
ATOM     29  C   UNL A   1      31.481  32.060  26.746  1.00  0.00     0.021 C 
BRANCH  29  30
ATOM     30  C   UNL A   1      32.701  32.735  27.359  1.00  0.00     0.116 C 
BRANCH  30  31
ATOM     31  N   UNL A   1      32.471  34.150  27.613  1.00  0.00    -0.352 N 
ATOM     32  C   UNL A   1      33.017  34.957  28.578  1.00  0.00     0.251 C 
ATOM     33  H   UNL A   1      31.831  34.589  27.006  1.00  0.00     0.163 HD
ATOM     34  O   UNL A   1      32.554  36.070  28.804  1.00  0.00    -0.269 OA
BRANCH  32  35
ATOM     35  C   UNL A   1      34.161  34.456  29.364  1.00  0.00     0.039 A 
ATOM     36  C   UNL A   1      35.455  34.552  28.849  1.00  0.00     0.014 A 
ATOM     37  C   UNL A   1      33.933  33.846  30.599  1.00  0.00     0.014 A 
ATOM     38  C   UNL A   1      36.492  33.880  29.478  1.00  0.00     0.010 A 
ATOM     39  C   UNL A   1      34.998  33.257  31.282  1.00  0.00     0.010 A 
ATOM     40  C   UNL A   1      36.276  33.222  30.700  1.00  0.00    -0.014 A 
BRANCH  40  41
ATOM     41  C   UNL A   1      37.401  32.500  31.344  1.00  0.00     0.031 A 
ATOM     42  C   UNL A   1      38.132  31.407  30.617  1.00  0.00     0.074 A 
ATOM     43  C   UNL A   1      37.791  32.867  32.579  1.00  0.00     0.049 A 
ATOM     44  N   UNL A   1      39.140  30.676  31.023  1.00  0.00    -0.248 NA
ATOM     45  C   UNL A   1      37.668  31.084  29.259  1.00  0.00     0.031 C 
ATOM     46  C   UNL A   1      37.161  33.919  33.378  1.00  0.00     0.029 A 
ATOM     47  N   UNL A   1      38.817  32.417  33.369  1.00  0.00    -0.354 N 
ATOM     48  C   UNL A   1      39.412  29.792  29.987  1.00  0.00     0.074 A 
ATOM     49  C   UNL A   1      38.445  30.057  28.944  1.00  0.00     0.031 C 
ATOM     50  C   UNL A   1      37.843  34.067  34.522  1.00  0.00     0.029 A 
ATOM     51  C   UNL A   1      38.911  33.075  34.569  1.00  0.00     0.049 A 
ATOM     52  H   UNL A   1      39.427  31.693  33.100  1.00  0.00     0.167 HD
ATOM     53  C   UNL A   1      40.386  28.855  29.912  1.00  0.00     0.037 A 
ATOM     54  C   UNL A   1      39.748  32.888  35.605  1.00  0.00     0.037 A 
ATOM     55  C   UNL A   1      41.362  28.618  30.946  1.00  0.00     0.049 A 
ATOM     56  C   UNL A   1      40.798  31.821  35.513  1.00  0.00     0.074 A 
ATOM     57  C   UNL A   1      42.422  27.729  30.942  1.00  0.00     0.029 A 
ATOM     58  N   UNL A   1      41.391  29.269  32.172  1.00  0.00    -0.354 N 
ATOM     59  N   UNL A   1      41.066  31.011  34.519  1.00  0.00    -0.248 NA
ATOM     60  C   UNL A   1      41.659  31.635  36.689  1.00  0.00     0.031 C 
ATOM     61  C   UNL A   1      43.055  27.798  32.187  1.00  0.00     0.029 A 
ATOM     62  C   UNL A   1      42.428  28.773  32.947  1.00  0.00     0.049 A 
ATOM     63  H   UNL A   1      40.767  29.979  32.450  1.00  0.00     0.167 HD
ATOM     64  C   UNL A   1      42.124  30.221  34.942  1.00  0.00     0.074 A 
ATOM     65  C   UNL A   1      42.468  30.668  36.277  1.00  0.00     0.031 C 
ATOM     66  C   UNL A   1      42.750  29.215  34.283  1.00  0.00     0.037 A 
BRANCH  53  67
ATOM     67  C   UNL A   1      40.436  27.995  28.681  1.00  0.00     0.064 A 
ATOM     68  C   UNL A   1      41.180  28.359  27.548  1.00  0.00     0.173 A 
ATOM     69  C   UNL A   1      39.761  26.764  28.651  1.00  0.00     0.173 A 
ATOM     70  F   UNL A   1      41.836  29.529  27.520  1.00  0.00    -0.203 F 
ATOM     71  C   UNL A   1      41.221  27.540  26.423  1.00  0.00     0.198 A 
ATOM     72  C   UNL A   1      39.831  25.932  27.536  1.00  0.00     0.198 A 
ATOM     73  F   UNL A   1      39.042  26.361  29.708  1.00  0.00    -0.203 F 
ATOM     74  F   UNL A   1      41.897  27.934  25.335  1.00  0.00    -0.200 F 
ATOM     75  C   UNL A   1      40.555  26.324  26.420  1.00  0.00     0.200 A 
ATOM     76  F   UNL A   1      39.199  24.751  27.542  1.00  0.00    -0.200 F 
ATOM     77  F   UNL A   1      40.602  25.534  25.339  1.00  0.00    -0.200 F 
ENDBRANCH  53  67
BRANCH  54  78
ATOM     78  C   UNL A   1      39.605  33.749  36.806  1.00  0.00     0.064 A 
ATOM     79  C   UNL A   1      40.183  35.025  36.849  1.00  0.00     0.173 A 
ATOM     80  C   UNL A   1      38.813  33.350  37.893  1.00  0.00     0.173 A 
ATOM     81  F   UNL A   1      40.960  35.442  35.840  1.00  0.00    -0.203 F 
ATOM     82  C   UNL A   1      39.963  35.874  37.932  1.00  0.00     0.198 A 
ATOM     83  C   UNL A   1      38.572  34.210  38.961  1.00  0.00     0.198 A 
ATOM     84  F   UNL A   1      38.233  32.141  37.893  1.00  0.00    -0.203 F 
ATOM     85  F   UNL A   1      40.535  37.085  37.956  1.00  0.00    -0.200 F 
ATOM     86  C   UNL A   1      39.147  35.472  38.980  1.00  0.00     0.200 A 
ATOM     87  F   UNL A   1      37.764  33.827  39.959  1.00  0.00    -0.200 F 
ATOM     88  F   UNL A   1      38.911  36.303  40.004  1.00  0.00    -0.200 F 
ENDBRANCH  54  78
BRANCH  66  89
ATOM     89  C   UNL A   1      43.871  28.515  34.993  1.00  0.00     0.064 A 
ATOM     90  C   UNL A   1      43.647  27.351  35.745  1.00  0.00     0.173 A 
ATOM     91  C   UNL A   1      45.192  28.968  34.864  1.00  0.00     0.173 A 
ATOM     92  F   UNL A   1      42.400  26.885  35.911  1.00  0.00    -0.203 F 
ATOM     93  C   UNL A   1      44.703  26.677  36.351  1.00  0.00     0.198 A 
ATOM     94  C   UNL A   1      46.249  28.274  35.447  1.00  0.00     0.198 A 
ATOM     95  F   UNL A   1      45.462  30.072  34.150  1.00  0.00    -0.203 F 
ATOM     96  F   UNL A   1      44.461  25.589  37.095  1.00  0.00    -0.200 F 
ATOM     97  C   UNL A   1      46.003  27.132  36.193  1.00  0.00     0.200 A 
ATOM     98  F   UNL A   1      47.506  28.706  35.277  1.00  0.00    -0.200 F 
ATOM     99  F   UNL A   1      47.021  26.471  36.763  1.00  0.00    -0.200 F 
ENDBRANCH  66  89
ENDBRANCH  40  41
ENDBRANCH  32  35
ENDBRANCH  30  31
ENDBRANCH  29  30
ENDBRANCH   1  29
TORSDOF 15
ENDMDL
MODEL 2
REMARK VINA RESULT:     -12.6      0.455      1.627
REMARK SMILES Cc1cc(F)c([C@@](C)(C(=O)NCCCCCCNC(=O)c2ccc(-c3c4nc(c(-c5c(F)c(F)c(F)c(F)c5F)c5ccc([nH]5)c(-c5c(F)c(F)c(F)c(F)c5F)c5nc(c(-c6c(F)c(F)c(F)c(F)c6F)c6ccc3[nH]6)C=C5)C=C4)cc2)[NH+]2CC[NH2+]CC2)cc1F
REMARK SMILES IDX 15 1 14 2 13 3 12 4 11 5 9 6 10 7 7 9 8 10 6 11 1 12 2 13
REMARK SMILES IDX 3 14 91 15 4 16 90 17 92 18 5 19 84 20 85 21 89 22 86 24
REMARK SMILES IDX 88 25 87 26 16 29 17 30 18 31 19 32 20 34 21 35 22 36 83 37
REMARK SMILES IDX 23 38 82 39 24 40 25 41 26 42 76 43 27 44 81 45 75 46 77 47
REMARK SMILES IDX 28 48 80 49 74 50 73 51 29 53 61 54 41 55 60 56 42 57 45 58
REMARK SMILES IDX 59 59 78 60 43 61 44 62 58 64 79 65 46 66 30 67 31 68 39 69
REMARK SMILES IDX 32 70 33 71 37 72 40 73 34 74 35 75 38 76 36 77 62 78 63 79
REMARK SMILES IDX 71 80 64 81 65 82 69 83 72 84 66 85 67 86 70 87 68 88 47 89
REMARK SMILES IDX 48 90 56 91 49 92 50 93 54 94 57 95 51 96 52 97 55 98 53 99
REMARK H PARENT 11 8 84 23 87 27 87 28 18 33 77 52 45 63
REMARK Flexibility Score: inf
ROOT
ATOM      1  C   UNL A   1      31.755  30.753  26.103  1.00  0.00     0.002 C 
ENDROOT
BRANCH   1   2
ATOM      2  C   UNL A   1      31.902  29.585  27.088  1.00  0.00     0.002 C 
BRANCH   2   3
ATOM      3  C   UNL A   1      33.034  28.603  26.767  1.00  0.00     0.021 C 
BRANCH   3   4
ATOM      4  C   UNL A   1      32.552  27.165  26.624  1.00  0.00     0.116 C 
BRANCH   4   5
ATOM      5  N   UNL A   1      33.577  26.328  26.056  1.00  0.00    -0.350 N 
ATOM      6  C   UNL A   1      33.638  25.530  24.959  1.00  0.00     0.286 C 
ATOM      7  O   UNL A   1      34.785  25.087  24.785  1.00  0.00    -0.267 OA
ATOM      8  H   UNL A   1      34.413  26.336  26.575  1.00  0.00     0.163 HD
BRANCH   6   9
ATOM      9  C   UNL A   1      32.442  25.267  23.915  1.00  0.00     0.203 C 
ATOM     10  C   UNL A   1      33.173  24.869  22.599  1.00  0.00     0.096 C 
BRANCH   9  11
ATOM     11  C   UNL A   1      31.476  26.476  23.705  1.00  0.00     0.060 A 
ATOM     12  C   UNL A   1      28.571  29.622  22.755  1.00  0.00     0.047 C 
ATOM     13  C   UNL A   1      29.578  28.568  23.092  1.00  0.00    -0.012 A 
ATOM     14  C   UNL A   1      30.950  28.785  22.984  1.00  0.00     0.046 A 
ATOM     15  C   UNL A   1      29.165  27.326  23.544  1.00  0.00     0.126 A 
ATOM     16  C   UNL A   1      31.865  27.744  23.238  1.00  0.00     0.133 A 
ATOM     17  C   UNL A   1      30.088  26.331  23.882  1.00  0.00     0.053 A 
ATOM     18  F   UNL A   1      27.857  27.048  23.633  1.00  0.00    -0.207 F 
ATOM     19  F   UNL A   1      33.145  28.023  22.965  1.00  0.00    -0.206 F 
ENDBRANCH   9  11
BRANCH   9  20
ATOM     20  N   UNL A   1      31.686  24.042  24.370  1.00  0.00    -0.309 N 
ATOM     21  C   UNL A   1      31.729  22.777  23.627  1.00  0.00     0.325 C 
ATOM     22  C   UNL A   1      31.186  23.894  25.726  1.00  0.00     0.325 C 
ATOM     23  H   UNL A   1      30.990  24.615  23.893  1.00  0.00     0.349 HD
ATOM     24  C   UNL A   1      32.112  21.496  24.428  1.00  0.00     0.322 C 
ATOM     25  C   UNL A   1      31.894  22.766  26.497  1.00  0.00     0.322 C 
ATOM     26  N   UNL A   1      31.787  21.448  25.859  1.00  0.00    -0.337 N 
ATOM     27  H   UNL A   1      32.431  20.807  26.321  1.00  0.00     0.346 HD
ATOM     28  H   UNL A   1      30.821  21.134  25.950  1.00  0.00     0.346 HD
ENDBRANCH   9  20
ENDBRANCH   6   9
ENDBRANCH   4   5
ENDBRANCH   3   4
ENDBRANCH   2   3
ENDBRANCH   1   2
BRANCH   1  29
ATOM     29  C   UNL A   1      31.437  32.103  26.746  1.00  0.00     0.021 C 
BRANCH  29  30
ATOM     30  C   UNL A   1      32.647  32.791  27.364  1.00  0.00     0.116 C 
BRANCH  30  31
ATOM     31  N   UNL A   1      32.411  34.210  27.587  1.00  0.00    -0.352 N 
ATOM     32  C   UNL A   1      32.943  35.036  28.545  1.00  0.00     0.251 C 
ATOM     33  H   UNL A   1      31.781  34.637  26.963  1.00  0.00     0.163 HD
ATOM     34  O   UNL A   1      32.475  36.153  28.743  1.00  0.00    -0.269 OA
BRANCH  32  35
ATOM     35  C   UNL A   1      34.074  34.551  29.359  1.00  0.00     0.039 A 
ATOM     36  C   UNL A   1      35.370  34.586  28.839  1.00  0.00     0.014 A 
ATOM     37  C   UNL A   1      33.832  34.018  30.626  1.00  0.00     0.014 A 
ATOM     38  C   UNL A   1      36.390  33.924  29.505  1.00  0.00     0.010 A 
ATOM     39  C   UNL A   1      34.883  33.441  31.341  1.00  0.00     0.010 A 
ATOM     40  C   UNL A   1      36.159  33.342  30.762  1.00  0.00    -0.014 A 
BRANCH  40  41
ATOM     41  C   UNL A   1      37.266  32.629  31.446  1.00  0.00     0.031 A 
ATOM     42  C   UNL A   1      37.988  31.498  30.770  1.00  0.00     0.074 A 
ATOM     43  C   UNL A   1      37.649  33.038  32.670  1.00  0.00     0.049 A 
ATOM     44  N   UNL A   1      38.981  30.769  31.214  1.00  0.00    -0.248 NA
ATOM     45  C   UNL A   1      37.534  31.129  29.420  1.00  0.00     0.031 C 
ATOM     46  C   UNL A   1      37.026  34.129  33.420  1.00  0.00     0.029 A 
ATOM     47  N   UNL A   1      38.660  32.604  33.488  1.00  0.00    -0.354 N 
ATOM     48  C   UNL A   1      39.251  29.842  30.217  1.00  0.00     0.074 A 
ATOM     49  C   UNL A   1      38.299  30.080  29.153  1.00  0.00     0.031 C 
ATOM     50  C   UNL A   1      37.698  34.312  34.566  1.00  0.00     0.029 A 
ATOM     51  C   UNL A   1      38.751  33.306  34.662  1.00  0.00     0.049 A 
ATOM     52  H   UNL A   1      39.261  31.861  33.254  1.00  0.00     0.167 HD
ATOM     53  C   UNL A   1      40.212  28.888  30.189  1.00  0.00     0.037 A 
ATOM     54  C   UNL A   1      39.574  33.147  35.715  1.00  0.00     0.037 A 
ATOM     55  C   UNL A   1      41.173  28.677  31.242  1.00  0.00     0.049 A 
ATOM     56  C   UNL A   1      40.609  32.062  35.676  1.00  0.00     0.074 A 
ATOM     57  C   UNL A   1      42.219  27.774  31.284  1.00  0.00     0.029 A 
ATOM     58  N   UNL A   1      41.199  29.375  32.442  1.00  0.00    -0.354 N 
ATOM     59  N   UNL A   1      40.875  31.211  34.716  1.00  0.00    -0.248 NA
ATOM     60  C   UNL A   1      41.455  31.910  36.867  1.00  0.00     0.031 C 
ATOM     61  C   UNL A   1      42.841  27.881  32.532  1.00  0.00     0.029 A 
ATOM     62  C   UNL A   1      42.220  28.894  33.246  1.00  0.00     0.049 A 
ATOM     63  H   UNL A   1      40.582  30.103  32.686  1.00  0.00     0.167 HD
ATOM     64  C   UNL A   1      41.917  30.422  35.181  1.00  0.00     0.074 A 
ATOM     65  C   UNL A   1      42.254  30.916  36.502  1.00  0.00     0.031 C 
ATOM     66  C   UNL A   1      42.534  29.382  34.568  1.00  0.00     0.037 A 
BRANCH  53  67
ATOM     67  C   UNL A   1      40.262  27.980  28.992  1.00  0.00     0.064 A 
ATOM     68  C   UNL A   1      41.015  28.294  27.851  1.00  0.00     0.173 A 
ATOM     69  C   UNL A   1      39.577  26.755  29.006  1.00  0.00     0.173 A 
ATOM     70  F   UNL A   1      41.681  29.457  27.780  1.00  0.00    -0.203 F 
ATOM     71  C   UNL A   1      41.056  27.431  26.759  1.00  0.00     0.198 A 
ATOM     72  C   UNL A   1      39.646  25.880  27.925  1.00  0.00     0.198 A 
ATOM     73  F   UNL A   1      38.848  26.399  30.074  1.00  0.00    -0.203 F 
ATOM     74  F   UNL A   1      41.741  27.777  25.660  1.00  0.00    -0.200 F 
ATOM     75  C   UNL A   1      40.379  26.221  26.799  1.00  0.00     0.200 A 
ATOM     76  F   UNL A   1      39.004  24.704  27.973  1.00  0.00    -0.200 F 
ATOM     77  F   UNL A   1      40.427  25.389  25.750  1.00  0.00    -0.200 F 
ENDBRANCH  53  67
BRANCH  54  78
ATOM     78  C   UNL A   1      39.432  34.056  36.879  1.00  0.00     0.064 A 
ATOM     79  C   UNL A   1      38.693  33.673  38.006  1.00  0.00     0.173 A 
ATOM     80  C   UNL A   1      40.108  35.285  36.926  1.00  0.00     0.173 A 
ATOM     81  F   UNL A   1      38.018  32.514  38.001  1.00  0.00    -0.203 F 
ATOM     82  C   UNL A   1      38.644  34.481  39.139  1.00  0.00     0.198 A 
ATOM     83  C   UNL A   1      40.081  36.078  38.069  1.00  0.00     0.198 A 
ATOM     84  F   UNL A   1      40.836  35.691  35.875  1.00  0.00    -0.203 F 
ATOM     85  F   UNL A   1      37.921  34.099  40.201  1.00  0.00    -0.200 F 
ATOM     86  C   UNL A   1      39.349  35.676  39.176  1.00  0.00     0.200 A 
ATOM     87  F   UNL A   1      40.784  37.219  38.108  1.00  0.00    -0.200 F 
ATOM     88  F   UNL A   1      39.328  36.435  40.280  1.00  0.00    -0.200 F 
ENDBRANCH  54  78
BRANCH  66  89
ATOM     89  C   UNL A   1      43.638  28.694  35.317  1.00  0.00     0.064 A 
ATOM     90  C   UNL A   1      44.978  29.080  35.162  1.00  0.00     0.173 A 
ATOM     91  C   UNL A   1      43.348  27.690  36.252  1.00  0.00     0.173 A 
ATOM     92  F   UNL A   1      45.309  30.026  34.270  1.00  0.00    -0.203 F 
ATOM     93  C   UNL A   1      45.987  28.475  35.905  1.00  0.00     0.198 A 
ATOM     94  C   UNL A   1      44.356  27.108  37.016  1.00  0.00     0.198 A 
ATOM     95  F   UNL A   1      42.082  27.288  36.444  1.00  0.00    -0.203 F 
ATOM     96  F   UNL A   1      47.264  28.835  35.714  1.00  0.00    -0.200 F 
ATOM     97  C   UNL A   1      45.675  27.498  36.839  1.00  0.00     0.200 A 
ATOM     98  F   UNL A   1      44.050  26.177  37.929  1.00  0.00    -0.200 F 
ATOM     99  F   UNL A   1      46.647  26.930  37.567  1.00  0.00    -0.200 F 
ENDBRANCH  66  89
ENDBRANCH  40  41
ENDBRANCH  32  35
ENDBRANCH  30  31
ENDBRANCH  29  30
ENDBRANCH   1  29
TORSDOF 15
ENDMDL
MODEL 3
REMARK VINA RESULT:     -12.6      0.389      1.173
REMARK SMILES Cc1cc(F)c([C@@](C)(C(=O)NCCCCCCNC(=O)c2ccc(-c3c4nc(c(-c5c(F)c(F)c(F)c(F)c5F)c5ccc([nH]5)c(-c5c(F)c(F)c(F)c(F)c5F)c5nc(c(-c6c(F)c(F)c(F)c(F)c6F)c6ccc3[nH]6)C=C5)C=C4)cc2)[NH+]2CC[NH2+]CC2)cc1F
REMARK SMILES IDX 15 1 14 2 13 3 12 4 11 5 9 6 10 7 7 9 8 10 6 11 1 12 2 13
REMARK SMILES IDX 3 14 91 15 4 16 90 17 92 18 5 19 84 20 85 21 89 22 86 24
REMARK SMILES IDX 88 25 87 26 16 29 17 30 18 31 19 32 20 34 21 35 22 36 83 37
REMARK SMILES IDX 23 38 82 39 24 40 25 41 26 42 76 43 27 44 81 45 75 46 77 47
REMARK SMILES IDX 28 48 80 49 74 50 73 51 29 53 61 54 41 55 60 56 42 57 45 58
REMARK SMILES IDX 59 59 78 60 43 61 44 62 58 64 79 65 46 66 30 67 31 68 39 69
REMARK SMILES IDX 32 70 33 71 37 72 40 73 34 74 35 75 38 76 36 77 62 78 63 79
REMARK SMILES IDX 71 80 64 81 65 82 69 83 72 84 66 85 67 86 70 87 68 88 47 89
REMARK SMILES IDX 48 90 56 91 49 92 50 93 54 94 57 95 51 96 52 97 55 98 53 99
REMARK H PARENT 11 8 84 23 87 27 87 28 18 33 77 52 45 63
REMARK Flexibility Score: inf
ROOT
ATOM      1  C   UNL A   1      31.753  30.682  26.232  1.00  0.00     0.002 C 
ENDROOT
BRANCH   1   2
ATOM      2  C   UNL A   1      32.637  29.913  27.223  1.00  0.00     0.002 C 
BRANCH   2   3
ATOM      3  C   UNL A   1      33.540  28.845  26.593  1.00  0.00     0.021 C 
BRANCH   3   4
ATOM      4  C   UNL A   1      32.885  27.471  26.532  1.00  0.00     0.116 C 
BRANCH   4   5
ATOM      5  N   UNL A   1      33.797  26.483  26.017  1.00  0.00    -0.350 N 
ATOM      6  C   UNL A   1      33.752  25.616  24.973  1.00  0.00     0.286 C 
ATOM      7  O   UNL A   1      34.836  25.029  24.826  1.00  0.00    -0.267 OA
ATOM      8  H   UNL A   1      34.633  26.424  26.533  1.00  0.00     0.163 HD
BRANCH   6   9
ATOM      9  C   UNL A   1      32.523  25.433  23.950  1.00  0.00     0.203 C 
ATOM     10  C   UNL A   1      33.177  24.791  22.691  1.00  0.00     0.096 C 
BRANCH   9  11
ATOM     11  C   UNL A   1      31.756  26.748  23.605  1.00  0.00     0.060 A 
ATOM     12  C   UNL A   1      29.406  30.202  22.266  1.00  0.00     0.047 C 
ATOM     13  C   UNL A   1      30.225  29.041  22.736  1.00  0.00    -0.012 A 
ATOM     14  C   UNL A   1      31.618  29.066  22.748  1.00  0.00     0.046 A 
ATOM     15  C   UNL A   1      29.607  27.890  23.196  1.00  0.00     0.126 A 
ATOM     16  C   UNL A   1      32.355  27.927  23.126  1.00  0.00     0.133 A 
ATOM     17  C   UNL A   1      30.351  26.800  23.658  1.00  0.00     0.053 A 
ATOM     18  F   UNL A   1      28.270  27.795  23.174  1.00  0.00    -0.207 F 
ATOM     19  F   UNL A   1      33.680  28.018  22.962  1.00  0.00    -0.206 F 
ENDBRANCH   9  11
BRANCH   9  20
ATOM     20  N   UNL A   1      31.590  24.395  24.523  1.00  0.00    -0.309 N 
ATOM     21  C   UNL A   1      31.593  23.001  24.063  1.00  0.00     0.325 C 
ATOM     22  C   UNL A   1      30.907  24.576  25.792  1.00  0.00     0.325 C 
ATOM     23  H   UNL A   1      31.026  24.906  23.844  1.00  0.00     0.349 HD
ATOM     24  C   UNL A   1      31.732  21.894  25.150  1.00  0.00     0.322 C 
ATOM     25  C   UNL A   1      31.385  23.587  26.869  1.00  0.00     0.322 C 
ATOM     26  N   UNL A   1      31.222  22.176  26.497  1.00  0.00    -0.337 N 
ATOM     27  H   UNL A   1      31.730  21.600  27.168  1.00  0.00     0.346 HD
ATOM     28  H   UNL A   1      30.224  21.964  26.505  1.00  0.00     0.346 HD
ENDBRANCH   9  20
ENDBRANCH   6   9
ENDBRANCH   4   5
ENDBRANCH   3   4
ENDBRANCH   2   3
ENDBRANCH   1   2
BRANCH   1  29
ATOM     29  C   UNL A   1      31.495  32.144  26.599  1.00  0.00     0.021 C 
BRANCH  29  30
ATOM     30  C   UNL A   1      32.613  32.780  27.414  1.00  0.00     0.116 C 
BRANCH  30  31
ATOM     31  N   UNL A   1      32.393  34.204  27.620  1.00  0.00    -0.352 N 
ATOM     32  C   UNL A   1      32.942  35.038  28.562  1.00  0.00     0.251 C 
ATOM     33  H   UNL A   1      31.761  34.629  26.996  1.00  0.00     0.163 HD
ATOM     34  O   UNL A   1      32.487  36.162  28.748  1.00  0.00    -0.269 OA
BRANCH  32  35
ATOM     35  C   UNL A   1      34.077  34.553  29.370  1.00  0.00     0.039 A 
ATOM     36  C   UNL A   1      35.370  34.581  28.843  1.00  0.00     0.014 A 
ATOM     37  C   UNL A   1      33.840  34.027  30.641  1.00  0.00     0.014 A 
ATOM     38  C   UNL A   1      36.391  33.919  29.506  1.00  0.00     0.010 A 
ATOM     39  C   UNL A   1      34.893  33.449  31.353  1.00  0.00     0.010 A 
ATOM     40  C   UNL A   1      36.166  33.343  30.767  1.00  0.00    -0.014 A 
BRANCH  40  41
ATOM     41  C   UNL A   1      37.275  32.629  31.448  1.00  0.00     0.031 A 
ATOM     42  C   UNL A   1      38.000  31.505  30.765  1.00  0.00     0.074 A 
ATOM     43  C   UNL A   1      37.654  33.033  32.674  1.00  0.00     0.049 A 
ATOM     44  N   UNL A   1      38.995  30.776  31.206  1.00  0.00    -0.248 NA
ATOM     45  C   UNL A   1      37.548  31.142  29.413  1.00  0.00     0.031 C 
ATOM     46  C   UNL A   1      37.028  34.118  33.431  1.00  0.00     0.029 A 
ATOM     47  N   UNL A   1      38.666  32.597  33.490  1.00  0.00    -0.354 N 
ATOM     48  C   UNL A   1      39.268  29.856  30.203  1.00  0.00     0.074 A 
ATOM     49  C   UNL A   1      38.316  30.097  29.141  1.00  0.00     0.031 C 
ATOM     50  C   UNL A   1      37.699  34.295  34.578  1.00  0.00     0.029 A 
ATOM     51  C   UNL A   1      38.754  33.292  34.669  1.00  0.00     0.049 A 
ATOM     52  H   UNL A   1      39.270  31.857  33.253  1.00  0.00     0.167 HD
ATOM     53  C   UNL A   1      40.232  28.905  30.171  1.00  0.00     0.037 A 
ATOM     54  C   UNL A   1      39.577  33.129  35.721  1.00  0.00     0.037 A 
ATOM     55  C   UNL A   1      41.193  28.691  31.223  1.00  0.00     0.049 A 
ATOM     56  C   UNL A   1      40.616  32.048  35.677  1.00  0.00     0.074 A 
ATOM     57  C   UNL A   1      42.242  27.790  31.261  1.00  0.00     0.029 A 
ATOM     58  N   UNL A   1      41.216  29.382  32.427  1.00  0.00    -0.354 N 
ATOM     59  N   UNL A   1      40.885  31.203  34.712  1.00  0.00    -0.248 NA
ATOM     60  C   UNL A   1      41.461  31.891  36.868  1.00  0.00     0.031 C 
ATOM     61  C   UNL A   1      42.862  27.892  32.510  1.00  0.00     0.029 A 
ATOM     62  C   UNL A   1      42.238  28.899  33.230  1.00  0.00     0.049 A 
ATOM     63  H   UNL A   1      40.597  30.107  32.675  1.00  0.00     0.167 HD
ATOM     64  C   UNL A   1      41.929  30.415  35.173  1.00  0.00     0.074 A 
ATOM     65  C   UNL A   1      42.263  30.902  36.497  1.00  0.00     0.031 C 
ATOM     66  C   UNL A   1      42.550  29.381  34.555  1.00  0.00     0.037 A 
BRANCH  53  67
ATOM     67  C   UNL A   1      40.286  28.004  28.969  1.00  0.00     0.064 A 
ATOM     68  C   UNL A   1      41.014  28.342  27.818  1.00  0.00     0.173 A 
ATOM     69  C   UNL A   1      39.631  26.763  28.986  1.00  0.00     0.173 A 
ATOM     70  F   UNL A   1      41.652  29.521  27.744  1.00  0.00    -0.203 F 
ATOM     71  C   UNL A   1      41.060  27.485  26.721  1.00  0.00     0.198 A 
ATOM     72  C   UNL A   1      39.705  25.895  27.900  1.00  0.00     0.198 A 
ATOM     73  F   UNL A   1      38.926  26.385  30.063  1.00  0.00    -0.203 F 
ATOM     74  F   UNL A   1      41.720  27.853  25.614  1.00  0.00    -0.200 F 
ATOM     75  C   UNL A   1      40.413  26.260  26.765  1.00  0.00     0.200 A 
ATOM     76  F   UNL A   1      39.092  24.704  27.951  1.00  0.00    -0.200 F 
ATOM     77  F   UNL A   1      40.464  25.434  25.711  1.00  0.00    -0.200 F 
ENDBRANCH  53  67
BRANCH  54  78
ATOM     78  C   UNL A   1      39.431  34.031  36.891  1.00  0.00     0.064 A 
ATOM     79  C   UNL A   1      38.718  33.627  38.027  1.00  0.00     0.173 A 
ATOM     80  C   UNL A   1      40.078  35.276  36.932  1.00  0.00     0.173 A 
ATOM     81  F   UNL A   1      38.071  32.453  38.028  1.00  0.00    -0.203 F 
ATOM     82  C   UNL A   1      38.668  34.430  39.164  1.00  0.00     0.198 A 
ATOM     83  C   UNL A   1      40.050  36.064  38.078  1.00  0.00     0.198 A 
ATOM     84  F   UNL A   1      40.780  35.702  35.871  1.00  0.00    -0.203 F 
ATOM     85  F   UNL A   1      37.970  34.027  40.236  1.00  0.00    -0.200 F 
ATOM     86  C   UNL A   1      39.345  35.641  39.195  1.00  0.00     0.200 A 
ATOM     87  F   UNL A   1      40.726  37.221  38.111  1.00  0.00    -0.200 F 
ATOM     88  F   UNL A   1      39.323  36.396  40.302  1.00  0.00    -0.200 F 
ENDBRANCH  54  78
BRANCH  66  89
ATOM     89  C   UNL A   1      43.655  28.692  35.301  1.00  0.00     0.064 A 
ATOM     90  C   UNL A   1      43.393  27.620  36.169  1.00  0.00     0.173 A 
ATOM     91  C   UNL A   1      44.993  29.056  35.093  1.00  0.00     0.173 A 
ATOM     92  F   UNL A   1      42.129  27.243  36.413  1.00  0.00    -0.203 F 
ATOM     93  C   UNL A   1      44.430  26.951  36.811  1.00  0.00     0.198 A 
ATOM     94  C   UNL A   1      46.030  28.364  35.713  1.00  0.00     0.198 A 
ATOM     95  F   UNL A   1      45.298  30.069  34.268  1.00  0.00    -0.203 F 
ATOM     96  F   UNL A   1      44.155  25.954  37.664  1.00  0.00    -0.200 F 
ATOM     97  C   UNL A   1      45.747  27.315  36.575  1.00  0.00     0.200 A 
ATOM     98  F   UNL A   1      47.302  28.707  35.470  1.00  0.00    -0.200 F 
ATOM     99  F   UNL A   1      46.746  26.657  37.180  1.00  0.00    -0.200 F 
ENDBRANCH  66  89
ENDBRANCH  40  41
ENDBRANCH  32  35
ENDBRANCH  30  31
ENDBRANCH  29  30
ENDBRANCH   1  29
TORSDOF 15
ENDMDL
