MODEL 1
REMARK VINA RESULT:     -13.6      0.000      0.000
REMARK SMILES Cc1ccc(NC(=O)[C@H]2CC(Cl)=CC[C@@H]2C(=O)NCCCCCCNC(=O)c2ccc(-c3c4nc(c(-c5c(F)c(F)c(F)c(F)c5F)c5ccc([nH]5)c(-c5c(F)c(F)c(F)c(F)c5F)c5nc(c(-c6c(F)c(F)c(F)c(F)c6F)c6ccc3[nH]6)C=C5)C=C4)cc2)cc1[N+](=O)[O-]
REMARK SMILES IDX 21 1 20 2 19 3 18 4 16 5 17 6 15 8 9 9 10 10 11 11 14 12
REMARK SMILES IDX 12 13 13 14 7 15 6 16 8 18 5 19 1 20 2 21 3 22 92 23 4 24
REMARK SMILES IDX 91 25 93 26 94 27 95 28 22 29 23 30 24 31 25 32 26 33 27 35
REMARK SMILES IDX 28 36 29 37 90 38 30 39 89 40 31 41 32 42 33 43 83 44 34 45
REMARK SMILES IDX 88 46 82 47 84 48 35 49 87 50 81 51 80 52 36 54 68 55 48 56
REMARK SMILES IDX 67 57 49 58 52 59 66 60 85 61 50 62 51 63 65 65 86 66 53 67
REMARK SMILES IDX 37 68 38 69 46 70 39 71 40 72 44 73 47 74 41 75 42 76 45 77
REMARK SMILES IDX 43 78 69 79 70 80 78 81 71 82 72 83 76 84 79 85 73 86 74 87
REMARK SMILES IDX 77 88 75 89 54 90 55 91 63 92 56 93 57 94 61 95 64 96 58 97
REMARK SMILES IDX 59 98 62 99 60 100
REMARK H PARENT 18 7 6 17 25 34 84 53 52 64
REMARK Flexibility Score: inf
ROOT
ATOM      1  C   UNL A   1      33.755  22.276  26.153  1.00  0.00     0.002 C 
ENDROOT
BRANCH   1   2
ATOM      2  C   UNL A   1      32.672  22.999  26.967  1.00  0.00     0.021 C 
BRANCH   2   3
ATOM      3  C   UNL A   1      31.773  23.956  26.177  1.00  0.00     0.116 C 
BRANCH   3   4
ATOM      4  N   UNL A   1      31.514  25.189  26.898  1.00  0.00    -0.356 N 
ATOM      5  C   UNL A   1      31.163  26.434  26.492  1.00  0.00     0.224 C 
ATOM      6  O   UNL A   1      31.009  27.282  27.376  1.00  0.00    -0.275 OA
ATOM      7  H   UNL A   1      31.612  25.105  27.873  1.00  0.00     0.163 HD
BRANCH   5   8
ATOM      8  C   UNL A   1      30.994  26.793  25.018  1.00  0.00     0.095 C 
ATOM      9  C   UNL A   1      31.130  28.324  24.845  1.00  0.00     0.097 C 
ATOM     10  C   UNL A   1      30.659  28.785  23.452  1.00  0.00     0.062 C 
ATOM     11  C   UNL A   1      29.279  28.300  23.159  1.00  0.00     0.015 C 
ATOM     12  C   UNL A   1      29.593  26.273  24.577  1.00  0.00     0.043 C 
ATOM     13  Cl  UNL A   1      28.304  29.304  22.153  1.00  0.00    -0.089 Cl
ATOM     14  C   UNL A   1      28.797  27.164  23.669  1.00  0.00    -0.010 C 
BRANCH   9  15
ATOM     15  C   UNL A   1      32.570  28.790  24.997  1.00  0.00     0.228 C 
ATOM     16  N   UNL A   1      33.657  28.075  24.596  1.00  0.00    -0.326 N 
ATOM     17  H   UNL A   1      34.512  28.482  24.863  1.00  0.00     0.169 HD
ATOM     18  O   UNL A   1      32.806  29.926  25.430  1.00  0.00    -0.274 OA
BRANCH  16  19
ATOM     19  C   UNL A   1      33.814  26.877  23.882  1.00  0.00     0.048 A 
ATOM     20  C   UNL A   1      33.264  23.099  21.846  1.00  0.00     0.052 C 
ATOM     21  C   UNL A   1      33.548  24.447  22.439  1.00  0.00     0.027 A 
ATOM     22  C   UNL A   1      34.175  24.490  23.692  1.00  0.00     0.012 A 
ATOM     23  C   UNL A   1      33.165  25.673  21.875  1.00  0.00     0.274 A 
ATOM     24  C   UNL A   1      34.325  25.692  24.392  1.00  0.00     0.027 A 
ATOM     25  C   UNL A   1      33.337  26.883  22.569  1.00  0.00     0.112 A 
BRANCH  23  26
ATOM     26  N   UNL A   1      32.463  25.756  20.597  1.00  0.00     0.063 N 
ATOM     27  O   UNL A   1      33.142  25.607  19.570  1.00  0.00    -0.258 OA
ATOM     28  O   UNL A   1      31.262  26.054  20.620  1.00  0.00    -0.258 OA
ENDBRANCH  23  26
ENDBRANCH  16  19
ENDBRANCH   9  15
ENDBRANCH   5   8
ENDBRANCH   3   4
ENDBRANCH   2   3
ENDBRANCH   1   2
BRANCH   1  29
ATOM     29  C   UNL A   1      35.213  22.599  26.496  1.00  0.00     0.002 C 
BRANCH  29  30
ATOM     30  C   UNL A   1      36.261  21.665  25.894  1.00  0.00     0.021 C 
BRANCH  30  31
ATOM     31  C   UNL A   1      37.512  22.365  25.379  1.00  0.00     0.116 C 
BRANCH  31  32
ATOM     32  N   UNL A   1      38.730  22.030  26.091  1.00  0.00    -0.352 N 
ATOM     33  C   UNL A   1      39.718  22.844  26.623  1.00  0.00     0.251 C 
ATOM     34  H   UNL A   1      38.880  21.065  26.218  1.00  0.00     0.163 HD
ATOM     35  O   UNL A   1      40.757  22.335  26.996  1.00  0.00    -0.269 OA
BRANCH  33  36
ATOM     36  C   UNL A   1      39.473  24.295  26.887  1.00  0.00     0.039 A 
ATOM     37  C   UNL A   1      40.341  25.217  26.272  1.00  0.00     0.014 A 
ATOM     38  C   UNL A   1      38.577  24.753  27.845  1.00  0.00     0.014 A 
ATOM     39  C   UNL A   1      40.477  26.504  26.790  1.00  0.00     0.010 A 
ATOM     40  C   UNL A   1      38.776  25.984  28.428  1.00  0.00     0.010 A 
ATOM     41  C   UNL A   1      39.776  26.827  27.944  1.00  0.00    -0.014 A 
BRANCH  41  42
ATOM     42  C   UNL A   1      40.061  27.966  28.799  1.00  0.00     0.031 A 
ATOM     43  C   UNL A   1      39.125  29.104  28.847  1.00  0.00     0.074 A 
ATOM     44  C   UNL A   1      41.066  27.841  29.696  1.00  0.00     0.049 A 
ATOM     45  N   UNL A   1      39.390  30.224  29.424  1.00  0.00    -0.248 NA
ATOM     46  C   UNL A   1      37.822  29.101  28.187  1.00  0.00     0.031 C 
ATOM     47  C   UNL A   1      41.290  28.637  30.900  1.00  0.00     0.029 A 
ATOM     48  N   UNL A   1      42.224  27.051  29.581  1.00  0.00    -0.354 N 
ATOM     49  C   UNL A   1      38.230  30.961  29.471  1.00  0.00     0.074 A 
ATOM     50  C   UNL A   1      37.328  30.282  28.576  1.00  0.00     0.031 C 
ATOM     51  C   UNL A   1      42.582  28.534  31.252  1.00  0.00     0.029 A 
ATOM     52  C   UNL A   1      43.253  27.806  30.191  1.00  0.00     0.049 A 
ATOM     53  H   UNL A   1      42.301  26.163  29.165  1.00  0.00     0.167 HD
ATOM     54  C   UNL A   1      38.157  31.984  30.369  1.00  0.00     0.037 A 
ATOM     55  C   UNL A   1      44.290  28.302  29.453  1.00  0.00     0.037 A 
ATOM     56  C   UNL A   1      39.486  32.272  30.915  1.00  0.00     0.049 A 
ATOM     57  C   UNL A   1      44.388  29.810  29.475  1.00  0.00     0.074 A 
ATOM     58  C   UNL A   1      40.095  32.005  32.128  1.00  0.00     0.029 A 
ATOM     59  N   UNL A   1      40.492  32.683  30.044  1.00  0.00    -0.354 N 
ATOM     60  N   UNL A   1      43.398  30.599  29.789  1.00  0.00    -0.248 NA
ATOM     61  C   UNL A   1      45.602  30.546  29.135  1.00  0.00     0.031 C 
ATOM     62  C   UNL A   1      41.496  32.171  31.951  1.00  0.00     0.029 A 
ATOM     63  C   UNL A   1      41.729  32.583  30.648  1.00  0.00     0.049 A 
ATOM     64  H   UNL A   1      40.341  33.001  29.125  1.00  0.00     0.167 HD
ATOM     65  C   UNL A   1      43.800  31.905  29.686  1.00  0.00     0.074 A 
ATOM     66  C   UNL A   1      45.192  31.819  29.289  1.00  0.00     0.031 C 
ATOM     67  C   UNL A   1      42.942  32.941  29.923  1.00  0.00     0.037 A 
BRANCH  54  68
ATOM     68  C   UNL A   1      36.892  32.618  30.920  1.00  0.00     0.064 A 
ATOM     69  C   UNL A   1      36.149  33.517  30.117  1.00  0.00     0.173 A 
ATOM     70  C   UNL A   1      36.417  32.499  32.243  1.00  0.00     0.173 A 
ATOM     71  F   UNL A   1      36.471  33.733  28.834  1.00  0.00    -0.203 F 
ATOM     72  C   UNL A   1      35.059  34.247  30.606  1.00  0.00     0.198 A 
ATOM     73  C   UNL A   1      35.300  33.196  32.718  1.00  0.00     0.198 A 
ATOM     74  F   UNL A   1      37.031  31.749  33.161  1.00  0.00    -0.203 F 
ATOM     75  F   UNL A   1      34.435  35.127  29.810  1.00  0.00    -0.200 F 
ATOM     76  C   UNL A   1      34.630  34.082  31.905  1.00  0.00     0.200 A 
ATOM     77  F   UNL A   1      34.901  33.019  33.986  1.00  0.00    -0.200 F 
ATOM     78  F   UNL A   1      33.590  34.782  32.378  1.00  0.00    -0.200 F 
ENDBRANCH  54  68
BRANCH  55  79
ATOM     79  C   UNL A   1      44.646  27.427  28.304  1.00  0.00     0.064 A 
ATOM     80  C   UNL A   1      45.285  26.202  28.582  1.00  0.00     0.173 A 
ATOM     81  C   UNL A   1      44.015  27.561  27.061  1.00  0.00     0.173 A 
ATOM     82  F   UNL A   1      45.914  26.029  29.755  1.00  0.00    -0.203 F 
ATOM     83  C   UNL A   1      45.182  25.118  27.713  1.00  0.00     0.198 A 
ATOM     84  C   UNL A   1      43.927  26.475  26.187  1.00  0.00     0.198 A 
ATOM     85  F   UNL A   1      43.379  28.697  26.742  1.00  0.00    -0.203 F 
ATOM     86  F   UNL A   1      45.709  23.934  28.054  1.00  0.00    -0.200 F 
ATOM     87  C   UNL A   1      44.475  25.247  26.529  1.00  0.00     0.200 A 
ATOM     88  F   UNL A   1      43.227  26.592  25.048  1.00  0.00    -0.200 F 
ATOM     89  F   UNL A   1      44.294  24.183  25.735  1.00  0.00    -0.200 F 
ENDBRANCH  55  79
BRANCH  67  90
ATOM     90  C   UNL A   1      43.177  34.394  29.572  1.00  0.00     0.064 A 
ATOM     91  C   UNL A   1      43.327  35.422  30.519  1.00  0.00     0.173 A 
ATOM     92  C   UNL A   1      43.422  34.775  28.228  1.00  0.00     0.173 A 
ATOM     93  F   UNL A   1      43.249  35.178  31.834  1.00  0.00    -0.203 F 
ATOM     94  C   UNL A   1      43.630  36.736  30.149  1.00  0.00     0.198 A 
ATOM     95  C   UNL A   1      43.788  36.072  27.869  1.00  0.00     0.198 A 
ATOM     96  F   UNL A   1      43.343  33.892  27.221  1.00  0.00    -0.203 F 
ATOM     97  F   UNL A   1      43.719  37.686  31.091  1.00  0.00    -0.200 F 
ATOM     98  C   UNL A   1      43.875  37.058  28.828  1.00  0.00     0.200 A 
ATOM     99  F   UNL A   1      44.079  36.352  26.590  1.00  0.00    -0.200 F 
ATOM    100  F   UNL A   1      44.217  38.306  28.484  1.00  0.00    -0.200 F 
ENDBRANCH  67  90
ENDBRANCH  41  42
ENDBRANCH  33  36
ENDBRANCH  31  32
ENDBRANCH  30  31
ENDBRANCH  29  30
ENDBRANCH   1  29
TORSDOF 16
ENDMDL
MODEL 2
REMARK VINA RESULT:     -13.6      2.951      8.848
REMARK SMILES Cc1ccc(NC(=O)[C@H]2CC(Cl)=CC[C@@H]2C(=O)NCCCCCCNC(=O)c2ccc(-c3c4nc(c(-c5c(F)c(F)c(F)c(F)c5F)c5ccc([nH]5)c(-c5c(F)c(F)c(F)c(F)c5F)c5nc(c(-c6c(F)c(F)c(F)c(F)c6F)c6ccc3[nH]6)C=C5)C=C4)cc2)cc1[N+](=O)[O-]
REMARK SMILES IDX 21 1 20 2 19 3 18 4 16 5 17 6 15 8 9 9 10 10 11 11 14 12
REMARK SMILES IDX 12 13 13 14 7 15 6 16 8 18 5 19 1 20 2 21 3 22 92 23 4 24
REMARK SMILES IDX 91 25 93 26 94 27 95 28 22 29 23 30 24 31 25 32 26 33 27 35
REMARK SMILES IDX 28 36 29 37 90 38 30 39 89 40 31 41 32 42 33 43 83 44 34 45
REMARK SMILES IDX 88 46 82 47 84 48 35 49 87 50 81 51 80 52 36 54 68 55 48 56
REMARK SMILES IDX 67 57 49 58 52 59 66 60 85 61 50 62 51 63 65 65 86 66 53 67
REMARK SMILES IDX 37 68 38 69 46 70 39 71 40 72 44 73 47 74 41 75 42 76 45 77
REMARK SMILES IDX 43 78 69 79 70 80 78 81 71 82 72 83 76 84 79 85 73 86 74 87
REMARK SMILES IDX 77 88 75 89 54 90 55 91 63 92 56 93 57 94 61 95 64 96 58 97
REMARK SMILES IDX 59 98 62 99 60 100
REMARK H PARENT 18 7 6 17 25 34 84 53 52 64
REMARK Flexibility Score: inf
ROOT
ATOM      1  C   UNL A   1      31.706  27.691  26.679  1.00  0.00     0.002 C 
ENDROOT
BRANCH   1   2
ATOM      2  C   UNL A   1      31.791  26.177  26.439  1.00  0.00     0.021 C 
BRANCH   2   3
ATOM      3  C   UNL A   1      30.462  25.472  26.152  1.00  0.00     0.116 C 
BRANCH   3   4
ATOM      4  N   UNL A   1      30.602  24.410  25.173  1.00  0.00    -0.356 N 
ATOM      5  C   UNL A   1      30.431  24.371  23.828  1.00  0.00     0.224 C 
ATOM      6  O   UNL A   1      30.641  23.287  23.275  1.00  0.00    -0.275 OA
ATOM      7  H   UNL A   1      30.875  23.547  25.561  1.00  0.00     0.163 HD
BRANCH   5   8
ATOM      8  C   UNL A   1      29.973  25.589  23.031  1.00  0.00     0.095 C 
ATOM      9  C   UNL A   1      31.189  26.501  22.745  1.00  0.00     0.097 C 
ATOM     10  C   UNL A   1      30.756  27.886  22.230  1.00  0.00     0.062 C 
ATOM     11  C   UNL A   1      29.772  28.524  23.152  1.00  0.00     0.015 C 
ATOM     12  C   UNL A   1      28.884  26.310  23.880  1.00  0.00     0.043 C 
ATOM     13  Cl  UNL A   1      29.802  30.244  23.246  1.00  0.00    -0.089 Cl
ATOM     14  C   UNL A   1      28.926  27.810  23.899  1.00  0.00    -0.010 C 
BRANCH   9  15
ATOM     15  C   UNL A   1      32.111  25.909  21.689  1.00  0.00     0.228 C 
ATOM     16  N   UNL A   1      33.241  25.202  21.963  1.00  0.00    -0.326 N 
ATOM     17  H   UNL A   1      33.768  24.982  21.160  1.00  0.00     0.169 HD
ATOM     18  O   UNL A   1      31.800  25.981  20.492  1.00  0.00    -0.274 OA
BRANCH  16  19
ATOM     19  C   UNL A   1      33.814  24.720  23.149  1.00  0.00     0.048 A 
ATOM     20  C   UNL A   1      34.581  23.056  27.069  1.00  0.00     0.052 C 
ATOM     21  C   UNL A   1      34.435  23.554  25.661  1.00  0.00     0.027 A 
ATOM     22  C   UNL A   1      34.574  24.931  25.439  1.00  0.00     0.012 A 
ATOM     23  C   UNL A   1      34.091  22.761  24.557  1.00  0.00     0.274 A 
ATOM     24  C   UNL A   1      34.289  25.502  24.194  1.00  0.00     0.027 A 
ATOM     25  C   UNL A   1      33.827  23.332  23.301  1.00  0.00     0.112 A 
BRANCH  23  26
ATOM     26  N   UNL A   1      33.872  21.321  24.671  1.00  0.00     0.063 N 
ATOM     27  O   UNL A   1      32.708  20.942  24.866  1.00  0.00    -0.258 OA
ATOM     28  O   UNL A   1      34.868  20.586  24.654  1.00  0.00    -0.258 OA
ENDBRANCH  23  26
ENDBRANCH  16  19
ENDBRANCH   9  15
ENDBRANCH   5   8
ENDBRANCH   3   4
ENDBRANCH   2   3
ENDBRANCH   1   2
BRANCH   1  29
ATOM     29  C   UNL A   1      32.371  28.598  25.638  1.00  0.00     0.002 C 
BRANCH  29  30
ATOM     30  C   UNL A   1      33.419  29.570  26.174  1.00  0.00     0.021 C 
BRANCH  30  31
ATOM     31  C   UNL A   1      33.066  30.209  27.511  1.00  0.00     0.116 C 
BRANCH  31  32
ATOM     32  N   UNL A   1      33.845  31.385  27.846  1.00  0.00    -0.352 N 
ATOM     33  C   UNL A   1      35.106  31.502  28.410  1.00  0.00     0.251 C 
ATOM     34  H   UNL A   1      33.407  32.241  27.637  1.00  0.00     0.163 HD
ATOM     35  O   UNL A   1      35.475  32.595  28.793  1.00  0.00    -0.269 OA
BRANCH  33  36
ATOM     36  C   UNL A   1      36.068  30.357  28.414  1.00  0.00     0.039 A 
ATOM     37  C   UNL A   1      36.301  29.717  29.645  1.00  0.00     0.014 A 
ATOM     38  C   UNL A   1      36.871  30.035  27.327  1.00  0.00     0.014 A 
ATOM     39  C   UNL A   1      37.463  28.972  29.838  1.00  0.00     0.010 A 
ATOM     40  C   UNL A   1      38.069  29.390  27.535  1.00  0.00     0.010 A 
ATOM     41  C   UNL A   1      38.393  28.924  28.809  1.00  0.00    -0.014 A 
BRANCH  41  42
ATOM     42  C   UNL A   1      39.776  28.507  28.956  1.00  0.00     0.031 A 
ATOM     43  C   UNL A   1      40.172  27.130  28.607  1.00  0.00     0.074 A 
ATOM     44  C   UNL A   1      40.699  29.467  29.194  1.00  0.00     0.049 A 
ATOM     45  N   UNL A   1      41.324  26.624  28.884  1.00  0.00    -0.248 NA
ATOM     46  C   UNL A   1      39.273  26.173  27.968  1.00  0.00     0.031 C 
ATOM     47  C   UNL A   1      42.143  29.387  28.987  1.00  0.00     0.029 A 
ATOM     48  N   UNL A   1      40.513  30.686  29.869  1.00  0.00    -0.354 N 
ATOM     49  C   UNL A   1      41.428  25.422  28.226  1.00  0.00     0.074 A 
ATOM     50  C   UNL A   1      40.088  25.128  27.787  1.00  0.00     0.031 C 
ATOM     51  C   UNL A   1      42.742  30.317  29.747  1.00  0.00     0.029 A 
ATOM     52  C   UNL A   1      41.713  30.904  30.586  1.00  0.00     0.049 A 
ATOM     53  H   UNL A   1      39.717  31.265  29.847  1.00  0.00     0.167 HD
ATOM     54  C   UNL A   1      42.673  24.902  28.036  1.00  0.00     0.037 A 
ATOM     55  C   UNL A   1      41.727  30.883  31.952  1.00  0.00     0.037 A 
ATOM     56  C   UNL A   1      43.651  25.621  28.855  1.00  0.00     0.049 A 
ATOM     57  C   UNL A   1      42.616  29.810  32.536  1.00  0.00     0.074 A 
ATOM     58  C   UNL A   1      44.622  26.565  28.570  1.00  0.00     0.029 A 
ATOM     59  N   UNL A   1      43.506  25.604  30.240  1.00  0.00    -0.354 N 
ATOM     60  N   UNL A   1      43.006  28.752  31.881  1.00  0.00    -0.248 NA
ATOM     61  C   UNL A   1      43.125  29.838  33.904  1.00  0.00     0.031 C 
ATOM     62  C   UNL A   1      44.993  27.183  29.795  1.00  0.00     0.029 A 
ATOM     63  C   UNL A   1      44.285  26.582  30.823  1.00  0.00     0.049 A 
ATOM     64  H   UNL A   1      42.928  24.979  30.734  1.00  0.00     0.167 HD
ATOM     65  C   UNL A   1      43.776  27.964  32.696  1.00  0.00     0.074 A 
ATOM     66  C   UNL A   1      43.834  28.696  33.947  1.00  0.00     0.031 C 
ATOM     67  C   UNL A   1      44.284  26.770  32.269  1.00  0.00     0.037 A 
BRANCH  54  68
ATOM     68  C   UNL A   1      43.078  23.879  26.988  1.00  0.00     0.064 A 
ATOM     69  C   UNL A   1      42.761  22.513  27.179  1.00  0.00     0.173 A 
ATOM     70  C   UNL A   1      43.875  24.133  25.851  1.00  0.00     0.173 A 
ATOM     71  F   UNL A   1      42.004  22.112  28.211  1.00  0.00    -0.203 F 
ATOM     72  C   UNL A   1      43.226  21.501  26.331  1.00  0.00     0.198 A 
ATOM     73  C   UNL A   1      44.303  23.125  24.980  1.00  0.00     0.198 A 
ATOM     74  F   UNL A   1      44.327  25.352  25.550  1.00  0.00    -0.203 F 
ATOM     75  F   UNL A   1      42.939  20.219  26.602  1.00  0.00    -0.200 F 
ATOM     76  C   UNL A   1      43.993  21.808  25.227  1.00  0.00     0.200 A 
ATOM     77  F   UNL A   1      45.047  23.448  23.912  1.00  0.00    -0.200 F 
ATOM     78  F   UNL A   1      44.443  20.841  24.416  1.00  0.00    -0.200 F 
ENDBRANCH  54  68
BRANCH  55  79
ATOM     79  C   UNL A   1      40.454  31.372  32.545  1.00  0.00     0.064 A 
ATOM     80  C   UNL A   1      40.195  32.756  32.500  1.00  0.00     0.173 A 
ATOM     81  C   UNL A   1      39.364  30.515  32.745  1.00  0.00     0.173 A 
ATOM     82  F   UNL A   1      41.208  33.619  32.324  1.00  0.00    -0.203 F 
ATOM     83  C   UNL A   1      38.893  33.251  32.518  1.00  0.00     0.198 A 
ATOM     84  C   UNL A   1      38.061  31.017  32.776  1.00  0.00     0.198 A 
ATOM     85  F   UNL A   1      39.543  29.188  32.785  1.00  0.00    -0.203 F 
ATOM     86  F   UNL A   1      38.672  34.564  32.365  1.00  0.00    -0.200 F 
ATOM     87  C   UNL A   1      37.824  32.377  32.625  1.00  0.00     0.200 A 
ATOM     88  F   UNL A   1      37.024  30.171  32.861  1.00  0.00    -0.200 F 
ATOM     89  F   UNL A   1      36.568  32.837  32.549  1.00  0.00    -0.200 F 
ENDBRANCH  55  79
BRANCH  67  90
ATOM     90  C   UNL A   1      44.895  25.695  33.142  1.00  0.00     0.064 A 
ATOM     91  C   UNL A   1      46.253  25.333  33.117  1.00  0.00     0.173 A 
ATOM     92  C   UNL A   1      44.131  25.091  34.173  1.00  0.00     0.173 A 
ATOM     93  F   UNL A   1      47.117  25.919  32.278  1.00  0.00    -0.203 F 
ATOM     94  C   UNL A   1      46.789  24.395  34.005  1.00  0.00     0.198 A 
ATOM     95  C   UNL A   1      44.683  24.205  35.098  1.00  0.00     0.198 A 
ATOM     96  F   UNL A   1      42.828  25.365  34.335  1.00  0.00    -0.203 F 
ATOM     97  F   UNL A   1      48.082  24.054  33.907  1.00  0.00    -0.200 F 
ATOM     98  C   UNL A   1      46.010  23.842  35.003  1.00  0.00     0.200 A 
ATOM     99  F   UNL A   1      43.926  23.725  36.095  1.00  0.00    -0.200 F 
ATOM    100  F   UNL A   1      46.540  22.985  35.884  1.00  0.00    -0.200 F 
ENDBRANCH  67  90
ENDBRANCH  41  42
ENDBRANCH  33  36
ENDBRANCH  31  32
ENDBRANCH  30  31
ENDBRANCH  29  30
ENDBRANCH   1  29
TORSDOF 16
ENDMDL
MODEL 3
REMARK VINA RESULT:     -13.5      1.448      2.844
REMARK SMILES Cc1ccc(NC(=O)[C@H]2CC(Cl)=CC[C@@H]2C(=O)NCCCCCCNC(=O)c2ccc(-c3c4nc(c(-c5c(F)c(F)c(F)c(F)c5F)c5ccc([nH]5)c(-c5c(F)c(F)c(F)c(F)c5F)c5nc(c(-c6c(F)c(F)c(F)c(F)c6F)c6ccc3[nH]6)C=C5)C=C4)cc2)cc1[N+](=O)[O-]
REMARK SMILES IDX 21 1 20 2 19 3 18 4 16 5 17 6 15 8 9 9 10 10 11 11 14 12
REMARK SMILES IDX 12 13 13 14 7 15 6 16 8 18 5 19 1 20 2 21 3 22 92 23 4 24
REMARK SMILES IDX 91 25 93 26 94 27 95 28 22 29 23 30 24 31 25 32 26 33 27 35
REMARK SMILES IDX 28 36 29 37 90 38 30 39 89 40 31 41 32 42 33 43 83 44 34 45
REMARK SMILES IDX 88 46 82 47 84 48 35 49 87 50 81 51 80 52 36 54 68 55 48 56
REMARK SMILES IDX 67 57 49 58 52 59 66 60 85 61 50 62 51 63 65 65 86 66 53 67
REMARK SMILES IDX 37 68 38 69 46 70 39 71 40 72 44 73 47 74 41 75 42 76 45 77
REMARK SMILES IDX 43 78 69 79 70 80 78 81 71 82 72 83 76 84 79 85 73 86 74 87
REMARK SMILES IDX 77 88 75 89 54 90 55 91 63 92 56 93 57 94 61 95 64 96 58 97
REMARK SMILES IDX 59 98 62 99 60 100
REMARK H PARENT 18 7 6 17 25 34 84 53 52 64
REMARK Flexibility Score: inf
ROOT
ATOM      1  C   UNL A   1      35.505  22.069  25.064  1.00  0.00     0.002 C 
ENDROOT
BRANCH   1   2
ATOM      2  C   UNL A   1      35.162  22.805  23.761  1.00  0.00     0.021 C 
BRANCH   2   3
ATOM      3  C   UNL A   1      33.688  22.772  23.345  1.00  0.00     0.116 C 
BRANCH   3   4
ATOM      4  N   UNL A   1      33.272  23.999  22.690  1.00  0.00    -0.356 N 
ATOM      5  C   UNL A   1      32.933  25.224  23.162  1.00  0.00     0.224 C 
ATOM      6  O   UNL A   1      32.626  26.075  22.322  1.00  0.00    -0.275 OA
ATOM      7  H   UNL A   1      33.227  23.927  21.710  1.00  0.00     0.163 HD
BRANCH   5   8
ATOM      8  C   UNL A   1      32.900  25.540  24.655  1.00  0.00     0.095 C 
ATOM      9  C   UNL A   1      31.563  26.238  25.000  1.00  0.00     0.097 C 
ATOM     10  C   UNL A   1      31.593  26.865  26.407  1.00  0.00     0.062 C 
ATOM     11  C   UNL A   1      32.766  27.772  26.571  1.00  0.00     0.015 C 
ATOM     12  C   UNL A   1      34.132  26.444  24.960  1.00  0.00     0.043 C 
ATOM     13  Cl  UNL A   1      32.561  29.119  27.626  1.00  0.00    -0.089 Cl
ATOM     14  C   UNL A   1      33.914  27.581  25.915  1.00  0.00    -0.010 C 
BRANCH   9  15
ATOM     15  C   UNL A   1      30.391  25.269  24.978  1.00  0.00     0.228 C 
ATOM     16  N   UNL A   1      29.146  25.576  24.519  1.00  0.00    -0.326 N 
ATOM     17  H   UNL A   1      28.486  24.862  24.673  1.00  0.00     0.169 HD
ATOM     18  O   UNL A   1      30.563  24.088  25.310  1.00  0.00    -0.274 OA
BRANCH  16  19
ATOM     19  C   UNL A   1      28.606  26.699  23.873  1.00  0.00     0.048 A 
ATOM     20  C   UNL A   1      27.401  30.677  22.672  1.00  0.00     0.052 C 
ATOM     21  C   UNL A   1      27.845  29.270  22.942  1.00  0.00     0.027 A 
ATOM     22  C   UNL A   1      26.910  28.387  23.500  1.00  0.00     0.012 A 
ATOM     23  C   UNL A   1      29.147  28.785  22.753  1.00  0.00     0.274 A 
ATOM     24  C   UNL A   1      27.282  27.111  23.939  1.00  0.00     0.027 A 
ATOM     25  C   UNL A   1      29.515  27.495  23.173  1.00  0.00     0.112 A 
BRANCH  23  26
ATOM     26  N   UNL A   1      30.220  29.622  22.223  1.00  0.00     0.063 N 
ATOM     27  O   UNL A   1      29.970  30.279  21.202  1.00  0.00    -0.258 OA
ATOM     28  O   UNL A   1      31.327  29.554  22.774  1.00  0.00    -0.258 OA
ENDBRANCH  23  26
ENDBRANCH  16  19
ENDBRANCH   9  15
ENDBRANCH   5   8
ENDBRANCH   3   4
ENDBRANCH   2   3
ENDBRANCH   1   2
BRANCH   1  29
ATOM     29  C   UNL A   1      36.247  20.735  24.933  1.00  0.00     0.002 C 
BRANCH  29  30
ATOM     30  C   UNL A   1      37.765  20.799  25.093  1.00  0.00     0.021 C 
BRANCH  30  31
ATOM     31  C   UNL A   1      38.280  22.073  25.748  1.00  0.00     0.116 C 
BRANCH  31  32
ATOM     32  N   UNL A   1      39.665  22.019  26.172  1.00  0.00    -0.352 N 
ATOM     33  C   UNL A   1      40.545  23.035  26.513  1.00  0.00     0.251 C 
ATOM     34  H   UNL A   1      40.043  21.112  26.229  1.00  0.00     0.163 HD
ATOM     35  O   UNL A   1      41.725  22.769  26.638  1.00  0.00    -0.269 OA
BRANCH  33  36
ATOM     36  C   UNL A   1      40.056  24.400  26.878  1.00  0.00     0.039 A 
ATOM     37  C   UNL A   1      40.583  25.487  26.154  1.00  0.00     0.014 A 
ATOM     38  C   UNL A   1      39.278  24.655  28.000  1.00  0.00     0.014 A 
ATOM     39  C   UNL A   1      40.540  26.773  26.692  1.00  0.00     0.010 A 
ATOM     40  C   UNL A   1      39.320  25.899  28.588  1.00  0.00     0.010 A 
ATOM     41  C   UNL A   1      40.014  26.936  27.966  1.00  0.00    -0.014 A 
BRANCH  41  42
ATOM     42  C   UNL A   1      40.208  28.108  28.802  1.00  0.00     0.031 A 
ATOM     43  C   UNL A   1      39.229  29.209  28.768  1.00  0.00     0.074 A 
ATOM     44  C   UNL A   1      41.167  28.046  29.755  1.00  0.00     0.049 A 
ATOM     45  N   UNL A   1      39.419  30.354  29.325  1.00  0.00    -0.248 NA
ATOM     46  C   UNL A   1      37.965  29.137  28.039  1.00  0.00     0.031 C 
ATOM     47  C   UNL A   1      41.295  28.882  30.946  1.00  0.00     0.029 A 
ATOM     48  N   UNL A   1      42.359  27.300  29.725  1.00  0.00    -0.354 N 
ATOM     49  C   UNL A   1      38.232  31.046  29.289  1.00  0.00     0.074 A 
ATOM     50  C   UNL A   1      37.406  30.307  28.367  1.00  0.00     0.031 C 
ATOM     51  C   UNL A   1      42.568  28.840  31.370  1.00  0.00     0.029 A 
ATOM     52  C   UNL A   1      43.324  28.111  30.368  1.00  0.00     0.049 A 
ATOM     53  H   UNL A   1      42.492  26.404  29.340  1.00  0.00     0.167 HD
ATOM     54  C   UNL A   1      38.071  32.088  30.153  1.00  0.00     0.037 A 
ATOM     55  C   UNL A   1      44.380  28.628  29.672  1.00  0.00     0.037 A 
ATOM     56  C   UNL A   1      39.356  32.443  30.760  1.00  0.00     0.049 A 
ATOM     57  C   UNL A   1      44.419  30.138  29.656  1.00  0.00     0.074 A 
ATOM     58  C   UNL A   1      39.908  32.232  32.011  1.00  0.00     0.029 A 
ATOM     59  N   UNL A   1      40.392  32.869  29.933  1.00  0.00    -0.354 N 
ATOM     60  N   UNL A   1      43.385  30.895  29.894  1.00  0.00    -0.248 NA
ATOM     61  C   UNL A   1      45.621  30.913  29.360  1.00  0.00     0.031 C 
ATOM     62  C   UNL A   1      41.309  32.448  31.904  1.00  0.00     0.029 A 
ATOM     63  C   UNL A   1      41.596  32.835  30.605  1.00  0.00     0.049 A 
ATOM     64  H   UNL A   1      40.279  33.157  28.999  1.00  0.00     0.167 HD
ATOM     65  C   UNL A   1      43.741  32.213  29.775  1.00  0.00     0.074 A 
ATOM     66  C   UNL A   1      45.156  32.171  29.456  1.00  0.00     0.031 C 
ATOM     67  C   UNL A   1      42.833  33.221  29.936  1.00  0.00     0.037 A 
BRANCH  54  68
ATOM     68  C   UNL A   1      36.754  32.686  30.616  1.00  0.00     0.064 A 
ATOM     69  C   UNL A   1      36.033  33.550  29.756  1.00  0.00     0.173 A 
ATOM     70  C   UNL A   1      36.203  32.568  31.910  1.00  0.00     0.173 A 
ATOM     71  F   UNL A   1      36.426  33.760  28.492  1.00  0.00    -0.203 F 
ATOM     72  C   UNL A   1      34.891  34.249  30.168  1.00  0.00     0.198 A 
ATOM     73  C   UNL A   1      35.037  33.233  32.306  1.00  0.00     0.198 A 
ATOM     74  F   UNL A   1      36.784  31.850  32.874  1.00  0.00    -0.203 F 
ATOM     75  F   UNL A   1      34.289  35.097  29.323  1.00  0.00    -0.200 F 
ATOM     76  C   UNL A   1      34.390  34.085  31.441  1.00  0.00     0.200 A 
ATOM     77  F   UNL A   1      34.568  33.058  33.550  1.00  0.00    -0.200 F 
ATOM     78  F   UNL A   1      33.300  34.756  31.840  1.00  0.00    -0.200 F 
ENDBRANCH  54  68
BRANCH  55  79
ATOM     79  C   UNL A   1      44.830  27.737  28.570  1.00  0.00     0.064 A 
ATOM     80  C   UNL A   1      45.554  26.578  28.913  1.00  0.00     0.173 A 
ATOM     81  C   UNL A   1      44.223  27.771  27.308  1.00  0.00     0.173 A 
ATOM     82  F   UNL A   1      46.165  26.502  30.106  1.00  0.00    -0.203 F 
ATOM     83  C   UNL A   1      45.557  25.455  28.089  1.00  0.00     0.198 A 
ATOM     84  C   UNL A   1      44.241  26.647  26.479  1.00  0.00     0.198 A 
ATOM     85  F   UNL A   1      43.510  28.841  26.927  1.00  0.00    -0.203 F 
ATOM     86  F   UNL A   1      46.164  24.329  28.491  1.00  0.00    -0.200 F 
ATOM     87  C   UNL A   1      44.873  25.480  26.885  1.00  0.00     0.200 A 
ATOM     88  F   UNL A   1      43.564  26.663  25.321  1.00  0.00    -0.200 F 
ATOM     89  F   UNL A   1      44.794  24.374  26.133  1.00  0.00    -0.200 F 
ENDBRANCH  55  79
BRANCH  67  90
ATOM     90  C   UNL A   1      43.031  34.672  29.556  1.00  0.00     0.064 A 
ATOM     91  C   UNL A   1      43.257  35.707  30.480  1.00  0.00     0.173 A 
ATOM     92  C   UNL A   1      43.160  35.045  28.194  1.00  0.00     0.173 A 
ATOM     93  F   UNL A   1      43.292  35.472  31.798  1.00  0.00    -0.203 F 
ATOM     94  C   UNL A   1      43.523  37.019  30.077  1.00  0.00     0.198 A 
ATOM     95  C   UNL A   1      43.489  36.340  27.796  1.00  0.00     0.198 A 
ATOM     96  F   UNL A   1      42.999  34.154  27.204  1.00  0.00    -0.203 F 
ATOM     97  F   UNL A   1      43.687  37.977  31.001  1.00  0.00    -0.200 F 
ATOM     98  C   UNL A   1      43.653  37.333  28.737  1.00  0.00     0.200 A 
ATOM     99  F   UNL A   1      43.669  36.612  26.495  1.00  0.00    -0.200 F 
ATOM    100  F   UNL A   1      43.960  38.580  28.357  1.00  0.00    -0.200 F 
ENDBRANCH  67  90
ENDBRANCH  41  42
ENDBRANCH  33  36
ENDBRANCH  31  32
ENDBRANCH  30  31
ENDBRANCH  29  30
ENDBRANCH   1  29
TORSDOF 16
ENDMDL
