MODEL 1
REMARK VINA RESULT:     -12.5      0.000      0.000
REMARK SMILES O=C(/C=C/c1ccccc1)Nc1ccc(O)cc1C(=O)NCCCCCCNC(=O)c1ccc(-c2c3nc(c(-c4c(F)c(F)c(F)c(F)c4F)c4ccc([nH]4)c(-c4c(F)c(F)c(F)c(F)c4F)c4nc(c(-c5c(F)c(F)c(F)c(F)c5F)c5ccc2[nH]5)C=C4)C=C3)cc1
REMARK SMILES IDX 24 1 23 2 22 3 21 4 19 5 20 6 18 8 12 9 13 10 14 11 17 12
REMARK SMILES IDX 15 13 11 14 1 15 2 16 3 18 4 19 5 20 6 21 10 22 7 23 9 24
REMARK SMILES IDX 8 25 16 26 25 28 26 29 27 30 28 31 29 32 30 34 31 35 32 36
REMARK SMILES IDX 93 37 33 38 92 39 34 40 35 41 36 42 86 43 37 44 91 45 85 46
REMARK SMILES IDX 87 47 38 48 90 49 84 50 83 51 39 53 71 54 51 55 70 56 52 57
REMARK SMILES IDX 55 58 69 59 88 60 53 61 54 62 68 64 89 65 56 66 40 67 41 68
REMARK SMILES IDX 49 69 42 70 43 71 47 72 50 73 44 74 45 75 48 76 46 77 72 78
REMARK SMILES IDX 73 79 81 80 74 81 75 82 79 83 82 84 76 85 77 86 80 87 78 88
REMARK SMILES IDX 57 89 58 90 66 91 59 92 60 93 64 94 67 95 61 96 62 97 65 98
REMARK SMILES IDX 63 99
REMARK H PARENT 21 7 11 17 16 27 28 33 87 52 55 63
REMARK Flexibility Score: inf
ROOT
ATOM      1  C   UNL A   1      35.508  24.360  24.993  1.00  0.00     0.002 C 
ENDROOT
BRANCH   1   2
ATOM      2  C   UNL A   1      34.215  25.116  25.348  1.00  0.00     0.021 C 
BRANCH   2   3
ATOM      3  C   UNL A   1      33.828  26.394  24.592  1.00  0.00     0.116 C 
BRANCH   3   4
ATOM      4  N   UNL A   1      33.529  27.589  25.344  1.00  0.00    -0.352 N 
ATOM      5  C   UNL A   1      32.348  28.288  25.535  1.00  0.00     0.253 C 
ATOM      6  O   UNL A   1      32.382  29.079  26.490  1.00  0.00    -0.269 OA
ATOM      7  H   UNL A   1      34.306  27.977  25.806  1.00  0.00     0.163 HD
BRANCH   5   8
ATOM      8  C   UNL A   1      31.105  28.327  24.656  1.00  0.00     0.067 A 
ATOM      9  C   UNL A   1      30.254  27.321  24.156  1.00  0.00     0.054 A 
ATOM     10  C   UNL A   1      29.265  27.628  23.186  1.00  0.00     0.031 A 
ATOM     11  C   UNL A   1      29.024  28.923  22.765  1.00  0.00     0.048 A 
ATOM     12  C   UNL A   1      30.818  29.649  24.202  1.00  0.00     0.062 A 
ATOM     13  C   UNL A   1      29.794  29.932  23.293  1.00  0.00     0.116 A 
BRANCH   9  14
ATOM     14  N   UNL A   1      30.208  25.962  24.472  1.00  0.00    -0.322 N 
ATOM     15  O   UNL A   1      30.301  25.960  26.779  1.00  0.00    -0.270 OA
ATOM     16  C   UNL A   1      30.323  25.385  25.706  1.00  0.00     0.248 C 
ATOM     17  H   UNL A   1      30.078  25.345  23.715  1.00  0.00     0.170 HD
BRANCH  16  18
ATOM     18  C   UNL A   1      30.655  23.929  25.633  1.00  0.00     0.072 C 
ATOM     19  C   UNL A   1      31.131  23.326  24.529  1.00  0.00     0.014 C 
BRANCH  19  20
ATOM     20  C   UNL A   1      32.037  22.191  24.650  1.00  0.00    -0.025 A 
ATOM     21  C   UNL A   1      32.586  21.954  25.924  1.00  0.00     0.008 A 
ATOM     22  C   UNL A   1      32.236  21.287  23.613  1.00  0.00     0.008 A 
ATOM     23  C   UNL A   1      33.256  20.775  26.187  1.00  0.00     0.001 A 
ATOM     24  C   UNL A   1      32.907  20.108  23.878  1.00  0.00     0.001 A 
ATOM     25  C   UNL A   1      33.399  19.859  25.164  1.00  0.00     0.000 A 
ENDBRANCH  19  20
ENDBRANCH  16  18
ENDBRANCH   9  14
BRANCH  13  26
ATOM     26  O   UNL A   1      29.521  31.201  22.878  1.00  0.00    -0.508 OA
ATOM     27  H   UNL A   1      30.199  31.847  22.868  1.00  0.00     0.293 HD
ENDBRANCH  13  26
ENDBRANCH   5   8
ENDBRANCH   3   4
ENDBRANCH   2   3
ENDBRANCH   1   2
BRANCH   1  28
ATOM     28  C   UNL A   1      35.492  23.211  23.964  1.00  0.00     0.002 C 
BRANCH  28  29
ATOM     29  C   UNL A   1      36.629  22.146  23.902  1.00  0.00     0.021 C 
BRANCH  29  30
ATOM     30  C   UNL A   1      36.697  21.058  25.006  1.00  0.00     0.116 C 
BRANCH  30  31
ATOM     31  N   UNL A   1      38.046  20.524  25.293  1.00  0.00    -0.352 N 
ATOM     32  C   UNL A   1      39.209  20.868  25.953  1.00  0.00     0.251 C 
ATOM     33  H   UNL A   1      38.148  19.636  24.879  1.00  0.00     0.163 HD
ATOM     34  O   UNL A   1      39.996  19.942  26.181  1.00  0.00    -0.269 OA
BRANCH  32  35
ATOM     35  C   UNL A   1      39.692  22.226  26.338  1.00  0.00     0.039 A 
ATOM     36  C   UNL A   1      40.865  22.304  27.105  1.00  0.00     0.014 A 
ATOM     37  C   UNL A   1      38.989  23.408  26.178  1.00  0.00     0.014 A 
ATOM     38  C   UNL A   1      41.372  23.537  27.579  1.00  0.00     0.010 A 
ATOM     39  C   UNL A   1      39.583  24.663  26.512  1.00  0.00     0.010 A 
ATOM     40  C   UNL A   1      40.794  24.767  27.221  1.00  0.00    -0.014 A 
BRANCH  40  41
ATOM     41  C   UNL A   1      41.447  26.089  27.619  1.00  0.00     0.031 A 
ATOM     42  C   UNL A   1      42.857  26.475  27.177  1.00  0.00     0.074 A 
ATOM     43  C   UNL A   1      40.793  26.985  28.406  1.00  0.00     0.049 A 
ATOM     44  N   UNL A   1      43.542  27.576  27.417  1.00  0.00    -0.248 NA
ATOM     45  C   UNL A   1      43.618  25.486  26.402  1.00  0.00     0.031 C 
ATOM     46  C   UNL A   1      39.483  26.774  29.028  1.00  0.00     0.029 A 
ATOM     47  N   UNL A   1      41.132  28.262  28.821  1.00  0.00    -0.354 N 
ATOM     48  C   UNL A   1      44.803  27.387  26.852  1.00  0.00     0.074 A 
ATOM     49  C   UNL A   1      44.822  26.037  26.339  1.00  0.00     0.031 C 
ATOM     50  C   UNL A   1      39.102  27.888  29.673  1.00  0.00     0.029 A 
ATOM     51  C   UNL A   1      40.153  28.893  29.563  1.00  0.00     0.049 A 
ATOM     52  H   UNL A   1      41.994  28.684  28.605  1.00  0.00     0.167 HD
ATOM     53  C   UNL A   1      45.839  28.256  26.710  1.00  0.00     0.037 A 
ATOM     54  C   UNL A   1      40.087  30.136  30.092  1.00  0.00     0.037 A 
ATOM     55  C   UNL A   1      45.831  29.626  27.156  1.00  0.00     0.049 A 
ATOM     56  C   UNL A   1      41.230  31.100  29.891  1.00  0.00     0.074 A 
ATOM     57  C   UNL A   1      46.805  30.599  26.983  1.00  0.00     0.029 A 
ATOM     58  N   UNL A   1      44.796  30.223  27.858  1.00  0.00    -0.354 N 
ATOM     59  N   UNL A   1      42.361  30.923  29.257  1.00  0.00    -0.248 NA
ATOM     60  C   UNL A   1      41.076  32.447  30.468  1.00  0.00     0.031 C 
ATOM     61  C   UNL A   1      46.378  31.769  27.619  1.00  0.00     0.029 A 
ATOM     62  C   UNL A   1      45.114  31.545  28.134  1.00  0.00     0.049 A 
ATOM     63  H   UNL A   1      43.960  29.776  28.120  1.00  0.00     0.167 HD
ATOM     64  C   UNL A   1      43.031  32.140  29.321  1.00  0.00     0.074 A 
ATOM     65  C   UNL A   1      42.174  33.054  30.041  1.00  0.00     0.031 C 
ATOM     66  C   UNL A   1      44.251  32.465  28.828  1.00  0.00     0.037 A 
BRANCH  53  67
ATOM     67  C   UNL A   1      47.077  27.769  25.994  1.00  0.00     0.064 A 
ATOM     68  C   UNL A   1      48.177  27.254  26.700  1.00  0.00     0.173 A 
ATOM     69  C   UNL A   1      47.144  27.758  24.590  1.00  0.00     0.173 A 
ATOM     70  F   UNL A   1      48.171  27.236  28.040  1.00  0.00    -0.203 F 
ATOM     71  C   UNL A   1      49.309  26.790  26.033  1.00  0.00     0.198 A 
ATOM     72  C   UNL A   1      48.262  27.255  23.927  1.00  0.00     0.198 A 
ATOM     73  F   UNL A   1      46.117  28.215  23.860  1.00  0.00    -0.203 F 
ATOM     74  F   UNL A   1      50.368  26.361  26.734  1.00  0.00    -0.200 F 
ATOM     75  C   UNL A   1      49.348  26.783  24.648  1.00  0.00     0.200 A 
ATOM     76  F   UNL A   1      48.289  27.228  22.586  1.00  0.00    -0.200 F 
ATOM     77  F   UNL A   1      50.434  26.326  24.008  1.00  0.00    -0.200 F 
ENDBRANCH  53  67
BRANCH  54  78
ATOM     78  C   UNL A   1      38.866  30.582  30.833  1.00  0.00     0.064 A 
ATOM     79  C   UNL A   1      37.784  31.166  30.156  1.00  0.00     0.173 A 
ATOM     80  C   UNL A   1      38.772  30.477  32.229  1.00  0.00     0.173 A 
ATOM     81  F   UNL A   1      37.831  31.319  28.825  1.00  0.00    -0.203 F 
ATOM     82  C   UNL A   1      36.673  31.652  30.846  1.00  0.00     0.198 A 
ATOM     83  C   UNL A   1      37.644  30.931  32.914  1.00  0.00     0.198 A 
ATOM     84  F   UNL A   1      39.774  29.930  32.931  1.00  0.00    -0.203 F 
ATOM     85  F   UNL A   1      35.685  32.264  30.176  1.00  0.00    -0.200 F 
ATOM     86  C   UNL A   1      36.601  31.529  32.224  1.00  0.00     0.200 A 
ATOM     87  F   UNL A   1      37.573  30.797  34.246  1.00  0.00    -0.200 F 
ATOM     88  F   UNL A   1      35.533  31.995  32.887  1.00  0.00    -0.200 F 
ENDBRANCH  54  78
BRANCH  66  89
ATOM     89  C   UNL A   1      44.715  33.885  28.989  1.00  0.00     0.064 A 
ATOM     90  C   UNL A   1      45.479  34.296  30.090  1.00  0.00     0.173 A 
ATOM     91  C   UNL A   1      44.418  34.842  28.005  1.00  0.00     0.173 A 
ATOM     92  F   UNL A   1      45.783  33.427  31.065  1.00  0.00    -0.203 F 
ATOM     93  C   UNL A   1      45.900  35.619  30.218  1.00  0.00     0.198 A 
ATOM     94  C   UNL A   1      44.870  36.153  28.118  1.00  0.00     0.198 A 
ATOM     95  F   UNL A   1      43.699  34.501  26.925  1.00  0.00    -0.203 F 
ATOM     96  F   UNL A   1      46.582  36.001  31.307  1.00  0.00    -0.200 F 
ATOM     97  C   UNL A   1      45.602  36.544  29.228  1.00  0.00     0.200 A 
ATOM     98  F   UNL A   1      44.594  37.041  27.152  1.00  0.00    -0.200 F 
ATOM     99  F   UNL A   1      46.013  37.814  29.350  1.00  0.00    -0.200 F 
ENDBRANCH  66  89
ENDBRANCH  40  41
ENDBRANCH  32  35
ENDBRANCH  30  31
ENDBRANCH  29  30
ENDBRANCH  28  29
ENDBRANCH   1  28
TORSDOF 17
ENDMDL
MODEL 2
REMARK VINA RESULT:     -12.2      4.458     10.349
REMARK SMILES O=C(/C=C/c1ccccc1)Nc1ccc(O)cc1C(=O)NCCCCCCNC(=O)c1ccc(-c2c3nc(c(-c4c(F)c(F)c(F)c(F)c4F)c4ccc([nH]4)c(-c4c(F)c(F)c(F)c(F)c4F)c4nc(c(-c5c(F)c(F)c(F)c(F)c5F)c5ccc2[nH]5)C=C4)C=C3)cc1
REMARK SMILES IDX 24 1 23 2 22 3 21 4 19 5 20 6 18 8 12 9 13 10 14 11 17 12
REMARK SMILES IDX 15 13 11 14 1 15 2 16 3 18 4 19 5 20 6 21 10 22 7 23 9 24
REMARK SMILES IDX 8 25 16 26 25 28 26 29 27 30 28 31 29 32 30 34 31 35 32 36
REMARK SMILES IDX 93 37 33 38 92 39 34 40 35 41 36 42 86 43 37 44 91 45 85 46
REMARK SMILES IDX 87 47 38 48 90 49 84 50 83 51 39 53 71 54 51 55 70 56 52 57
REMARK SMILES IDX 55 58 69 59 88 60 53 61 54 62 68 64 89 65 56 66 40 67 41 68
REMARK SMILES IDX 49 69 42 70 43 71 47 72 50 73 44 74 45 75 48 76 46 77 72 78
REMARK SMILES IDX 73 79 81 80 74 81 75 82 79 83 82 84 76 85 77 86 80 87 78 88
REMARK SMILES IDX 57 89 58 90 66 91 59 92 60 93 64 94 67 95 61 96 62 97 65 98
REMARK SMILES IDX 63 99
REMARK H PARENT 21 7 11 17 16 27 28 33 87 52 55 63
REMARK Flexibility Score: inf
ROOT
ATOM      1  C   UNL A   1      32.600  28.659  27.189  1.00  0.00     0.002 C 
ENDROOT
BRANCH   1   2
ATOM      2  C   UNL A   1      31.477  27.677  26.810  1.00  0.00     0.021 C 
BRANCH   2   3
ATOM      3  C   UNL A   1      31.804  26.220  26.455  1.00  0.00     0.116 C 
BRANCH   3   4
ATOM      4  N   UNL A   1      30.865  25.185  26.813  1.00  0.00    -0.352 N 
ATOM      5  C   UNL A   1      30.809  23.838  26.490  1.00  0.00     0.253 C 
ATOM      6  O   UNL A   1      30.055  23.178  27.222  1.00  0.00    -0.269 OA
ATOM      7  H   UNL A   1      30.132  25.491  27.393  1.00  0.00     0.163 HD
BRANCH   5   8
ATOM      8  C   UNL A   1      31.409  23.114  25.292  1.00  0.00     0.067 A 
ATOM      9  C   UNL A   1      31.366  23.358  23.905  1.00  0.00     0.054 A 
ATOM     10  C   UNL A   1      31.862  22.398  22.986  1.00  0.00     0.031 A 
ATOM     11  C   UNL A   1      32.494  21.240  23.402  1.00  0.00     0.048 A 
ATOM     12  C   UNL A   1      32.075  21.913  25.679  1.00  0.00     0.062 A 
ATOM     13  C   UNL A   1      32.613  21.013  24.753  1.00  0.00     0.116 A 
BRANCH   9  14
ATOM     14  N   UNL A   1      30.880  24.472  23.217  1.00  0.00    -0.322 N 
ATOM     15  O   UNL A   1      32.729  25.846  23.076  1.00  0.00    -0.270 OA
ATOM     16  C   UNL A   1      31.538  25.637  22.938  1.00  0.00     0.248 C 
ATOM     17  H   UNL A   1      29.951  24.410  22.895  1.00  0.00     0.170 HD
BRANCH  16  18
ATOM     18  C   UNL A   1      30.609  26.752  22.578  1.00  0.00     0.072 C 
ATOM     19  C   UNL A   1      29.702  27.271  23.425  1.00  0.00     0.014 C 
BRANCH  19  20
ATOM     20  C   UNL A   1      29.334  28.677  23.328  1.00  0.00    -0.025 A 
ATOM     21  C   UNL A   1      28.054  28.962  22.816  1.00  0.00     0.008 A 
ATOM     22  C   UNL A   1      30.129  29.690  23.853  1.00  0.00     0.008 A 
ATOM     23  C   UNL A   1      27.533  30.238  22.910  1.00  0.00     0.001 A 
ATOM     24  C   UNL A   1      29.606  30.967  23.946  1.00  0.00     0.001 A 
ATOM     25  C   UNL A   1      28.310  31.224  23.485  1.00  0.00     0.000 A 
ENDBRANCH  19  20
ENDBRANCH  16  18
ENDBRANCH   9  14
BRANCH  13  26
ATOM     26  O   UNL A   1      33.259  19.875  25.135  1.00  0.00    -0.508 OA
ATOM     27  H   UNL A   1      33.895  19.486  24.570  1.00  0.00     0.293 HD
ENDBRANCH  13  26
ENDBRANCH   5   8
ENDBRANCH   3   4
ENDBRANCH   2   3
ENDBRANCH   1   2
BRANCH   1  28
ATOM     28  C   UNL A   1      32.673  30.060  26.548  1.00  0.00     0.002 C 
BRANCH  28  29
ATOM     29  C   UNL A   1      31.829  31.256  27.087  1.00  0.00     0.021 C 
BRANCH  29  30
ATOM     30  C   UNL A   1      32.046  32.662  26.470  1.00  0.00     0.116 C 
BRANCH  30  31
ATOM     31  N   UNL A   1      32.053  33.787  27.431  1.00  0.00    -0.352 N 
ATOM     32  C   UNL A   1      32.907  34.443  28.296  1.00  0.00     0.251 C 
ATOM     33  H   UNL A   1      31.161  34.201  27.466  1.00  0.00     0.163 HD
ATOM     34  O   UNL A   1      32.534  35.555  28.685  1.00  0.00    -0.269 OA
BRANCH  32  35
ATOM     35  C   UNL A   1      34.174  33.944  28.906  1.00  0.00     0.039 A 
ATOM     36  C   UNL A   1      34.087  32.842  29.770  1.00  0.00     0.014 A 
ATOM     37  C   UNL A   1      35.401  34.583  28.855  1.00  0.00     0.014 A 
ATOM     38  C   UNL A   1      35.217  32.332  30.452  1.00  0.00     0.010 A 
ATOM     39  C   UNL A   1      36.567  33.973  29.409  1.00  0.00     0.010 A 
ATOM     40  C   UNL A   1      36.512  32.827  30.224  1.00  0.00    -0.014 A 
BRANCH  40  41
ATOM     41  C   UNL A   1      37.733  32.162  30.856  1.00  0.00     0.031 A 
ATOM     42  C   UNL A   1      38.209  32.492  32.269  1.00  0.00     0.074 A 
ATOM     43  C   UNL A   1      38.466  31.246  30.169  1.00  0.00     0.049 A 
ATOM     44  N   UNL A   1      39.220  31.994  32.954  1.00  0.00    -0.248 NA
ATOM     45  C   UNL A   1      37.490  33.545  32.998  1.00  0.00     0.031 C 
ATOM     46  C   UNL A   1      38.254  30.862  28.770  1.00  0.00     0.029 A 
ATOM     47  N   UNL A   1      39.540  30.457  30.547  1.00  0.00    -0.354 N 
ATOM     48  C   UNL A   1      39.263  32.692  34.159  1.00  0.00     0.074 A 
ATOM     49  C   UNL A   1      38.240  33.709  34.078  1.00  0.00     0.031 C 
ATOM     50  C   UNL A   1      39.104  29.879  28.435  1.00  0.00     0.029 A 
ATOM     51  C   UNL A   1      39.967  29.578  29.572  1.00  0.00     0.049 A 
ATOM     52  H   UNL A   1      39.961  30.517  31.435  1.00  0.00     0.167 HD
ATOM     53  C   UNL A   1      40.031  32.491  35.263  1.00  0.00     0.037 A 
ATOM     54  C   UNL A   1      40.931  28.629  29.576  1.00  0.00     0.037 A 
ATOM     55  C   UNL A   1      41.018  31.450  35.400  1.00  0.00     0.049 A 
ATOM     56  C   UNL A   1      41.747  28.392  30.823  1.00  0.00     0.074 A 
ATOM     57  C   UNL A   1      41.784  31.122  36.509  1.00  0.00     0.029 A 
ATOM     58  N   UNL A   1      41.374  30.561  34.398  1.00  0.00    -0.354 N 
ATOM     59  N   UNL A   1      41.685  28.999  31.982  1.00  0.00    -0.248 NA
ATOM     60  C   UNL A   1      42.757  27.322  30.766  1.00  0.00     0.031 C 
ATOM     61  C   UNL A   1      42.633  30.067  36.164  1.00  0.00     0.029 A 
ATOM     62  C   UNL A   1      42.355  29.696  34.861  1.00  0.00     0.049 A 
ATOM     63  H   UNL A   1      40.988  30.546  33.493  1.00  0.00     0.167 HD
ATOM     64  C   UNL A   1      42.611  28.361  32.798  1.00  0.00     0.074 A 
ATOM     65  C   UNL A   1      43.211  27.308  32.012  1.00  0.00     0.031 C 
ATOM     66  C   UNL A   1      42.935  28.630  34.087  1.00  0.00     0.037 A 
BRANCH  53  67
ATOM     67  C   UNL A   1      39.807  33.391  36.455  1.00  0.00     0.064 A 
ATOM     68  C   UNL A   1      38.879  33.063  37.458  1.00  0.00     0.173 A 
ATOM     69  C   UNL A   1      40.566  34.560  36.632  1.00  0.00     0.173 A 
ATOM     70  F   UNL A   1      38.127  31.958  37.346  1.00  0.00    -0.203 F 
ATOM     71  C   UNL A   1      38.689  33.888  38.564  1.00  0.00     0.198 A 
ATOM     72  C   UNL A   1      40.401  35.362  37.761  1.00  0.00     0.198 A 
ATOM     73  F   UNL A   1      41.484  34.916  35.722  1.00  0.00    -0.203 F 
ATOM     74  F   UNL A   1      37.754  33.581  39.473  1.00  0.00    -0.200 F 
ATOM     75  C   UNL A   1      39.456  35.032  38.719  1.00  0.00     0.200 A 
ATOM     76  F   UNL A   1      41.160  36.456  37.921  1.00  0.00    -0.200 F 
ATOM     77  F   UNL A   1      39.279  35.819  39.790  1.00  0.00    -0.200 F 
ENDBRANCH  53  67
BRANCH  54  78
ATOM     78  C   UNL A   1      41.162  27.776  28.370  1.00  0.00     0.064 A 
ATOM     79  C   UNL A   1      42.086  28.156  27.383  1.00  0.00     0.173 A 
ATOM     80  C   UNL A   1      40.439  26.593  28.154  1.00  0.00     0.173 A 
ATOM     81  F   UNL A   1      42.783  29.293  27.521  1.00  0.00    -0.203 F 
ATOM     82  C   UNL A   1      42.255  27.405  26.219  1.00  0.00     0.198 A 
ATOM     83  C   UNL A   1      40.636  25.824  27.007  1.00  0.00     0.198 A 
ATOM     84  F   UNL A   1      39.542  26.179  29.060  1.00  0.00    -0.203 F 
ATOM     85  F   UNL A   1      43.097  27.830  25.266  1.00  0.00    -0.200 F 
ATOM     86  C   UNL A   1      41.535  26.236  26.034  1.00  0.00     0.200 A 
ATOM     87  F   UNL A   1      39.947  24.686  26.838  1.00  0.00    -0.200 F 
ATOM     88  F   UNL A   1      41.697  25.514  24.917  1.00  0.00    -0.200 F 
ENDBRANCH  54  78
BRANCH  66  89
ATOM     89  C   UNL A   1      43.940  27.736  34.757  1.00  0.00     0.064 A 
ATOM     90  C   UNL A   1      43.569  26.534  35.376  1.00  0.00     0.173 A 
ATOM     91  C   UNL A   1      45.303  28.073  34.748  1.00  0.00     0.173 A 
ATOM     92  F   UNL A   1      42.279  26.168  35.423  1.00  0.00    -0.203 F 
ATOM     93  C   UNL A   1      44.519  25.720  35.990  1.00  0.00     0.198 A 
ATOM     94  C   UNL A   1      46.253  27.240  35.331  1.00  0.00     0.198 A 
ATOM     95  F   UNL A   1      45.716  29.207  34.161  1.00  0.00    -0.203 F 
ATOM     96  F   UNL A   1      44.132  24.604  36.624  1.00  0.00    -0.200 F 
ATOM     97  C   UNL A   1      45.860  26.070  35.960  1.00  0.00     0.200 A 
ATOM     98  F   UNL A   1      47.552  27.573  35.286  1.00  0.00    -0.200 F 
ATOM     99  F   UNL A   1      46.773  25.282  36.546  1.00  0.00    -0.200 F 
ENDBRANCH  66  89
ENDBRANCH  40  41
ENDBRANCH  32  35
ENDBRANCH  30  31
ENDBRANCH  29  30
ENDBRANCH  28  29
ENDBRANCH   1  28
TORSDOF 17
ENDMDL
MODEL 3
REMARK VINA RESULT:     -12.1      4.192      9.947
REMARK SMILES O=C(/C=C/c1ccccc1)Nc1ccc(O)cc1C(=O)NCCCCCCNC(=O)c1ccc(-c2c3nc(c(-c4c(F)c(F)c(F)c(F)c4F)c4ccc([nH]4)c(-c4c(F)c(F)c(F)c(F)c4F)c4nc(c(-c5c(F)c(F)c(F)c(F)c5F)c5ccc2[nH]5)C=C4)C=C3)cc1
REMARK SMILES IDX 24 1 23 2 22 3 21 4 19 5 20 6 18 8 12 9 13 10 14 11 17 12
REMARK SMILES IDX 15 13 11 14 1 15 2 16 3 18 4 19 5 20 6 21 10 22 7 23 9 24
REMARK SMILES IDX 8 25 16 26 25 28 26 29 27 30 28 31 29 32 30 34 31 35 32 36
REMARK SMILES IDX 93 37 33 38 92 39 34 40 35 41 36 42 86 43 37 44 91 45 85 46
REMARK SMILES IDX 87 47 38 48 90 49 84 50 83 51 39 53 71 54 51 55 70 56 52 57
REMARK SMILES IDX 55 58 69 59 88 60 53 61 54 62 68 64 89 65 56 66 40 67 41 68
REMARK SMILES IDX 49 69 42 70 43 71 47 72 50 73 44 74 45 75 48 76 46 77 72 78
REMARK SMILES IDX 73 79 81 80 74 81 75 82 79 83 82 84 76 85 77 86 80 87 78 88
REMARK SMILES IDX 57 89 58 90 66 91 59 92 60 93 64 94 67 95 61 96 62 97 65 98
REMARK SMILES IDX 63 99
REMARK H PARENT 21 7 11 17 16 27 28 33 87 52 55 63
REMARK Flexibility Score: inf
ROOT
ATOM      1  C   UNL A   1      32.666  26.961  25.800  1.00  0.00     0.002 C 
ENDROOT
BRANCH   1   2
ATOM      2  C   UNL A   1      33.321  25.574  25.928  1.00  0.00     0.021 C 
BRANCH   2   3
ATOM      3  C   UNL A   1      32.460  24.325  26.159  1.00  0.00     0.116 C 
BRANCH   3   4
ATOM      4  N   UNL A   1      32.987  23.253  26.969  1.00  0.00    -0.352 N 
ATOM      5  C   UNL A   1      33.442  21.986  26.639  1.00  0.00     0.253 C 
ATOM      6  O   UNL A   1      34.118  21.449  27.530  1.00  0.00    -0.269 OA
ATOM      7  H   UNL A   1      33.032  23.460  27.929  1.00  0.00     0.163 HD
BRANCH   5   8
ATOM      8  C   UNL A   1      33.100  21.130  25.427  1.00  0.00     0.067 A 
ATOM      9  C   UNL A   1      32.902  21.434  24.065  1.00  0.00     0.054 A 
ATOM     10  C   UNL A   1      32.394  20.454  23.173  1.00  0.00     0.031 A 
ATOM     11  C   UNL A   1      32.167  19.148  23.566  1.00  0.00     0.048 A 
ATOM     12  C   UNL A   1      32.861  19.770  25.789  1.00  0.00     0.062 A 
ATOM     13  C   UNL A   1      32.421  18.809  24.874  1.00  0.00     0.116 A 
BRANCH   9  14
ATOM     14  N   UNL A   1      33.137  22.628  23.381  1.00  0.00    -0.322 N 
ATOM     15  O   UNL A   1      35.441  22.777  23.370  1.00  0.00    -0.270 OA
ATOM     16  C   UNL A   1      34.337  23.247  23.166  1.00  0.00     0.248 C 
ATOM     17  H   UNL A   1      32.344  23.079  23.010  1.00  0.00     0.170 HD
BRANCH  16  18
ATOM     18  C   UNL A   1      34.183  24.686  22.787  1.00  0.00     0.072 C 
ATOM     19  C   UNL A   1      33.245  25.137  21.936  1.00  0.00     0.014 C 
BRANCH  19  20
ATOM     20  C   UNL A   1      32.691  26.474  22.104  1.00  0.00    -0.025 A 
ATOM     21  C   UNL A   1      31.292  26.567  22.232  1.00  0.00     0.008 A 
ATOM     22  C   UNL A   1      33.496  27.593  22.287  1.00  0.00     0.008 A 
ATOM     23  C   UNL A   1      30.705  27.753  22.630  1.00  0.00     0.001 A 
ATOM     24  C   UNL A   1      32.906  28.779  22.684  1.00  0.00     0.001 A 
ATOM     25  C   UNL A   1      31.520  28.842  22.864  1.00  0.00     0.000 A 
ENDBRANCH  19  20
ENDBRANCH  16  18
ENDBRANCH   9  14
BRANCH  13  26
ATOM     26  O   UNL A   1      32.209  17.510  25.229  1.00  0.00    -0.508 OA
ATOM     27  H   UNL A   1      32.931  16.916  25.285  1.00  0.00     0.293 HD
ENDBRANCH  13  26
ENDBRANCH   5   8
ENDBRANCH   3   4
ENDBRANCH   2   3
ENDBRANCH   1   2
BRANCH   1  28
ATOM     28  C   UNL A   1      31.614  27.433  26.824  1.00  0.00     0.002 C 
BRANCH  28  29
ATOM     29  C   UNL A   1      31.512  28.924  27.271  1.00  0.00     0.021 C 
BRANCH  29  30
ATOM     30  C   UNL A   1      31.732  30.039  26.216  1.00  0.00     0.116 C 
BRANCH  30  31
ATOM     31  N   UNL A   1      32.076  31.372  26.758  1.00  0.00    -0.352 N 
ATOM     32  C   UNL A   1      33.150  32.063  27.284  1.00  0.00     0.251 C 
ATOM     33  H   UNL A   1      31.282  31.955  26.738  1.00  0.00     0.163 HD
ATOM     34  O   UNL A   1      33.034  33.293  27.326  1.00  0.00    -0.269 OA
BRANCH  32  35
ATOM     35  C   UNL A   1      34.391  31.517  27.906  1.00  0.00     0.039 A 
ATOM     36  C   UNL A   1      35.386  32.433  28.279  1.00  0.00     0.014 A 
ATOM     37  C   UNL A   1      34.739  30.178  27.973  1.00  0.00     0.014 A 
ATOM     38  C   UNL A   1      36.628  32.016  28.815  1.00  0.00     0.010 A 
ATOM     39  C   UNL A   1      35.918  29.763  28.663  1.00  0.00     0.010 A 
ATOM     40  C   UNL A   1      36.899  30.669  29.107  1.00  0.00    -0.014 A 
BRANCH  40  41
ATOM     41  C   UNL A   1      38.184  30.261  29.825  1.00  0.00     0.031 A 
ATOM     42  C   UNL A   1      38.497  30.692  31.257  1.00  0.00     0.074 A 
ATOM     43  C   UNL A   1      39.122  29.497  29.204  1.00  0.00     0.049 A 
ATOM     44  N   UNL A   1      39.540  30.407  32.011  1.00  0.00    -0.248 NA
ATOM     45  C   UNL A   1      37.543  31.593  31.917  1.00  0.00     0.031 C 
ATOM     46  C   UNL A   1      39.077  29.066  27.804  1.00  0.00     0.029 A 
ATOM     47  N   UNL A   1      40.302  28.937  29.664  1.00  0.00    -0.354 N 
ATOM     48  C   UNL A   1      39.371  31.113  33.201  1.00  0.00     0.074 A 
ATOM     49  C   UNL A   1      38.178  31.911  33.036  1.00  0.00     0.031 C 
ATOM     50  C   UNL A   1      40.120  28.263  27.543  1.00  0.00     0.029 A 
ATOM     51  C   UNL A   1      40.952  28.148  28.735  1.00  0.00     0.049 A 
ATOM     52  H   UNL A   1      40.646  29.086  30.573  1.00  0.00     0.167 HD
ATOM     53  C   UNL A   1      40.092  31.076  34.354  1.00  0.00     0.037 A 
ATOM     54  C   UNL A   1      42.078  27.405  28.818  1.00  0.00     0.037 A 
ATOM     55  C   UNL A   1      41.252  30.249  34.572  1.00  0.00     0.049 A 
ATOM     56  C   UNL A   1      42.845  27.343  30.117  1.00  0.00     0.074 A 
ATOM     57  C   UNL A   1      41.995  30.088  35.733  1.00  0.00     0.029 A 
ATOM     58  N   UNL A   1      41.835  29.436  33.614  1.00  0.00    -0.354 N 
ATOM     59  N   UNL A   1      42.594  27.939  31.256  1.00  0.00    -0.248 NA
ATOM     60  C   UNL A   1      44.045  26.489  30.145  1.00  0.00     0.031 C 
ATOM     61  C   UNL A   1      43.052  29.214  35.462  1.00  0.00     0.029 A 
ATOM     62  C   UNL A   1      42.933  28.783  34.153  1.00  0.00     0.049 A 
ATOM     63  H   UNL A   1      41.517  29.336  32.688  1.00  0.00     0.167 HD
ATOM     64  C   UNL A   1      43.572  27.501  32.140  1.00  0.00     0.074 A 
ATOM     65  C   UNL A   1      44.413  26.577  31.415  1.00  0.00     0.031 C 
ATOM     66  C   UNL A   1      43.756  27.842  33.440  1.00  0.00     0.037 A 
BRANCH  53  67
ATOM     67  C   UNL A   1      39.624  31.928  35.509  1.00  0.00     0.064 A 
ATOM     68  C   UNL A   1      40.095  33.240  35.691  1.00  0.00     0.173 A 
ATOM     69  C   UNL A   1      38.650  31.459  36.407  1.00  0.00     0.173 A 
ATOM     70  F   UNL A   1      41.022  33.745  34.864  1.00  0.00    -0.203 F 
ATOM     71  C   UNL A   1      39.646  34.028  36.749  1.00  0.00     0.198 A 
ATOM     72  C   UNL A   1      38.174  32.266  37.440  1.00  0.00     0.198 A 
ATOM     73  F   UNL A   1      38.144  30.225  36.273  1.00  0.00    -0.203 F 
ATOM     74  F   UNL A   1      40.158  35.253  36.933  1.00  0.00    -0.200 F 
ATOM     75  C   UNL A   1      38.680  33.544  37.617  1.00  0.00     0.200 A 
ATOM     76  F   UNL A   1      37.223  31.805  38.265  1.00  0.00    -0.200 F 
ATOM     77  F   UNL A   1      38.241  34.309  38.627  1.00  0.00    -0.200 F 
ENDBRANCH  53  67
BRANCH  54  78
ATOM     78  C   UNL A   1      42.546  26.600  27.647  1.00  0.00     0.064 A 
ATOM     79  C   UNL A   1      42.066  25.299  27.427  1.00  0.00     0.173 A 
ATOM     80  C   UNL A   1      43.509  27.091  26.753  1.00  0.00     0.173 A 
ATOM     81  F   UNL A   1      41.166  24.766  28.267  1.00  0.00    -0.203 F 
ATOM     82  C   UNL A   1      42.550  24.513  26.381  1.00  0.00     0.198 A 
ATOM     83  C   UNL A   1      43.966  26.317  25.685  1.00  0.00     0.198 A 
ATOM     84  F   UNL A   1      44.006  28.325  26.912  1.00  0.00    -0.203 F 
ATOM     85  F   UNL A   1      42.119  23.251  26.237  1.00  0.00    -0.200 F 
ATOM     86  C   UNL A   1      43.495  25.025  25.506  1.00  0.00     0.200 A 
ATOM     87  F   UNL A   1      44.870  26.821  24.833  1.00  0.00    -0.200 F 
ATOM     88  F   UNL A   1      43.960  24.271  24.501  1.00  0.00    -0.200 F 
ENDBRANCH  54  78
BRANCH  66  89
ATOM     89  C   UNL A   1      44.871  27.167  34.189  1.00  0.00     0.064 A 
ATOM     90  C   UNL A   1      46.153  27.729  34.278  1.00  0.00     0.173 A 
ATOM     91  C   UNL A   1      44.641  25.954  34.858  1.00  0.00     0.173 A 
ATOM     92  F   UNL A   1      46.431  28.881  33.649  1.00  0.00    -0.203 F 
ATOM     93  C   UNL A   1      47.171  27.086  34.979  1.00  0.00     0.198 A 
ATOM     94  C   UNL A   1      45.650  25.333  35.587  1.00  0.00     0.198 A 
ATOM     95  F   UNL A   1      43.430  25.377  34.815  1.00  0.00    -0.203 F 
ATOM     96  F   UNL A   1      48.402  27.615  35.003  1.00  0.00    -0.200 F 
ATOM     97  C   UNL A   1      46.917  25.893  35.639  1.00  0.00     0.200 A 
ATOM     98  F   UNL A   1      45.397  24.188  36.238  1.00  0.00    -0.200 F 
ATOM     99  F   UNL A   1      47.896  25.280  36.319  1.00  0.00    -0.200 F 
ENDBRANCH  66  89
ENDBRANCH  40  41
ENDBRANCH  32  35
ENDBRANCH  30  31
ENDBRANCH  29  30
ENDBRANCH  28  29
ENDBRANCH   1  28
TORSDOF 17
ENDMDL
