MODEL 1
REMARK VINA RESULT:     -12.0      0.000      0.000
REMARK SMILES C[C@@](O)(c1ccc(Cl)cc1Cl)[C@@H](F)C(=O)NCCCCCCNC(=O)c1ccc(-c2c3nc(c(-c4c(F)c(F)c(F)c(F)c4F)c4ccc([nH]4)c(-c4c(F)c(F)c(F)c(F)c4F)c4nc(c(-c5c(F)c(F)c(F)c(F)c5F)c5ccc2[nH]5)C=C4)C=C3)cc1
REMARK SMILES IDX 19 1 18 2 17 3 16 4 14 5 15 6 12 8 13 9 2 10 1 11 3 12 4 14
REMARK SMILES IDX 5 15 10 16 6 17 9 18 11 19 7 20 8 21 20 22 21 23 22 24 23 25
REMARK SMILES IDX 24 26 25 28 26 29 27 30 88 31 28 32 87 33 29 34 30 35 31 36
REMARK SMILES IDX 81 37 32 38 86 39 80 40 82 41 33 42 85 43 79 44 78 45 34 47
REMARK SMILES IDX 66 48 46 49 65 50 47 51 50 52 64 53 83 54 48 55 49 56 63 58
REMARK SMILES IDX 84 59 51 60 35 61 36 62 44 63 37 64 38 65 42 66 45 67 39 68
REMARK SMILES IDX 40 69 43 70 41 71 67 72 68 73 76 74 69 75 70 76 74 77 77 78
REMARK SMILES IDX 71 79 72 80 75 81 73 82 52 83 53 84 61 85 54 86 55 87 59 88
REMARK SMILES IDX 62 89 56 90 57 91 60 92 58 93
REMARK H PARENT 16 7 3 13 23 27 82 46 50 57
REMARK Flexibility Score: inf
ROOT
ATOM      1  C   UNL A   1      32.398  29.885  26.735  1.00  0.00     0.002 C 
ENDROOT
BRANCH   1   2
ATOM      2  C   UNL A   1      31.723  28.597  27.208  1.00  0.00     0.021 C 
BRANCH   2   3
ATOM      3  C   UNL A   1      31.922  27.402  26.272  1.00  0.00     0.116 C 
BRANCH   3   4
ATOM      4  N   UNL A   1      31.376  26.200  26.875  1.00  0.00    -0.353 N 
ATOM      5  C   UNL A   1      31.761  24.901  26.736  1.00  0.00     0.257 C 
ATOM      6  O   UNL A   1      30.962  24.032  27.102  1.00  0.00    -0.272 OA
ATOM      7  H   UNL A   1      30.609  26.347  27.475  1.00  0.00     0.163 HD
BRANCH   5   8
ATOM      8  C   UNL A   1      33.088  24.496  26.098  1.00  0.00     0.291 C 
ATOM      9  F   UNL A   1      34.026  25.491  26.140  1.00  0.00    -0.233 F 
BRANCH   8  10
ATOM     10  C   UNL A   1      32.923  23.981  24.642  1.00  0.00     0.128 C 
ATOM     11  C   UNL A   1      33.774  24.781  23.639  1.00  0.00     0.051 C 
BRANCH  10  12
ATOM     12  O   UNL A   1      31.590  24.146  24.130  1.00  0.00    -0.382 OA
ATOM     13  H   UNL A   1      31.230  23.281  23.881  1.00  0.00     0.212 HD
ENDBRANCH  10  12
BRANCH  10  14
ATOM     14  C   UNL A   1      33.291  22.482  24.599  1.00  0.00     0.005 A 
ATOM     15  C   UNL A   1      32.337  21.548  24.129  1.00  0.00     0.010 A 
ATOM     16  C   UNL A   1      34.552  21.969  24.976  1.00  0.00     0.048 A 
ATOM     17  C   UNL A   1      32.588  20.173  24.129  1.00  0.00     0.021 A 
ATOM     18  C   UNL A   1      34.794  20.588  24.996  1.00  0.00     0.041 A 
ATOM     19  Cl  UNL A   1      35.914  22.965  25.367  1.00  0.00    -0.084 Cl
ATOM     20  C   UNL A   1      33.808  19.699  24.587  1.00  0.00     0.042 A 
ATOM     21  Cl  UNL A   1      34.108  18.006  24.623  1.00  0.00    -0.084 Cl
ENDBRANCH  10  14
ENDBRANCH   8  10
ENDBRANCH   5   8
ENDBRANCH   3   4
ENDBRANCH   2   3
ENDBRANCH   1   2
BRANCH   1  22
ATOM     22  C   UNL A   1      31.482  30.851  25.980  1.00  0.00     0.002 C 
BRANCH  22  23
ATOM     23  C   UNL A   1      31.281  32.216  26.646  1.00  0.00     0.021 C 
BRANCH  23  24
ATOM     24  C   UNL A   1      32.542  32.829  27.249  1.00  0.00     0.116 C 
BRANCH  24  25
ATOM     25  N   UNL A   1      32.348  34.219  27.627  1.00  0.00    -0.352 N 
ATOM     26  C   UNL A   1      32.949  34.939  28.628  1.00  0.00     0.251 C 
ATOM     27  H   UNL A   1      31.690  34.715  27.087  1.00  0.00     0.163 HD
ATOM     28  O   UNL A   1      32.521  36.044  28.942  1.00  0.00    -0.269 OA
BRANCH  26  29
ATOM     29  C   UNL A   1      34.112  34.370  29.341  1.00  0.00     0.039 A 
ATOM     30  C   UNL A   1      33.920  33.800  30.602  1.00  0.00     0.014 A 
ATOM     31  C   UNL A   1      35.388  34.416  28.773  1.00  0.00     0.014 A 
ATOM     32  C   UNL A   1      35.002  33.229  31.273  1.00  0.00     0.010 A 
ATOM     33  C   UNL A   1      36.452  33.788  29.413  1.00  0.00     0.010 A 
ATOM     34  C   UNL A   1      36.272  33.196  30.673  1.00  0.00    -0.014 A 
BRANCH  34  35
ATOM     35  C   UNL A   1      37.429  32.566  31.354  1.00  0.00     0.031 A 
ATOM     36  C   UNL A   1      38.148  31.418  30.703  1.00  0.00     0.074 A 
ATOM     37  C   UNL A   1      37.790  32.982  32.584  1.00  0.00     0.049 A 
ATOM     38  N   UNL A   1      39.120  30.675  31.170  1.00  0.00    -0.248 NA
ATOM     39  C   UNL A   1      37.695  31.034  29.356  1.00  0.00     0.031 C 
ATOM     40  C   UNL A   1      37.145  34.059  33.335  1.00  0.00     0.029 A 
ATOM     41  N   UNL A   1      38.780  32.538  33.424  1.00  0.00    -0.354 N 
ATOM     42  C   UNL A   1      39.379  29.730  30.185  1.00  0.00     0.074 A 
ATOM     43  C   UNL A   1      38.433  29.960  29.117  1.00  0.00     0.031 C 
ATOM     44  C   UNL A   1      37.764  34.202  34.518  1.00  0.00     0.029 A 
ATOM     45  C   UNL A   1      38.826  33.204  34.623  1.00  0.00     0.049 A 
ATOM     46  H   UNL A   1      39.401  31.810  33.188  1.00  0.00     0.167 HD
ATOM     47  C   UNL A   1      40.336  28.772  30.168  1.00  0.00     0.037 A 
ATOM     48  C   UNL A   1      39.626  33.023  35.691  1.00  0.00     0.037 A 
ATOM     49  C   UNL A   1      41.297  28.568  31.220  1.00  0.00     0.049 A 
ATOM     50  C   UNL A   1      40.683  31.952  35.642  1.00  0.00     0.074 A 
ATOM     51  C   UNL A   1      42.343  27.663  31.269  1.00  0.00     0.029 A 
ATOM     52  N   UNL A   1      41.329  29.284  32.407  1.00  0.00    -0.354 N 
ATOM     53  N   UNL A   1      40.960  31.106  34.680  1.00  0.00    -0.248 NA
ATOM     54  C   UNL A   1      41.544  31.817  36.826  1.00  0.00     0.031 C 
ATOM     55  C   UNL A   1      42.983  27.803  32.504  1.00  0.00     0.029 A 
ATOM     56  C   UNL A   1      42.367  28.828  33.204  1.00  0.00     0.049 A 
ATOM     57  H   UNL A   1      40.708  30.009  32.648  1.00  0.00     0.167 HD
ATOM     58  C   UNL A   1      42.044  30.362  35.126  1.00  0.00     0.074 A 
ATOM     59  C   UNL A   1      42.381  30.864  36.442  1.00  0.00     0.031 C 
ATOM     60  C   UNL A   1      42.700  29.353  34.504  1.00  0.00     0.037 A 
BRANCH  47  61
ATOM     61  C   UNL A   1      40.396  27.871  28.968  1.00  0.00     0.064 A 
ATOM     62  C   UNL A   1      41.195  28.180  27.856  1.00  0.00     0.173 A 
ATOM     63  C   UNL A   1      39.682  26.664  28.947  1.00  0.00     0.173 A 
ATOM     64  F   UNL A   1      41.889  29.328  27.821  1.00  0.00    -0.203 F 
ATOM     65  C   UNL A   1      41.255  27.328  26.758  1.00  0.00     0.198 A 
ATOM     66  C   UNL A   1      39.767  25.799  27.859  1.00  0.00     0.198 A 
ATOM     67  F   UNL A   1      38.907  26.318  29.987  1.00  0.00    -0.203 F 
ATOM     68  F   UNL A   1      41.988  27.666  25.688  1.00  0.00    -0.200 F 
ATOM     69  C   UNL A   1      40.548  26.134  26.763  1.00  0.00     0.200 A 
ATOM     70  F   UNL A   1      39.094  24.641  27.872  1.00  0.00    -0.200 F 
ATOM     71  F   UNL A   1      40.614  25.310  25.709  1.00  0.00    -0.200 F 
ENDBRANCH  47  61
BRANCH  48  72
ATOM     72  C   UNL A   1      39.477  33.890  36.889  1.00  0.00     0.064 A 
ATOM     73  C   UNL A   1      38.719  33.469  37.990  1.00  0.00     0.173 A 
ATOM     74  C   UNL A   1      40.076  35.156  36.954  1.00  0.00     0.173 A 
ATOM     75  F   UNL A   1      38.110  32.274  37.967  1.00  0.00    -0.203 F 
ATOM     76  C   UNL A   1      38.544  34.291  39.101  1.00  0.00     0.198 A 
ATOM     77  C   UNL A   1      39.924  35.966  38.078  1.00  0.00     0.198 A 
ATOM     78  F   UNL A   1      40.816  35.603  35.930  1.00  0.00    -0.203 F 
ATOM     79  F   UNL A   1      37.774  33.885  40.119  1.00  0.00    -0.200 F 
ATOM     80  C   UNL A   1      39.151  35.538  39.146  1.00  0.00     0.200 A 
ATOM     81  F   UNL A   1      40.524  37.163  38.124  1.00  0.00    -0.200 F 
ATOM     82  F   UNL A   1      38.984  36.328  40.215  1.00  0.00    -0.200 F 
ENDBRANCH  48  72
BRANCH  60  83
ATOM     83  C   UNL A   1      43.879  28.755  35.214  1.00  0.00     0.064 A 
ATOM     84  C   UNL A   1      45.172  29.275  35.061  1.00  0.00     0.173 A 
ATOM     85  C   UNL A   1      43.701  27.678  36.095  1.00  0.00     0.173 A 
ATOM     86  F   UNL A   1      45.394  30.294  34.218  1.00  0.00    -0.203 F 
ATOM     87  C   UNL A   1      46.250  28.722  35.747  1.00  0.00     0.198 A 
ATOM     88  C   UNL A   1      44.776  27.147  36.802  1.00  0.00     0.198 A 
ATOM     89  F   UNL A   1      42.482  27.151  36.282  1.00  0.00    -0.203 F 
ATOM     90  F   UNL A   1      47.485  29.204  35.552  1.00  0.00    -0.200 F 
ATOM     91  C   UNL A   1      46.049  27.664  36.623  1.00  0.00     0.200 A 
ATOM     92  F   UNL A   1      44.579  26.134  37.657  1.00  0.00    -0.200 F 
ATOM     93  F   UNL A   1      47.087  27.140  37.289  1.00  0.00    -0.200 F 
ENDBRANCH  60  83
ENDBRANCH  34  35
ENDBRANCH  26  29
ENDBRANCH  24  25
ENDBRANCH  23  24
ENDBRANCH  22  23
ENDBRANCH   1  22
TORSDOF 16
ENDMDL
MODEL 2
REMARK VINA RESULT:     -11.8      2.744      8.099
REMARK SMILES C[C@@](O)(c1ccc(Cl)cc1Cl)[C@@H](F)C(=O)NCCCCCCNC(=O)c1ccc(-c2c3nc(c(-c4c(F)c(F)c(F)c(F)c4F)c4ccc([nH]4)c(-c4c(F)c(F)c(F)c(F)c4F)c4nc(c(-c5c(F)c(F)c(F)c(F)c5F)c5ccc2[nH]5)C=C4)C=C3)cc1
REMARK SMILES IDX 19 1 18 2 17 3 16 4 14 5 15 6 12 8 13 9 2 10 1 11 3 12 4 14
REMARK SMILES IDX 5 15 10 16 6 17 9 18 11 19 7 20 8 21 20 22 21 23 22 24 23 25
REMARK SMILES IDX 24 26 25 28 26 29 27 30 88 31 28 32 87 33 29 34 30 35 31 36
REMARK SMILES IDX 81 37 32 38 86 39 80 40 82 41 33 42 85 43 79 44 78 45 34 47
REMARK SMILES IDX 66 48 46 49 65 50 47 51 50 52 64 53 83 54 48 55 49 56 63 58
REMARK SMILES IDX 84 59 51 60 35 61 36 62 44 63 37 64 38 65 42 66 45 67 39 68
REMARK SMILES IDX 40 69 43 70 41 71 67 72 68 73 76 74 69 75 70 76 74 77 77 78
REMARK SMILES IDX 71 79 72 80 75 81 73 82 52 83 53 84 61 85 54 86 55 87 59 88
REMARK SMILES IDX 62 89 56 90 57 91 60 92 58 93
REMARK H PARENT 16 7 3 13 23 27 82 46 50 57
REMARK Flexibility Score: inf
ROOT
ATOM      1  C   UNL A   1      34.398  31.973  28.752  1.00  0.00     0.002 C 
ENDROOT
BRANCH   1   2
ATOM      2  C   UNL A   1      35.201  31.286  27.646  1.00  0.00     0.021 C 
BRANCH   2   3
ATOM      3  C   UNL A   1      34.989  29.773  27.561  1.00  0.00     0.116 C 
BRANCH   3   4
ATOM      4  N   UNL A   1      33.622  29.440  27.919  1.00  0.00    -0.353 N 
ATOM      5  C   UNL A   1      32.694  28.710  27.241  1.00  0.00     0.257 C 
ATOM      6  O   UNL A   1      31.516  28.819  27.597  1.00  0.00    -0.272 OA
ATOM      7  H   UNL A   1      33.320  29.798  28.785  1.00  0.00     0.163 HD
BRANCH   5   8
ATOM      8  C   UNL A   1      33.048  27.834  26.040  1.00  0.00     0.291 C 
ATOM      9  F   UNL A   1      34.270  27.231  26.161  1.00  0.00    -0.233 F 
BRANCH   8  10
ATOM     10  C   UNL A   1      32.964  28.600  24.691  1.00  0.00     0.128 C 
ATOM     11  C   UNL A   1      33.931  28.033  23.635  1.00  0.00     0.051 C 
BRANCH  10  12
ATOM     12  O   UNL A   1      33.375  29.973  24.792  1.00  0.00    -0.382 OA
ATOM     13  H   UNL A   1      33.062  30.462  24.016  1.00  0.00     0.212 HD
ENDBRANCH  10  12
BRANCH  10  14
ATOM     14  C   UNL A   1      31.508  28.551  24.181  1.00  0.00     0.005 A 
ATOM     15  C   UNL A   1      30.829  29.763  23.907  1.00  0.00     0.010 A 
ATOM     16  C   UNL A   1      30.798  27.355  23.936  1.00  0.00     0.048 A 
ATOM     17  C   UNL A   1      29.490  29.785  23.507  1.00  0.00     0.021 A 
ATOM     18  C   UNL A   1      29.448  27.380  23.555  1.00  0.00     0.041 A 
ATOM     19  Cl  UNL A   1      31.519  25.782  24.000  1.00  0.00    -0.084 Cl
ATOM     20  C   UNL A   1      28.799  28.592  23.358  1.00  0.00     0.042 A 
ATOM     21  Cl  UNL A   1      27.142  28.615  22.902  1.00  0.00    -0.084 Cl
ENDBRANCH  10  14
ENDBRANCH   8  10
ENDBRANCH   5   8
ENDBRANCH   3   4
ENDBRANCH   2   3
ENDBRANCH   1   2
BRANCH   1  22
ATOM     22  C   UNL A   1      34.588  33.488  28.838  1.00  0.00     0.002 C 
BRANCH  22  23
ATOM     23  C   UNL A   1      33.295  34.310  28.844  1.00  0.00     0.021 C 
BRANCH  23  24
ATOM     24  C   UNL A   1      33.463  35.771  29.253  1.00  0.00     0.116 C 
BRANCH  24  25
ATOM     25  N   UNL A   1      32.637  36.117  30.397  1.00  0.00    -0.352 N 
ATOM     26  C   UNL A   1      32.735  35.694  31.699  1.00  0.00     0.251 C 
ATOM     27  H   UNL A   1      31.901  36.744  30.211  1.00  0.00     0.163 HD
ATOM     28  O   UNL A   1      31.832  35.923  32.496  1.00  0.00    -0.269 OA
BRANCH  26  29
ATOM     29  C   UNL A   1      33.932  34.946  32.136  1.00  0.00     0.039 A 
ATOM     30  C   UNL A   1      33.786  33.620  32.550  1.00  0.00     0.014 A 
ATOM     31  C   UNL A   1      35.188  35.558  32.153  1.00  0.00     0.014 A 
ATOM     32  C   UNL A   1      34.912  32.890  32.934  1.00  0.00     0.010 A 
ATOM     33  C   UNL A   1      36.317  34.810  32.473  1.00  0.00     0.010 A 
ATOM     34  C   UNL A   1      36.189  33.471  32.875  1.00  0.00    -0.014 A 
BRANCH  34  35
ATOM     35  C   UNL A   1      37.402  32.704  33.248  1.00  0.00     0.031 A 
ATOM     36  C   UNL A   1      38.118  33.011  34.534  1.00  0.00     0.074 A 
ATOM     37  C   UNL A   1      37.897  31.779  32.402  1.00  0.00     0.049 A 
ATOM     38  N   UNL A   1      39.240  32.520  34.997  1.00  0.00    -0.248 NA
ATOM     39  C   UNL A   1      37.504  34.028  35.403  1.00  0.00     0.031 C 
ATOM     40  C   UNL A   1      37.315  31.420  31.108  1.00  0.00     0.029 A 
ATOM     41  N   UNL A   1      39.010  30.982  32.498  1.00  0.00    -0.354 N 
ATOM     42  C   UNL A   1      39.473  33.180  36.197  1.00  0.00     0.074 A 
ATOM     43  C   UNL A   1      38.405  34.139  36.369  1.00  0.00     0.031 C 
ATOM     44  C   UNL A   1      38.067  30.465  30.538  1.00  0.00     0.029 A 
ATOM     45  C   UNL A   1      39.203  30.171  31.407  1.00  0.00     0.049 A 
ATOM     46  H   UNL A   1      39.613  30.991  33.276  1.00  0.00     0.167 HD
ATOM     47  C   UNL A   1      40.477  32.985  37.084  1.00  0.00     0.037 A 
ATOM     48  C   UNL A   1      40.189  29.295  31.136  1.00  0.00     0.037 A 
ATOM     49  C   UNL A   1      41.520  32.006  36.925  1.00  0.00     0.049 A 
ATOM     50  C   UNL A   1      41.291  29.097  32.142  1.00  0.00     0.074 A 
ATOM     51  C   UNL A   1      42.548  31.691  37.796  1.00  0.00     0.029 A 
ATOM     52  N   UNL A   1      41.663  31.181  35.820  1.00  0.00    -0.354 N 
ATOM     53  N   UNL A   1      41.467  29.682  33.303  1.00  0.00    -0.248 NA
ATOM     54  C   UNL A   1      42.328  28.111  31.804  1.00  0.00     0.031 C 
ATOM     55  C   UNL A   1      43.339  30.704  37.200  1.00  0.00     0.029 A 
ATOM     56  C   UNL A   1      42.775  30.369  35.979  1.00  0.00     0.049 A 
ATOM     57  H   UNL A   1      41.065  31.173  35.039  1.00  0.00     0.167 HD
ATOM     58  C   UNL A   1      42.612  29.113  33.847  1.00  0.00     0.074 A 
ATOM     59  C   UNL A   1      43.082  28.130  32.894  1.00  0.00     0.031 C 
ATOM     60  C   UNL A   1      43.218  29.382  35.028  1.00  0.00     0.037 A 
BRANCH  47  61
ATOM     61  C   UNL A   1      40.494  33.846  38.315  1.00  0.00     0.064 A 
ATOM     62  C   UNL A   1      39.751  33.511  39.457  1.00  0.00     0.173 A 
ATOM     63  C   UNL A   1      41.297  34.995  38.369  1.00  0.00     0.173 A 
ATOM     64  F   UNL A   1      38.958  32.428  39.453  1.00  0.00    -0.203 F 
ATOM     65  C   UNL A   1      39.790  34.308  40.597  1.00  0.00     0.198 A 
ATOM     66  C   UNL A   1      41.357  35.774  39.521  1.00  0.00     0.198 A 
ATOM     67  F   UNL A   1      42.033  35.357  37.306  1.00  0.00    -0.203 F 
ATOM     68  F   UNL A   1      39.036  33.993  41.659  1.00  0.00    -0.200 F 
ATOM     69  C   UNL A   1      40.599  35.434  40.631  1.00  0.00     0.200 A 
ATOM     70  F   UNL A   1      42.149  36.854  39.557  1.00  0.00    -0.200 F 
ATOM     71  F   UNL A   1      40.643  36.196  41.733  1.00  0.00    -0.200 F 
ENDBRANCH  47  61
BRANCH  48  72
ATOM     72  C   UNL A   1      40.171  28.522  29.867  1.00  0.00     0.064 A 
ATOM     73  C   UNL A   1      39.493  27.298  29.781  1.00  0.00     0.173 A 
ATOM     74  C   UNL A   1      40.839  28.980  28.723  1.00  0.00     0.173 A 
ATOM     75  F   UNL A   1      38.856  26.808  30.856  1.00  0.00    -0.203 F 
ATOM     76  C   UNL A   1      39.503  26.549  28.606  1.00  0.00     0.198 A 
ATOM     77  C   UNL A   1      40.824  28.244  27.539  1.00  0.00     0.198 A 
ATOM     78  F   UNL A   1      41.498  30.147  28.750  1.00  0.00    -0.203 F 
ATOM     79  F   UNL A   1      38.888  25.360  28.566  1.00  0.00    -0.200 F 
ATOM     80  C   UNL A   1      40.165  27.026  27.484  1.00  0.00     0.200 A 
ATOM     81  F   UNL A   1      41.453  28.715  26.453  1.00  0.00    -0.200 F 
ATOM     82  F   UNL A   1      40.174  26.306  26.354  1.00  0.00    -0.200 F 
ENDBRANCH  48  72
BRANCH  60  83
ATOM     83  C   UNL A   1      44.430  28.571  35.381  1.00  0.00     0.064 A 
ATOM     84  C   UNL A   1      45.723  28.991  35.040  1.00  0.00     0.173 A 
ATOM     85  C   UNL A   1      44.295  27.381  36.113  1.00  0.00     0.173 A 
ATOM     86  F   UNL A   1      45.902  30.114  34.327  1.00  0.00    -0.203 F 
ATOM     87  C   UNL A   1      46.837  28.237  35.398  1.00  0.00     0.198 A 
ATOM     88  C   UNL A   1      45.413  26.645  36.494  1.00  0.00     0.198 A 
ATOM     89  F   UNL A   1      43.080  26.941  36.470  1.00  0.00    -0.203 F 
ATOM     90  F   UNL A   1      48.061  28.633  35.022  1.00  0.00    -0.200 F 
ATOM     91  C   UNL A   1      46.682  27.069  36.131  1.00  0.00     0.200 A 
ATOM     92  F   UNL A   1      45.262  25.524  37.214  1.00  0.00    -0.200 F 
ATOM     93  F   UNL A   1      47.756  26.350  36.482  1.00  0.00    -0.200 F 
ENDBRANCH  60  83
ENDBRANCH  34  35
ENDBRANCH  26  29
ENDBRANCH  24  25
ENDBRANCH  23  24
ENDBRANCH  22  23
ENDBRANCH   1  22
TORSDOF 16
ENDMDL
MODEL 3
REMARK VINA RESULT:     -11.7      2.058      3.213
REMARK SMILES C[C@@](O)(c1ccc(Cl)cc1Cl)[C@@H](F)C(=O)NCCCCCCNC(=O)c1ccc(-c2c3nc(c(-c4c(F)c(F)c(F)c(F)c4F)c4ccc([nH]4)c(-c4c(F)c(F)c(F)c(F)c4F)c4nc(c(-c5c(F)c(F)c(F)c(F)c5F)c5ccc2[nH]5)C=C4)C=C3)cc1
REMARK SMILES IDX 19 1 18 2 17 3 16 4 14 5 15 6 12 8 13 9 2 10 1 11 3 12 4 14
REMARK SMILES IDX 5 15 10 16 6 17 9 18 11 19 7 20 8 21 20 22 21 23 22 24 23 25
REMARK SMILES IDX 24 26 25 28 26 29 27 30 88 31 28 32 87 33 29 34 30 35 31 36
REMARK SMILES IDX 81 37 32 38 86 39 80 40 82 41 33 42 85 43 79 44 78 45 34 47
REMARK SMILES IDX 66 48 46 49 65 50 47 51 50 52 64 53 83 54 48 55 49 56 63 58
REMARK SMILES IDX 84 59 51 60 35 61 36 62 44 63 37 64 38 65 42 66 45 67 39 68
REMARK SMILES IDX 40 69 43 70 41 71 67 72 68 73 76 74 69 75 70 76 74 77 77 78
REMARK SMILES IDX 71 79 72 80 75 81 73 82 52 83 53 84 61 85 54 86 55 87 59 88
REMARK SMILES IDX 62 89 56 90 57 91 60 92 58 93
REMARK H PARENT 16 7 3 13 23 27 82 46 50 57
REMARK Flexibility Score: inf
ROOT
ATOM      1  C   UNL A   1      32.629  29.995  26.838  1.00  0.00     0.002 C 
ENDROOT
BRANCH   1   2
ATOM      2  C   UNL A   1      32.541  28.468  26.867  1.00  0.00     0.021 C 
BRANCH   2   3
ATOM      3  C   UNL A   1      33.463  27.765  25.868  1.00  0.00     0.116 C 
BRANCH   3   4
ATOM      4  N   UNL A   1      33.472  26.335  26.120  1.00  0.00    -0.353 N 
ATOM      5  C   UNL A   1      32.453  25.433  26.072  1.00  0.00     0.257 C 
ATOM      6  O   UNL A   1      32.638  24.340  26.618  1.00  0.00    -0.272 OA
ATOM      7  H   UNL A   1      34.350  25.961  26.364  1.00  0.00     0.163 HD
BRANCH   5   8
ATOM      8  C   UNL A   1      31.099  25.748  25.437  1.00  0.00     0.291 C 
ATOM      9  F   UNL A   1      30.099  24.926  25.880  1.00  0.00    -0.233 F 
BRANCH   8  10
ATOM     10  C   UNL A   1      31.146  25.741  23.885  1.00  0.00     0.128 C 
ATOM     11  C   UNL A   1      30.377  24.551  23.282  1.00  0.00     0.051 C 
BRANCH  10  12
ATOM     12  O   UNL A   1      32.471  25.562  23.359  1.00  0.00    -0.382 OA
ATOM     13  H   UNL A   1      32.963  26.394  23.432  1.00  0.00     0.212 HD
ENDBRANCH  10  12
BRANCH  10  14
ATOM     14  C   UNL A   1      30.579  27.079  23.364  1.00  0.00     0.005 A 
ATOM     15  C   UNL A   1      31.448  27.998  22.728  1.00  0.00     0.010 A 
ATOM     16  C   UNL A   1      29.219  27.447  23.454  1.00  0.00     0.048 A 
ATOM     17  C   UNL A   1      31.007  29.252  22.295  1.00  0.00     0.021 A 
ATOM     18  C   UNL A   1      28.783  28.714  23.039  1.00  0.00     0.041 A 
ATOM     19  Cl  UNL A   1      27.970  26.377  23.996  1.00  0.00    -0.084 Cl
ATOM     20  C   UNL A   1      29.681  29.613  22.476  1.00  0.00     0.042 A 
ATOM     21  Cl  UNL A   1      29.143  31.168  21.979  1.00  0.00    -0.084 Cl
ENDBRANCH  10  14
ENDBRANCH   8  10
ENDBRANCH   5   8
ENDBRANCH   3   4
ENDBRANCH   2   3
ENDBRANCH   1   2
BRANCH   1  22
ATOM     22  C   UNL A   1      31.406  30.699  26.247  1.00  0.00     0.002 C 
BRANCH  22  23
ATOM     23  C   UNL A   1      31.328  32.205  26.512  1.00  0.00     0.021 C 
BRANCH  23  24
ATOM     24  C   UNL A   1      32.562  32.805  27.181  1.00  0.00     0.116 C 
BRANCH  24  25
ATOM     25  N   UNL A   1      32.351  34.188  27.577  1.00  0.00    -0.352 N 
ATOM     26  C   UNL A   1      32.955  34.906  28.578  1.00  0.00     0.251 C 
ATOM     27  H   UNL A   1      31.680  34.680  27.050  1.00  0.00     0.163 HD
ATOM     28  O   UNL A   1      32.514  36.001  28.909  1.00  0.00    -0.269 OA
BRANCH  26  29
ATOM     29  C   UNL A   1      34.135  34.347  29.269  1.00  0.00     0.039 A 
ATOM     30  C   UNL A   1      33.944  33.581  30.421  1.00  0.00     0.014 A 
ATOM     31  C   UNL A   1      35.425  34.595  28.790  1.00  0.00     0.014 A 
ATOM     32  C   UNL A   1      35.047  33.018  31.066  1.00  0.00     0.010 A 
ATOM     33  C   UNL A   1      36.516  33.980  29.396  1.00  0.00     0.010 A 
ATOM     34  C   UNL A   1      36.339  33.192  30.545  1.00  0.00    -0.014 A 
BRANCH  34  35
ATOM     35  C   UNL A   1      37.521  32.577  31.196  1.00  0.00     0.031 A 
ATOM     36  C   UNL A   1      38.256  31.458  30.513  1.00  0.00     0.074 A 
ATOM     37  C   UNL A   1      37.892  32.979  32.427  1.00  0.00     0.049 A 
ATOM     38  N   UNL A   1      39.253  30.730  30.951  1.00  0.00    -0.248 NA
ATOM     39  C   UNL A   1      37.790  31.089  29.166  1.00  0.00     0.031 C 
ATOM     40  C   UNL A   1      37.235  34.027  33.208  1.00  0.00     0.029 A 
ATOM     41  N   UNL A   1      38.906  32.543  33.243  1.00  0.00    -0.354 N 
ATOM     42  C   UNL A   1      39.518  29.810  29.945  1.00  0.00     0.074 A 
ATOM     43  C   UNL A   1      38.550  30.037  28.895  1.00  0.00     0.031 C 
ATOM     44  C   UNL A   1      37.870  34.163  34.384  1.00  0.00     0.029 A 
ATOM     45  C   UNL A   1      38.956  33.189  34.454  1.00  0.00     0.049 A 
ATOM     46  H   UNL A   1      39.539  31.835  32.984  1.00  0.00     0.167 HD
ATOM     47  C   UNL A   1      40.496  28.875  29.894  1.00  0.00     0.037 A 
ATOM     48  C   UNL A   1      39.777  33.008  35.505  1.00  0.00     0.037 A 
ATOM     49  C   UNL A   1      41.478  28.674  30.927  1.00  0.00     0.049 A 
ATOM     50  C   UNL A   1      40.857  31.963  35.420  1.00  0.00     0.074 A 
ATOM     51  C   UNL A   1      42.545  27.793  30.943  1.00  0.00     0.029 A 
ATOM     52  N   UNL A   1      41.513  29.370  32.126  1.00  0.00    -0.354 N 
ATOM     53  N   UNL A   1      41.138  31.140  34.438  1.00  0.00    -0.248 NA
ATOM     54  C   UNL A   1      41.741  31.826  36.588  1.00  0.00     0.031 C 
ATOM     55  C   UNL A   1      43.202  27.926  32.171  1.00  0.00     0.029 A 
ATOM     56  C   UNL A   1      42.574  28.924  32.898  1.00  0.00     0.049 A 
ATOM     57  H   UNL A   1      40.879  30.075  32.390  1.00  0.00     0.167 HD
ATOM     58  C   UNL A   1      42.246  30.414  34.854  1.00  0.00     0.074 A 
ATOM     59  C   UNL A   1      42.593  30.900  36.173  1.00  0.00     0.031 C 
ATOM     60  C   UNL A   1      42.916  29.433  34.202  1.00  0.00     0.037 A 
BRANCH  47  61
ATOM     61  C   UNL A   1      40.558  27.998  28.677  1.00  0.00     0.064 A 
ATOM     62  C   UNL A   1      41.299  28.364  27.544  1.00  0.00     0.173 A 
ATOM     63  C   UNL A   1      39.904  26.757  28.660  1.00  0.00     0.173 A 
ATOM     64  F   UNL A   1      41.934  29.546  27.505  1.00  0.00    -0.203 F 
ATOM     65  C   UNL A   1      41.362  27.533  26.429  1.00  0.00     0.198 A 
ATOM     66  C   UNL A   1      39.993  25.915  27.554  1.00  0.00     0.198 A 
ATOM     67  F   UNL A   1      39.185  26.355  29.720  1.00  0.00    -0.203 F 
ATOM     68  F   UNL A   1      42.039  27.925  25.340  1.00  0.00    -0.200 F 
ATOM     69  C   UNL A   1      40.716  26.306  26.438  1.00  0.00     0.200 A 
ATOM     70  F   UNL A   1      39.379  24.724  27.570  1.00  0.00    -0.200 F 
ATOM     71  F   UNL A   1      40.785  25.503  25.368  1.00  0.00    -0.200 F 
ENDBRANCH  47  61
BRANCH  48  72
ATOM     72  C   UNL A   1      39.628  33.849  36.721  1.00  0.00     0.064 A 
ATOM     73  C   UNL A   1      38.853  33.413  37.806  1.00  0.00     0.173 A 
ATOM     74  C   UNL A   1      40.241  35.105  36.821  1.00  0.00     0.173 A 
ATOM     75  F   UNL A   1      38.230  32.226  37.749  1.00  0.00    -0.203 F 
ATOM     76  C   UNL A   1      38.678  34.212  38.934  1.00  0.00     0.198 A 
ATOM     77  C   UNL A   1      40.089  35.892  37.961  1.00  0.00     0.198 A 
ATOM     78  F   UNL A   1      40.997  35.566  35.814  1.00  0.00    -0.203 F 
ATOM     79  F   UNL A   1      37.894  33.792  39.935  1.00  0.00    -0.200 F 
ATOM     80  C   UNL A   1      39.300  35.449  39.012  1.00  0.00     0.200 A 
ATOM     81  F   UNL A   1      40.703  37.080  38.040  1.00  0.00    -0.200 F 
ATOM     82  F   UNL A   1      39.133  36.217  40.098  1.00  0.00    -0.200 F 
ENDBRANCH  48  72
BRANCH  60  83
ATOM     83  C   UNL A   1      44.119  28.850  34.883  1.00  0.00     0.064 A 
ATOM     84  C   UNL A   1      44.026  27.715  35.701  1.00  0.00     0.173 A 
ATOM     85  C   UNL A   1      45.390  29.409  34.673  1.00  0.00     0.173 A 
ATOM     86  F   UNL A   1      42.831  27.155  35.944  1.00  0.00    -0.203 F 
ATOM     87  C   UNL A   1      45.158  27.174  36.304  1.00  0.00     0.198 A 
ATOM     88  C   UNL A   1      46.523  28.848  35.253  1.00  0.00     0.198 A 
ATOM     89  F   UNL A   1      45.532  30.490  33.892  1.00  0.00    -0.203 F 
ATOM     90  F   UNL A   1      45.041  26.117  37.119  1.00  0.00    -0.200 F 
ATOM     91  C   UNL A   1      46.406  27.736  36.073  1.00  0.00     0.200 A 
ATOM     92  F   UNL A   1      47.729  29.383  35.020  1.00  0.00    -0.200 F 
ATOM     93  F   UNL A   1      47.495  27.208  36.648  1.00  0.00    -0.200 F 
ENDBRANCH  60  83
ENDBRANCH  34  35
ENDBRANCH  26  29
ENDBRANCH  24  25
ENDBRANCH  23  24
ENDBRANCH  22  23
ENDBRANCH   1  22
TORSDOF 16
ENDMDL
