MODEL 1
REMARK VINA RESULT:     -13.1      0.000      0.000
REMARK SMILES Cc1cccc(-c2cc(C(=O)NCCCCCCNC(=O)c3ccc(-c4c5nc(c(-c6c(F)c(F)c(F)c(F)c6F)c6ccc([nH]6)c(-c6c(F)c(F)c(F)c(F)c6F)c6nc(c(-c7c(F)c(F)c(F)c(F)c7F)c7ccc4[nH]7)C=C6)C=C5)cc3)ccn2)c1
REMARK SMILES IDX 16 1 15 2 14 3 13 4 12 5 10 6 11 7 9 9 7 10 8 11 87 12 86 13
REMARK SMILES IDX 85 14 6 15 1 16 2 17 3 18 88 19 4 20 5 21 17 22 18 23 19 24
REMARK SMILES IDX 20 25 21 27 22 28 23 29 84 30 24 31 83 32 25 33 26 34 27 35
REMARK SMILES IDX 77 36 28 37 82 38 76 39 78 40 29 41 81 42 75 43 74 44 30 46
REMARK SMILES IDX 62 47 42 48 61 49 43 50 46 51 60 52 79 53 44 54 45 55 59 57
REMARK SMILES IDX 80 58 47 59 31 60 32 61 40 62 33 63 34 64 38 65 41 66 35 67
REMARK SMILES IDX 36 68 39 69 37 70 63 71 64 72 72 73 65 74 66 75 70 76 73 77
REMARK SMILES IDX 67 78 68 79 71 80 69 81 48 82 49 83 57 84 50 85 51 86 55 87
REMARK SMILES IDX 58 88 52 89 53 90 56 91 54 92
REMARK H PARENT 12 8 19 26 78 45 46 56
REMARK Flexibility Score: inf
ROOT
ATOM      1  C   UNL A   1      34.181  28.228  26.265  1.00  0.00     0.002 C 
ENDROOT
BRANCH   1   2
ATOM      2  C   UNL A   1      33.034  27.394  25.664  1.00  0.00     0.002 C 
BRANCH   2   3
ATOM      3  C   UNL A   1      31.702  27.409  26.433  1.00  0.00     0.021 C 
BRANCH   3   4
ATOM      4  C   UNL A   1      30.572  26.627  25.754  1.00  0.00     0.116 C 
BRANCH   4   5
ATOM      5  N   UNL A   1      30.259  25.420  26.495  1.00  0.00    -0.352 N 
ATOM      6  C   UNL A   1      30.692  24.121  26.411  1.00  0.00     0.251 C 
ATOM      7  O   UNL A   1      30.267  23.327  27.251  1.00  0.00    -0.269 OA
ATOM      8  H   UNL A   1      29.597  25.563  27.210  1.00  0.00     0.163 HD
BRANCH   6   9
ATOM      9  C   UNL A   1      31.674  23.633  25.406  1.00  0.00     0.043 A 
ATOM     10  C   UNL A   1      33.860  23.026  24.628  1.00  0.00     0.071 A 
ATOM     11  C   UNL A   1      33.051  23.621  25.593  1.00  0.00     0.042 A 
ATOM     12  N   UNL A   1      33.378  22.568  23.451  1.00  0.00    -0.256 NA
ATOM     13  C   UNL A   1      32.049  22.667  23.248  1.00  0.00     0.112 A 
ATOM     14  C   UNL A   1      31.167  23.166  24.190  1.00  0.00     0.034 A 
BRANCH  10  15
ATOM     15  C   UNL A   1      35.272  22.755  24.906  1.00  0.00     0.000 A 
ATOM     16  C   UNL A   1      37.641  19.754  24.791  1.00  0.00     0.044 C 
ATOM     17  C   UNL A   1      37.114  21.142  25.007  1.00  0.00    -0.050 A 
ATOM     18  C   UNL A   1      37.952  22.148  25.496  1.00  0.00     0.003 A 
ATOM     19  C   UNL A   1      35.782  21.455  24.716  1.00  0.00     0.013 A 
ATOM     20  C   UNL A   1      37.469  23.446  25.673  1.00  0.00     0.001 A 
ATOM     21  C   UNL A   1      36.138  23.750  25.372  1.00  0.00     0.010 A 
ENDBRANCH  10  15
ENDBRANCH   6   9
ENDBRANCH   4   5
ENDBRANCH   3   4
ENDBRANCH   2   3
ENDBRANCH   1   2
BRANCH   1  22
ATOM     22  C   UNL A   1      33.873  29.705  26.524  1.00  0.00     0.021 C 
BRANCH  22  23
ATOM     23  C   UNL A   1      33.753  30.060  28.001  1.00  0.00     0.116 C 
BRANCH  23  24
ATOM     24  N   UNL A   1      34.557  31.208  28.402  1.00  0.00    -0.352 N 
ATOM     25  C   UNL A   1      35.879  31.261  28.829  1.00  0.00     0.251 C 
ATOM     26  H   UNL A   1      34.095  32.076  28.366  1.00  0.00     0.163 HD
ATOM     27  O   UNL A   1      36.373  32.311  29.175  1.00  0.00    -0.269 OA
BRANCH  25  28
ATOM     28  C   UNL A   1      36.714  30.036  28.733  1.00  0.00     0.039 A 
ATOM     29  C   UNL A   1      36.986  29.330  29.911  1.00  0.00     0.014 A 
ATOM     30  C   UNL A   1      37.369  29.705  27.552  1.00  0.00     0.014 A 
ATOM     31  C   UNL A   1      38.083  28.470  29.957  1.00  0.00     0.010 A 
ATOM     32  C   UNL A   1      38.516  28.941  27.622  1.00  0.00     0.010 A 
ATOM     33  C   UNL A   1      38.913  28.378  28.841  1.00  0.00    -0.014 A 
BRANCH  33  34
ATOM     34  C   UNL A   1      40.263  27.827  28.875  1.00  0.00     0.031 A 
ATOM     35  C   UNL A   1      40.508  26.397  28.589  1.00  0.00     0.074 A 
ATOM     36  C   UNL A   1      41.313  28.669  29.012  1.00  0.00     0.049 A 
ATOM     37  N   UNL A   1      41.613  25.783  28.851  1.00  0.00    -0.248 NA
ATOM     38  C   UNL A   1      39.501  25.528  28.000  1.00  0.00     0.031 C 
ATOM     39  C   UNL A   1      42.720  28.384  28.733  1.00  0.00     0.029 A 
ATOM     40  N   UNL A   1      41.335  29.926  29.642  1.00  0.00    -0.354 N 
ATOM     41  C   UNL A   1      41.574  24.553  28.240  1.00  0.00     0.074 A 
ATOM     42  C   UNL A   1      40.216  24.424  27.764  1.00  0.00     0.031 C 
ATOM     43  C   UNL A   1      43.480  29.230  29.442  1.00  0.00     0.029 A 
ATOM     44  C   UNL A   1      42.590  29.989  30.301  1.00  0.00     0.049 A 
ATOM     45  H   UNL A   1      40.632  30.614  29.628  1.00  0.00     0.167 HD
ATOM     46  C   UNL A   1      42.733  23.838  28.120  1.00  0.00     0.037 A 
ATOM     47  C   UNL A   1      42.662  30.038  31.663  1.00  0.00     0.037 A 
ATOM     48  C   UNL A   1      43.837  24.480  28.833  1.00  0.00     0.049 A 
ATOM     49  C   UNL A   1      43.373  28.867  32.309  1.00  0.00     0.074 A 
ATOM     50  C   UNL A   1      44.924  25.257  28.466  1.00  0.00     0.029 A 
ATOM     51  N   UNL A   1      43.750  24.582  30.210  1.00  0.00    -0.354 N 
ATOM     52  N   UNL A   1      43.842  27.841  31.653  1.00  0.00    -0.248 NA
ATOM     53  C   UNL A   1      43.523  28.714  33.757  1.00  0.00     0.031 C 
ATOM     54  C   UNL A   1      45.483  25.829  29.645  1.00  0.00     0.029 A 
ATOM     55  C   UNL A   1      44.732  25.402  30.724  1.00  0.00     0.049 A 
ATOM     56  H   UNL A   1      43.071  24.123  30.755  1.00  0.00     0.167 HD
ATOM     57  C   UNL A   1      44.279  26.896  32.542  1.00  0.00     0.074 A 
ATOM     58  C   UNL A   1      44.071  27.489  33.848  1.00  0.00     0.031 C 
ATOM     59  C   UNL A   1      44.735  25.674  32.150  1.00  0.00     0.037 A 
BRANCH  46  60
ATOM     60  C   UNL A   1      42.924  22.657  27.192  1.00  0.00     0.064 A 
ATOM     61  C   UNL A   1      42.223  21.450  27.408  1.00  0.00     0.173 A 
ATOM     62  C   UNL A   1      43.812  22.627  26.101  1.00  0.00     0.173 A 
ATOM     63  F   UNL A   1      41.262  21.351  28.336  1.00  0.00    -0.203 F 
ATOM     64  C   UNL A   1      42.480  20.287  26.676  1.00  0.00     0.198 A 
ATOM     65  C   UNL A   1      44.113  21.451  25.408  1.00  0.00     0.198 A 
ATOM     66  F   UNL A   1      44.366  23.745  25.620  1.00  0.00    -0.203 F 
ATOM     67  F   UNL A   1      41.781  19.172  26.934  1.00  0.00    -0.200 F 
ATOM     68  C   UNL A   1      43.455  20.276  25.703  1.00  0.00     0.200 A 
ATOM     69  F   UNL A   1      45.045  21.469  24.443  1.00  0.00    -0.200 F 
ATOM     70  F   UNL A   1      43.737  19.150  25.034  1.00  0.00    -0.200 F 
ENDBRANCH  46  60
BRANCH  47  71
ATOM     71  C   UNL A   1      41.527  30.791  32.259  1.00  0.00     0.064 A 
ATOM     72  C   UNL A   1      41.528  32.196  32.138  1.00  0.00     0.173 A 
ATOM     73  C   UNL A   1      40.312  30.167  32.560  1.00  0.00     0.173 A 
ATOM     74  F   UNL A   1      42.669  32.842  31.846  1.00  0.00    -0.203 F 
ATOM     75  C   UNL A   1      40.344  32.927  32.182  1.00  0.00     0.198 A 
ATOM     76  C   UNL A   1      39.131  30.907  32.624  1.00  0.00     0.198 A 
ATOM     77  F   UNL A   1      40.243  28.833  32.667  1.00  0.00    -0.203 F 
ATOM     78  F   UNL A   1      40.362  34.243  31.935  1.00  0.00    -0.200 F 
ATOM     79  C   UNL A   1      39.141  32.276  32.396  1.00  0.00     0.200 A 
ATOM     80  F   UNL A   1      37.962  30.274  32.806  1.00  0.00    -0.200 F 
ATOM     81  F   UNL A   1      37.989  32.958  32.340  1.00  0.00    -0.200 F 
ENDBRANCH  47  71
BRANCH  59  82
ATOM     82  C   UNL A   1      45.226  24.626  33.098  1.00  0.00     0.064 A 
ATOM     83  C   UNL A   1      46.537  24.628  33.594  1.00  0.00     0.173 A 
ATOM     84  C   UNL A   1      44.433  23.506  33.422  1.00  0.00     0.173 A 
ATOM     85  F   UNL A   1      47.373  25.639  33.311  1.00  0.00    -0.203 F 
ATOM     86  C   UNL A   1      47.022  23.578  34.376  1.00  0.00     0.198 A 
ATOM     87  C   UNL A   1      44.933  22.437  34.160  1.00  0.00     0.198 A 
ATOM     88  F   UNL A   1      43.146  23.433  33.046  1.00  0.00    -0.203 F 
ATOM     89  F   UNL A   1      48.269  23.631  34.863  1.00  0.00    -0.200 F 
ATOM     90  C   UNL A   1      46.226  22.476  34.642  1.00  0.00     0.200 A 
ATOM     91  F   UNL A   1      44.154  21.372  34.399  1.00  0.00    -0.200 F 
ATOM     92  F   UNL A   1      46.704  21.454  35.366  1.00  0.00    -0.200 F 
ENDBRANCH  59  82
ENDBRANCH  33  34
ENDBRANCH  25  28
ENDBRANCH  23  24
ENDBRANCH  22  23
ENDBRANCH   1  22
TORSDOF 14
ENDMDL
MODEL 2
REMARK VINA RESULT:     -13.0      2.306      4.372
REMARK SMILES Cc1cccc(-c2cc(C(=O)NCCCCCCNC(=O)c3ccc(-c4c5nc(c(-c6c(F)c(F)c(F)c(F)c6F)c6ccc([nH]6)c(-c6c(F)c(F)c(F)c(F)c6F)c6nc(c(-c7c(F)c(F)c(F)c(F)c7F)c7ccc4[nH]7)C=C6)C=C5)cc3)ccn2)c1
REMARK SMILES IDX 16 1 15 2 14 3 13 4 12 5 10 6 11 7 9 9 7 10 8 11 87 12 86 13
REMARK SMILES IDX 85 14 6 15 1 16 2 17 3 18 88 19 4 20 5 21 17 22 18 23 19 24
REMARK SMILES IDX 20 25 21 27 22 28 23 29 84 30 24 31 83 32 25 33 26 34 27 35
REMARK SMILES IDX 77 36 28 37 82 38 76 39 78 40 29 41 81 42 75 43 74 44 30 46
REMARK SMILES IDX 62 47 42 48 61 49 43 50 46 51 60 52 79 53 44 54 45 55 59 57
REMARK SMILES IDX 80 58 47 59 31 60 32 61 40 62 33 63 34 64 38 65 41 66 35 67
REMARK SMILES IDX 36 68 39 69 37 70 63 71 64 72 72 73 65 74 66 75 70 76 73 77
REMARK SMILES IDX 67 78 68 79 71 80 69 81 48 82 49 83 57 84 50 85 51 86 55 87
REMARK SMILES IDX 58 88 52 89 53 90 56 91 54 92
REMARK H PARENT 12 8 19 26 78 45 46 56
REMARK Flexibility Score: inf
ROOT
ATOM      1  C   UNL A   1      31.819  29.592  26.213  1.00  0.00     0.002 C 
ENDROOT
BRANCH   1   2
ATOM      2  C   UNL A   1      31.718  28.253  26.967  1.00  0.00     0.002 C 
BRANCH   2   3
ATOM      3  C   UNL A   1      32.354  27.032  26.281  1.00  0.00     0.021 C 
BRANCH   3   4
ATOM      4  C   UNL A   1      33.319  27.379  25.142  1.00  0.00     0.116 C 
BRANCH   4   5
ATOM      5  N   UNL A   1      33.125  26.492  24.010  1.00  0.00    -0.352 N 
ATOM      6  C   UNL A   1      32.066  26.245  23.174  1.00  0.00     0.251 C 
ATOM      7  O   UNL A   1      32.250  25.457  22.246  1.00  0.00    -0.269 OA
ATOM      8  H   UNL A   1      33.922  25.954  23.797  1.00  0.00     0.163 HD
BRANCH   6   9
ATOM      9  C   UNL A   1      30.739  26.908  23.291  1.00  0.00     0.043 A 
ATOM     10  C   UNL A   1      29.186  28.712  23.009  1.00  0.00     0.071 A 
ATOM     11  C   UNL A   1      30.495  28.239  22.976  1.00  0.00     0.042 A 
ATOM     12  N   UNL A   1      28.149  27.967  23.457  1.00  0.00    -0.256 NA
ATOM     13  C   UNL A   1      28.419  26.704  23.842  1.00  0.00     0.112 A 
ATOM     14  C   UNL A   1      29.676  26.131  23.759  1.00  0.00     0.034 A 
BRANCH  10  15
ATOM     15  C   UNL A   1      28.852  30.017  22.434  1.00  0.00     0.000 A 
ATOM     16  C   UNL A   1      29.250  33.701  23.385  1.00  0.00     0.044 C 
ATOM     17  C   UNL A   1      28.864  32.460  22.636  1.00  0.00    -0.050 A 
ATOM     18  C   UNL A   1      28.170  32.551  21.426  1.00  0.00     0.003 A 
ATOM     19  C   UNL A   1      29.200  31.193  23.128  1.00  0.00     0.013 A 
ATOM     20  C   UNL A   1      27.833  31.396  20.717  1.00  0.00     0.001 A 
ATOM     21  C   UNL A   1      28.179  30.137  21.213  1.00  0.00     0.010 A 
ENDBRANCH  10  15
ENDBRANCH   6   9
ENDBRANCH   4   5
ENDBRANCH   3   4
ENDBRANCH   2   3
ENDBRANCH   1   2
BRANCH   1  22
ATOM     22  C   UNL A   1      32.572  30.713  26.936  1.00  0.00     0.021 C 
BRANCH  22  23
ATOM     23  C   UNL A   1      33.859  30.256  27.611  1.00  0.00     0.116 C 
BRANCH  23  24
ATOM     24  N   UNL A   1      34.455  31.255  28.489  1.00  0.00    -0.352 N 
ATOM     25  C   UNL A   1      35.640  31.208  29.215  1.00  0.00     0.251 C 
ATOM     26  H   UNL A   1      33.942  32.089  28.583  1.00  0.00     0.163 HD
ATOM     27  O   UNL A   1      35.955  32.124  29.941  1.00  0.00    -0.269 OA
BRANCH  25  28
ATOM     28  C   UNL A   1      36.575  30.075  28.988  1.00  0.00     0.039 A 
ATOM     29  C   UNL A   1      36.860  29.230  30.068  1.00  0.00     0.014 A 
ATOM     30  C   UNL A   1      37.298  29.967  27.805  1.00  0.00     0.014 A 
ATOM     31  C   UNL A   1      38.021  28.459  30.045  1.00  0.00     0.010 A 
ATOM     32  C   UNL A   1      38.500  29.290  27.822  1.00  0.00     0.010 A 
ATOM     33  C   UNL A   1      38.896  28.590  28.968  1.00  0.00    -0.014 A 
BRANCH  33  34
ATOM     34  C   UNL A   1      40.285  28.144  28.989  1.00  0.00     0.031 A 
ATOM     35  C   UNL A   1      40.656  26.794  28.514  1.00  0.00     0.074 A 
ATOM     36  C   UNL A   1      41.257  29.033  29.296  1.00  0.00     0.049 A 
ATOM     37  N   UNL A   1      41.797  26.233  28.739  1.00  0.00    -0.248 NA
ATOM     38  C   UNL A   1      39.746  25.946  27.757  1.00  0.00     0.031 C 
ATOM     39  C   UNL A   1      42.691  28.899  29.049  1.00  0.00     0.029 A 
ATOM     40  N   UNL A   1      41.152  30.182  30.100  1.00  0.00    -0.354 N 
ATOM     41  C   UNL A   1      41.882  25.106  27.957  1.00  0.00     0.074 A 
ATOM     42  C   UNL A   1      40.557  24.946  27.401  1.00  0.00     0.031 C 
ATOM     43  C   UNL A   1      43.353  29.687  29.908  1.00  0.00     0.029 A 
ATOM     44  C   UNL A   1      42.372  30.242  30.822  1.00  0.00     0.049 A 
ATOM     45  H   UNL A   1      40.396  30.809  30.150  1.00  0.00     0.167 HD
ATOM     46  C   UNL A   1      43.098  24.506  27.793  1.00  0.00     0.037 A 
ATOM     47  C   UNL A   1      42.388  30.097  32.179  1.00  0.00     0.037 A 
ATOM     48  C   UNL A   1      44.119  25.118  28.644  1.00  0.00     0.049 A 
ATOM     49  C   UNL A   1      43.168  28.901  32.685  1.00  0.00     0.074 A 
ATOM     50  C   UNL A   1      45.152  26.020  28.445  1.00  0.00     0.029 A 
ATOM     51  N   UNL A   1      43.973  25.010  30.015  1.00  0.00    -0.354 N 
ATOM     52  N   UNL A   1      43.744  28.020  31.913  1.00  0.00    -0.248 NA
ATOM     53  C   UNL A   1      43.276  28.548  34.102  1.00  0.00     0.031 C 
ATOM     54  C   UNL A   1      45.618  26.454  29.720  1.00  0.00     0.029 A 
ATOM     55  C   UNL A   1      44.864  25.817  30.689  1.00  0.00     0.049 A 
ATOM     56  H   UNL A   1      43.313  24.426  30.455  1.00  0.00     0.167 HD
ATOM     57  C   UNL A   1      44.223  26.991  32.678  1.00  0.00     0.074 A 
ATOM     58  C   UNL A   1      43.918  27.368  34.043  1.00  0.00     0.031 C 
ATOM     59  C   UNL A   1      44.791  25.878  32.137  1.00  0.00     0.037 A 
BRANCH  46  60
ATOM     60  C   UNL A   1      43.421  23.491  26.716  1.00  0.00     0.064 A 
ATOM     61  C   UNL A   1      43.061  22.134  26.873  1.00  0.00     0.173 A 
ATOM     62  C   UNL A   1      44.119  23.774  25.528  1.00  0.00     0.173 A 
ATOM     63  F   UNL A   1      42.299  21.723  27.895  1.00  0.00    -0.203 F 
ATOM     64  C   UNL A   1      43.471  21.137  25.984  1.00  0.00     0.198 A 
ATOM     65  C   UNL A   1      44.580  22.772  24.669  1.00  0.00     0.198 A 
ATOM     66  F   UNL A   1      44.319  25.031  25.117  1.00  0.00    -0.203 F 
ATOM     67  F   UNL A   1      43.099  19.866  26.193  1.00  0.00    -0.200 F 
ATOM     68  C   UNL A   1      44.266  21.450  24.903  1.00  0.00     0.200 A 
ATOM     69  F   UNL A   1      45.328  23.102  23.605  1.00  0.00    -0.200 F 
ATOM     70  F   UNL A   1      44.701  20.489  24.077  1.00  0.00    -0.200 F 
ENDBRANCH  46  60
BRANCH  47  71
ATOM     71  C   UNL A   1      41.174  30.667  32.820  1.00  0.00     0.064 A 
ATOM     72  C   UNL A   1      41.063  32.070  32.898  1.00  0.00     0.173 A 
ATOM     73  C   UNL A   1      40.005  29.914  32.973  1.00  0.00     0.173 A 
ATOM     74  F   UNL A   1      42.156  32.837  32.754  1.00  0.00    -0.203 F 
ATOM     75  C   UNL A   1      39.822  32.694  32.988  1.00  0.00     0.198 A 
ATOM     76  C   UNL A   1      38.765  30.543  33.083  1.00  0.00     0.198 A 
ATOM     77  F   UNL A   1      40.043  28.577  32.887  1.00  0.00    -0.203 F 
ATOM     78  F   UNL A   1      39.739  34.029  32.929  1.00  0.00    -0.200 F 
ATOM     79  C   UNL A   1      38.670  31.927  33.051  1.00  0.00     0.200 A 
ATOM     80  F   UNL A   1      37.647  29.803  33.119  1.00  0.00    -0.200 F 
ATOM     81  F   UNL A   1      37.468  32.520  33.036  1.00  0.00    -0.200 F 
ENDBRANCH  47  71
BRANCH  59  82
ATOM     82  C   UNL A   1      45.331  24.742  32.949  1.00  0.00     0.064 A 
ATOM     83  C   UNL A   1      44.539  23.641  33.305  1.00  0.00     0.173 A 
ATOM     84  C   UNL A   1      46.621  24.799  33.514  1.00  0.00     0.173 A 
ATOM     85  F   UNL A   1      43.287  23.520  32.839  1.00  0.00    -0.203 F 
ATOM     86  C   UNL A   1      45.015  22.651  34.167  1.00  0.00     0.198 A 
ATOM     87  C   UNL A   1      47.076  23.836  34.412  1.00  0.00     0.198 A 
ATOM     88  F   UNL A   1      47.479  25.780  33.192  1.00  0.00    -0.203 F 
ATOM     89  F   UNL A   1      44.244  21.594  34.458  1.00  0.00    -0.200 F 
ATOM     90  C   UNL A   1      46.274  22.759  34.734  1.00  0.00     0.200 A 
ATOM     91  F   UNL A   1      48.293  23.962  34.961  1.00  0.00    -0.200 F 
ATOM     92  F   UNL A   1      46.717  21.824  35.586  1.00  0.00    -0.200 F 
ENDBRANCH  59  82
ENDBRANCH  33  34
ENDBRANCH  25  28
ENDBRANCH  23  24
ENDBRANCH  22  23
ENDBRANCH   1  22
TORSDOF 14
ENDMDL
MODEL 3
REMARK VINA RESULT:     -12.9      1.545      2.039
REMARK SMILES Cc1cccc(-c2cc(C(=O)NCCCCCCNC(=O)c3ccc(-c4c5nc(c(-c6c(F)c(F)c(F)c(F)c6F)c6ccc([nH]6)c(-c6c(F)c(F)c(F)c(F)c6F)c6nc(c(-c7c(F)c(F)c(F)c(F)c7F)c7ccc4[nH]7)C=C6)C=C5)cc3)ccn2)c1
REMARK SMILES IDX 16 1 15 2 14 3 13 4 12 5 10 6 11 7 9 9 7 10 8 11 87 12 86 13
REMARK SMILES IDX 85 14 6 15 1 16 2 17 3 18 88 19 4 20 5 21 17 22 18 23 19 24
REMARK SMILES IDX 20 25 21 27 22 28 23 29 84 30 24 31 83 32 25 33 26 34 27 35
REMARK SMILES IDX 77 36 28 37 82 38 76 39 78 40 29 41 81 42 75 43 74 44 30 46
REMARK SMILES IDX 62 47 42 48 61 49 43 50 46 51 60 52 79 53 44 54 45 55 59 57
REMARK SMILES IDX 80 58 47 59 31 60 32 61 40 62 33 63 34 64 38 65 41 66 35 67
REMARK SMILES IDX 36 68 39 69 37 70 63 71 64 72 72 73 65 74 66 75 70 76 73 77
REMARK SMILES IDX 67 78 68 79 71 80 69 81 48 82 49 83 57 84 50 85 51 86 55 87
REMARK SMILES IDX 58 88 52 89 53 90 56 91 54 92
REMARK H PARENT 12 8 19 26 78 45 46 56
REMARK Flexibility Score: inf
ROOT
ATOM      1  C   UNL A   1      31.704  30.209  25.543  1.00  0.00     0.002 C 
ENDROOT
BRANCH   1   2
ATOM      2  C   UNL A   1      31.606  28.780  24.976  1.00  0.00     0.002 C 
BRANCH   2   3
ATOM      3  C   UNL A   1      31.982  28.605  23.495  1.00  0.00     0.021 C 
BRANCH   3   4
ATOM      4  C   UNL A   1      31.154  27.550  22.753  1.00  0.00     0.116 C 
BRANCH   4   5
ATOM      5  N   UNL A   1      31.892  27.008  21.627  1.00  0.00    -0.352 N 
ATOM      6  C   UNL A   1      32.604  25.852  21.433  1.00  0.00     0.251 C 
ATOM      7  O   UNL A   1      33.070  25.657  20.310  1.00  0.00    -0.269 OA
ATOM      8  H   UNL A   1      31.877  27.593  20.836  1.00  0.00     0.163 HD
BRANCH   6   9
ATOM      9  C   UNL A   1      32.800  24.808  22.474  1.00  0.00     0.043 A 
ATOM     10  C   UNL A   1      34.099  23.433  23.947  1.00  0.00     0.071 A 
ATOM     11  C   UNL A   1      34.038  24.321  22.877  1.00  0.00     0.042 A 
ATOM     12  N   UNL A   1      32.995  22.920  24.537  1.00  0.00    -0.256 NA
ATOM     13  C   UNL A   1      31.799  23.337  24.075  1.00  0.00     0.112 A 
ATOM     14  C   UNL A   1      31.653  24.281  23.074  1.00  0.00     0.034 A 
BRANCH  10  15
ATOM     15  C   UNL A   1      35.384  23.107  24.570  1.00  0.00     0.000 A 
ATOM     16  C   UNL A   1      37.699  20.073  24.834  1.00  0.00     0.044 C 
ATOM     17  C   UNL A   1      37.132  21.449  25.021  1.00  0.00    -0.050 A 
ATOM     18  C   UNL A   1      37.805  22.391  25.805  1.00  0.00     0.003 A 
ATOM     19  C   UNL A   1      35.927  21.817  24.411  1.00  0.00     0.013 A 
ATOM     20  C   UNL A   1      37.290  23.680  25.959  1.00  0.00     0.001 A 
ATOM     21  C   UNL A   1      36.091  24.039  25.339  1.00  0.00     0.010 A 
ENDBRANCH  10  15
ENDBRANCH   6   9
ENDBRANCH   4   5
ENDBRANCH   3   4
ENDBRANCH   2   3
ENDBRANCH   1   2
BRANCH   1  22
ATOM     22  C   UNL A   1      32.046  30.317  27.032  1.00  0.00     0.021 C 
BRANCH  22  23
ATOM     23  C   UNL A   1      33.532  30.167  27.336  1.00  0.00     0.116 C 
BRANCH  23  24
ATOM     24  N   UNL A   1      34.077  31.234  28.166  1.00  0.00    -0.352 N 
ATOM     25  C   UNL A   1      35.250  31.270  28.911  1.00  0.00     0.251 C 
ATOM     26  H   UNL A   1      33.533  32.053  28.205  1.00  0.00     0.163 HD
ATOM     27  O   UNL A   1      35.520  32.234  29.590  1.00  0.00    -0.269 OA
BRANCH  25  28
ATOM     28  C   UNL A   1      36.228  30.160  28.763  1.00  0.00     0.039 A 
ATOM     29  C   UNL A   1      36.540  29.401  29.897  1.00  0.00     0.014 A 
ATOM     30  C   UNL A   1      36.959  30.000  27.591  1.00  0.00     0.014 A 
ATOM     31  C   UNL A   1      37.729  28.674  29.928  1.00  0.00     0.010 A 
ATOM     32  C   UNL A   1      38.186  29.372  27.655  1.00  0.00     0.010 A 
ATOM     33  C   UNL A   1      38.603  28.765  28.846  1.00  0.00    -0.014 A 
BRANCH  33  34
ATOM     34  C   UNL A   1      40.007  28.374  28.899  1.00  0.00     0.031 A 
ATOM     35  C   UNL A   1      40.436  27.022  28.481  1.00  0.00     0.074 A 
ATOM     36  C   UNL A   1      40.941  29.311  29.182  1.00  0.00     0.049 A 
ATOM     37  N   UNL A   1      41.594  26.515  28.739  1.00  0.00    -0.248 NA
ATOM     38  C   UNL A   1      39.568  26.112  27.747  1.00  0.00     0.031 C 
ATOM     39  C   UNL A   1      42.382  29.224  28.956  1.00  0.00     0.029 A 
ATOM     40  N   UNL A   1      40.783  30.485  29.940  1.00  0.00    -0.354 N 
ATOM     41  C   UNL A   1      41.732  25.363  28.003  1.00  0.00     0.074 A 
ATOM     42  C   UNL A   1      40.421  25.131  27.439  1.00  0.00     0.031 C 
ATOM     43  C   UNL A   1      43.003  30.069  29.791  1.00  0.00     0.029 A 
ATOM     44  C   UNL A   1      41.991  30.620  30.672  1.00  0.00     0.049 A 
ATOM     45  H   UNL A   1      40.002  31.085  29.958  1.00  0.00     0.167 HD
ATOM     46  C   UNL A   1      42.972  24.804  27.875  1.00  0.00     0.037 A 
ATOM     47  C   UNL A   1      41.995  30.527  32.034  1.00  0.00     0.037 A 
ATOM     48  C   UNL A   1      43.958  25.488  28.713  1.00  0.00     0.049 A 
ATOM     49  C   UNL A   1      42.814  29.383  32.594  1.00  0.00     0.074 A 
ATOM     50  C   UNL A   1      44.959  26.421  28.491  1.00  0.00     0.029 A 
ATOM     51  N   UNL A   1      43.800  25.426  30.085  1.00  0.00    -0.354 N 
ATOM     52  N   UNL A   1      43.433  28.496  31.863  1.00  0.00    -0.248 NA
ATOM     53  C   UNL A   1      42.918  29.089  34.024  1.00  0.00     0.031 C 
ATOM     54  C   UNL A   1      45.392  26.921  29.753  1.00  0.00     0.029 A 
ATOM     55  C   UNL A   1      44.651  26.293  30.737  1.00  0.00     0.049 A 
ATOM     56  H   UNL A   1      43.157  24.835  30.540  1.00  0.00     0.167 HD
ATOM     57  C   UNL A   1      43.941  27.516  32.672  1.00  0.00     0.074 A 
ATOM     58  C   UNL A   1      43.606  27.933  34.018  1.00  0.00     0.031 C 
ATOM     59  C   UNL A   1      44.558  26.406  32.181  1.00  0.00     0.037 A 
BRANCH  46  60
ATOM     60  C   UNL A   1      43.347  23.763  26.842  1.00  0.00     0.064 A 
ATOM     61  C   UNL A   1      42.932  22.420  26.989  1.00  0.00     0.173 A 
ATOM     62  C   UNL A   1      44.144  24.004  25.709  1.00  0.00     0.173 A 
ATOM     63  F   UNL A   1      42.080  22.050  27.953  1.00  0.00    -0.203 F 
ATOM     64  C   UNL A   1      43.380  21.396  26.149  1.00  0.00     0.198 A 
ATOM     65  C   UNL A   1      44.640  22.974  24.903  1.00  0.00     0.198 A 
ATOM     66  F   UNL A   1      44.416  25.247  25.297  1.00  0.00    -0.203 F 
ATOM     67  F   UNL A   1      42.952  20.141  26.347  1.00  0.00    -0.200 F 
ATOM     68  C   UNL A   1      44.267  21.666  25.131  1.00  0.00     0.200 A 
ATOM     69  F   UNL A   1      45.480  23.263  23.898  1.00  0.00    -0.200 F 
ATOM     70  F   UNL A   1      44.735  20.680  24.355  1.00  0.00    -0.200 F 
ENDBRANCH  46  60
BRANCH  47  71
ATOM     71  C   UNL A   1      40.753  31.074  32.639  1.00  0.00     0.064 A 
ATOM     72  C   UNL A   1      40.587  32.474  32.661  1.00  0.00     0.173 A 
ATOM     73  C   UNL A   1      39.612  30.283  32.809  1.00  0.00     0.173 A 
ATOM     74  F   UNL A   1      41.652  33.277  32.500  1.00  0.00    -0.203 F 
ATOM     75  C   UNL A   1      39.322  33.052  32.714  1.00  0.00     0.198 A 
ATOM     76  C   UNL A   1      38.347  30.868  32.881  1.00  0.00     0.198 A 
ATOM     77  F   UNL A   1      39.702  28.946  32.776  1.00  0.00    -0.203 F 
ATOM     78  F   UNL A   1      39.188  34.380  32.602  1.00  0.00    -0.200 F 
ATOM     79  C   UNL A   1      38.199  32.245  32.795  1.00  0.00     0.200 A 
ATOM     80  F   UNL A   1      37.258  30.086  32.934  1.00  0.00    -0.200 F 
ATOM     81  F   UNL A   1      36.976  32.790  32.744  1.00  0.00    -0.200 F 
ENDBRANCH  47  71
BRANCH  59  82
ATOM     82  C   UNL A   1      45.130  25.324  33.042  1.00  0.00     0.064 A 
ATOM     83  C   UNL A   1      44.323  24.509  33.848  1.00  0.00     0.173 A 
ATOM     84  C   UNL A   1      46.525  25.170  33.189  1.00  0.00     0.173 A 
ATOM     85  F   UNL A   1      42.986  24.608  33.796  1.00  0.00    -0.203 F 
ATOM     86  C   UNL A   1      44.877  23.590  34.741  1.00  0.00     0.198 A 
ATOM     87  C   UNL A   1      47.076  24.288  34.115  1.00  0.00     0.198 A 
ATOM     88  F   UNL A   1      47.385  25.860  32.423  1.00  0.00    -0.203 F 
ATOM     89  F   UNL A   1      44.074  22.803  35.470  1.00  0.00    -0.200 F 
ATOM     90  C   UNL A   1      46.251  23.494  34.887  1.00  0.00     0.200 A 
ATOM     91  F   UNL A   1      48.407  24.216  34.253  1.00  0.00    -0.200 F 
ATOM     92  F   UNL A   1      46.781  22.633  35.767  1.00  0.00    -0.200 F 
ENDBRANCH  59  82
ENDBRANCH  33  34
ENDBRANCH  25  28
ENDBRANCH  23  24
ENDBRANCH  22  23
ENDBRANCH   1  22
TORSDOF 14
ENDMDL
