MODEL 1
REMARK VINA RESULT:     -14.8      0.000      0.000
REMARK SMILES Cc1ccc(-c2cc(C(=O)NCCCCCCNC(=O)c3ccc(-c4c5nc(c(-c6c(F)c(F)c(F)c(F)c6F)c6ccc([nH]6)c(-c6c(F)c(F)c(F)c(F)c6F)c6nc(c(-c7c(F)c(F)c(F)c(F)c7F)c7ccc4[nH]7)C=C6)C=C5)cc3)c3c(-c4cccc([N+](=O)[O-])c4)[nH]nc3n2)cc1
REMARK SMILES IDX 14 1 13 2 12 3 11 4 9 5 10 6 8 8 6 9 7 10 98 11 97 12 84 13
REMARK SMILES IDX 96 14 85 15 95 16 5 18 1 19 2 20 3 21 100 22 4 23 99 24
REMARK SMILES IDX 86 25 87 26 94 27 88 28 90 29 89 30 91 31 92 32 93 33 15 34
REMARK SMILES IDX 16 35 17 36 18 37 19 38 20 40 21 41 22 42 83 43 23 44 82 45
REMARK SMILES IDX 24 46 25 47 26 48 76 49 27 50 81 51 75 52 77 53 28 54 80 55
REMARK SMILES IDX 74 56 73 57 29 59 61 60 41 61 60 62 42 63 45 64 59 65 78 66
REMARK SMILES IDX 43 67 44 68 58 70 79 71 46 72 30 73 31 74 39 75 32 76 33 77
REMARK SMILES IDX 37 78 40 79 34 80 35 81 38 82 36 83 62 84 63 85 71 86 64 87
REMARK SMILES IDX 65 88 69 89 72 90 66 91 67 92 70 93 68 94 47 95 48 96 56 97
REMARK SMILES IDX 49 98 50 99 54 100 57 101 51 102 52 103 55 104 53 105
REMARK H PARENT 11 7 95 17 18 39 77 58 45 69
REMARK Flexibility Score: inf
ROOT
ATOM      1  C   UNL A   1      33.723  28.393  25.302  1.00  0.00     0.002 C 
ENDROOT
BRANCH   1   2
ATOM      2  C   UNL A   1      33.328  29.024  23.955  1.00  0.00     0.021 C 
BRANCH   2   3
ATOM      3  C   UNL A   1      34.009  28.389  22.742  1.00  0.00     0.116 C 
BRANCH   3   4
ATOM      4  N   UNL A   1      33.118  27.484  22.055  1.00  0.00    -0.352 N 
ATOM      5  C   UNL A   1      32.491  26.305  22.344  1.00  0.00     0.252 C 
ATOM      6  O   UNL A   1      31.650  25.998  21.505  1.00  0.00    -0.269 OA
ATOM      7  H   UNL A   1      32.909  27.797  21.146  1.00  0.00     0.163 HD
BRANCH   5   8
ATOM      8  C   UNL A   1      32.713  25.486  23.563  1.00  0.00     0.055 A 
ATOM      9  C   UNL A   1      34.169  24.042  24.975  1.00  0.00     0.074 A 
ATOM     10  C   UNL A   1      33.788  24.604  23.729  1.00  0.00     0.043 A 
ATOM     11  N   UNL A   1      33.471  24.142  26.132  1.00  0.00    -0.226 NA
ATOM     12  C   UNL A   1      32.330  24.862  25.992  1.00  0.00     0.182 A 
ATOM     13  C   UNL A   1      31.957  25.512  24.756  1.00  0.00     0.059 A 
ATOM     14  N   UNL A   1      31.436  25.075  26.956  1.00  0.00    -0.154 NA
ATOM     15  C   UNL A   1      30.725  26.090  25.031  1.00  0.00     0.076 A 
ATOM     16  N   UNL A   1      30.491  25.812  26.358  1.00  0.00    -0.275 N 
ATOM     17  H   UNL A   1      29.689  26.130  26.831  1.00  0.00     0.190 HD
BRANCH   9  18
ATOM     18  C   UNL A   1      35.484  23.384  25.048  1.00  0.00     0.000 A 
ATOM     19  C   UNL A   1      39.140  21.168  25.716  1.00  0.00     0.044 C 
ATOM     20  C   UNL A   1      37.886  21.944  25.440  1.00  0.00    -0.051 A 
ATOM     21  C   UNL A   1      37.781  23.285  25.834  1.00  0.00     0.004 A 
ATOM     22  C   UNL A   1      36.802  21.339  24.802  1.00  0.00     0.004 A 
ATOM     23  C   UNL A   1      36.594  24.001  25.635  1.00  0.00     0.010 A 
ATOM     24  C   UNL A   1      35.619  22.053  24.606  1.00  0.00     0.010 A 
ENDBRANCH   9  18
BRANCH  15  25
ATOM     25  C   UNL A   1      29.729  26.793  24.233  1.00  0.00     0.007 A 
ATOM     26  C   UNL A   1      28.398  26.351  24.215  1.00  0.00     0.011 A 
ATOM     27  C   UNL A   1      30.072  27.986  23.583  1.00  0.00     0.096 A 
ATOM     28  C   UNL A   1      27.405  27.122  23.606  1.00  0.00     0.008 A 
ATOM     29  C   UNL A   1      29.064  28.776  23.015  1.00  0.00     0.270 A 
ATOM     30  C   UNL A   1      27.730  28.346  23.018  1.00  0.00     0.085 A 
BRANCH  29  31
ATOM     31  N   UNL A   1      29.399  30.102  22.485  1.00  0.00     0.062 N 
ATOM     32  O   UNL A   1      29.151  31.088  23.195  1.00  0.00    -0.258 OA
ATOM     33  O   UNL A   1      29.906  30.164  21.355  1.00  0.00    -0.258 OA
ENDBRANCH  29  31
ENDBRANCH  15  25
ENDBRANCH   5   8
ENDBRANCH   3   4
ENDBRANCH   2   3
ENDBRANCH   1   2
BRANCH   1  34
ATOM     34  C   UNL A   1      32.814  28.720  26.499  1.00  0.00     0.002 C 
BRANCH  34  35
ATOM     35  C   UNL A   1      33.464  29.505  27.641  1.00  0.00     0.021 C 
BRANCH  35  36
ATOM     36  C   UNL A   1      34.129  30.799  27.203  1.00  0.00     0.116 C 
BRANCH  36  37
ATOM     37  N   UNL A   1      34.655  31.584  28.309  1.00  0.00    -0.352 N 
ATOM     38  C   UNL A   1      35.657  31.281  29.221  1.00  0.00     0.251 C 
ATOM     39  H   UNL A   1      34.236  32.466  28.430  1.00  0.00     0.163 HD
ATOM     40  O   UNL A   1      35.907  32.038  30.131  1.00  0.00    -0.269 OA
BRANCH  38  41
ATOM     41  C   UNL A   1      36.521  30.098  28.967  1.00  0.00     0.039 A 
ATOM     42  C   UNL A   1      36.735  29.224  30.040  1.00  0.00     0.014 A 
ATOM     43  C   UNL A   1      37.286  29.994  27.812  1.00  0.00     0.014 A 
ATOM     44  C   UNL A   1      37.886  28.444  30.062  1.00  0.00     0.010 A 
ATOM     45  C   UNL A   1      38.483  29.315  27.879  1.00  0.00     0.010 A 
ATOM     46  C   UNL A   1      38.815  28.603  29.037  1.00  0.00    -0.014 A 
BRANCH  46  47
ATOM     47  C   UNL A   1      40.199  28.162  29.130  1.00  0.00     0.031 A 
ATOM     48  C   UNL A   1      40.587  26.831  28.624  1.00  0.00     0.074 A 
ATOM     49  C   UNL A   1      41.136  29.047  29.536  1.00  0.00     0.049 A 
ATOM     50  N   UNL A   1      41.703  26.246  28.891  1.00  0.00    -0.248 NA
ATOM     51  C   UNL A   1      39.702  26.023  27.796  1.00  0.00     0.031 C 
ATOM     52  C   UNL A   1      42.584  28.955  29.359  1.00  0.00     0.029 A 
ATOM     53  N   UNL A   1      40.960  30.152  30.387  1.00  0.00    -0.354 N 
ATOM     54  C   UNL A   1      41.808  25.140  28.078  1.00  0.00     0.074 A 
ATOM     55  C   UNL A   1      40.508  25.012  27.464  1.00  0.00     0.031 C 
ATOM     56  C   UNL A   1      43.183  29.736  30.272  1.00  0.00     0.029 A 
ATOM     57  C   UNL A   1      42.141  30.216  31.163  1.00  0.00     0.049 A 
ATOM     58  H   UNL A   1      40.181  30.752  30.434  1.00  0.00     0.167 HD
ATOM     59  C   UNL A   1      43.030  24.547  27.935  1.00  0.00     0.037 A 
ATOM     60  C   UNL A   1      42.123  30.007  32.512  1.00  0.00     0.037 A 
ATOM     61  C   UNL A   1      44.006  25.142  28.848  1.00  0.00     0.049 A 
ATOM     62  C   UNL A   1      43.017  28.878  32.967  1.00  0.00     0.074 A 
ATOM     63  C   UNL A   1      44.987  26.107  28.680  1.00  0.00     0.029 A 
ATOM     64  N   UNL A   1      43.839  24.987  30.220  1.00  0.00    -0.354 N 
ATOM     65  N   UNL A   1      43.388  27.891  32.200  1.00  0.00    -0.248 NA
ATOM     66  C   UNL A   1      43.541  28.764  34.324  1.00  0.00     0.031 C 
ATOM     67  C   UNL A   1      45.383  26.561  29.962  1.00  0.00     0.029 A 
ATOM     68  C   UNL A   1      44.656  25.860  30.910  1.00  0.00     0.049 A 
ATOM     69  H   UNL A   1      43.223  24.343  30.641  1.00  0.00     0.167 HD
ATOM     70  C   UNL A   1      44.169  27.023  32.921  1.00  0.00     0.074 A 
ATOM     71  C   UNL A   1      44.246  27.622  34.240  1.00  0.00     0.031 C 
ATOM     72  C   UNL A   1      44.675  25.882  32.365  1.00  0.00     0.037 A 
BRANCH  59  73
ATOM     73  C   UNL A   1      43.416  23.639  26.782  1.00  0.00     0.064 A 
ATOM     74  C   UNL A   1      42.956  22.302  26.732  1.00  0.00     0.173 A 
ATOM     75  C   UNL A   1      44.288  23.990  25.735  1.00  0.00     0.173 A 
ATOM     76  F   UNL A   1      42.032  21.845  27.586  1.00  0.00    -0.203 F 
ATOM     77  C   UNL A   1      43.430  21.374  25.799  1.00  0.00     0.198 A 
ATOM     78  C   UNL A   1      44.803  23.050  24.833  1.00  0.00     0.198 A 
ATOM     79  F   UNL A   1      44.622  25.261  25.498  1.00  0.00    -0.203 F 
ATOM     80  F   UNL A   1      42.963  20.118  25.815  1.00  0.00    -0.200 F 
ATOM     81  C   UNL A   1      44.384  21.738  24.874  1.00  0.00     0.200 A 
ATOM     82  F   UNL A   1      45.709  23.434  23.921  1.00  0.00    -0.200 F 
ATOM     83  F   UNL A   1      44.875  20.840  24.009  1.00  0.00    -0.200 F 
ENDBRANCH  59  73
BRANCH  60  84
ATOM     84  C   UNL A   1      40.827  30.367  33.146  1.00  0.00     0.064 A 
ATOM     85  C   UNL A   1      40.524  31.732  33.325  1.00  0.00     0.173 A 
ATOM     86  C   UNL A   1      39.767  29.455  33.212  1.00  0.00     0.173 A 
ATOM     87  F   UNL A   1      41.505  32.648  33.271  1.00  0.00    -0.203 F 
ATOM     88  C   UNL A   1      39.208  32.173  33.435  1.00  0.00     0.198 A 
ATOM     89  C   UNL A   1      38.450  29.901  33.340  1.00  0.00     0.198 A 
ATOM     90  F   UNL A   1      39.987  28.145  33.034  1.00  0.00    -0.203 F 
ATOM     91  F   UNL A   1      38.944  33.487  33.482  1.00  0.00    -0.200 F 
ATOM     92  C   UNL A   1      38.170  31.258  33.414  1.00  0.00     0.200 A 
ATOM     93  F   UNL A   1      37.441  29.018  33.288  1.00  0.00    -0.200 F 
ATOM     94  F   UNL A   1      36.898  31.683  33.419  1.00  0.00    -0.200 F 
ENDBRANCH  60  84
BRANCH  72  95
ATOM     95  C   UNL A   1      45.316  24.723  33.098  1.00  0.00     0.064 A 
ATOM     96  C   UNL A   1      46.608  24.754  33.650  1.00  0.00     0.173 A 
ATOM     97  C   UNL A   1      44.560  23.563  33.404  1.00  0.00     0.173 A 
ATOM     98  F   UNL A   1      47.387  25.839  33.548  1.00  0.00    -0.203 F 
ATOM     99  C   UNL A   1      47.125  23.687  34.391  1.00  0.00     0.198 A 
ATOM    100  C   UNL A   1      45.057  22.528  34.196  1.00  0.00     0.198 A 
ATOM    101  F   UNL A   1      43.300  23.408  32.972  1.00  0.00    -0.203 F 
ATOM    102  F   UNL A   1      48.380  23.753  34.859  1.00  0.00    -0.200 F 
ATOM    103  C   UNL A   1      46.347  22.582  34.676  1.00  0.00     0.200 A 
ATOM    104  F   UNL A   1      44.265  21.491  34.510  1.00  0.00    -0.200 F 
ATOM    105  F   UNL A   1      46.829  21.586  35.431  1.00  0.00    -0.200 F 
ENDBRANCH  72  95
ENDBRANCH  46  47
ENDBRANCH  38  41
ENDBRANCH  36  37
ENDBRANCH  35  36
ENDBRANCH  34  35
ENDBRANCH   1  34
TORSDOF 16
ENDMDL
MODEL 2
REMARK VINA RESULT:     -14.8      3.664      9.192
REMARK SMILES Cc1ccc(-c2cc(C(=O)NCCCCCCNC(=O)c3ccc(-c4c5nc(c(-c6c(F)c(F)c(F)c(F)c6F)c6ccc([nH]6)c(-c6c(F)c(F)c(F)c(F)c6F)c6nc(c(-c7c(F)c(F)c(F)c(F)c7F)c7ccc4[nH]7)C=C6)C=C5)cc3)c3c(-c4cccc([N+](=O)[O-])c4)[nH]nc3n2)cc1
REMARK SMILES IDX 14 1 13 2 12 3 11 4 9 5 10 6 8 8 6 9 7 10 98 11 97 12 84 13
REMARK SMILES IDX 96 14 85 15 95 16 5 18 1 19 2 20 3 21 100 22 4 23 99 24
REMARK SMILES IDX 86 25 87 26 94 27 88 28 90 29 89 30 91 31 92 32 93 33 15 34
REMARK SMILES IDX 16 35 17 36 18 37 19 38 20 40 21 41 22 42 83 43 23 44 82 45
REMARK SMILES IDX 24 46 25 47 26 48 76 49 27 50 81 51 75 52 77 53 28 54 80 55
REMARK SMILES IDX 74 56 73 57 29 59 61 60 41 61 60 62 42 63 45 64 59 65 78 66
REMARK SMILES IDX 43 67 44 68 58 70 79 71 46 72 30 73 31 74 39 75 32 76 33 77
REMARK SMILES IDX 37 78 40 79 34 80 35 81 38 82 36 83 62 84 63 85 71 86 64 87
REMARK SMILES IDX 65 88 69 89 72 90 66 91 67 92 70 93 68 94 47 95 48 96 56 97
REMARK SMILES IDX 49 98 50 99 54 100 57 101 51 102 52 103 55 104 53 105
REMARK H PARENT 11 7 95 17 18 39 77 58 45 69
REMARK Flexibility Score: inf
ROOT
ATOM      1  C   UNL A   1      36.156  23.430  24.301  1.00  0.00     0.002 C 
ENDROOT
BRANCH   1   2
ATOM      2  C   UNL A   1      35.527  24.049  25.562  1.00  0.00     0.021 C 
BRANCH   2   3
ATOM      3  C   UNL A   1      34.820  25.383  25.319  1.00  0.00     0.116 C 
BRANCH   3   4
ATOM      4  N   UNL A   1      34.147  25.394  24.042  1.00  0.00    -0.352 N 
ATOM      5  C   UNL A   1      33.086  24.745  23.477  1.00  0.00     0.252 C 
ATOM      6  O   UNL A   1      32.745  25.238  22.407  1.00  0.00    -0.269 OA
ATOM      7  H   UNL A   1      34.559  26.034  23.418  1.00  0.00     0.163 HD
BRANCH   5   8
ATOM      8  C   UNL A   1      32.344  23.611  24.087  1.00  0.00     0.055 A 
ATOM      9  C   UNL A   1      32.051  21.173  24.489  1.00  0.00     0.074 A 
ATOM     10  C   UNL A   1      32.531  22.271  23.730  1.00  0.00     0.043 A 
ATOM     11  N   UNL A   1      31.223  21.254  25.559  1.00  0.00    -0.226 NA
ATOM     12  C   UNL A   1      30.882  22.532  25.857  1.00  0.00     0.182 A 
ATOM     13  C   UNL A   1      31.418  23.675  25.152  1.00  0.00     0.059 A 
ATOM     14  N   UNL A   1      30.045  22.895  26.828  1.00  0.00    -0.154 NA
ATOM     15  C   UNL A   1      30.786  24.765  25.735  1.00  0.00     0.076 A 
ATOM     16  N   UNL A   1      30.008  24.230  26.735  1.00  0.00    -0.275 N 
ATOM     17  H   UNL A   1      29.465  24.788  27.338  1.00  0.00     0.190 HD
BRANCH   9  18
ATOM     18  C   UNL A   1      32.578  19.838  24.158  1.00  0.00     0.000 A 
ATOM     19  C   UNL A   1      34.565  16.192  22.941  1.00  0.00     0.044 C 
ATOM     20  C   UNL A   1      33.853  17.431  23.395  1.00  0.00    -0.051 A 
ATOM     21  C   UNL A   1      32.745  17.913  22.685  1.00  0.00     0.004 A 
ATOM     22  C   UNL A   1      34.292  18.132  24.520  1.00  0.00     0.004 A 
ATOM     23  C   UNL A   1      32.109  19.101  23.065  1.00  0.00     0.010 A 
ATOM     24  C   UNL A   1      33.659  19.316  24.898  1.00  0.00     0.010 A 
ENDBRANCH   9  18
BRANCH  15  25
ATOM     25  C   UNL A   1      30.758  26.195  25.457  1.00  0.00     0.007 A 
ATOM     26  C   UNL A   1      31.578  27.071  26.182  1.00  0.00     0.011 A 
ATOM     27  C   UNL A   1      30.005  26.681  24.380  1.00  0.00     0.096 A 
ATOM     28  C   UNL A   1      31.695  28.410  25.799  1.00  0.00     0.008 A 
ATOM     29  C   UNL A   1      30.163  28.012  23.974  1.00  0.00     0.270 A 
ATOM     30  C   UNL A   1      31.001  28.883  24.683  1.00  0.00     0.085 A 
BRANCH  29  31
ATOM     31  N   UNL A   1      29.506  28.475  22.747  1.00  0.00     0.062 N 
ATOM     32  O   UNL A   1      28.300  28.754  22.806  1.00  0.00    -0.258 OA
ATOM     33  O   UNL A   1      30.193  28.557  21.718  1.00  0.00    -0.258 OA
ENDBRANCH  29  31
ENDBRANCH  15  25
ENDBRANCH   5   8
ENDBRANCH   3   4
ENDBRANCH   2   3
ENDBRANCH   1   2
BRANCH   1  34
ATOM     34  C   UNL A   1      36.485  21.930  24.371  1.00  0.00     0.002 C 
BRANCH  34  35
ATOM     35  C   UNL A   1      37.859  21.569  24.943  1.00  0.00     0.021 C 
BRANCH  35  36
ATOM     36  C   UNL A   1      38.320  22.482  26.066  1.00  0.00     0.116 C 
BRANCH  36  37
ATOM     37  N   UNL A   1      39.765  22.506  26.238  1.00  0.00    -0.352 N 
ATOM     38  C   UNL A   1      40.618  23.576  26.467  1.00  0.00     0.251 C 
ATOM     39  H   UNL A   1      40.204  21.627  26.183  1.00  0.00     0.163 HD
ATOM     40  O   UNL A   1      41.816  23.407  26.507  1.00  0.00    -0.269 OA
BRANCH  38  41
ATOM     41  C   UNL A   1      40.032  24.894  26.824  1.00  0.00     0.039 A 
ATOM     42  C   UNL A   1      40.491  26.009  26.111  1.00  0.00     0.014 A 
ATOM     43  C   UNL A   1      39.265  25.060  27.971  1.00  0.00     0.014 A 
ATOM     44  C   UNL A   1      40.419  27.268  26.698  1.00  0.00     0.010 A 
ATOM     45  C   UNL A   1      39.296  26.282  28.607  1.00  0.00     0.010 A 
ATOM     46  C   UNL A   1      39.941  27.365  28.002  1.00  0.00    -0.014 A 
BRANCH  46  47
ATOM     47  C   UNL A   1      40.170  28.520  28.858  1.00  0.00     0.031 A 
ATOM     48  C   UNL A   1      39.132  29.562  28.988  1.00  0.00     0.074 A 
ATOM     49  C   UNL A   1      41.268  28.537  29.645  1.00  0.00     0.049 A 
ATOM     50  N   UNL A   1      39.331  30.729  29.495  1.00  0.00    -0.248 NA
ATOM     51  C   UNL A   1      37.773  29.374  28.501  1.00  0.00     0.031 C 
ATOM     52  C   UNL A   1      41.512  29.377  30.816  1.00  0.00     0.029 A 
ATOM     53  N   UNL A   1      42.500  27.903  29.409  1.00  0.00    -0.354 N 
ATOM     54  C   UNL A   1      38.106  31.338  29.655  1.00  0.00     0.074 A 
ATOM     55  C   UNL A   1      37.177  30.477  28.961  1.00  0.00     0.031 C 
ATOM     56  C   UNL A   1      42.836  29.450  31.029  1.00  0.00     0.029 A 
ATOM     57  C   UNL A   1      43.479  28.797  29.902  1.00  0.00     0.049 A 
ATOM     58  H   UNL A   1      42.650  27.024  28.990  1.00  0.00     0.167 HD
ATOM     59  C   UNL A   1      38.019  32.432  30.467  1.00  0.00     0.037 A 
ATOM     60  C   UNL A   1      44.379  29.401  29.072  1.00  0.00     0.037 A 
ATOM     61  C   UNL A   1      39.348  32.859  30.905  1.00  0.00     0.049 A 
ATOM     62  C   UNL A   1      44.341  30.910  29.124  1.00  0.00     0.074 A 
ATOM     63  C   UNL A   1      40.069  32.647  32.070  1.00  0.00     0.029 A 
ATOM     64  N   UNL A   1      40.251  33.346  29.967  1.00  0.00    -0.354 N 
ATOM     65  N   UNL A   1      43.298  31.597  29.501  1.00  0.00    -0.248 NA
ATOM     66  C   UNL A   1      45.463  31.757  28.735  1.00  0.00     0.031 C 
ATOM     67  C   UNL A   1      41.425  32.972  31.814  1.00  0.00     0.029 A 
ATOM     68  C   UNL A   1      41.524  33.399  30.500  1.00  0.00     0.049 A 
ATOM     69  H   UNL A   1      40.017  33.614  29.049  1.00  0.00     0.167 HD
ATOM     70  C   UNL A   1      43.579  32.937  29.406  1.00  0.00     0.074 A 
ATOM     71  C   UNL A   1      44.951  32.984  28.936  1.00  0.00     0.031 C 
ATOM     72  C   UNL A   1      42.648  33.888  29.717  1.00  0.00     0.037 A 
BRANCH  59  73
ATOM     73  C   UNL A   1      36.734  32.937  31.096  1.00  0.00     0.064 A 
ATOM     74  C   UNL A   1      35.835  33.739  30.353  1.00  0.00     0.173 A 
ATOM     75  C   UNL A   1      36.356  32.736  32.436  1.00  0.00     0.173 A 
ATOM     76  F   UNL A   1      35.988  33.930  29.037  1.00  0.00    -0.203 F 
ATOM     77  C   UNL A   1      34.739  34.383  30.935  1.00  0.00     0.198 A 
ATOM     78  C   UNL A   1      35.290  33.420  33.032  1.00  0.00     0.198 A 
ATOM     79  F   UNL A   1      36.957  31.821  33.202  1.00  0.00    -0.203 F 
ATOM     80  F   UNL A   1      33.934  35.141  30.177  1.00  0.00    -0.200 F 
ATOM     81  C   UNL A   1      34.489  34.255  32.284  1.00  0.00     0.200 A 
ATOM     82  F   UNL A   1      35.047  33.257  34.341  1.00  0.00    -0.200 F 
ATOM     83  F   UNL A   1      33.466  34.907  32.854  1.00  0.00    -0.200 F 
ENDBRANCH  59  73
BRANCH  60  84
ATOM     84  C   UNL A   1      44.682  28.604  27.853  1.00  0.00     0.064 A 
ATOM     85  C   UNL A   1      45.518  27.477  27.980  1.00  0.00     0.173 A 
ATOM     86  C   UNL A   1      43.889  28.695  26.704  1.00  0.00     0.173 A 
ATOM     87  F   UNL A   1      46.300  27.341  29.064  1.00  0.00    -0.203 F 
ATOM     88  C   UNL A   1      45.466  26.429  27.064  1.00  0.00     0.198 A 
ATOM     89  C   UNL A   1      43.851  27.650  25.779  1.00  0.00     0.198 A 
ATOM     90  F   UNL A   1      43.061  29.735  26.532  1.00  0.00    -0.203 F 
ATOM     91  F   UNL A   1      46.183  25.317  27.277  1.00  0.00    -0.200 F 
ATOM     92  C   UNL A   1      44.610  26.505  25.979  1.00  0.00     0.200 A 
ATOM     93  F   UNL A   1      43.001  27.708  24.744  1.00  0.00    -0.200 F 
ATOM     94  F   UNL A   1      44.481  25.459  25.149  1.00  0.00    -0.200 F 
ENDBRANCH  60  84
BRANCH  72  95
ATOM     95  C   UNL A   1      42.729  35.369  29.412  1.00  0.00     0.064 A 
ATOM     96  C   UNL A   1      43.430  36.301  30.196  1.00  0.00     0.173 A 
ATOM     97  C   UNL A   1      42.207  35.878  28.196  1.00  0.00     0.173 A 
ATOM     98  F   UNL A   1      44.081  35.932  31.306  1.00  0.00    -0.203 F 
ATOM     99  C   UNL A   1      43.543  37.645  29.827  1.00  0.00     0.198 A 
ATOM    100  C   UNL A   1      42.377  37.205  27.801  1.00  0.00     0.198 A 
ATOM    101  F   UNL A   1      41.541  35.098  27.332  1.00  0.00    -0.203 F 
ATOM    102  F   UNL A   1      44.188  38.500  30.634  1.00  0.00    -0.200 F 
ATOM    103  C   UNL A   1      43.031  38.094  28.626  1.00  0.00     0.200 A 
ATOM    104  F   UNL A   1      41.922  37.607  26.605  1.00  0.00    -0.200 F 
ATOM    105  F   UNL A   1      43.189  39.370  28.253  1.00  0.00    -0.200 F 
ENDBRANCH  72  95
ENDBRANCH  46  47
ENDBRANCH  38  41
ENDBRANCH  36  37
ENDBRANCH  35  36
ENDBRANCH  34  35
ENDBRANCH   1  34
TORSDOF 16
ENDMDL
MODEL 3
REMARK VINA RESULT:     -14.7      0.851      1.895
REMARK SMILES Cc1ccc(-c2cc(C(=O)NCCCCCCNC(=O)c3ccc(-c4c5nc(c(-c6c(F)c(F)c(F)c(F)c6F)c6ccc([nH]6)c(-c6c(F)c(F)c(F)c(F)c6F)c6nc(c(-c7c(F)c(F)c(F)c(F)c7F)c7ccc4[nH]7)C=C6)C=C5)cc3)c3c(-c4cccc([N+](=O)[O-])c4)[nH]nc3n2)cc1
REMARK SMILES IDX 14 1 13 2 12 3 11 4 9 5 10 6 8 8 6 9 7 10 98 11 97 12 84 13
REMARK SMILES IDX 96 14 85 15 95 16 5 18 1 19 2 20 3 21 100 22 4 23 99 24
REMARK SMILES IDX 86 25 87 26 94 27 88 28 90 29 89 30 91 31 92 32 93 33 15 34
REMARK SMILES IDX 16 35 17 36 18 37 19 38 20 40 21 41 22 42 83 43 23 44 82 45
REMARK SMILES IDX 24 46 25 47 26 48 76 49 27 50 81 51 75 52 77 53 28 54 80 55
REMARK SMILES IDX 74 56 73 57 29 59 61 60 41 61 60 62 42 63 45 64 59 65 78 66
REMARK SMILES IDX 43 67 44 68 58 70 79 71 46 72 30 73 31 74 39 75 32 76 33 77
REMARK SMILES IDX 37 78 40 79 34 80 35 81 38 82 36 83 62 84 63 85 71 86 64 87
REMARK SMILES IDX 65 88 69 89 72 90 66 91 67 92 70 93 68 94 47 95 48 96 56 97
REMARK SMILES IDX 49 98 50 99 54 100 57 101 51 102 52 103 55 104 53 105
REMARK H PARENT 11 7 95 17 18 39 77 58 45 69
REMARK Flexibility Score: inf
ROOT
ATOM      1  C   UNL A   1      33.098  28.712  25.385  1.00  0.00     0.002 C 
ENDROOT
BRANCH   1   2
ATOM      2  C   UNL A   1      31.640  28.429  25.789  1.00  0.00     0.021 C 
BRANCH   2   3
ATOM      3  C   UNL A   1      31.490  27.413  26.921  1.00  0.00     0.116 C 
BRANCH   3   4
ATOM      4  N   UNL A   1      30.860  26.200  26.456  1.00  0.00    -0.352 N 
ATOM      5  C   UNL A   1      31.186  25.180  25.608  1.00  0.00     0.252 C 
ATOM      6  O   UNL A   1      30.404  24.237  25.678  1.00  0.00    -0.269 OA
ATOM      7  H   UNL A   1      29.968  26.076  26.852  1.00  0.00     0.163 HD
BRANCH   5   8
ATOM      8  C   UNL A   1      32.385  25.136  24.731  1.00  0.00     0.055 A 
ATOM      9  C   UNL A   1      34.682  24.318  24.232  1.00  0.00     0.074 A 
ATOM     10  C   UNL A   1      33.627  24.629  25.129  1.00  0.00     0.043 A 
ATOM     11  N   UNL A   1      34.705  24.611  22.908  1.00  0.00    -0.226 NA
ATOM     12  C   UNL A   1      33.581  25.249  22.496  1.00  0.00     0.182 A 
ATOM     13  C   UNL A   1      32.458  25.507  23.369  1.00  0.00     0.059 A 
ATOM     14  N   UNL A   1      33.362  25.693  21.260  1.00  0.00    -0.154 NA
ATOM     15  C   UNL A   1      31.558  26.204  22.574  1.00  0.00     0.076 A 
ATOM     16  N   UNL A   1      32.148  26.255  21.333  1.00  0.00    -0.275 N 
ATOM     17  H   UNL A   1      31.711  26.673  20.556  1.00  0.00     0.190 HD
BRANCH   9  18
ATOM     18  C   UNL A   1      35.801  23.517  24.753  1.00  0.00     0.000 A 
ATOM     19  C   UNL A   1      39.434  21.521  25.998  1.00  0.00     0.044 C 
ATOM     20  C   UNL A   1      38.153  22.194  25.603  1.00  0.00    -0.051 A 
ATOM     21  C   UNL A   1      37.349  21.650  24.592  1.00  0.00     0.004 A 
ATOM     22  C   UNL A   1      37.750  23.378  26.224  1.00  0.00     0.004 A 
ATOM     23  C   UNL A   1      36.180  22.301  24.175  1.00  0.00     0.010 A 
ATOM     24  C   UNL A   1      36.588  24.027  25.806  1.00  0.00     0.010 A 
ENDBRANCH   9  18
BRANCH  15  25
ATOM     25  C   UNL A   1      30.285  26.868  22.818  1.00  0.00     0.007 A 
ATOM     26  C   UNL A   1      29.237  26.177  23.444  1.00  0.00     0.011 A 
ATOM     27  C   UNL A   1      30.147  28.235  22.542  1.00  0.00     0.096 A 
ATOM     28  C   UNL A   1      28.084  26.856  23.848  1.00  0.00     0.008 A 
ATOM     29  C   UNL A   1      29.009  28.917  22.991  1.00  0.00     0.270 A 
ATOM     30  C   UNL A   1      27.972  28.232  23.638  1.00  0.00     0.085 A 
BRANCH  29  31
ATOM     31  N   UNL A   1      28.940  30.376  22.853  1.00  0.00     0.062 N 
ATOM     32  O   UNL A   1      28.685  30.840  21.732  1.00  0.00    -0.258 OA
ATOM     33  O   UNL A   1      29.147  31.063  23.864  1.00  0.00    -0.258 OA
ENDBRANCH  29  31
ENDBRANCH  15  25
ENDBRANCH   5   8
ENDBRANCH   3   4
ENDBRANCH   2   3
ENDBRANCH   1   2
BRANCH   1  34
ATOM     34  C   UNL A   1      34.127  28.745  26.528  1.00  0.00     0.002 C 
BRANCH  34  35
ATOM     35  C   UNL A   1      33.848  29.744  27.654  1.00  0.00     0.021 C 
BRANCH  35  36
ATOM     36  C   UNL A   1      34.384  31.141  27.389  1.00  0.00     0.116 C 
BRANCH  36  37
ATOM     37  N   UNL A   1      34.878  31.809  28.584  1.00  0.00    -0.352 N 
ATOM     38  C   UNL A   1      35.841  31.405  29.497  1.00  0.00     0.251 C 
ATOM     39  H   UNL A   1      34.464  32.682  28.773  1.00  0.00     0.163 HD
ATOM     40  O   UNL A   1      36.066  32.069  30.484  1.00  0.00    -0.269 OA
BRANCH  38  41
ATOM     41  C   UNL A   1      36.701  30.240  29.163  1.00  0.00     0.039 A 
ATOM     42  C   UNL A   1      36.823  29.239  30.134  1.00  0.00     0.014 A 
ATOM     43  C   UNL A   1      37.545  30.256  28.058  1.00  0.00     0.014 A 
ATOM     44  C   UNL A   1      37.957  28.433  30.141  1.00  0.00     0.010 A 
ATOM     45  C   UNL A   1      38.722  29.543  28.125  1.00  0.00     0.010 A 
ATOM     46  C   UNL A   1      38.959  28.690  29.209  1.00  0.00    -0.014 A 
BRANCH  46  47
ATOM     47  C   UNL A   1      40.325  28.206  29.342  1.00  0.00     0.031 A 
ATOM     48  C   UNL A   1      40.693  26.875  28.820  1.00  0.00     0.074 A 
ATOM     49  C   UNL A   1      41.272  29.054  29.802  1.00  0.00     0.049 A 
ATOM     50  N   UNL A   1      41.781  26.252  29.116  1.00  0.00    -0.248 NA
ATOM     51  C   UNL A   1      39.816  26.112  27.943  1.00  0.00     0.031 C 
ATOM     52  C   UNL A   1      42.722  28.922  29.676  1.00  0.00     0.029 A 
ATOM     53  N   UNL A   1      41.096  30.145  30.671  1.00  0.00    -0.354 N 
ATOM     54  C   UNL A   1      41.885  25.161  28.282  1.00  0.00     0.074 A 
ATOM     55  C   UNL A   1      40.605  25.084  27.618  1.00  0.00     0.031 C 
ATOM     56  C   UNL A   1      43.309  29.666  30.628  1.00  0.00     0.029 A 
ATOM     57  C   UNL A   1      42.249  30.157  31.490  1.00  0.00     0.049 A 
ATOM     58  H   UNL A   1      40.333  30.766  30.702  1.00  0.00     0.167 HD
ATOM     59  C   UNL A   1      43.093  24.534  28.171  1.00  0.00     0.037 A 
ATOM     60  C   UNL A   1      42.174  29.920  32.833  1.00  0.00     0.037 A 
ATOM     61  C   UNL A   1      44.051  25.081  29.132  1.00  0.00     0.049 A 
ATOM     62  C   UNL A   1      43.018  28.756  33.295  1.00  0.00     0.074 A 
ATOM     63  C   UNL A   1      45.065  26.020  29.021  1.00  0.00     0.029 A 
ATOM     64  N   UNL A   1      43.829  24.901  30.493  1.00  0.00    -0.354 N 
ATOM     65  N   UNL A   1      43.389  27.774  32.520  1.00  0.00    -0.248 NA
ATOM     66  C   UNL A   1      43.487  28.597  34.667  1.00  0.00     0.031 C 
ATOM     67  C   UNL A   1      45.426  26.434  30.328  1.00  0.00     0.029 A 
ATOM     68  C   UNL A   1      44.644  25.735  31.232  1.00  0.00     0.049 A 
ATOM     69  H   UNL A   1      43.179  24.268  30.876  1.00  0.00     0.167 HD
ATOM     70  C   UNL A   1      44.116  26.869  33.249  1.00  0.00     0.074 A 
ATOM     71  C   UNL A   1      44.162  27.437  34.584  1.00  0.00     0.031 C 
ATOM     72  C   UNL A   1      44.609  25.726  32.686  1.00  0.00     0.037 A 
BRANCH  59  73
ATOM     73  C   UNL A   1      43.495  23.641  27.012  1.00  0.00     0.064 A 
ATOM     74  C   UNL A   1      43.086  22.288  26.970  1.00  0.00     0.173 A 
ATOM     75  C   UNL A   1      44.338  24.023  25.952  1.00  0.00     0.173 A 
ATOM     76  F   UNL A   1      42.192  21.797  27.838  1.00  0.00    -0.203 F 
ATOM     77  C   UNL A   1      43.580  21.377  26.031  1.00  0.00     0.198 A 
ATOM     78  C   UNL A   1      44.875  23.102  25.043  1.00  0.00     0.198 A 
ATOM     79  F   UNL A   1      44.621  25.306  25.710  1.00  0.00    -0.203 F 
ATOM     80  F   UNL A   1      43.161  20.104  26.055  1.00  0.00    -0.200 F 
ATOM     81  C   UNL A   1      44.506  21.775  25.092  1.00  0.00     0.200 A 
ATOM     82  F   UNL A   1      45.751  23.519  24.117  1.00  0.00    -0.200 F 
ATOM     83  F   UNL A   1      45.016  20.896  24.219  1.00  0.00    -0.200 F 
ENDBRANCH  59  73
BRANCH  60  84
ATOM     84  C   UNL A   1      40.866  30.305  33.427  1.00  0.00     0.064 A 
ATOM     85  C   UNL A   1      40.617  31.670  33.673  1.00  0.00     0.173 A 
ATOM     86  C   UNL A   1      39.765  29.442  33.390  1.00  0.00     0.173 A 
ATOM     87  F   UNL A   1      41.639  32.540  33.718  1.00  0.00    -0.203 F 
ATOM     88  C   UNL A   1      39.318  32.167  33.748  1.00  0.00     0.198 A 
ATOM     89  C   UNL A   1      38.464  29.943  33.483  1.00  0.00     0.198 A 
ATOM     90  F   UNL A   1      39.933  28.136  33.144  1.00  0.00    -0.203 F 
ATOM     91  F   UNL A   1      39.112  33.487  33.861  1.00  0.00    -0.200 F 
ATOM     92  C   UNL A   1      38.242  31.305  33.625  1.00  0.00     0.200 A 
ATOM     93  F   UNL A   1      37.420  29.114  33.333  1.00  0.00    -0.200 F 
ATOM     94  F   UNL A   1      36.992  31.790  33.596  1.00  0.00    -0.200 F 
ENDBRANCH  60  84
BRANCH  72  95
ATOM     95  C   UNL A   1      45.190  24.533  33.417  1.00  0.00     0.064 A 
ATOM     96  C   UNL A   1      44.475  23.358  33.707  1.00  0.00     0.173 A 
ATOM     97  C   UNL A   1      46.574  24.484  33.721  1.00  0.00     0.173 A 
ATOM     98  F   UNL A   1      43.190  23.217  33.359  1.00  0.00    -0.203 F 
ATOM     99  C   UNL A   1      45.080  22.251  34.311  1.00  0.00     0.198 A 
ATOM    100  C   UNL A   1      47.186  23.355  34.265  1.00  0.00     0.198 A 
ATOM    101  F   UNL A   1      47.389  25.520  33.469  1.00  0.00    -0.203 F 
ATOM    102  F   UNL A   1      44.340  21.172  34.603  1.00  0.00    -0.200 F 
ATOM    103  C   UNL A   1      46.435  22.243  34.576  1.00  0.00     0.200 A 
ATOM    104  F   UNL A   1      48.513  23.346  34.460  1.00  0.00    -0.200 F 
ATOM    105  F   UNL A   1      47.019  21.160  35.105  1.00  0.00    -0.200 F 
ENDBRANCH  72  95
ENDBRANCH  46  47
ENDBRANCH  38  41
ENDBRANCH  36  37
ENDBRANCH  35  36
ENDBRANCH  34  35
ENDBRANCH   1  34
TORSDOF 16
ENDMDL
