MODEL 1
REMARK VINA RESULT:     -11.0      0.000      0.000
REMARK SMILES C/C(=N\O)[C@@H]1C[C@@H](CC(=O)NCCCCCCNC(=O)c2ccc(-c3c4nc(c(-c5c(F)c(F)c(F)c(F)c5F)c5ccc([nH]5)c(-c5c(F)c(F)c(F)c(F)c5F)c5nc(c(-c6c(F)c(F)c(F)c(F)c6F)c6ccc3[nH]6)C=C5)C=C4)cc2)C1(C)C
REMARK SMILES IDX 14 1 13 2 12 3 11 4 9 5 10 6 8 8 7 9 5 10 6 11 84 12 85 13
REMARK SMILES IDX 86 14 2 15 1 16 3 17 4 18 15 20 16 21 17 22 18 23 19 24
REMARK SMILES IDX 20 26 21 27 22 28 83 29 23 30 82 31 24 32 25 33 26 34 76 35
REMARK SMILES IDX 27 36 81 37 75 38 77 39 28 40 80 41 74 42 73 43 29 45 61 46
REMARK SMILES IDX 41 47 60 48 42 49 45 50 59 51 78 52 43 53 44 54 58 56 79 57
REMARK SMILES IDX 46 58 30 59 31 60 39 61 32 62 33 63 37 64 40 65 34 66 35 67
REMARK SMILES IDX 38 68 36 69 62 70 63 71 71 72 64 73 65 74 69 75 72 76 66 77
REMARK SMILES IDX 67 78 70 79 68 80 47 81 48 82 56 83 49 84 50 85 54 86 57 87
REMARK SMILES IDX 51 88 52 89 55 90 53 91
REMARK H PARENT 11 7 4 19 18 25 77 44 45 55
REMARK Flexibility Score: inf
ROOT
ATOM      1  C   UNL A   1      31.014  27.089  25.209  1.00  0.00     0.002 C 
ENDROOT
BRANCH   1   2
ATOM      2  C   UNL A   1      30.549  27.447  23.799  1.00  0.00     0.021 C 
BRANCH   2   3
ATOM      3  C   UNL A   1      31.665  27.929  22.868  1.00  0.00     0.116 C 
BRANCH   3   4
ATOM      4  N   UNL A   1      31.966  26.924  21.869  1.00  0.00    -0.356 N 
ATOM      5  C   UNL A   1      33.014  26.065  21.766  1.00  0.00     0.220 C 
ATOM      6  O   UNL A   1      33.095  25.372  20.749  1.00  0.00    -0.275 OA
ATOM      7  H   UNL A   1      31.301  26.850  21.147  1.00  0.00     0.163 HD
BRANCH   5   8
ATOM      8  C   UNL A   1      34.052  25.950  22.864  1.00  0.00     0.104 C 
BRANCH   8   9
ATOM      9  C   UNL A   1      33.670  24.992  23.996  1.00  0.00     0.005 C 
ATOM     10  C   UNL A   1      34.461  23.824  25.663  1.00  0.00     0.043 C 
ATOM     11  C   UNL A   1      34.274  25.330  25.379  1.00  0.00     0.015 C 
ATOM     12  C   UNL A   1      34.324  23.561  24.118  1.00  0.00    -0.024 C 
ATOM     13  C   UNL A   1      35.720  23.316  23.536  1.00  0.00     0.012 C 
ATOM     14  C   UNL A   1      33.346  22.471  23.673  1.00  0.00     0.012 C 
BRANCH  10  15
ATOM     15  C   UNL A   1      33.477  23.066  26.620  1.00  0.00     0.058 C 
ATOM     16  C   UNL A   1      33.980  21.765  27.207  1.00  0.00     0.066 C 
ATOM     17  N   UNL A   1      32.285  23.552  26.796  1.00  0.00    -0.099 NA
BRANCH  17  18
ATOM     18  O   UNL A   1      31.487  22.707  27.571  1.00  0.00    -0.411 OA
ATOM     19  H   UNL A   1      30.561  22.681  27.434  1.00  0.00     0.330 HD
ENDBRANCH  17  18
ENDBRANCH  10  15
ENDBRANCH   8   9
ENDBRANCH   5   8
ENDBRANCH   3   4
ENDBRANCH   2   3
ENDBRANCH   1   2
BRANCH   1  20
ATOM     20  C   UNL A   1      31.548  28.264  26.031  1.00  0.00     0.002 C 
BRANCH  20  21
ATOM     21  C   UNL A   1      32.460  27.897  27.207  1.00  0.00     0.021 C 
BRANCH  21  22
ATOM     22  C   UNL A   1      33.840  28.552  27.199  1.00  0.00     0.116 C 
BRANCH  22  23
ATOM     23  N   UNL A   1      33.788  29.963  27.547  1.00  0.00    -0.352 N 
ATOM     24  C   UNL A   1      34.695  30.744  28.216  1.00  0.00     0.251 C 
ATOM     25  H   UNL A   1      32.972  30.431  27.258  1.00  0.00     0.163 HD
ATOM     26  O   UNL A   1      34.387  31.874  28.581  1.00  0.00    -0.269 OA
BRANCH  24  27
ATOM     27  C   UNL A   1      36.046  30.226  28.516  1.00  0.00     0.039 A 
ATOM     28  C   UNL A   1      37.040  30.329  27.538  1.00  0.00     0.014 A 
ATOM     29  C   UNL A   1      36.327  29.612  29.739  1.00  0.00     0.014 A 
ATOM     30  C   UNL A   1      38.333  29.877  27.812  1.00  0.00     0.010 A 
ATOM     31  C   UNL A   1      37.630  29.221  30.036  1.00  0.00     0.010 A 
ATOM     32  C   UNL A   1      38.645  29.349  29.076  1.00  0.00    -0.014 A 
BRANCH  32  33
ATOM     33  C   UNL A   1      40.028  28.928  29.414  1.00  0.00     0.031 A 
ATOM     34  C   UNL A   1      40.921  29.838  30.209  1.00  0.00     0.074 A 
ATOM     35  C   UNL A   1      40.503  27.759  28.942  1.00  0.00     0.049 A 
ATOM     36  N   UNL A   1      42.185  29.693  30.523  1.00  0.00    -0.248 NA
ATOM     37  C   UNL A   1      40.321  31.089  30.696  1.00  0.00     0.031 C 
ATOM     38  C   UNL A   1      39.746  26.807  28.128  1.00  0.00     0.029 A 
ATOM     39  N   UNL A   1      41.740  27.179  29.066  1.00  0.00    -0.354 N 
ATOM     40  C   UNL A   1      42.532  30.838  31.228  1.00  0.00     0.074 A 
ATOM     41  C   UNL A   1      41.362  31.690  31.256  1.00  0.00     0.031 C 
ATOM     42  C   UNL A   1      40.528  25.757  27.838  1.00  0.00     0.029 A 
ATOM     43  C   UNL A   1      41.854  25.978  28.409  1.00  0.00     0.049 A 
ATOM     44  H   UNL A   1      42.478  27.586  29.577  1.00  0.00     0.167 HD
ATOM     45  C   UNL A   1      43.714  31.141  31.817  1.00  0.00     0.037 A 
ATOM     46  C   UNL A   1      42.911  25.154  28.274  1.00  0.00     0.037 A 
ATOM     47  C   UNL A   1      44.867  30.280  31.808  1.00  0.00     0.049 A 
ATOM     48  C   UNL A   1      44.217  25.522  28.924  1.00  0.00     0.074 A 
ATOM     49  C   UNL A   1      46.091  30.471  32.423  1.00  0.00     0.029 A 
ATOM     50  N   UNL A   1      44.938  29.062  31.146  1.00  0.00    -0.354 N 
ATOM     51  N   UNL A   1      44.515  26.578  29.640  1.00  0.00    -0.248 NA
ATOM     52  C   UNL A   1      45.332  24.580  28.752  1.00  0.00     0.031 C 
ATOM     53  C   UNL A   1      46.919  29.392  32.097  1.00  0.00     0.029 A 
ATOM     54  C   UNL A   1      46.193  28.502  31.321  1.00  0.00     0.049 A 
ATOM     55  H   UNL A   1      44.205  28.656  30.630  1.00  0.00     0.167 HD
ATOM     56  C   UNL A   1      45.838  26.415  30.028  1.00  0.00     0.074 A 
ATOM     57  C   UNL A   1      46.282  25.151  29.477  1.00  0.00     0.031 C 
ATOM     58  C   UNL A   1      46.615  27.237  30.775  1.00  0.00     0.037 A 
BRANCH  45  59
ATOM     59  C   UNL A   1      43.820  32.462  32.523  1.00  0.00     0.064 A 
ATOM     60  C   UNL A   1      43.491  32.599  33.880  1.00  0.00     0.173 A 
ATOM     61  C   UNL A   1      44.294  33.596  31.845  1.00  0.00     0.173 A 
ATOM     62  F   UNL A   1      43.024  31.548  34.571  1.00  0.00    -0.203 F 
ATOM     63  C   UNL A   1      43.605  33.828  34.524  1.00  0.00     0.198 A 
ATOM     64  C   UNL A   1      44.435  34.816  32.501  1.00  0.00     0.198 A 
ATOM     65  F   UNL A   1      44.629  33.518  30.548  1.00  0.00    -0.203 F 
ATOM     66  F   UNL A   1      43.239  33.945  35.808  1.00  0.00    -0.200 F 
ATOM     67  C   UNL A   1      44.084  34.933  33.837  1.00  0.00     0.200 A 
ATOM     68  F   UNL A   1      44.911  35.879  31.838  1.00  0.00    -0.200 F 
ATOM     69  F   UNL A   1      44.200  36.114  34.460  1.00  0.00    -0.200 F 
ENDBRANCH  45  59
BRANCH  46  70
ATOM     70  C   UNL A   1      42.773  23.891  27.503  1.00  0.00     0.064 A 
ATOM     71  C   UNL A   1      43.094  23.845  26.139  1.00  0.00     0.173 A 
ATOM     72  C   UNL A   1      42.319  22.711  28.107  1.00  0.00     0.173 A 
ATOM     73  F   UNL A   1      43.514  24.954  25.511  1.00  0.00    -0.203 F 
ATOM     74  C   UNL A   1      42.946  22.670  25.404  1.00  0.00     0.198 A 
ATOM     75  C   UNL A   1      42.197  21.530  27.377  1.00  0.00     0.198 A 
ATOM     76  F   UNL A   1      42.003  22.701  29.410  1.00  0.00    -0.203 F 
ATOM     77  F   UNL A   1      43.217  22.665  24.092  1.00  0.00    -0.200 F 
ATOM     78  C   UNL A   1      42.503  21.513  26.025  1.00  0.00     0.200 A 
ATOM     79  F   UNL A   1      41.783  20.409  27.985  1.00  0.00    -0.200 F 
ATOM     80  F   UNL A   1      42.365  20.381  25.320  1.00  0.00    -0.200 F 
ENDBRANCH  46  70
BRANCH  58  81
ATOM     81  C   UNL A   1      48.013  26.782  31.076  1.00  0.00     0.064 A 
ATOM     82  C   UNL A   1      48.300  25.964  32.178  1.00  0.00     0.173 A 
ATOM     83  C   UNL A   1      49.071  27.130  30.220  1.00  0.00     0.173 A 
ATOM     84  F   UNL A   1      47.327  25.619  33.034  1.00  0.00    -0.203 F 
ATOM     85  C   UNL A   1      49.600  25.525  32.422  1.00  0.00     0.198 A 
ATOM     86  C   UNL A   1      50.361  26.665  30.452  1.00  0.00     0.198 A 
ATOM     87  F   UNL A   1      48.846  27.906  29.149  1.00  0.00    -0.203 F 
ATOM     88  F   UNL A   1      49.859  24.778  33.503  1.00  0.00    -0.200 F 
ATOM     89  C   UNL A   1      50.626  25.868  31.555  1.00  0.00     0.200 A 
ATOM     90  F   UNL A   1      51.350  26.987  29.605  1.00  0.00    -0.200 F 
ATOM     91  F   UNL A   1      51.873  25.435  31.786  1.00  0.00    -0.200 F 
ENDBRANCH  58  81
ENDBRANCH  32  33
ENDBRANCH  24  27
ENDBRANCH  22  23
ENDBRANCH  21  22
ENDBRANCH  20  21
ENDBRANCH   1  20
TORSDOF 16
ENDMDL
MODEL 2
REMARK VINA RESULT:     -10.9      4.048      9.352
REMARK SMILES C/C(=N\O)[C@@H]1C[C@@H](CC(=O)NCCCCCCNC(=O)c2ccc(-c3c4nc(c(-c5c(F)c(F)c(F)c(F)c5F)c5ccc([nH]5)c(-c5c(F)c(F)c(F)c(F)c5F)c5nc(c(-c6c(F)c(F)c(F)c(F)c6F)c6ccc3[nH]6)C=C5)C=C4)cc2)C1(C)C
REMARK SMILES IDX 14 1 13 2 12 3 11 4 9 5 10 6 8 8 7 9 5 10 6 11 84 12 85 13
REMARK SMILES IDX 86 14 2 15 1 16 3 17 4 18 15 20 16 21 17 22 18 23 19 24
REMARK SMILES IDX 20 26 21 27 22 28 83 29 23 30 82 31 24 32 25 33 26 34 76 35
REMARK SMILES IDX 27 36 81 37 75 38 77 39 28 40 80 41 74 42 73 43 29 45 61 46
REMARK SMILES IDX 41 47 60 48 42 49 45 50 59 51 78 52 43 53 44 54 58 56 79 57
REMARK SMILES IDX 46 58 30 59 31 60 39 61 32 62 33 63 37 64 40 65 34 66 35 67
REMARK SMILES IDX 38 68 36 69 62 70 63 71 71 72 64 73 65 74 69 75 72 76 66 77
REMARK SMILES IDX 67 78 70 79 68 80 47 81 48 82 56 83 49 84 50 85 54 86 57 87
REMARK SMILES IDX 51 88 52 89 55 90 53 91
REMARK H PARENT 11 7 4 19 18 25 77 44 45 55
REMARK Flexibility Score: inf
ROOT
ATOM      1  C   UNL A   1      32.653  30.017  26.778  1.00  0.00     0.002 C 
ENDROOT
BRANCH   1   2
ATOM      2  C   UNL A   1      33.580  29.281  25.813  1.00  0.00     0.021 C 
BRANCH   2   3
ATOM      3  C   UNL A   1      33.762  27.793  26.120  1.00  0.00     0.116 C 
BRANCH   3   4
ATOM      4  N   UNL A   1      32.623  27.281  26.854  1.00  0.00    -0.356 N 
ATOM      5  C   UNL A   1      31.440  26.777  26.414  1.00  0.00     0.220 C 
ATOM      6  O   UNL A   1      30.580  26.505  27.254  1.00  0.00    -0.275 OA
ATOM      7  H   UNL A   1      32.723  27.300  27.834  1.00  0.00     0.163 HD
BRANCH   5   8
ATOM      8  C   UNL A   1      31.180  26.547  24.938  1.00  0.00     0.104 C 
BRANCH   8   9
ATOM      9  C   UNL A   1      30.679  27.783  24.187  1.00  0.00     0.005 C 
ATOM     10  C   UNL A   1      29.567  28.451  22.430  1.00  0.00     0.043 C 
ATOM     11  C   UNL A   1      29.197  27.732  23.746  1.00  0.00     0.015 C 
ATOM     12  C   UNL A   1      31.065  28.042  22.679  1.00  0.00    -0.024 C 
ATOM     13  C   UNL A   1      31.406  26.855  21.772  1.00  0.00     0.012 C 
ATOM     14  C   UNL A   1      32.124  29.141  22.563  1.00  0.00     0.012 C 
BRANCH  10  15
ATOM     15  C   UNL A   1      29.250  29.975  22.240  1.00  0.00     0.058 C 
ATOM     16  C   UNL A   1      28.951  30.761  23.498  1.00  0.00     0.066 C 
ATOM     17  N   UNL A   1      29.193  30.451  21.033  1.00  0.00    -0.099 NA
BRANCH  17  18
ATOM     18  O   UNL A   1      28.782  31.786  21.018  1.00  0.00    -0.411 OA
ATOM     19  H   UNL A   1      28.159  32.078  20.382  1.00  0.00     0.330 HD
ENDBRANCH  17  18
ENDBRANCH  10  15
ENDBRANCH   8   9
ENDBRANCH   5   8
ENDBRANCH   3   4
ENDBRANCH   2   3
ENDBRANCH   1   2
BRANCH   1  20
ATOM     20  C   UNL A   1      31.513  30.793  26.114  1.00  0.00     0.002 C 
BRANCH  20  21
ATOM     21  C   UNL A   1      31.401  32.272  26.497  1.00  0.00     0.021 C 
BRANCH  21  22
ATOM     22  C   UNL A   1      32.617  32.862  27.210  1.00  0.00     0.116 C 
BRANCH  22  23
ATOM     23  N   UNL A   1      32.402  34.238  27.629  1.00  0.00    -0.352 N 
ATOM     24  C   UNL A   1      32.983  34.957  28.641  1.00  0.00     0.251 C 
ATOM     25  H   UNL A   1      31.731  34.732  27.103  1.00  0.00     0.163 HD
ATOM     26  O   UNL A   1      32.531  36.051  28.961  1.00  0.00    -0.269 OA
BRANCH  24  27
ATOM     27  C   UNL A   1      34.149  34.411  29.367  1.00  0.00     0.039 A 
ATOM     28  C   UNL A   1      33.939  33.749  30.580  1.00  0.00     0.014 A 
ATOM     29  C   UNL A   1      35.446  34.578  28.874  1.00  0.00     0.014 A 
ATOM     30  C   UNL A   1      35.022  33.195  31.265  1.00  0.00     0.010 A 
ATOM     31  C   UNL A   1      36.517  33.970  29.524  1.00  0.00     0.010 A 
ATOM     32  C   UNL A   1      36.316  33.273  30.726  1.00  0.00    -0.014 A 
BRANCH  32  33
ATOM     33  C   UNL A   1      37.472  32.631  31.401  1.00  0.00     0.031 A 
ATOM     34  C   UNL A   1      38.175  31.471  30.753  1.00  0.00     0.074 A 
ATOM     35  C   UNL A   1      37.840  33.044  32.629  1.00  0.00     0.049 A 
ATOM     36  N   UNL A   1      39.139  30.719  31.223  1.00  0.00    -0.248 NA
ATOM     37  C   UNL A   1      37.719  31.092  29.408  1.00  0.00     0.031 C 
ATOM     38  C   UNL A   1      37.212  34.134  33.377  1.00  0.00     0.029 A 
ATOM     39  N   UNL A   1      38.823  32.587  33.471  1.00  0.00    -0.354 N 
ATOM     40  C   UNL A   1      39.391  29.771  30.240  1.00  0.00     0.074 A 
ATOM     41  C   UNL A   1      38.449  30.012  29.168  1.00  0.00     0.031 C 
ATOM     42  C   UNL A   1      37.832  34.271  34.558  1.00  0.00     0.029 A 
ATOM     43  C   UNL A   1      38.875  33.254  34.671  1.00  0.00     0.049 A 
ATOM     44  H   UNL A   1      39.433  31.850  33.237  1.00  0.00     0.167 HD
ATOM     45  C   UNL A   1      40.337  28.801  30.225  1.00  0.00     0.037 A 
ATOM     46  C   UNL A   1      39.665  33.060  35.743  1.00  0.00     0.037 A 
ATOM     47  C   UNL A   1      41.288  28.581  31.283  1.00  0.00     0.049 A 
ATOM     48  C   UNL A   1      40.697  31.966  35.707  1.00  0.00     0.074 A 
ATOM     49  C   UNL A   1      42.321  27.663  31.337  1.00  0.00     0.029 A 
ATOM     50  N   UNL A   1      41.320  29.290  32.476  1.00  0.00    -0.354 N 
ATOM     51  N   UNL A   1      40.967  31.115  34.747  1.00  0.00    -0.248 NA
ATOM     52  C   UNL A   1      41.539  31.808  36.902  1.00  0.00     0.031 C 
ATOM     53  C   UNL A   1      42.950  27.784  32.580  1.00  0.00     0.029 A 
ATOM     54  C   UNL A   1      42.342  28.813  33.281  1.00  0.00     0.049 A 
ATOM     55  H   UNL A   1      40.708  30.023  32.714  1.00  0.00     0.167 HD
ATOM     56  C   UNL A   1      42.025  30.343  35.208  1.00  0.00     0.074 A 
ATOM     57  C   UNL A   1      42.355  30.833  36.529  1.00  0.00     0.031 C 
ATOM     58  C   UNL A   1      42.665  29.321  34.590  1.00  0.00     0.037 A 
BRANCH  45  59
ATOM     59  C   UNL A   1      40.391  27.902  29.024  1.00  0.00     0.064 A 
ATOM     60  C   UNL A   1      41.183  28.211  27.908  1.00  0.00     0.173 A 
ATOM     61  C   UNL A   1      39.673  26.696  29.004  1.00  0.00     0.173 A 
ATOM     62  F   UNL A   1      41.881  29.356  27.873  1.00  0.00    -0.203 F 
ATOM     63  C   UNL A   1      41.232  27.363  26.806  1.00  0.00     0.198 A 
ATOM     64  C   UNL A   1      39.748  25.835  27.913  1.00  0.00     0.198 A 
ATOM     65  F   UNL A   1      38.905  26.349  30.048  1.00  0.00    -0.203 F 
ATOM     66  F   UNL A   1      41.958  27.703  25.732  1.00  0.00    -0.200 F 
ATOM     67  C   UNL A   1      40.521  26.172  26.812  1.00  0.00     0.200 A 
ATOM     68  F   UNL A   1      39.070  24.679  27.926  1.00  0.00    -0.200 F 
ATOM     69  F   UNL A   1      40.575  25.352  25.753  1.00  0.00    -0.200 F 
ENDBRANCH  45  59
BRANCH  46  70
ATOM     70  C   UNL A   1      39.523  33.933  36.938  1.00  0.00     0.064 A 
ATOM     71  C   UNL A   1      40.145  35.188  36.987  1.00  0.00     0.173 A 
ATOM     72  C   UNL A   1      38.768  33.534  38.049  1.00  0.00     0.173 A 
ATOM     73  F   UNL A   1      40.895  35.605  35.956  1.00  0.00    -0.203 F 
ATOM     74  C   UNL A   1      40.035  36.002  38.113  1.00  0.00     0.198 A 
ATOM     75  C   UNL A   1      38.635  34.361  39.163  1.00  0.00     0.198 A 
ATOM     76  F   UNL A   1      38.148  32.345  38.049  1.00  0.00    -0.203 F 
ATOM     77  F   UNL A   1      40.677  37.177  38.152  1.00  0.00    -0.200 F 
ATOM     78  C   UNL A   1      39.275  35.591  39.197  1.00  0.00     0.200 A 
ATOM     79  F   UNL A   1      37.888  33.965  40.203  1.00  0.00    -0.200 F 
ATOM     80  F   UNL A   1      39.165  36.375  40.278  1.00  0.00    -0.200 F 
ENDBRANCH  46  70
BRANCH  58  81
ATOM     81  C   UNL A   1      43.815  28.686  35.317  1.00  0.00     0.064 A 
ATOM     82  C   UNL A   1      45.132  29.134  35.144  1.00  0.00     0.173 A 
ATOM     83  C   UNL A   1      43.586  27.649  36.235  1.00  0.00     0.173 A 
ATOM     84  F   UNL A   1      45.404  30.111  34.266  1.00  0.00    -0.203 F 
ATOM     85  C   UNL A   1      46.183  28.554  35.853  1.00  0.00     0.198 A 
ATOM     86  C   UNL A   1      44.634  27.093  36.961  1.00  0.00     0.198 A 
ATOM     87  F   UNL A   1      42.343  27.189  36.440  1.00  0.00    -0.203 F 
ATOM     88  F   UNL A   1      47.438  28.970  35.642  1.00  0.00    -0.200 F 
ATOM     89  C   UNL A   1      45.931  27.541  36.766  1.00  0.00     0.200 A 
ATOM     90  F   UNL A   1      44.389  26.122  37.854  1.00  0.00    -0.200 F 
ATOM     91  F   UNL A   1      46.943  26.993  37.454  1.00  0.00    -0.200 F 
ENDBRANCH  58  81
ENDBRANCH  32  33
ENDBRANCH  24  27
ENDBRANCH  22  23
ENDBRANCH  21  22
ENDBRANCH  20  21
ENDBRANCH   1  20
TORSDOF 16
ENDMDL
MODEL 3
REMARK VINA RESULT:     -10.8      3.770      8.830
REMARK SMILES C/C(=N\O)[C@@H]1C[C@@H](CC(=O)NCCCCCCNC(=O)c2ccc(-c3c4nc(c(-c5c(F)c(F)c(F)c(F)c5F)c5ccc([nH]5)c(-c5c(F)c(F)c(F)c(F)c5F)c5nc(c(-c6c(F)c(F)c(F)c(F)c6F)c6ccc3[nH]6)C=C5)C=C4)cc2)C1(C)C
REMARK SMILES IDX 14 1 13 2 12 3 11 4 9 5 10 6 8 8 7 9 5 10 6 11 84 12 85 13
REMARK SMILES IDX 86 14 2 15 1 16 3 17 4 18 15 20 16 21 17 22 18 23 19 24
REMARK SMILES IDX 20 26 21 27 22 28 83 29 23 30 82 31 24 32 25 33 26 34 76 35
REMARK SMILES IDX 27 36 81 37 75 38 77 39 28 40 80 41 74 42 73 43 29 45 61 46
REMARK SMILES IDX 41 47 60 48 42 49 45 50 59 51 78 52 43 53 44 54 58 56 79 57
REMARK SMILES IDX 46 58 30 59 31 60 39 61 32 62 33 63 37 64 40 65 34 66 35 67
REMARK SMILES IDX 38 68 36 69 62 70 63 71 71 72 64 73 65 74 69 75 72 76 66 77
REMARK SMILES IDX 67 78 70 79 68 80 47 81 48 82 56 83 49 84 50 85 54 86 57 87
REMARK SMILES IDX 51 88 52 89 55 90 53 91
REMARK H PARENT 11 7 4 19 18 25 77 44 45 55
REMARK Flexibility Score: inf
ROOT
ATOM      1  C   UNL A   1      32.733  30.077  26.429  1.00  0.00     0.002 C 
ENDROOT
BRANCH   1   2
ATOM      2  C   UNL A   1      32.608  28.695  27.069  1.00  0.00     0.021 C 
BRANCH   2   3
ATOM      3  C   UNL A   1      31.715  27.719  26.298  1.00  0.00     0.116 C 
BRANCH   3   4
ATOM      4  N   UNL A   1      32.329  27.351  25.040  1.00  0.00    -0.356 N 
ATOM      5  C   UNL A   1      33.356  26.501  24.772  1.00  0.00     0.220 C 
ATOM      6  O   UNL A   1      33.767  26.441  23.611  1.00  0.00    -0.275 OA
ATOM      7  H   UNL A   1      31.938  27.787  24.248  1.00  0.00     0.163 HD
BRANCH   5   8
ATOM      8  C   UNL A   1      33.976  25.645  25.857  1.00  0.00     0.104 C 
BRANCH   8   9
ATOM      9  C   UNL A   1      34.025  24.150  25.530  1.00  0.00     0.005 C 
ATOM     10  C   UNL A   1      35.045  22.274  25.991  1.00  0.00     0.043 C 
ATOM     11  C   UNL A   1      34.080  23.207  26.755  1.00  0.00     0.015 C 
ATOM     12  C   UNL A   1      35.348  23.465  25.009  1.00  0.00    -0.024 C 
ATOM     13  C   UNL A   1      36.708  24.069  25.376  1.00  0.00     0.012 C 
ATOM     14  C   UNL A   1      35.264  23.179  23.507  1.00  0.00     0.012 C 
BRANCH  10  15
ATOM     15  C   UNL A   1      34.526  20.932  25.368  1.00  0.00     0.058 C 
ATOM     16  C   UNL A   1      33.025  20.775  25.265  1.00  0.00     0.066 C 
ATOM     17  N   UNL A   1      35.394  20.019  25.049  1.00  0.00    -0.099 NA
BRANCH  17  18
ATOM     18  O   UNL A   1      34.778  18.839  24.626  1.00  0.00    -0.411 OA
ATOM     19  H   UNL A   1      33.844  18.785  24.589  1.00  0.00     0.330 HD
ENDBRANCH  17  18
ENDBRANCH  10  15
ENDBRANCH   8   9
ENDBRANCH   5   8
ENDBRANCH   3   4
ENDBRANCH   2   3
ENDBRANCH   1   2
BRANCH   1  20
ATOM     20  C   UNL A   1      31.403  30.769  26.122  1.00  0.00     0.002 C 
BRANCH  20  21
ATOM     21  C   UNL A   1      31.317  32.251  26.501  1.00  0.00     0.021 C 
BRANCH  21  22
ATOM     22  C   UNL A   1      32.530  32.812  27.241  1.00  0.00     0.116 C 
BRANCH  22  23
ATOM     23  N   UNL A   1      32.351  34.203  27.626  1.00  0.00    -0.352 N 
ATOM     24  C   UNL A   1      32.969  34.937  28.607  1.00  0.00     0.251 C 
ATOM     25  H   UNL A   1      31.680  34.696  27.101  1.00  0.00     0.163 HD
ATOM     26  O   UNL A   1      32.544  36.049  28.905  1.00  0.00    -0.269 OA
BRANCH  24  27
ATOM     27  C   UNL A   1      34.139  34.388  29.323  1.00  0.00     0.039 A 
ATOM     28  C   UNL A   1      33.937  33.732  30.540  1.00  0.00     0.014 A 
ATOM     29  C   UNL A   1      35.431  34.545  28.816  1.00  0.00     0.014 A 
ATOM     30  C   UNL A   1      35.024  33.175  31.217  1.00  0.00     0.010 A 
ATOM     31  C   UNL A   1      36.506  33.933  29.457  1.00  0.00     0.010 A 
ATOM     32  C   UNL A   1      36.313  33.243  30.664  1.00  0.00    -0.014 A 
BRANCH  32  33
ATOM     33  C   UNL A   1      37.472  32.597  31.330  1.00  0.00     0.031 A 
ATOM     34  C   UNL A   1      38.178  31.447  30.668  1.00  0.00     0.074 A 
ATOM     35  C   UNL A   1      37.840  32.998  32.562  1.00  0.00     0.049 A 
ATOM     36  N   UNL A   1      39.145  30.693  31.128  1.00  0.00    -0.248 NA
ATOM     37  C   UNL A   1      37.720  31.082  29.319  1.00  0.00     0.031 C 
ATOM     38  C   UNL A   1      37.210  34.077  33.323  1.00  0.00     0.029 A 
ATOM     39  N   UNL A   1      38.826  32.534  33.397  1.00  0.00    -0.354 N 
ATOM     40  C   UNL A   1      39.398  29.757  30.134  1.00  0.00     0.074 A 
ATOM     41  C   UNL A   1      38.453  30.006  29.067  1.00  0.00     0.031 C 
ATOM     42  C   UNL A   1      37.832  34.203  34.505  1.00  0.00     0.029 A 
ATOM     43  C   UNL A   1      38.878  33.188  34.604  1.00  0.00     0.049 A 
ATOM     44  H   UNL A   1      39.439  31.802  33.154  1.00  0.00     0.167 HD
ATOM     45  C   UNL A   1      40.347  28.790  30.107  1.00  0.00     0.037 A 
ATOM     46  C   UNL A   1      39.671  32.985  35.673  1.00  0.00     0.037 A 
ATOM     47  C   UNL A   1      41.301  28.561  31.160  1.00  0.00     0.049 A 
ATOM     48  C   UNL A   1      40.706  31.894  35.623  1.00  0.00     0.074 A 
ATOM     49  C   UNL A   1      42.337  27.646  31.202  1.00  0.00     0.029 A 
ATOM     50  N   UNL A   1      41.332  29.257  32.361  1.00  0.00    -0.354 N 
ATOM     51  N   UNL A   1      40.977  31.055  34.653  1.00  0.00    -0.248 NA
ATOM     52  C   UNL A   1      41.550  31.725  36.815  1.00  0.00     0.031 C 
ATOM     53  C   UNL A   1      42.967  27.755  32.446  1.00  0.00     0.029 A 
ATOM     54  C   UNL A   1      42.357  28.774  33.159  1.00  0.00     0.049 A 
ATOM     55  H   UNL A   1      40.718  29.986  32.609  1.00  0.00     0.167 HD
ATOM     56  C   UNL A   1      42.038  30.282  35.103  1.00  0.00     0.074 A 
ATOM     57  C   UNL A   1      42.369  30.758  36.430  1.00  0.00     0.031 C 
ATOM     58  C   UNL A   1      42.681  29.268  34.473  1.00  0.00     0.037 A 
BRANCH  45  59
ATOM     59  C   UNL A   1      40.402  27.905  28.896  1.00  0.00     0.064 A 
ATOM     60  C   UNL A   1      41.201  28.223  27.787  1.00  0.00     0.173 A 
ATOM     61  C   UNL A   1      39.678  26.703  28.858  1.00  0.00     0.173 A 
ATOM     62  F   UNL A   1      41.906  29.364  27.768  1.00  0.00    -0.203 F 
ATOM     63  C   UNL A   1      41.251  27.387  26.675  1.00  0.00     0.198 A 
ATOM     64  C   UNL A   1      39.754  25.854  27.757  1.00  0.00     0.198 A 
ATOM     65  F   UNL A   1      38.903  26.348  29.894  1.00  0.00    -0.203 F 
ATOM     66  F   UNL A   1      41.984  27.736  25.609  1.00  0.00    -0.200 F 
ATOM     67  C   UNL A   1      40.534  26.200  26.664  1.00  0.00     0.200 A 
ATOM     68  F   UNL A   1      39.070  24.702  27.754  1.00  0.00    -0.200 F 
ATOM     69  F   UNL A   1      40.588  25.392  25.596  1.00  0.00    -0.200 F 
ENDBRANCH  45  59
BRANCH  46  70
ATOM     70  C   UNL A   1      39.527  33.844  36.878  1.00  0.00     0.064 A 
ATOM     71  C   UNL A   1      40.179  35.082  36.957  1.00  0.00     0.173 A 
ATOM     72  C   UNL A   1      38.742  33.448  37.969  1.00  0.00     0.173 A 
ATOM     73  F   UNL A   1      40.958  35.495  35.947  1.00  0.00    -0.203 F 
ATOM     74  C   UNL A   1      40.068  35.883  38.093  1.00  0.00     0.198 A 
ATOM     75  C   UNL A   1      38.609  34.262  39.093  1.00  0.00     0.198 A 
ATOM     76  F   UNL A   1      38.093  32.274  37.940  1.00  0.00    -0.203 F 
ATOM     77  F   UNL A   1      40.738  37.040  38.161  1.00  0.00    -0.200 F 
ATOM     78  C   UNL A   1      39.278  35.474  39.156  1.00  0.00     0.200 A 
ATOM     79  F   UNL A   1      37.833  33.870  40.113  1.00  0.00    -0.200 F 
ATOM     80  F   UNL A   1      39.167  36.246  40.247  1.00  0.00    -0.200 F 
ENDBRANCH  46  70
BRANCH  58  81
ATOM     81  C   UNL A   1      43.834  28.629  35.191  1.00  0.00     0.064 A 
ATOM     82  C   UNL A   1      43.658  27.511  36.018  1.00  0.00     0.173 A 
ATOM     83  C   UNL A   1      45.139  29.115  35.007  1.00  0.00     0.173 A 
ATOM     84  F   UNL A   1      42.429  27.021  36.238  1.00  0.00    -0.203 F 
ATOM     85  C   UNL A   1      44.745  26.912  36.650  1.00  0.00     0.198 A 
ATOM     86  C   UNL A   1      46.225  28.496  35.618  1.00  0.00     0.198 A 
ATOM     87  F   UNL A   1      45.360  30.179  34.222  1.00  0.00    -0.203 F 
ATOM     88  F   UNL A   1      44.549  25.869  37.468  1.00  0.00    -0.200 F 
ATOM     89  C   UNL A   1      46.027  27.399  36.443  1.00  0.00     0.200 A 
ATOM     90  F   UNL A   1      47.465  28.959  35.406  1.00  0.00    -0.200 F 
ATOM     91  F   UNL A   1      47.073  26.813  37.043  1.00  0.00    -0.200 F 
ENDBRANCH  58  81
ENDBRANCH  32  33
ENDBRANCH  24  27
ENDBRANCH  22  23
ENDBRANCH  21  22
ENDBRANCH  20  21
ENDBRANCH   1  20
TORSDOF 16
ENDMDL
