MODEL 1
REMARK VINA RESULT:     -11.3      0.000      0.000
REMARK SMILES C[C@@H](CC1CC1)NC(=O)c1cccn1CC(=O)NCCCCCCNC(=O)c1ccc(-c2c3nc(c(-c4c(F)c(F)c(F)c(F)c4F)c4ccc([nH]4)c(-c4c(F)c(F)c(F)c(F)c4F)c4nc(c(-c5c(F)c(F)c(F)c(F)c5F)c5ccc2[nH]5)C=C4)C=C3)cc1
REMARK SMILES IDX 20 1 19 2 18 3 16 4 17 5 15 7 14 8 10 9 11 10 12 11 13 12
REMARK SMILES IDX 8 13 7 14 9 16 2 17 1 18 3 19 4 20 5 21 6 22 21 23 22 24
REMARK SMILES IDX 23 25 24 26 25 27 26 28 27 30 28 31 29 32 90 33 30 34 89 35
REMARK SMILES IDX 31 36 32 37 33 38 83 39 34 40 88 41 82 42 84 43 35 44 87 45
REMARK SMILES IDX 81 46 80 47 36 49 68 50 48 51 67 52 49 53 52 54 66 55 85 56
REMARK SMILES IDX 50 57 51 58 65 60 86 61 53 62 37 63 38 64 46 65 39 66 40 67
REMARK SMILES IDX 44 68 47 69 41 70 42 71 45 72 43 73 69 74 70 75 78 76 71 77
REMARK SMILES IDX 72 78 76 79 79 80 73 81 74 82 77 83 75 84 54 85 55 86 63 87
REMARK SMILES IDX 56 88 57 89 61 90 64 91 58 92 59 93 62 94 60 95
REMARK H PARENT 18 6 7 15 25 29 84 48 52 59
REMARK Flexibility Score: inf
ROOT
ATOM      1  C   UNL A   1      33.409  25.091  26.151  1.00  0.00     0.021 C 
ENDROOT
BRANCH   1   2
ATOM      2  C   UNL A   1      31.985  25.544  25.835  1.00  0.00     0.116 C 
BRANCH   2   3
ATOM      3  N   UNL A   1      31.584  26.631  26.700  1.00  0.00    -0.355 N 
ATOM      4  C   UNL A   1      31.934  27.950  26.626  1.00  0.00     0.239 C 
ATOM      5  O   UNL A   1      31.569  28.696  27.538  1.00  0.00    -0.273 OA
ATOM      6  H   UNL A   1      30.979  26.389  27.438  1.00  0.00     0.163 HD
BRANCH   4   7
ATOM      7  C   UNL A   1      32.671  28.485  25.413  1.00  0.00     0.222 C 
BRANCH   7   8
ATOM      8  N   UNL A   1      31.813  28.820  24.281  1.00  0.00    -0.334 N 
ATOM      9  C   UNL A   1      32.107  28.649  22.931  1.00  0.00     0.107 A 
ATOM     10  C   UNL A   1      30.951  28.989  22.242  1.00  0.00     0.033 A 
ATOM     11  C   UNL A   1      29.987  29.446  23.168  1.00  0.00     0.020 A 
ATOM     12  C   UNL A   1      30.542  29.329  24.419  1.00  0.00     0.087 A 
BRANCH   9  13
ATOM     13  C   UNL A   1      33.367  28.134  22.422  1.00  0.00     0.268 C 
ATOM     14  N   UNL A   1      33.408  26.954  21.721  1.00  0.00    -0.348 N 
ATOM     15  H   UNL A   1      34.308  26.704  21.410  1.00  0.00     0.164 HD
ATOM     16  O   UNL A   1      34.424  28.750  22.526  1.00  0.00    -0.268 OA
BRANCH  14  17
ATOM     17  C   UNL A   1      32.367  25.996  21.350  1.00  0.00     0.079 C 
ATOM     18  C   UNL A   1      32.504  25.519  19.906  1.00  0.00     0.031 C 
BRANCH  17  19
ATOM     19  C   UNL A   1      32.292  24.835  22.350  1.00  0.00     0.028 C 
BRANCH  19  20
ATOM     20  C   UNL A   1      33.052  23.563  22.059  1.00  0.00    -0.009 C 
ATOM     21  C   UNL A   1      34.281  23.051  22.783  1.00  0.00     0.004 C 
ATOM     22  C   UNL A   1      32.958  22.378  22.991  1.00  0.00     0.004 C 
ENDBRANCH  19  20
ENDBRANCH  17  19
ENDBRANCH  14  17
ENDBRANCH   9  13
ENDBRANCH   7   8
ENDBRANCH   4   7
ENDBRANCH   2   3
ENDBRANCH   1   2
BRANCH   1  23
ATOM     23  C   UNL A   1      33.591  23.577  26.279  1.00  0.00     0.002 C 
BRANCH  23  24
ATOM     24  C   UNL A   1      34.993  23.086  26.669  1.00  0.00     0.002 C 
BRANCH  24  25
ATOM     25  C   UNL A   1      36.133  23.389  25.687  1.00  0.00     0.021 C 
BRANCH  25  26
ATOM     26  C   UNL A   1      37.178  24.368  26.218  1.00  0.00     0.116 C 
BRANCH  26  27
ATOM     27  N   UNL A   1      38.224  23.650  26.924  1.00  0.00    -0.352 N 
ATOM     28  C   UNL A   1      39.374  24.098  27.512  1.00  0.00     0.251 C 
ATOM     29  H   UNL A   1      38.081  22.679  26.991  1.00  0.00     0.163 HD
ATOM     30  O   UNL A   1      40.305  23.306  27.652  1.00  0.00    -0.269 OA
BRANCH  28  31
ATOM     31  C   UNL A   1      39.531  25.485  27.998  1.00  0.00     0.039 A 
ATOM     32  C   UNL A   1      39.056  25.774  29.287  1.00  0.00     0.014 A 
ATOM     33  C   UNL A   1      39.995  26.517  27.175  1.00  0.00     0.014 A 
ATOM     34  C   UNL A   1      39.075  27.080  29.761  1.00  0.00     0.010 A 
ATOM     35  C   UNL A   1      40.042  27.820  27.653  1.00  0.00     0.010 A 
ATOM     36  C   UNL A   1      39.585  28.096  28.946  1.00  0.00    -0.014 A 
BRANCH  36  37
ATOM     37  C   UNL A   1      39.796  29.437  29.527  1.00  0.00     0.031 A 
ATOM     38  C   UNL A   1      38.559  30.337  29.304  1.00  0.00     0.074 A 
ATOM     39  C   UNL A   1      40.999  29.642  30.147  1.00  0.00     0.049 A 
ATOM     40  N   UNL A   1      38.457  31.631  29.275  1.00  0.00    -0.248 NA
ATOM     41  C   UNL A   1      37.240  29.702  29.018  1.00  0.00     0.031 C 
ATOM     42  C   UNL A   1      42.056  28.613  30.291  1.00  0.00     0.029 A 
ATOM     43  N   UNL A   1      41.592  30.720  30.776  1.00  0.00    -0.354 N 
ATOM     44  C   UNL A   1      37.081  31.955  29.185  1.00  0.00     0.074 A 
ATOM     45  C   UNL A   1      36.397  30.731  28.910  1.00  0.00     0.031 C 
ATOM     46  C   UNL A   1      43.159  29.127  30.877  1.00  0.00     0.029 A 
ATOM     47  C   UNL A   1      42.941  30.524  31.189  1.00  0.00     0.049 A 
ATOM     48  H   UNL A   1      41.113  31.567  30.929  1.00  0.00     0.167 HD
ATOM     49  C   UNL A   1      36.587  33.192  29.498  1.00  0.00     0.037 A 
ATOM     50  C   UNL A   1      43.829  31.437  31.700  1.00  0.00     0.037 A 
ATOM     51  C   UNL A   1      37.665  34.063  29.820  1.00  0.00     0.049 A 
ATOM     52  C   UNL A   1      43.032  32.650  31.919  1.00  0.00     0.074 A 
ATOM     53  C   UNL A   1      38.650  34.630  29.056  1.00  0.00     0.029 A 
ATOM     54  N   UNL A   1      38.022  34.132  31.143  1.00  0.00    -0.354 N 
ATOM     55  N   UNL A   1      42.164  32.801  32.874  1.00  0.00    -0.248 NA
ATOM     56  C   UNL A   1      43.135  33.739  30.941  1.00  0.00     0.031 C 
ATOM     57  C   UNL A   1      39.780  34.560  29.895  1.00  0.00     0.029 A 
ATOM     58  C   UNL A   1      39.389  34.191  31.188  1.00  0.00     0.049 A 
ATOM     59  H   UNL A   1      37.410  34.138  31.915  1.00  0.00     0.167 HD
ATOM     60  C   UNL A   1      41.403  33.841  32.401  1.00  0.00     0.074 A 
ATOM     61  C   UNL A   1      42.215  34.556  31.441  1.00  0.00     0.031 C 
ATOM     62  C   UNL A   1      40.052  33.715  32.376  1.00  0.00     0.037 A 
BRANCH  49  63
ATOM     63  C   UNL A   1      35.204  33.697  29.822  1.00  0.00     0.064 A 
ATOM     64  C   UNL A   1      34.571  34.547  28.875  1.00  0.00     0.173 A 
ATOM     65  C   UNL A   1      34.669  33.717  31.115  1.00  0.00     0.173 A 
ATOM     66  F   UNL A   1      34.962  34.558  27.590  1.00  0.00    -0.203 F 
ATOM     67  C   UNL A   1      33.601  35.476  29.243  1.00  0.00     0.198 A 
ATOM     68  C   UNL A   1      33.652  34.613  31.467  1.00  0.00     0.198 A 
ATOM     69  F   UNL A   1      35.178  32.955  32.090  1.00  0.00    -0.203 F 
ATOM     70  F   UNL A   1      33.158  36.372  28.349  1.00  0.00    -0.200 F 
ATOM     71  C   UNL A   1      33.158  35.524  30.549  1.00  0.00     0.200 A 
ATOM     72  F   UNL A   1      33.213  34.647  32.733  1.00  0.00    -0.200 F 
ATOM     73  F   UNL A   1      32.285  36.467  30.930  1.00  0.00    -0.200 F 
ENDBRANCH  49  63
BRANCH  50  74
ATOM     74  C   UNL A   1      45.315  31.554  31.990  1.00  0.00     0.064 A 
ATOM     75  C   UNL A   1      46.268  32.204  31.199  1.00  0.00     0.173 A 
ATOM     76  C   UNL A   1      45.841  31.046  33.219  1.00  0.00     0.173 A 
ATOM     77  F   UNL A   1      45.975  32.609  29.959  1.00  0.00    -0.203 F 
ATOM     78  C   UNL A   1      47.582  32.443  31.654  1.00  0.00     0.198 A 
ATOM     79  C   UNL A   1      47.120  31.330  33.694  1.00  0.00     0.198 A 
ATOM     80  F   UNL A   1      45.123  30.247  34.018  1.00  0.00    -0.203 F 
ATOM     81  F   UNL A   1      48.455  33.080  30.860  1.00  0.00    -0.200 F 
ATOM     82  C   UNL A   1      47.991  32.050  32.917  1.00  0.00     0.200 A 
ATOM     83  F   UNL A   1      47.481  30.915  34.917  1.00  0.00    -0.200 F 
ATOM     84  F   UNL A   1      49.214  32.346  33.374  1.00  0.00    -0.200 F 
ENDBRANCH  50  74
BRANCH  62  85
ATOM     85  C   UNL A   1      39.494  32.742  33.397  1.00  0.00     0.064 A 
ATOM     86  C   UNL A   1      39.631  33.015  34.767  1.00  0.00     0.173 A 
ATOM     87  C   UNL A   1      38.923  31.498  33.076  1.00  0.00     0.173 A 
ATOM     88  F   UNL A   1      40.143  34.188  35.164  1.00  0.00    -0.203 F 
ATOM     89  C   UNL A   1      39.241  32.095  35.746  1.00  0.00     0.198 A 
ATOM     90  C   UNL A   1      38.528  30.578  34.049  1.00  0.00     0.198 A 
ATOM     91  F   UNL A   1      38.730  31.148  31.808  1.00  0.00    -0.203 F 
ATOM     92  F   UNL A   1      39.388  32.398  37.043  1.00  0.00    -0.200 F 
ATOM     93  C   UNL A   1      38.692  30.874  35.387  1.00  0.00     0.200 A 
ATOM     94  F   UNL A   1      37.980  29.407  33.683  1.00  0.00    -0.200 F 
ATOM     95  F   UNL A   1      38.304  29.999  36.325  1.00  0.00    -0.200 F 
ENDBRANCH  62  85
ENDBRANCH  36  37
ENDBRANCH  28  31
ENDBRANCH  26  27
ENDBRANCH  25  26
ENDBRANCH  24  25
ENDBRANCH  23  24
ENDBRANCH   1  23
TORSDOF 18
ENDMDL
MODEL 2
REMARK VINA RESULT:     -11.2      4.721      9.274
REMARK SMILES C[C@@H](CC1CC1)NC(=O)c1cccn1CC(=O)NCCCCCCNC(=O)c1ccc(-c2c3nc(c(-c4c(F)c(F)c(F)c(F)c4F)c4ccc([nH]4)c(-c4c(F)c(F)c(F)c(F)c4F)c4nc(c(-c5c(F)c(F)c(F)c(F)c5F)c5ccc2[nH]5)C=C4)C=C3)cc1
REMARK SMILES IDX 20 1 19 2 18 3 16 4 17 5 15 7 14 8 10 9 11 10 12 11 13 12
REMARK SMILES IDX 8 13 7 14 9 16 2 17 1 18 3 19 4 20 5 21 6 22 21 23 22 24
REMARK SMILES IDX 23 25 24 26 25 27 26 28 27 30 28 31 29 32 90 33 30 34 89 35
REMARK SMILES IDX 31 36 32 37 33 38 83 39 34 40 88 41 82 42 84 43 35 44 87 45
REMARK SMILES IDX 81 46 80 47 36 49 68 50 48 51 67 52 49 53 52 54 66 55 85 56
REMARK SMILES IDX 50 57 51 58 65 60 86 61 53 62 37 63 38 64 46 65 39 66 40 67
REMARK SMILES IDX 44 68 47 69 41 70 42 71 45 72 43 73 69 74 70 75 78 76 71 77
REMARK SMILES IDX 72 78 76 79 79 80 73 81 74 82 77 83 75 84 54 85 55 86 63 87
REMARK SMILES IDX 56 88 57 89 61 90 64 91 58 92 59 93 62 94 60 95
REMARK H PARENT 18 6 7 15 25 29 84 48 52 59
REMARK Flexibility Score: inf
ROOT
ATOM      1  C   UNL A   1      31.077  26.938  26.248  1.00  0.00     0.021 C 
ENDROOT
BRANCH   1   2
ATOM      2  C   UNL A   1      30.296  25.857  25.504  1.00  0.00     0.116 C 
BRANCH   2   3
ATOM      3  N   UNL A   1      29.789  24.860  26.422  1.00  0.00    -0.355 N 
ATOM      4  C   UNL A   1      30.356  23.670  26.782  1.00  0.00     0.239 C 
ATOM      5  O   UNL A   1      29.698  22.911  27.498  1.00  0.00    -0.273 OA
ATOM      6  H   UNL A   1      28.923  25.067  26.841  1.00  0.00     0.163 HD
BRANCH   4   7
ATOM      7  C   UNL A   1      31.783  23.344  26.383  1.00  0.00     0.222 C 
BRANCH   7   8
ATOM      8  N   UNL A   1      32.019  23.320  24.942  1.00  0.00    -0.334 N 
ATOM      9  C   UNL A   1      33.187  23.692  24.282  1.00  0.00     0.107 A 
ATOM     10  C   UNL A   1      32.984  23.382  22.944  1.00  0.00     0.033 A 
ATOM     11  C   UNL A   1      31.665  22.903  22.783  1.00  0.00     0.020 A 
ATOM     12  C   UNL A   1      31.092  22.871  24.030  1.00  0.00     0.087 A 
BRANCH   9  13
ATOM     13  C   UNL A   1      34.372  24.217  24.938  1.00  0.00     0.268 C 
ATOM     14  N   UNL A   1      35.489  23.433  25.096  1.00  0.00    -0.348 N 
ATOM     15  H   UNL A   1      36.239  23.890  25.540  1.00  0.00     0.164 HD
ATOM     16  O   UNL A   1      34.460  25.384  25.311  1.00  0.00    -0.268 OA
BRANCH  14  17
ATOM     17  C   UNL A   1      35.774  22.047  24.730  1.00  0.00     0.079 C 
ATOM     18  C   UNL A   1      37.264  21.721  24.800  1.00  0.00     0.031 C 
BRANCH  17  19
ATOM     19  C   UNL A   1      34.916  21.065  25.540  1.00  0.00     0.028 C 
BRANCH  19  20
ATOM     20  C   UNL A   1      33.874  20.237  24.826  1.00  0.00    -0.009 C 
ATOM     21  C   UNL A   1      33.977  18.774  24.447  1.00  0.00     0.004 C 
ATOM     22  C   UNL A   1      33.078  19.191  25.570  1.00  0.00     0.004 C 
ENDBRANCH  19  20
ENDBRANCH  17  19
ENDBRANCH  14  17
ENDBRANCH   9  13
ENDBRANCH   7   8
ENDBRANCH   4   7
ENDBRANCH   2   3
ENDBRANCH   1   2
BRANCH   1  23
ATOM     23  C   UNL A   1      31.451  28.159  25.405  1.00  0.00     0.002 C 
BRANCH  23  24
ATOM     24  C   UNL A   1      32.569  29.056  25.956  1.00  0.00     0.002 C 
BRANCH  24  25
ATOM     25  C   UNL A   1      33.378  28.509  27.140  1.00  0.00     0.021 C 
BRANCH  25  26
ATOM     26  C   UNL A   1      34.892  28.608  26.968  1.00  0.00     0.116 C 
BRANCH  26  27
ATOM     27  N   UNL A   1      35.323  29.987  27.115  1.00  0.00    -0.352 N 
ATOM     28  C   UNL A   1      36.354  30.529  27.831  1.00  0.00     0.251 C 
ATOM     29  H   UNL A   1      34.784  30.641  26.615  1.00  0.00     0.163 HD
ATOM     30  O   UNL A   1      36.274  31.708  28.170  1.00  0.00    -0.269 OA
BRANCH  28  31
ATOM     31  C   UNL A   1      37.562  29.758  28.194  1.00  0.00     0.039 A 
ATOM     32  C   UNL A   1      38.612  29.728  27.263  1.00  0.00     0.014 A 
ATOM     33  C   UNL A   1      37.624  28.963  29.344  1.00  0.00     0.014 A 
ATOM     34  C   UNL A   1      39.729  28.935  27.495  1.00  0.00     0.010 A 
ATOM     35  C   UNL A   1      38.750  28.190  29.595  1.00  0.00     0.010 A 
ATOM     36  C   UNL A   1      39.800  28.181  28.671  1.00  0.00    -0.014 A 
BRANCH  36  37
ATOM     37  C   UNL A   1      41.069  27.509  29.011  1.00  0.00     0.031 A 
ATOM     38  C   UNL A   1      41.104  26.072  28.441  1.00  0.00     0.074 A 
ATOM     39  C   UNL A   1      41.966  28.246  29.736  1.00  0.00     0.049 A 
ATOM     40  N   UNL A   1      41.792  25.037  28.815  1.00  0.00    -0.248 NA
ATOM     41  C   UNL A   1      40.198  25.717  27.311  1.00  0.00     0.031 C 
ATOM     42  C   UNL A   1      41.752  29.651  30.157  1.00  0.00     0.029 A 
ATOM     43  N   UNL A   1      43.218  27.998  30.267  1.00  0.00    -0.354 N 
ATOM     44  C   UNL A   1      41.570  24.005  27.871  1.00  0.00     0.074 A 
ATOM     45  C   UNL A   1      40.492  24.442  27.043  1.00  0.00     0.031 C 
ATOM     46  C   UNL A   1      42.773  30.090  30.925  1.00  0.00     0.029 A 
ATOM     47  C   UNL A   1      43.759  29.040  31.074  1.00  0.00     0.049 A 
ATOM     48  H   UNL A   1      43.702  27.158  30.099  1.00  0.00     0.167 HD
ATOM     49  C   UNL A   1      42.399  22.923  27.745  1.00  0.00     0.037 A 
ATOM     50  C   UNL A   1      44.896  29.035  31.843  1.00  0.00     0.037 A 
ATOM     51  C   UNL A   1      43.409  22.983  28.746  1.00  0.00     0.049 A 
ATOM     52  C   UNL A   1      45.563  27.769  31.513  1.00  0.00     0.074 A 
ATOM     53  C   UNL A   1      43.370  22.817  30.104  1.00  0.00     0.029 A 
ATOM     54  N   UNL A   1      44.575  23.618  28.400  1.00  0.00    -0.354 N 
ATOM     55  N   UNL A   1      46.188  27.533  30.399  1.00  0.00    -0.248 NA
ATOM     56  C   UNL A   1      45.437  26.648  32.452  1.00  0.00     0.031 C 
ATOM     57  C   UNL A   1      44.265  23.802  30.569  1.00  0.00     0.029 A 
ATOM     58  C   UNL A   1      44.977  24.342  29.490  1.00  0.00     0.049 A 
ATOM     59  H   UNL A   1      45.036  23.563  27.532  1.00  0.00     0.167 HD
ATOM     60  C   UNL A   1      46.222  26.160  30.381  1.00  0.00     0.074 A 
ATOM     61  C   UNL A   1      46.071  25.716  31.748  1.00  0.00     0.031 C 
ATOM     62  C   UNL A   1      45.801  25.504  29.270  1.00  0.00     0.037 A 
BRANCH  49  63
ATOM     63  C   UNL A   1      42.604  21.905  26.653  1.00  0.00     0.064 A 
ATOM     64  C   UNL A   1      42.122  20.586  26.877  1.00  0.00     0.173 A 
ATOM     65  C   UNL A   1      43.549  22.044  25.630  1.00  0.00     0.173 A 
ATOM     66  F   UNL A   1      41.167  20.349  27.791  1.00  0.00    -0.203 F 
ATOM     67  C   UNL A   1      42.682  19.475  26.252  1.00  0.00     0.198 A 
ATOM     68  C   UNL A   1      44.067  20.928  24.962  1.00  0.00     0.198 A 
ATOM     69  F   UNL A   1      44.070  23.238  25.323  1.00  0.00    -0.203 F 
ATOM     70  F   UNL A   1      42.313  18.241  26.624  1.00  0.00    -0.200 F 
ATOM     71  C   UNL A   1      43.674  19.646  25.308  1.00  0.00     0.200 A 
ATOM     72  F   UNL A   1      45.020  21.098  24.034  1.00  0.00    -0.200 F 
ATOM     73  F   UNL A   1      44.274  18.581  24.760  1.00  0.00    -0.200 F 
ENDBRANCH  49  63
BRANCH  50  74
ATOM     74  C   UNL A   1      45.552  29.871  32.928  1.00  0.00     0.064 A 
ATOM     75  C   UNL A   1      46.773  30.547  32.832  1.00  0.00     0.173 A 
ATOM     76  C   UNL A   1      44.865  30.101  34.160  1.00  0.00     0.173 A 
ATOM     77  F   UNL A   1      47.605  30.327  31.810  1.00  0.00    -0.203 F 
ATOM     78  C   UNL A   1      47.198  31.468  33.813  1.00  0.00     0.198 A 
ATOM     79  C   UNL A   1      45.254  31.052  35.102  1.00  0.00     0.198 A 
ATOM     80  F   UNL A   1      43.772  29.405  34.501  1.00  0.00    -0.203 F 
ATOM     81  F   UNL A   1      48.373  32.097  33.669  1.00  0.00    -0.200 F 
ATOM     82  C   UNL A   1      46.416  31.755  34.919  1.00  0.00     0.200 A 
ATOM     83  F   UNL A   1      44.475  31.286  36.169  1.00  0.00    -0.200 F 
ATOM     84  F   UNL A   1      46.787  32.685  35.808  1.00  0.00    -0.200 F 
ENDBRANCH  50  74
BRANCH  62  85
ATOM     85  C   UNL A   1      45.916  26.303  27.986  1.00  0.00     0.064 A 
ATOM     86  C   UNL A   1      47.183  26.665  27.501  1.00  0.00     0.173 A 
ATOM     87  C   UNL A   1      44.819  26.818  27.275  1.00  0.00     0.173 A 
ATOM     88  F   UNL A   1      48.285  26.198  28.105  1.00  0.00    -0.203 F 
ATOM     89  C   UNL A   1      47.336  27.501  26.390  1.00  0.00     0.198 A 
ATOM     90  C   UNL A   1      44.967  27.650  26.162  1.00  0.00     0.198 A 
ATOM     91  F   UNL A   1      43.575  26.522  27.638  1.00  0.00    -0.203 F 
ATOM     92  F   UNL A   1      48.565  27.818  25.960  1.00  0.00    -0.200 F 
ATOM     93  C   UNL A   1      46.228  27.996  25.722  1.00  0.00     0.200 A 
ATOM     94  F   UNL A   1      43.882  28.106  25.515  1.00  0.00    -0.200 F 
ATOM     95  F   UNL A   1      46.376  28.785  24.649  1.00  0.00    -0.200 F 
ENDBRANCH  62  85
ENDBRANCH  36  37
ENDBRANCH  28  31
ENDBRANCH  26  27
ENDBRANCH  25  26
ENDBRANCH  24  25
ENDBRANCH  23  24
ENDBRANCH   1  23
TORSDOF 18
ENDMDL
MODEL 3
REMARK VINA RESULT:     -11.1      1.572      2.328
REMARK SMILES C[C@@H](CC1CC1)NC(=O)c1cccn1CC(=O)NCCCCCCNC(=O)c1ccc(-c2c3nc(c(-c4c(F)c(F)c(F)c(F)c4F)c4ccc([nH]4)c(-c4c(F)c(F)c(F)c(F)c4F)c4nc(c(-c5c(F)c(F)c(F)c(F)c5F)c5ccc2[nH]5)C=C4)C=C3)cc1
REMARK SMILES IDX 20 1 19 2 18 3 16 4 17 5 15 7 14 8 10 9 11 10 12 11 13 12
REMARK SMILES IDX 8 13 7 14 9 16 2 17 1 18 3 19 4 20 5 21 6 22 21 23 22 24
REMARK SMILES IDX 23 25 24 26 25 27 26 28 27 30 28 31 29 32 90 33 30 34 89 35
REMARK SMILES IDX 31 36 32 37 33 38 83 39 34 40 88 41 82 42 84 43 35 44 87 45
REMARK SMILES IDX 81 46 80 47 36 49 68 50 48 51 67 52 49 53 52 54 66 55 85 56
REMARK SMILES IDX 50 57 51 58 65 60 86 61 53 62 37 63 38 64 46 65 39 66 40 67
REMARK SMILES IDX 44 68 47 69 41 70 42 71 45 72 43 73 69 74 70 75 78 76 71 77
REMARK SMILES IDX 72 78 76 79 79 80 73 81 74 82 77 83 75 84 54 85 55 86 63 87
REMARK SMILES IDX 56 88 57 89 61 90 64 91 58 92 59 93 62 94 60 95
REMARK H PARENT 18 6 7 15 25 29 84 48 52 59
REMARK Flexibility Score: inf
ROOT
ATOM      1  C   UNL A   1      33.748  26.445  25.804  1.00  0.00     0.021 C 
ENDROOT
BRANCH   1   2
ATOM      2  C   UNL A   1      32.639  27.127  26.603  1.00  0.00     0.116 C 
BRANCH   2   3
ATOM      3  N   UNL A   1      32.900  28.542  26.749  1.00  0.00    -0.355 N 
ATOM      4  C   UNL A   1      32.511  29.566  25.932  1.00  0.00     0.239 C 
ATOM      5  O   UNL A   1      32.940  30.696  26.180  1.00  0.00    -0.273 OA
ATOM      6  H   UNL A   1      33.427  28.800  27.539  1.00  0.00     0.163 HD
BRANCH   4   7
ATOM      7  C   UNL A   1      31.513  29.325  24.815  1.00  0.00     0.222 C 
BRANCH   7   8
ATOM      8  N   UNL A   1      32.004  28.470  23.738  1.00  0.00    -0.334 N 
ATOM      9  C   UNL A   1      31.302  27.454  23.094  1.00  0.00     0.107 A 
ATOM     10  C   UNL A   1      32.127  27.013  22.068  1.00  0.00     0.033 A 
ATOM     11  C   UNL A   1      33.358  27.702  22.145  1.00  0.00     0.020 A 
ATOM     12  C   UNL A   1      33.255  28.597  23.181  1.00  0.00     0.087 A 
BRANCH   9  13
ATOM     13  C   UNL A   1      29.949  27.047  23.431  1.00  0.00     0.268 C 
ATOM     14  N   UNL A   1      29.722  25.880  24.119  1.00  0.00    -0.348 N 
ATOM     15  H   UNL A   1      28.771  25.706  24.308  1.00  0.00     0.164 HD
ATOM     16  O   UNL A   1      28.968  27.745  23.189  1.00  0.00    -0.268 OA
BRANCH  14  17
ATOM     17  C   UNL A   1      30.624  24.846  24.623  1.00  0.00     0.079 C 
ATOM     18  C   UNL A   1      30.279  24.417  26.046  1.00  0.00     0.031 C 
BRANCH  17  19
ATOM     19  C   UNL A   1      30.713  23.659  23.654  1.00  0.00     0.028 C 
BRANCH  19  20
ATOM     20  C   UNL A   1      32.024  22.923  23.511  1.00  0.00    -0.009 C 
ATOM     21  C   UNL A   1      32.372  21.877  22.473  1.00  0.00     0.004 C 
ATOM     22  C   UNL A   1      32.971  23.247  22.380  1.00  0.00     0.004 C 
ENDBRANCH  19  20
ENDBRANCH  17  19
ENDBRANCH  14  17
ENDBRANCH   9  13
ENDBRANCH   7   8
ENDBRANCH   4   7
ENDBRANCH   2   3
ENDBRANCH   1   2
BRANCH   1  23
ATOM     23  C   UNL A   1      33.914  24.949  26.079  1.00  0.00     0.002 C 
BRANCH  23  24
ATOM     24  C   UNL A   1      35.029  24.230  25.305  1.00  0.00     0.002 C 
BRANCH  24  25
ATOM     25  C   UNL A   1      36.157  23.603  26.137  1.00  0.00     0.021 C 
BRANCH  25  26
ATOM     26  C   UNL A   1      37.558  24.086  25.765  1.00  0.00     0.116 C 
BRANCH  26  27
ATOM     27  N   UNL A   1      38.555  23.382  26.552  1.00  0.00    -0.352 N 
ATOM     28  C   UNL A   1      39.685  23.837  27.173  1.00  0.00     0.251 C 
ATOM     29  H   UNL A   1      38.390  22.418  26.656  1.00  0.00     0.163 HD
ATOM     30  O   UNL A   1      40.592  23.036  27.394  1.00  0.00    -0.269 OA
BRANCH  28  31
ATOM     31  C   UNL A   1      39.846  25.242  27.603  1.00  0.00     0.039 A 
ATOM     32  C   UNL A   1      39.442  25.568  28.907  1.00  0.00     0.014 A 
ATOM     33  C   UNL A   1      40.244  26.252  26.721  1.00  0.00     0.014 A 
ATOM     34  C   UNL A   1      39.465  26.889  29.336  1.00  0.00     0.010 A 
ATOM     35  C   UNL A   1      40.297  27.571  27.152  1.00  0.00     0.010 A 
ATOM     36  C   UNL A   1      39.910  27.884  28.460  1.00  0.00    -0.014 A 
BRANCH  36  37
ATOM     37  C   UNL A   1      40.131  29.247  28.983  1.00  0.00     0.031 A 
ATOM     38  C   UNL A   1      38.794  30.010  29.123  1.00  0.00     0.074 A 
ATOM     39  C   UNL A   1      41.431  29.586  29.251  1.00  0.00     0.049 A 
ATOM     40  N   UNL A   1      38.553  31.285  29.146  1.00  0.00    -0.248 NA
ATOM     41  C   UNL A   1      37.521  29.236  29.201  1.00  0.00     0.031 C 
ATOM     42  C   UNL A   1      42.588  28.675  29.081  1.00  0.00     0.029 A 
ATOM     43  N   UNL A   1      42.058  30.728  29.711  1.00  0.00    -0.354 N 
ATOM     44  C   UNL A   1      37.180  31.461  29.444  1.00  0.00     0.074 A 
ATOM     45  C   UNL A   1      36.578  30.169  29.346  1.00  0.00     0.031 C 
ATOM     46  C   UNL A   1      43.750  29.309  29.349  1.00  0.00     0.029 A 
ATOM     47  C   UNL A   1      43.481  30.680  29.733  1.00  0.00     0.049 A 
ATOM     48  H   UNL A   1      41.554  31.522  30.003  1.00  0.00     0.167 HD
ATOM     49  C   UNL A   1      36.664  32.644  29.901  1.00  0.00     0.037 A 
ATOM     50  C   UNL A   1      44.376  31.687  29.995  1.00  0.00     0.037 A 
ATOM     51  C   UNL A   1      37.693  33.627  29.928  1.00  0.00     0.049 A 
ATOM     52  C   UNL A   1      43.547  32.813  30.445  1.00  0.00     0.074 A 
ATOM     53  C   UNL A   1      38.364  34.285  28.932  1.00  0.00     0.029 A 
ATOM     54  N   UNL A   1      38.390  33.750  31.103  1.00  0.00    -0.354 N 
ATOM     55  N   UNL A   1      42.965  32.884  31.604  1.00  0.00    -0.248 NA
ATOM     56  C   UNL A   1      43.262  33.895  29.495  1.00  0.00     0.031 C 
ATOM     57  C   UNL A   1      39.682  34.345  29.427  1.00  0.00     0.029 A 
ATOM     58  C   UNL A   1      39.703  33.953  30.771  1.00  0.00     0.049 A 
ATOM     59  H   UNL A   1      38.017  33.702  32.013  1.00  0.00     0.167 HD
ATOM     60  C   UNL A   1      41.998  33.832  31.377  1.00  0.00     0.074 A 
ATOM     61  C   UNL A   1      42.435  34.617  30.243  1.00  0.00     0.031 C 
ATOM     62  C   UNL A   1      40.714  33.564  31.722  1.00  0.00     0.037 A 
BRANCH  49  63
ATOM     63  C   UNL A   1      35.379  33.004  30.601  1.00  0.00     0.064 A 
ATOM     64  C   UNL A   1      34.532  33.961  29.979  1.00  0.00     0.173 A 
ATOM     65  C   UNL A   1      35.148  32.777  31.962  1.00  0.00     0.173 A 
ATOM     66  F   UNL A   1      34.625  34.210  28.663  1.00  0.00    -0.203 F 
ATOM     67  C   UNL A   1      33.650  34.756  30.707  1.00  0.00     0.198 A 
ATOM     68  C   UNL A   1      34.218  33.539  32.679  1.00  0.00     0.198 A 
ATOM     69  F   UNL A   1      35.878  31.894  32.654  1.00  0.00    -0.203 F 
ATOM     70  F   UNL A   1      33.000  35.761  30.102  1.00  0.00    -0.200 F 
ATOM     71  C   UNL A   1      33.511  34.560  32.065  1.00  0.00     0.200 A 
ATOM     72  F   UNL A   1      34.073  33.336  33.996  1.00  0.00    -0.200 F 
ATOM     73  F   UNL A   1      32.727  35.372  32.787  1.00  0.00    -0.200 F 
ENDBRANCH  49  63
BRANCH  50  74
ATOM     74  C   UNL A   1      45.863  31.964  29.867  1.00  0.00     0.064 A 
ATOM     75  C   UNL A   1      46.724  32.374  30.890  1.00  0.00     0.173 A 
ATOM     76  C   UNL A   1      46.526  31.718  28.625  1.00  0.00     0.173 A 
ATOM     77  F   UNL A   1      46.248  32.783  32.071  1.00  0.00    -0.203 F 
ATOM     78  C   UNL A   1      48.125  32.401  30.725  1.00  0.00     0.198 A 
ATOM     79  C   UNL A   1      47.912  31.688  28.475  1.00  0.00     0.198 A 
ATOM     80  F   UNL A   1      45.846  31.489  27.493  1.00  0.00    -0.203 F 
ATOM     81  F   UNL A   1      48.907  32.791  31.741  1.00  0.00    -0.200 F 
ATOM     82  C   UNL A   1      48.718  32.011  29.535  1.00  0.00     0.200 A 
ATOM     83  F   UNL A   1      48.445  31.322  27.300  1.00  0.00    -0.200 F 
ATOM     84  F   UNL A   1      50.050  31.965  29.407  1.00  0.00    -0.200 F 
ENDBRANCH  50  74
BRANCH  62  85
ATOM     85  C   UNL A   1      40.563  32.551  32.841  1.00  0.00     0.064 A 
ATOM     86  C   UNL A   1      41.019  32.865  34.132  1.00  0.00     0.173 A 
ATOM     87  C   UNL A   1      40.084  31.242  32.664  1.00  0.00     0.173 A 
ATOM     88  F   UNL A   1      41.470  34.099  34.396  1.00  0.00    -0.203 F 
ATOM     89  C   UNL A   1      41.011  31.924  35.166  1.00  0.00     0.198 A 
ATOM     90  C   UNL A   1      40.071  30.299  33.695  1.00  0.00     0.198 A 
ATOM     91  F   UNL A   1      39.611  30.847  31.486  1.00  0.00    -0.203 F 
ATOM     92  F   UNL A   1      41.454  32.268  36.383  1.00  0.00    -0.200 F 
ATOM     93  C   UNL A   1      40.540  30.639  34.947  1.00  0.00     0.200 A 
ATOM     94  F   UNL A   1      39.592  29.065  33.470  1.00  0.00    -0.200 F 
ATOM     95  F   UNL A   1      40.519  29.742  35.942  1.00  0.00    -0.200 F 
ENDBRANCH  62  85
ENDBRANCH  36  37
ENDBRANCH  28  31
ENDBRANCH  26  27
ENDBRANCH  25  26
ENDBRANCH  24  25
ENDBRANCH  23  24
ENDBRANCH   1  23
TORSDOF 18
ENDMDL
