MODEL 1
REMARK VINA RESULT:     -10.1      0.000      0.000
REMARK SMILES COC(=O)CCN(C)C(=O)NCc1ccc(C(=O)NCCCCCCNC(=O)c2ccc(-c3c4nc(c(-c5c(F)c(F)c(F)c(F)c5F)c5ccc([nH]5)c(-c5c(F)c(F)c(F)c(F)c5F)c5nc(c(-c6c(F)c(F)c(F)c(F)c6F)c6ccc3[nH]6)C=C5)C=C4)cc2)o1
REMARK SMILES IDX 20 1 19 2 17 3 18 4 16 6 13 7 14 8 92 9 15 10 12 11 11 12
REMARK SMILES IDX 9 13 10 14 7 16 8 17 6 18 5 19 3 20 4 21 2 22 1 23 21 24
REMARK SMILES IDX 22 25 23 26 24 27 25 28 26 29 27 30 28 32 29 33 30 34 91 35
REMARK SMILES IDX 31 36 90 37 32 38 33 39 34 40 84 41 35 42 89 43 83 44 85 45
REMARK SMILES IDX 36 46 88 47 82 48 81 49 37 51 69 52 49 53 68 54 50 55 53 56
REMARK SMILES IDX 67 57 86 58 51 59 52 60 66 62 87 63 54 64 38 65 39 66 47 67
REMARK SMILES IDX 40 68 41 69 45 70 48 71 42 72 43 73 46 74 44 75 70 76 71 77
REMARK SMILES IDX 79 78 72 79 73 80 77 81 80 82 74 83 75 84 78 85 76 86 55 87
REMARK SMILES IDX 56 88 64 89 57 90 58 91 62 92 65 93 59 94 60 95 63 96 61 97
REMARK H PARENT 19 5 11 15 26 31 85 50 53 61
REMARK Flexibility Score: inf
ROOT
ATOM      1  C   UNL A   1      39.799  21.744  26.534  1.00  0.00     0.116 C 
ENDROOT
BRANCH   1   2
ATOM      2  N   UNL A   1      38.975  22.883  26.202  1.00  0.00    -0.349 N 
ATOM      3  C   UNL A   1      37.698  22.976  25.704  1.00  0.00     0.286 C 
ATOM      4  O   UNL A   1      37.275  24.125  25.548  1.00  0.00    -0.266 OA
ATOM      5  H   UNL A   1      39.408  23.752  26.362  1.00  0.00     0.163 HD
BRANCH   3   6
ATOM      6  C   UNL A   1      36.904  21.799  25.405  1.00  0.00     0.191 A 
ATOM      7  C   UNL A   1      34.968  20.732  25.300  1.00  0.00     0.124 A 
ATOM      8  C   UNL A   1      35.925  19.835  24.883  1.00  0.00     0.048 A 
ATOM      9  O   UNL A   1      35.553  21.907  25.646  1.00  0.00    -0.454 OA
ATOM     10  C   UNL A   1      37.147  20.540  24.883  1.00  0.00     0.056 A 
BRANCH   7  11
ATOM     11  C   UNL A   1      33.486  20.683  25.337  1.00  0.00     0.193 C 
BRANCH  11  12
ATOM     12  N   UNL A   1      33.099  21.175  26.640  1.00  0.00    -0.331 N 
ATOM     13  C   UNL A   1      32.712  22.359  27.133  1.00  0.00     0.317 C 
ATOM     14  O   UNL A   1      32.872  22.494  28.350  1.00  0.00    -0.249 OA
ATOM     15  H   UNL A   1      33.126  20.473  27.329  1.00  0.00     0.165 HD
BRANCH  13  16
ATOM     16  N   UNL A   1      32.118  23.329  26.377  1.00  0.00    -0.327 N 
ATOM     17  C   UNL A   1      30.731  23.377  25.945  1.00  0.00     0.148 C 
BRANCH  16  18
ATOM     18  C   UNL A   1      32.917  24.541  26.132  1.00  0.00     0.132 C 
BRANCH  18  19
ATOM     19  C   UNL A   1      33.598  24.525  24.764  1.00  0.00     0.144 C 
BRANCH  19  20
ATOM     20  C   UNL A   1      33.427  25.846  24.057  1.00  0.00     0.307 C 
ATOM     21  O   UNL A   1      33.709  26.028  22.880  1.00  0.00    -0.252 OA
BRANCH  20  22
ATOM     22  O   UNL A   1      32.951  26.790  24.916  1.00  0.00    -0.469 OA
ATOM     23  C   UNL A   1      33.678  28.023  24.911  1.00  0.00     0.282 C 
ENDBRANCH  20  22
ENDBRANCH  19  20
ENDBRANCH  18  19
ENDBRANCH  16  18
ENDBRANCH  13  16
ENDBRANCH  11  12
ENDBRANCH   7  11
ENDBRANCH   3   6
ENDBRANCH   1   2
BRANCH   1  24
ATOM     24  C   UNL A   1      40.882  22.133  27.539  1.00  0.00     0.021 C 
BRANCH  24  25
ATOM     25  C   UNL A   1      42.125  21.236  27.452  1.00  0.00     0.002 C 
BRANCH  25  26
ATOM     26  C   UNL A   1      41.861  19.744  27.698  1.00  0.00     0.002 C 
BRANCH  26  27
ATOM     27  C   UNL A   1      42.675  18.792  26.817  1.00  0.00     0.021 C 
BRANCH  27  28
ATOM     28  C   UNL A   1      42.701  19.180  25.343  1.00  0.00     0.116 C 
BRANCH  28  29
ATOM     29  N   UNL A   1      43.943  18.778  24.705  1.00  0.00    -0.352 N 
ATOM     30  C   UNL A   1      45.004  19.552  24.310  1.00  0.00     0.251 C 
ATOM     31  H   UNL A   1      44.038  17.813  24.534  1.00  0.00     0.163 HD
ATOM     32  O   UNL A   1      45.878  19.088  23.586  1.00  0.00    -0.269 OA
BRANCH  30  33
ATOM     33  C   UNL A   1      45.086  20.958  24.754  1.00  0.00     0.039 A 
ATOM     34  C   UNL A   1      45.489  21.235  26.062  1.00  0.00     0.014 A 
ATOM     35  C   UNL A   1      44.749  21.999  23.882  1.00  0.00     0.014 A 
ATOM     36  C   UNL A   1      45.598  22.560  26.485  1.00  0.00     0.010 A 
ATOM     37  C   UNL A   1      44.925  23.319  24.283  1.00  0.00     0.010 A 
ATOM     38  C   UNL A   1      45.340  23.612  25.591  1.00  0.00    -0.014 A 
BRANCH  38  39
ATOM     39  C   UNL A   1      45.473  25.029  26.005  1.00  0.00     0.031 A 
ATOM     40  C   UNL A   1      46.814  25.705  25.935  1.00  0.00     0.074 A 
ATOM     41  C   UNL A   1      44.410  25.681  26.511  1.00  0.00     0.049 A 
ATOM     42  N   UNL A   1      47.165  26.896  26.345  1.00  0.00    -0.248 NA
ATOM     43  C   UNL A   1      47.915  24.921  25.354  1.00  0.00     0.031 C 
ATOM     44  C   UNL A   1      43.068  25.120  26.662  1.00  0.00     0.029 A 
ATOM     45  N   UNL A   1      44.297  26.956  27.006  1.00  0.00    -0.354 N 
ATOM     46  C   UNL A   1      48.526  26.997  26.091  1.00  0.00     0.074 A 
ATOM     47  C   UNL A   1      48.949  25.727  25.539  1.00  0.00     0.031 C 
ATOM     48  C   UNL A   1      42.261  26.051  27.198  1.00  0.00     0.029 A 
ATOM     49  C   UNL A   1      43.038  27.259  27.463  1.00  0.00     0.049 A 
ATOM     50  H   UNL A   1      45.047  27.594  27.032  1.00  0.00     0.167 HD
ATOM     51  C   UNL A   1      49.345  28.059  26.280  1.00  0.00     0.037 A 
ATOM     52  C   UNL A   1      42.568  28.381  28.040  1.00  0.00     0.037 A 
ATOM     53  C   UNL A   1      48.912  29.328  26.803  1.00  0.00     0.049 A 
ATOM     54  C   UNL A   1      43.499  29.545  28.245  1.00  0.00     0.074 A 
ATOM     55  C   UNL A   1      49.649  30.486  26.981  1.00  0.00     0.029 A 
ATOM     56  N   UNL A   1      47.623  29.604  27.233  1.00  0.00    -0.354 N 
ATOM     57  N   UNL A   1      44.771  29.650  27.947  1.00  0.00    -0.248 NA
ATOM     58  C   UNL A   1      42.924  30.750  28.860  1.00  0.00     0.031 C 
ATOM     59  C   UNL A   1      48.816  31.449  27.559  1.00  0.00     0.029 A 
ATOM     60  C   UNL A   1      47.547  30.909  27.694  1.00  0.00     0.049 A 
ATOM     61  H   UNL A   1      46.871  28.967  27.215  1.00  0.00     0.167 HD
ATOM     62  C   UNL A   1      45.142  30.938  28.308  1.00  0.00     0.074 A 
ATOM     63  C   UNL A   1      43.958  31.581  28.840  1.00  0.00     0.031 C 
ATOM     64  C   UNL A   1      46.355  31.535  28.206  1.00  0.00     0.037 A 
BRANCH  51  65
ATOM     65  C   UNL A   1      50.793  27.889  25.919  1.00  0.00     0.064 A 
ATOM     66  C   UNL A   1      51.242  28.021  24.596  1.00  0.00     0.173 A 
ATOM     67  C   UNL A   1      51.746  27.613  26.910  1.00  0.00     0.173 A 
ATOM     68  F   UNL A   1      50.369  28.273  23.609  1.00  0.00    -0.203 F 
ATOM     69  C   UNL A   1      52.585  27.846  24.275  1.00  0.00     0.198 A 
ATOM     70  C   UNL A   1      53.093  27.471  26.590  1.00  0.00     0.198 A 
ATOM     71  F   UNL A   1      51.372  27.482  28.192  1.00  0.00    -0.203 F 
ATOM     72  F   UNL A   1      52.981  27.920  22.996  1.00  0.00    -0.200 F 
ATOM     73  C   UNL A   1      53.510  27.577  25.272  1.00  0.00     0.200 A 
ATOM     74  F   UNL A   1      53.989  27.224  27.556  1.00  0.00    -0.200 F 
ATOM     75  F   UNL A   1      54.804  27.412  24.960  1.00  0.00    -0.200 F 
ENDBRANCH  51  65
BRANCH  52  76
ATOM     76  C   UNL A   1      41.139  28.466  28.438  1.00  0.00     0.064 A 
ATOM     77  C   UNL A   1      40.724  28.046  29.708  1.00  0.00     0.173 A 
ATOM     78  C   UNL A   1      40.165  28.973  27.566  1.00  0.00     0.173 A 
ATOM     79  F   UNL A   1      41.616  27.537  30.571  1.00  0.00    -0.203 F 
ATOM     80  C   UNL A   1      39.383  28.114  30.087  1.00  0.00     0.198 A 
ATOM     81  C   UNL A   1      38.830  29.065  27.954  1.00  0.00     0.198 A 
ATOM     82  F   UNL A   1      40.513  29.394  26.340  1.00  0.00    -0.203 F 
ATOM     83  F   UNL A   1      39.008  27.669  31.293  1.00  0.00    -0.200 F 
ATOM     84  C   UNL A   1      38.440  28.629  29.212  1.00  0.00     0.200 A 
ATOM     85  F   UNL A   1      37.923  29.577  27.112  1.00  0.00    -0.200 F 
ATOM     86  F   UNL A   1      37.153  28.700  29.578  1.00  0.00    -0.200 F 
ENDBRANCH  52  76
BRANCH  64  87
ATOM     87  C   UNL A   1      46.455  32.970  28.637  1.00  0.00     0.064 A 
ATOM     88  C   UNL A   1      46.810  33.323  29.946  1.00  0.00     0.173 A 
ATOM     89  C   UNL A   1      46.240  34.002  27.710  1.00  0.00     0.173 A 
ATOM     90  F   UNL A   1      47.011  32.374  30.871  1.00  0.00    -0.203 F 
ATOM     91  C   UNL A   1      46.927  34.661  30.318  1.00  0.00     0.198 A 
ATOM     92  C   UNL A   1      46.386  35.336  28.078  1.00  0.00     0.198 A 
ATOM     93  F   UNL A   1      45.904  33.715  26.443  1.00  0.00    -0.203 F 
ATOM     94  F   UNL A   1      47.225  34.978  31.585  1.00  0.00    -0.200 F 
ATOM     95  C   UNL A   1      46.722  35.665  29.383  1.00  0.00     0.200 A 
ATOM     96  F   UNL A   1      46.201  36.305  27.171  1.00  0.00    -0.200 F 
ATOM     97  F   UNL A   1      46.845  36.949  29.740  1.00  0.00    -0.200 F 
ENDBRANCH  64  87
ENDBRANCH  38  39
ENDBRANCH  30  33
ENDBRANCH  28  29
ENDBRANCH  27  28
ENDBRANCH  26  27
ENDBRANCH  25  26
ENDBRANCH  24  25
ENDBRANCH   1  24
TORSDOF 20
ENDMDL
MODEL 2
REMARK VINA RESULT:      -9.8      6.364     11.775
REMARK SMILES COC(=O)CCN(C)C(=O)NCc1ccc(C(=O)NCCCCCCNC(=O)c2ccc(-c3c4nc(c(-c5c(F)c(F)c(F)c(F)c5F)c5ccc([nH]5)c(-c5c(F)c(F)c(F)c(F)c5F)c5nc(c(-c6c(F)c(F)c(F)c(F)c6F)c6ccc3[nH]6)C=C5)C=C4)cc2)o1
REMARK SMILES IDX 20 1 19 2 17 3 18 4 16 6 13 7 14 8 92 9 15 10 12 11 11 12
REMARK SMILES IDX 9 13 10 14 7 16 8 17 6 18 5 19 3 20 4 21 2 22 1 23 21 24
REMARK SMILES IDX 22 25 23 26 24 27 25 28 26 29 27 30 28 32 29 33 30 34 91 35
REMARK SMILES IDX 31 36 90 37 32 38 33 39 34 40 84 41 35 42 89 43 83 44 85 45
REMARK SMILES IDX 36 46 88 47 82 48 81 49 37 51 69 52 49 53 68 54 50 55 53 56
REMARK SMILES IDX 67 57 86 58 51 59 52 60 66 62 87 63 54 64 38 65 39 66 47 67
REMARK SMILES IDX 40 68 41 69 45 70 48 71 42 72 43 73 46 74 44 75 70 76 71 77
REMARK SMILES IDX 79 78 72 79 73 80 77 81 80 82 74 83 75 84 78 85 76 86 55 87
REMARK SMILES IDX 56 88 64 89 57 90 58 91 62 92 65 93 59 94 60 95 63 96 61 97
REMARK H PARENT 19 5 11 15 26 31 85 50 53 61
REMARK Flexibility Score: inf
ROOT
ATOM      1  C   UNL A   1      34.261  28.836  26.688  1.00  0.00     0.116 C 
ENDROOT
BRANCH   1   2
ATOM      2  N   UNL A   1      33.105  28.495  27.484  1.00  0.00    -0.349 N 
ATOM      3  C   UNL A   1      31.845  28.074  27.137  1.00  0.00     0.286 C 
ATOM      4  O   UNL A   1      31.085  27.847  28.082  1.00  0.00    -0.266 OA
ATOM      5  H   UNL A   1      33.247  28.579  28.454  1.00  0.00     0.163 HD
BRANCH   3   6
ATOM      6  C   UNL A   1      31.451  27.893  25.752  1.00  0.00     0.191 A 
ATOM      7  C   UNL A   1      30.966  26.607  24.018  1.00  0.00     0.124 A 
ATOM      8  C   UNL A   1      30.855  27.906  23.577  1.00  0.00     0.048 A 
ATOM      9  O   UNL A   1      31.355  26.590  25.318  1.00  0.00    -0.454 OA
ATOM     10  C   UNL A   1      31.095  28.722  24.702  1.00  0.00     0.056 A 
BRANCH   7  11
ATOM     11  C   UNL A   1      30.652  25.298  23.395  1.00  0.00     0.193 C 
BRANCH  11  12
ATOM     12  N   UNL A   1      31.542  25.167  22.263  1.00  0.00    -0.331 N 
ATOM     13  C   UNL A   1      32.859  24.973  22.106  1.00  0.00     0.317 C 
ATOM     14  O   UNL A   1      33.311  25.334  21.015  1.00  0.00    -0.249 OA
ATOM     15  H   UNL A   1      31.068  25.236  21.404  1.00  0.00     0.165 HD
BRANCH  13  16
ATOM     16  N   UNL A   1      33.644  24.361  23.040  1.00  0.00    -0.327 N 
ATOM     17  C   UNL A   1      34.259  24.973  24.206  1.00  0.00     0.148 C 
BRANCH  16  18
ATOM     18  C   UNL A   1      33.725  22.893  22.959  1.00  0.00     0.132 C 
BRANCH  18  19
ATOM     19  C   UNL A   1      32.727  22.201  23.887  1.00  0.00     0.144 C 
BRANCH  19  20
ATOM     20  C   UNL A   1      32.295  20.870  23.325  1.00  0.00     0.307 C 
ATOM     21  O   UNL A   1      31.943  20.706  22.163  1.00  0.00    -0.252 OA
BRANCH  20  22
ATOM     22  O   UNL A   1      32.326  19.910  24.290  1.00  0.00    -0.469 OA
ATOM     23  C   UNL A   1      33.628  19.385  24.569  1.00  0.00     0.282 C 
ENDBRANCH  20  22
ENDBRANCH  19  20
ENDBRANCH  18  19
ENDBRANCH  16  18
ENDBRANCH  13  16
ENDBRANCH  11  12
ENDBRANCH   7  11
ENDBRANCH   3   6
ENDBRANCH   1   2
BRANCH   1  24
ATOM     24  C   UNL A   1      35.158  29.825  27.430  1.00  0.00     0.021 C 
BRANCH  24  25
ATOM     25  C   UNL A   1      34.363  30.858  28.242  1.00  0.00     0.002 C 
BRANCH  25  26
ATOM     26  C   UNL A   1      34.496  32.306  27.748  1.00  0.00     0.002 C 
BRANCH  26  27
ATOM     27  C   UNL A   1      33.240  33.164  27.923  1.00  0.00     0.021 C 
BRANCH  27  28
ATOM     28  C   UNL A   1      33.488  34.662  27.785  1.00  0.00     0.116 C 
BRANCH  28  29
ATOM     29  N   UNL A   1      32.960  35.398  28.922  1.00  0.00    -0.352 N 
ATOM     30  C   UNL A   1      33.245  35.254  30.256  1.00  0.00     0.251 C 
ATOM     31  H   UNL A   1      32.305  36.101  28.704  1.00  0.00     0.163 HD
ATOM     32  O   UNL A   1      32.549  35.800  31.104  1.00  0.00    -0.269 OA
BRANCH  30  33
ATOM     33  C   UNL A   1      34.395  34.425  30.669  1.00  0.00     0.039 A 
ATOM     34  C   UNL A   1      35.668  34.741  30.188  1.00  0.00     0.014 A 
ATOM     35  C   UNL A   1      34.212  33.329  31.518  1.00  0.00     0.014 A 
ATOM     36  C   UNL A   1      36.768  33.984  30.595  1.00  0.00     0.010 A 
ATOM     37  C   UNL A   1      35.317  32.619  31.976  1.00  0.00     0.010 A 
ATOM     38  C   UNL A   1      36.603  32.933  31.510  1.00  0.00    -0.014 A 
BRANCH  38  39
ATOM     39  C   UNL A   1      37.756  32.128  31.980  1.00  0.00     0.031 A 
ATOM     40  C   UNL A   1      38.393  32.438  33.305  1.00  0.00     0.074 A 
ATOM     41  C   UNL A   1      38.275  31.174  31.184  1.00  0.00     0.049 A 
ATOM     42  N   UNL A   1      39.468  31.928  33.849  1.00  0.00    -0.248 NA
ATOM     43  C   UNL A   1      37.750  33.486  34.114  1.00  0.00     0.031 C 
ATOM     44  C   UNL A   1      37.766  30.807  29.863  1.00  0.00     0.029 A 
ATOM     45  N   UNL A   1      39.355  30.348  31.368  1.00  0.00    -0.354 N 
ATOM     46  C   UNL A   1      39.641  32.604  35.049  1.00  0.00     0.074 A 
ATOM     47  C   UNL A   1      38.591  33.597  35.131  1.00  0.00     0.031 C 
ATOM     48  C   UNL A   1      38.524  29.819  29.360  1.00  0.00     0.029 A 
ATOM     49  C   UNL A   1      39.592  29.510  30.306  1.00  0.00     0.049 A 
ATOM     50  H   UNL A   1      39.907  30.355  32.182  1.00  0.00     0.167 HD
ATOM     51  C   UNL A   1      40.577  32.402  36.005  1.00  0.00     0.037 A 
ATOM     52  C   UNL A   1      40.569  28.603  30.116  1.00  0.00     0.037 A 
ATOM     53  C   UNL A   1      41.602  31.393  35.931  1.00  0.00     0.049 A 
ATOM     54  C   UNL A   1      41.602  28.399  31.191  1.00  0.00     0.074 A 
ATOM     55  C   UNL A   1      42.564  31.068  36.871  1.00  0.00     0.029 A 
ATOM     56  N   UNL A   1      41.796  30.547  34.849  1.00  0.00    -0.354 N 
ATOM     57  N   UNL A   1      41.722  29.004  32.348  1.00  0.00    -0.248 NA
ATOM     58  C   UNL A   1      42.630  27.381  30.936  1.00  0.00     0.031 C 
ATOM     59  C   UNL A   1      43.367  30.053  36.340  1.00  0.00     0.029 A 
ATOM     60  C   UNL A   1      42.874  29.711  35.091  1.00  0.00     0.049 A 
ATOM     61  H   UNL A   1      41.249  30.541  34.031  1.00  0.00     0.167 HD
ATOM     62  C   UNL A   1      42.816  28.421  32.972  1.00  0.00     0.074 A 
ATOM     63  C   UNL A   1      43.321  27.408  32.068  1.00  0.00     0.031 C 
ATOM     64  C   UNL A   1      43.353  28.698  34.185  1.00  0.00     0.037 A 
BRANCH  51  65
ATOM     65  C   UNL A   1      40.535  33.291  37.215  1.00  0.00     0.064 A 
ATOM     66  C   UNL A   1      41.417  34.372  37.366  1.00  0.00     0.173 A 
ATOM     67  C   UNL A   1      39.588  33.072  38.227  1.00  0.00     0.173 A 
ATOM     68  F   UNL A   1      42.350  34.617  36.433  1.00  0.00    -0.203 F 
ATOM     69  C   UNL A   1      41.375  35.179  38.500  1.00  0.00     0.198 A 
ATOM     70  C   UNL A   1      39.527  33.901  39.344  1.00  0.00     0.198 A 
ATOM     71  F   UNL A   1      38.716  32.056  38.131  1.00  0.00    -0.203 F 
ATOM     72  F   UNL A   1      42.266  36.169  38.648  1.00  0.00    -0.200 F 
ATOM     73  C   UNL A   1      40.428  34.946  39.485  1.00  0.00     0.200 A 
ATOM     74  F   UNL A   1      38.603  33.683  40.290  1.00  0.00    -0.200 F 
ATOM     75  F   UNL A   1      40.387  35.725  40.575  1.00  0.00    -0.200 F 
ENDBRANCH  51  65
BRANCH  52  76
ATOM     76  C   UNL A   1      40.598  27.798  28.867  1.00  0.00     0.064 A 
ATOM     77  C   UNL A   1      39.846  26.621  28.756  1.00  0.00     0.173 A 
ATOM     78  C   UNL A   1      41.366  28.190  27.761  1.00  0.00     0.173 A 
ATOM     79  F   UNL A   1      39.110  26.196  29.794  1.00  0.00    -0.203 F 
ATOM     80  C   UNL A   1      39.875  25.855  27.591  1.00  0.00     0.198 A 
ATOM     81  C   UNL A   1      41.373  27.438  26.588  1.00  0.00     0.198 A 
ATOM     82  F   UNL A   1      42.099  29.312  27.815  1.00  0.00    -0.203 F 
ATOM     83  F   UNL A   1      39.178  24.713  27.527  1.00  0.00    -0.200 F 
ATOM     84  C   UNL A   1      40.634  26.267  26.508  1.00  0.00     0.200 A 
ATOM     85  F   UNL A   1      42.096  27.846  25.537  1.00  0.00    -0.200 F 
ATOM     86  F   UNL A   1      40.656  25.535  25.386  1.00  0.00    -0.200 F 
ENDBRANCH  52  76
BRANCH  64  87
ATOM     87  C   UNL A   1      44.522  27.867  34.628  1.00  0.00     0.064 A 
ATOM     88  C   UNL A   1      45.844  28.271  34.397  1.00  0.00     0.173 A 
ATOM     89  C   UNL A   1      44.311  26.674  35.336  1.00  0.00     0.173 A 
ATOM     90  F   UNL A   1      46.097  29.396  33.711  1.00  0.00    -0.203 F 
ATOM     91  C   UNL A   1      46.915  27.500  34.842  1.00  0.00     0.198 A 
ATOM     92  C   UNL A   1      45.384  25.921  35.804  1.00  0.00     0.198 A 
ATOM     93  F   UNL A   1      43.064  26.247  35.588  1.00  0.00    -0.203 F 
ATOM     94  F   UNL A   1      48.171  27.882  34.573  1.00  0.00    -0.200 F 
ATOM     95  C   UNL A   1      46.684  26.330  35.552  1.00  0.00     0.200 A 
ATOM     96  F   UNL A   1      45.159  24.798  36.502  1.00  0.00    -0.200 F 
ATOM     97  F   UNL A   1      47.715  25.596  35.988  1.00  0.00    -0.200 F 
ENDBRANCH  64  87
ENDBRANCH  38  39
ENDBRANCH  30  33
ENDBRANCH  28  29
ENDBRANCH  27  28
ENDBRANCH  26  27
ENDBRANCH  25  26
ENDBRANCH  24  25
ENDBRANCH   1  24
TORSDOF 20
ENDMDL
MODEL 3
REMARK VINA RESULT:      -9.8      7.246     12.835
REMARK SMILES COC(=O)CCN(C)C(=O)NCc1ccc(C(=O)NCCCCCCNC(=O)c2ccc(-c3c4nc(c(-c5c(F)c(F)c(F)c(F)c5F)c5ccc([nH]5)c(-c5c(F)c(F)c(F)c(F)c5F)c5nc(c(-c6c(F)c(F)c(F)c(F)c6F)c6ccc3[nH]6)C=C5)C=C4)cc2)o1
REMARK SMILES IDX 20 1 19 2 17 3 18 4 16 6 13 7 14 8 92 9 15 10 12 11 11 12
REMARK SMILES IDX 9 13 10 14 7 16 8 17 6 18 5 19 3 20 4 21 2 22 1 23 21 24
REMARK SMILES IDX 22 25 23 26 24 27 25 28 26 29 27 30 28 32 29 33 30 34 91 35
REMARK SMILES IDX 31 36 90 37 32 38 33 39 34 40 84 41 35 42 89 43 83 44 85 45
REMARK SMILES IDX 36 46 88 47 82 48 81 49 37 51 69 52 49 53 68 54 50 55 53 56
REMARK SMILES IDX 67 57 86 58 51 59 52 60 66 62 87 63 54 64 38 65 39 66 47 67
REMARK SMILES IDX 40 68 41 69 45 70 48 71 42 72 43 73 46 74 44 75 70 76 71 77
REMARK SMILES IDX 79 78 72 79 73 80 77 81 80 82 74 83 75 84 78 85 76 86 55 87
REMARK SMILES IDX 56 88 64 89 57 90 58 91 62 92 65 93 59 94 60 95 63 96 61 97
REMARK H PARENT 19 5 11 15 26 31 85 50 53 61
REMARK Flexibility Score: inf
ROOT
ATOM      1  C   UNL A   1      34.615  31.874  28.932  1.00  0.00     0.116 C 
ENDROOT
BRANCH   1   2
ATOM      2  N   UNL A   1      35.451  30.866  28.324  1.00  0.00    -0.349 N 
ATOM      3  C   UNL A   1      35.149  29.758  27.570  1.00  0.00     0.286 C 
ATOM      4  O   UNL A   1      36.121  29.103  27.182  1.00  0.00    -0.266 OA
ATOM      5  H   UNL A   1      36.414  30.997  28.478  1.00  0.00     0.163 HD
BRANCH   3   6
ATOM      6  C   UNL A   1      33.781  29.403  27.241  1.00  0.00     0.191 A 
ATOM      7  C   UNL A   1      31.924  29.686  26.072  1.00  0.00     0.124 A 
ATOM      8  C   UNL A   1      31.671  28.660  26.954  1.00  0.00     0.048 A 
ATOM      9  O   UNL A   1      33.181  30.160  26.260  1.00  0.00    -0.454 OA
ATOM     10  C   UNL A   1      32.879  28.434  27.647  1.00  0.00     0.056 A 
BRANCH   7  11
ATOM     11  C   UNL A   1      31.150  30.265  24.946  1.00  0.00     0.193 C 
BRANCH  11  12
ATOM     12  N   UNL A   1      31.604  29.585  23.754  1.00  0.00    -0.331 N 
ATOM     13  C   UNL A   1      31.130  28.597  22.984  1.00  0.00     0.317 C 
ATOM     14  O   UNL A   1      31.980  28.007  22.310  1.00  0.00    -0.249 OA
ATOM     15  H   UNL A   1      32.467  29.930  23.431  1.00  0.00     0.165 HD
BRANCH  13  16
ATOM     16  N   UNL A   1      29.801  28.295  22.883  1.00  0.00    -0.327 N 
ATOM     17  C   UNL A   1      29.097  27.208  23.539  1.00  0.00     0.148 C 
BRANCH  16  18
ATOM     18  C   UNL A   1      28.963  29.284  22.183  1.00  0.00     0.132 C 
BRANCH  18  19
ATOM     19  C   UNL A   1      27.732  29.684  22.994  1.00  0.00     0.144 C 
BRANCH  19  20
ATOM     20  C   UNL A   1      27.696  31.173  23.228  1.00  0.00     0.307 C 
ATOM     21  O   UNL A   1      26.860  31.731  23.927  1.00  0.00    -0.252 OA
BRANCH  20  22
ATOM     22  O   UNL A   1      28.692  31.791  22.534  1.00  0.00    -0.469 OA
ATOM     23  C   UNL A   1      28.982  33.124  22.964  1.00  0.00     0.282 C 
ENDBRANCH  20  22
ENDBRANCH  19  20
ENDBRANCH  18  19
ENDBRANCH  16  18
ENDBRANCH  13  16
ENDBRANCH  11  12
ENDBRANCH   7  11
ENDBRANCH   3   6
ENDBRANCH   1   2
BRANCH   1  24
ATOM     24  C   UNL A   1      34.463  33.082  28.009  1.00  0.00     0.021 C 
BRANCH  24  25
ATOM     25  C   UNL A   1      33.008  33.554  27.879  1.00  0.00     0.002 C 
BRANCH  25  26
ATOM     26  C   UNL A   1      32.718  34.929  28.496  1.00  0.00     0.002 C 
BRANCH  26  27
ATOM     27  C   UNL A   1      33.826  35.474  29.403  1.00  0.00     0.021 C 
BRANCH  27  28
ATOM     28  C   UNL A   1      33.450  36.753  30.143  1.00  0.00     0.116 C 
BRANCH  28  29
ATOM     29  N   UNL A   1      32.461  36.501  31.177  1.00  0.00    -0.352 N 
ATOM     30  C   UNL A   1      32.485  35.579  32.192  1.00  0.00     0.251 C 
ATOM     31  H   UNL A   1      31.660  37.073  31.146  1.00  0.00     0.163 HD
ATOM     32  O   UNL A   1      31.474  35.344  32.844  1.00  0.00    -0.269 OA
BRANCH  30  33
ATOM     33  C   UNL A   1      33.739  34.859  32.493  1.00  0.00     0.039 A 
ATOM     34  C   UNL A   1      34.908  35.593  32.713  1.00  0.00     0.014 A 
ATOM     35  C   UNL A   1      33.762  33.462  32.541  1.00  0.00     0.014 A 
ATOM     36  C   UNL A   1      36.092  34.926  33.027  1.00  0.00     0.010 A 
ATOM     37  C   UNL A   1      34.926  32.803  32.921  1.00  0.00     0.010 A 
ATOM     38  C   UNL A   1      36.104  33.528  33.157  1.00  0.00    -0.014 A 
BRANCH  38  39
ATOM     39  C   UNL A   1      37.342  32.795  33.515  1.00  0.00     0.031 A 
ATOM     40  C   UNL A   1      38.029  33.083  34.821  1.00  0.00     0.074 A 
ATOM     41  C   UNL A   1      37.887  31.932  32.637  1.00  0.00     0.049 A 
ATOM     42  N   UNL A   1      39.171  32.632  35.274  1.00  0.00    -0.248 NA
ATOM     43  C   UNL A   1      37.355  34.029  35.723  1.00  0.00     0.031 C 
ATOM     44  C   UNL A   1      37.332  31.598  31.326  1.00  0.00     0.029 A 
ATOM     45  N   UNL A   1      39.037  31.187  32.713  1.00  0.00    -0.354 N 
ATOM     46  C   UNL A   1      39.360  33.253  36.502  1.00  0.00     0.074 A 
ATOM     47  C   UNL A   1      38.242  34.152  36.699  1.00  0.00     0.031 C 
ATOM     48  C   UNL A   1      38.134  30.704  30.725  1.00  0.00     0.029 A 
ATOM     49  C   UNL A   1      39.277  30.431  31.592  1.00  0.00     0.049 A 
ATOM     50  H   UNL A   1      39.634  31.195  33.496  1.00  0.00     0.167 HD
ATOM     51  C   UNL A   1      40.364  33.075  37.392  1.00  0.00     0.037 A 
ATOM     52  C   UNL A   1      40.308  29.618  31.296  1.00  0.00     0.037 A 
ATOM     53  C   UNL A   1      41.458  32.159  37.203  1.00  0.00     0.049 A 
ATOM     54  C   UNL A   1      41.415  29.441  32.300  1.00  0.00     0.074 A 
ATOM     55  C   UNL A   1      42.496  31.862  38.069  1.00  0.00     0.029 A 
ATOM     56  N   UNL A   1      41.654  31.393  36.064  1.00  0.00    -0.354 N 
ATOM     57  N   UNL A   1      41.555  29.988  33.482  1.00  0.00    -0.248 NA
ATOM     58  C   UNL A   1      42.503  28.525  31.930  1.00  0.00     0.031 C 
ATOM     59  C   UNL A   1      43.343  30.947  37.436  1.00  0.00     0.029 A 
ATOM     60  C   UNL A   1      42.807  30.635  36.197  1.00  0.00     0.049 A 
ATOM     61  H   UNL A   1      41.063  31.387  35.277  1.00  0.00     0.167 HD
ATOM     62  C   UNL A   1      42.726  29.463  34.011  1.00  0.00     0.074 A 
ATOM     63  C   UNL A   1      43.255  28.546  33.022  1.00  0.00     0.031 C 
ATOM     64  C   UNL A   1      43.310  29.716  35.207  1.00  0.00     0.037 A 
BRANCH  51  65
ATOM     65  C   UNL A   1      40.323  33.890  38.653  1.00  0.00     0.064 A 
ATOM     66  C   UNL A   1      39.597  33.469  39.779  1.00  0.00     0.173 A 
ATOM     67  C   UNL A   1      41.034  35.095  38.746  1.00  0.00     0.173 A 
ATOM     68  F   UNL A   1      38.889  32.330  39.738  1.00  0.00    -0.203 F 
ATOM     69  C   UNL A   1      39.556  34.242  40.936  1.00  0.00     0.198 A 
ATOM     70  C   UNL A   1      41.018  35.850  39.916  1.00  0.00     0.198 A 
ATOM     71  F   UNL A   1      41.750  35.541  37.702  1.00  0.00    -0.203 F 
ATOM     72  F   UNL A   1      38.809  33.849  41.976  1.00  0.00    -0.200 F 
ATOM     73  C   UNL A   1      40.271  35.429  41.005  1.00  0.00     0.200 A 
ATOM     74  F   UNL A   1      41.719  36.990  39.988  1.00  0.00    -0.200 F 
ATOM     75  F   UNL A   1      40.232  36.170  42.121  1.00  0.00    -0.200 F 
ENDBRANCH  51  65
BRANCH  52  76
ATOM     76  C   UNL A   1      40.327  28.889  30.002  1.00  0.00     0.064 A 
ATOM     77  C   UNL A   1      41.017  29.407  28.898  1.00  0.00     0.173 A 
ATOM     78  C   UNL A   1      39.668  27.662  29.843  1.00  0.00     0.173 A 
ATOM     79  F   UNL A   1      41.648  30.587  28.996  1.00  0.00    -0.203 F 
ATOM     80  C   UNL A   1      41.033  28.733  27.677  1.00  0.00     0.198 A 
ATOM     81  C   UNL A   1      39.706  26.976  28.630  1.00  0.00     0.198 A 
ATOM     82  F   UNL A   1      38.998  27.120  30.872  1.00  0.00    -0.203 F 
ATOM     83  F   UNL A   1      41.667  29.271  26.627  1.00  0.00    -0.200 F 
ATOM     84  C   UNL A   1      40.382  27.517  27.547  1.00  0.00     0.200 A 
ATOM     85  F   UNL A   1      39.088  25.793  28.512  1.00  0.00    -0.200 F 
ATOM     86  F   UNL A   1      40.403  26.866  26.376  1.00  0.00    -0.200 F 
ENDBRANCH  52  76
BRANCH  64  87
ATOM     87  C   UNL A   1      44.564  28.959  35.536  1.00  0.00     0.064 A 
ATOM     88  C   UNL A   1      45.829  29.426  35.152  1.00  0.00     0.173 A 
ATOM     89  C   UNL A   1      44.498  27.776  36.289  1.00  0.00     0.173 A 
ATOM     90  F   UNL A   1      45.943  30.543  34.419  1.00  0.00    -0.203 F 
ATOM     91  C   UNL A   1      46.982  28.724  35.493  1.00  0.00     0.198 A 
ATOM     92  C   UNL A   1      45.654  27.094  36.652  1.00  0.00     0.198 A 
ATOM     93  F   UNL A   1      43.311  27.293  36.686  1.00  0.00    -0.203 F 
ATOM     94  F   UNL A   1      48.179  29.164  35.079  1.00  0.00    -0.200 F 
ATOM     95  C   UNL A   1      46.895  27.564  36.249  1.00  0.00     0.200 A 
ATOM     96  F   UNL A   1      45.569  25.980  37.394  1.00  0.00    -0.200 F 
ATOM     97  F   UNL A   1      48.006  26.896  36.584  1.00  0.00    -0.200 F 
ENDBRANCH  64  87
ENDBRANCH  38  39
ENDBRANCH  30  33
ENDBRANCH  28  29
ENDBRANCH  27  28
ENDBRANCH  26  27
ENDBRANCH  25  26
ENDBRANCH  24  25
ENDBRANCH   1  24
TORSDOF 20
ENDMDL
