MODEL 1
REMARK VINA RESULT:     -12.9      0.000      0.000
REMARK SMILES Cc1cc(C[N@H+]2CC[C@](C)(C(=O)NCCCCCCNC(=O)c3ccc(-c4c5nc(c(-c6c(F)c(F)c(F)c(F)c6F)c6ccc([nH]6)c(-c6c(F)c(F)c(F)c(F)c6F)c6nc(c(-c7c(F)c(F)c(F)c(F)c7F)c7ccc4[nH]7)C=C6)C=C5)cc3)C2)c2ccccc2n1
REMARK SMILES IDX 16 1 15 2 14 3 13 4 11 5 12 6 9 8 6 9 7 10 86 11 8 13 10 14
REMARK SMILES IDX 5 15 4 16 1 17 2 18 3 19 93 20 92 21 87 22 91 23 88 24 90 25
REMARK SMILES IDX 89 26 17 27 18 28 19 29 20 30 21 31 22 33 23 34 24 35 85 36
REMARK SMILES IDX 25 37 84 38 26 39 27 40 28 41 78 42 29 43 83 44 77 45 79 46
REMARK SMILES IDX 30 47 82 48 76 49 75 50 31 52 63 53 43 54 62 55 44 56 47 57
REMARK SMILES IDX 61 58 80 59 45 60 46 61 60 63 81 64 48 65 32 66 33 67 41 68
REMARK SMILES IDX 34 69 35 70 39 71 42 72 36 73 37 74 40 75 38 76 64 77 65 78
REMARK SMILES IDX 73 79 66 80 67 81 71 82 74 83 68 84 69 85 72 86 70 87 49 88
REMARK SMILES IDX 50 89 58 90 51 91 52 92 56 93 59 94 53 95 54 96 57 97 55 98
REMARK H PARENT 13 7 6 12 20 32 79 51 47 62
REMARK Flexibility Score: inf
ROOT
ATOM      1  C   UNL A   1      32.139  29.579  27.176  1.00  0.00     0.002 C 
ENDROOT
BRANCH   1   2
ATOM      2  C   UNL A   1      33.647  29.376  27.347  1.00  0.00     0.021 C 
BRANCH   2   3
ATOM      3  C   UNL A   1      34.236  28.279  26.465  1.00  0.00     0.116 C 
BRANCH   3   4
ATOM      4  N   UNL A   1      34.010  28.513  25.048  1.00  0.00    -0.355 N 
ATOM      5  C   UNL A   1      33.625  27.669  24.040  1.00  0.00     0.231 C 
ATOM      6  O   UNL A   1      33.432  28.168  22.930  1.00  0.00    -0.274 OA
ATOM      7  H   UNL A   1      34.160  29.443  24.761  1.00  0.00     0.163 HD
BRANCH   5   8
ATOM      8  C   UNL A   1      33.424  26.174  24.300  1.00  0.00     0.100 C 
ATOM      9  N   UNL A   1      32.483  24.321  23.052  1.00  0.00    -0.330 N 
ATOM     10  C   UNL A   1      31.850  24.352  24.365  1.00  0.00     0.263 C 
ATOM     11  C   UNL A   1      33.435  25.420  22.967  1.00  0.00     0.279 C 
ATOM     12  H   UNL A   1      31.737  24.476  22.375  1.00  0.00     0.348 HD
ATOM     13  C   UNL A   1      32.014  25.812  24.800  1.00  0.00     0.084 C 
ATOM     14  C   UNL A   1      34.443  25.686  25.350  1.00  0.00     0.028 C 
BRANCH   9  15
ATOM     15  C   UNL A   1      32.893  23.036  22.485  1.00  0.00     0.299 C 
BRANCH  15  16
ATOM     16  C   UNL A   1      33.546  22.048  23.439  1.00  0.00     0.017 A 
ATOM     17  C   UNL A   1      32.526  18.897  25.284  1.00  0.00     0.067 C 
ATOM     18  C   UNL A   1      33.270  20.129  24.865  1.00  0.00     0.038 A 
ATOM     19  C   UNL A   1      32.771  20.965  23.879  1.00  0.00     0.033 A 
ATOM     20  N   UNL A   1      34.437  20.374  25.496  1.00  0.00    -0.253 NA
ATOM     21  C   UNL A   1      35.205  21.387  25.065  1.00  0.00     0.071 A 
ATOM     22  C   UNL A   1      34.858  22.196  23.964  1.00  0.00     0.009 A 
ATOM     23  C   UNL A   1      36.390  21.646  25.743  1.00  0.00     0.029 A 
ATOM     24  C   UNL A   1      35.837  23.097  23.473  1.00  0.00     0.011 A 
ATOM     25  C   UNL A   1      37.287  22.629  25.324  1.00  0.00     0.002 A 
ATOM     26  C   UNL A   1      37.029  23.329  24.157  1.00  0.00     0.001 A 
ENDBRANCH  15  16
ENDBRANCH   9  15
ENDBRANCH   5   8
ENDBRANCH   3   4
ENDBRANCH   2   3
ENDBRANCH   1   2
BRANCH   1  27
ATOM     27  C   UNL A   1      31.737  30.625  26.130  1.00  0.00     0.002 C 
BRANCH  27  28
ATOM     28  C   UNL A   1      31.456  32.026  26.678  1.00  0.00     0.021 C 
BRANCH  28  29
ATOM     29  C   UNL A   1      32.660  32.717  27.309  1.00  0.00     0.116 C 
BRANCH  29  30
ATOM     30  N   UNL A   1      32.394  34.111  27.625  1.00  0.00    -0.352 N 
ATOM     31  C   UNL A   1      32.983  34.920  28.569  1.00  0.00     0.251 C 
ATOM     32  H   UNL A   1      31.692  34.539  27.083  1.00  0.00     0.163 HD
ATOM     33  O   UNL A   1      32.520  36.020  28.826  1.00  0.00    -0.269 OA
BRANCH  31  34
ATOM     34  C   UNL A   1      34.179  34.434  29.291  1.00  0.00     0.039 A 
ATOM     35  C   UNL A   1      34.018  33.799  30.525  1.00  0.00     0.014 A 
ATOM     36  C   UNL A   1      35.452  34.600  28.741  1.00  0.00     0.014 A 
ATOM     37  C   UNL A   1      35.132  33.262  31.176  1.00  0.00     0.010 A 
ATOM     38  C   UNL A   1      36.548  34.008  29.357  1.00  0.00     0.010 A 
ATOM     39  C   UNL A   1      36.400  33.330  30.578  1.00  0.00    -0.014 A 
BRANCH  39  40
ATOM     40  C   UNL A   1      37.600  32.713  31.198  1.00  0.00     0.031 A 
ATOM     41  C   UNL A   1      38.277  31.559  30.509  1.00  0.00     0.074 A 
ATOM     42  C   UNL A   1      38.007  33.108  32.420  1.00  0.00     0.049 A 
ATOM     43  N   UNL A   1      39.203  30.753  30.960  1.00  0.00    -0.248 NA
ATOM     44  C   UNL A   1      37.827  31.253  29.141  1.00  0.00     0.031 C 
ATOM     45  C   UNL A   1      37.422  34.202  33.197  1.00  0.00     0.029 A 
ATOM     46  N   UNL A   1      38.992  32.611  33.239  1.00  0.00    -0.354 N 
ATOM     47  C   UNL A   1      39.418  29.826  29.949  1.00  0.00     0.074 A 
ATOM     48  C   UNL A   1      38.510  30.150  28.872  1.00  0.00     0.031 C 
ATOM     49  C   UNL A   1      38.057  34.294  34.377  1.00  0.00     0.029 A 
ATOM     50  C   UNL A   1      39.057  33.234  34.463  1.00  0.00     0.049 A 
ATOM     51  H   UNL A   1      39.595  31.879  32.975  1.00  0.00     0.167 HD
ATOM     52  C   UNL A   1      40.304  28.802  29.922  1.00  0.00     0.037 A 
ATOM     53  C   UNL A   1      39.817  32.960  35.543  1.00  0.00     0.037 A 
ATOM     54  C   UNL A   1      41.238  28.517  30.978  1.00  0.00     0.049 A 
ATOM     55  C   UNL A   1      40.781  31.802  35.487  1.00  0.00     0.074 A 
ATOM     56  C   UNL A   1      42.229  27.551  31.010  1.00  0.00     0.029 A 
ATOM     57  N   UNL A   1      41.298  29.194  32.185  1.00  0.00    -0.354 N 
ATOM     58  N   UNL A   1      41.022  30.973  34.502  1.00  0.00    -0.248 NA
ATOM     59  C   UNL A   1      41.579  31.541  36.695  1.00  0.00     0.031 C 
ATOM     60  C   UNL A   1      42.852  27.608  32.258  1.00  0.00     0.029 A 
ATOM     61  C   UNL A   1      42.291  28.650  32.980  1.00  0.00     0.049 A 
ATOM     62  H   UNL A   1      40.720  29.950  32.439  1.00  0.00     0.167 HD
ATOM     63  C   UNL A   1      42.029  30.129  34.951  1.00  0.00     0.074 A 
ATOM     64  C   UNL A   1      42.355  30.542  36.298  1.00  0.00     0.031 C 
ATOM     65  C   UNL A   1      42.634  29.105  34.302  1.00  0.00     0.037 A 
BRANCH  52  66
ATOM     66  C   UNL A   1      40.314  27.904  28.721  1.00  0.00     0.064 A 
ATOM     67  C   UNL A   1      41.064  28.208  27.577  1.00  0.00     0.173 A 
ATOM     68  C   UNL A   1      39.631  26.678  28.753  1.00  0.00     0.173 A 
ATOM     69  F   UNL A   1      41.727  29.371  27.494  1.00  0.00    -0.203 F 
ATOM     70  C   UNL A   1      41.120  27.324  26.503  1.00  0.00     0.198 A 
ATOM     71  C   UNL A   1      39.713  25.784  27.690  1.00  0.00     0.198 A 
ATOM     72  F   UNL A   1      38.903  26.337  29.828  1.00  0.00    -0.203 F 
ATOM     73  F   UNL A   1      41.819  27.649  25.406  1.00  0.00    -0.200 F 
ATOM     74  C   UNL A   1      40.456  26.109  26.565  1.00  0.00     0.200 A 
ATOM     75  F   UNL A   1      39.083  24.603  27.758  1.00  0.00    -0.200 F 
ATOM     76  F   UNL A   1      40.529  25.249  25.539  1.00  0.00    -0.200 F 
ENDBRANCH  52  66
BRANCH  53  77
ATOM     77  C   UNL A   1      39.701  33.782  36.778  1.00  0.00     0.064 A 
ATOM     78  C   UNL A   1      38.854  33.389  37.825  1.00  0.00     0.173 A 
ATOM     79  C   UNL A   1      40.389  34.996  36.920  1.00  0.00     0.173 A 
ATOM     80  F   UNL A   1      38.157  32.248  37.729  1.00  0.00    -0.203 F 
ATOM     81  C   UNL A   1      38.672  34.195  38.947  1.00  0.00     0.198 A 
ATOM     82  C   UNL A   1      40.232  35.785  38.058  1.00  0.00     0.198 A 
ATOM     83  F   UNL A   1      41.216  35.417  35.952  1.00  0.00    -0.203 F 
ATOM     84  F   UNL A   1      37.805  33.826  39.900  1.00  0.00    -0.200 F 
ATOM     85  C   UNL A   1      39.362  35.391  39.064  1.00  0.00     0.200 A 
ATOM     86  F   UNL A   1      40.914  36.932  38.174  1.00  0.00    -0.200 F 
ATOM     87  F   UNL A   1      39.180  36.170  40.139  1.00  0.00    -0.200 F 
ENDBRANCH  53  77
BRANCH  65  88
ATOM     88  C   UNL A   1      43.766  28.405  34.993  1.00  0.00     0.064 A 
ATOM     89  C   UNL A   1      43.564  27.253  35.765  1.00  0.00     0.173 A 
ATOM     90  C   UNL A   1      45.084  28.848  34.801  1.00  0.00     0.173 A 
ATOM     91  F   UNL A   1      42.321  26.799  35.989  1.00  0.00    -0.203 F 
ATOM     92  C   UNL A   1      44.642  26.572  36.325  1.00  0.00     0.198 A 
ATOM     93  C   UNL A   1      46.161  28.147  35.337  1.00  0.00     0.198 A 
ATOM     94  F   UNL A   1      45.330  29.941  34.063  1.00  0.00    -0.203 F 
ATOM     95  F   UNL A   1      44.425  25.488  37.083  1.00  0.00    -0.200 F 
ATOM     96  C   UNL A   1      45.938  27.012  36.100  1.00  0.00     0.200 A 
ATOM     97  F   UNL A   1      47.413  28.564  35.104  1.00  0.00    -0.200 F 
ATOM     98  F   UNL A   1      46.975  26.340  36.620  1.00  0.00    -0.200 F 
ENDBRANCH  65  88
ENDBRANCH  39  40
ENDBRANCH  31  34
ENDBRANCH  29  30
ENDBRANCH  28  29
ENDBRANCH  27  28
ENDBRANCH   1  27
TORSDOF 15
ENDMDL
MODEL 2
REMARK VINA RESULT:     -12.9      6.099     10.872
REMARK SMILES Cc1cc(C[N@H+]2CC[C@](C)(C(=O)NCCCCCCNC(=O)c3ccc(-c4c5nc(c(-c6c(F)c(F)c(F)c(F)c6F)c6ccc([nH]6)c(-c6c(F)c(F)c(F)c(F)c6F)c6nc(c(-c7c(F)c(F)c(F)c(F)c7F)c7ccc4[nH]7)C=C6)C=C5)cc3)C2)c2ccccc2n1
REMARK SMILES IDX 16 1 15 2 14 3 13 4 11 5 12 6 9 8 6 9 7 10 86 11 8 13 10 14
REMARK SMILES IDX 5 15 4 16 1 17 2 18 3 19 93 20 92 21 87 22 91 23 88 24 90 25
REMARK SMILES IDX 89 26 17 27 18 28 19 29 20 30 21 31 22 33 23 34 24 35 85 36
REMARK SMILES IDX 25 37 84 38 26 39 27 40 28 41 78 42 29 43 83 44 77 45 79 46
REMARK SMILES IDX 30 47 82 48 76 49 75 50 31 52 63 53 43 54 62 55 44 56 47 57
REMARK SMILES IDX 61 58 80 59 45 60 46 61 60 63 81 64 48 65 32 66 33 67 41 68
REMARK SMILES IDX 34 69 35 70 39 71 42 72 36 73 37 74 40 75 38 76 64 77 65 78
REMARK SMILES IDX 73 79 66 80 67 81 71 82 74 83 68 84 69 85 72 86 70 87 49 88
REMARK SMILES IDX 50 89 58 90 51 91 52 92 56 93 59 94 53 95 54 96 57 97 55 98
REMARK H PARENT 13 7 6 12 20 32 79 51 47 62
REMARK Flexibility Score: inf
ROOT
ATOM      1  C   UNL A   1      39.611  21.653  26.144  1.00  0.00     0.002 C 
ENDROOT
BRANCH   1   2
ATOM      2  C   UNL A   1      39.329  23.113  26.508  1.00  0.00     0.021 C 
BRANCH   2   3
ATOM      3  C   UNL A   1      37.926  23.591  26.144  1.00  0.00     0.116 C 
BRANCH   3   4
ATOM      4  N   UNL A   1      36.906  22.584  26.391  1.00  0.00    -0.355 N 
ATOM      5  C   UNL A   1      35.754  22.277  25.717  1.00  0.00     0.231 C 
ATOM      6  O   UNL A   1      35.110  21.305  26.115  1.00  0.00    -0.274 OA
ATOM      7  H   UNL A   1      37.072  22.025  27.184  1.00  0.00     0.163 HD
BRANCH   5   8
ATOM      8  C   UNL A   1      35.309  23.100  24.505  1.00  0.00     0.100 C 
ATOM      9  N   UNL A   1      33.882  25.029  24.165  1.00  0.00    -0.330 N 
ATOM     10  C   UNL A   1      33.440  23.974  23.261  1.00  0.00     0.263 C 
ATOM     11  C   UNL A   1      35.006  24.535  24.948  1.00  0.00     0.279 C 
ATOM     12  H   UNL A   1      33.098  25.213  24.790  1.00  0.00     0.348 HD
ATOM     13  C   UNL A   1      33.932  22.696  23.947  1.00  0.00     0.084 C 
ATOM     14  C   UNL A   1      36.343  22.958  23.370  1.00  0.00     0.028 C 
BRANCH   9  15
ATOM     15  C   UNL A   1      33.965  26.405  23.672  1.00  0.00     0.299 C 
BRANCH  15  16
ATOM     16  C   UNL A   1      32.889  27.366  24.152  1.00  0.00     0.017 A 
ATOM     17  C   UNL A   1      29.476  28.512  22.964  1.00  0.00     0.067 C 
ATOM     18  C   UNL A   1      30.785  28.440  23.690  1.00  0.00     0.038 A 
ATOM     19  C   UNL A   1      31.722  27.468  23.380  1.00  0.00     0.033 A 
ATOM     20  N   UNL A   1      30.995  29.365  24.650  1.00  0.00    -0.253 NA
ATOM     21  C   UNL A   1      32.090  29.260  25.419  1.00  0.00     0.071 A 
ATOM     22  C   UNL A   1      33.024  28.212  25.285  1.00  0.00     0.009 A 
ATOM     23  C   UNL A   1      32.309  30.236  26.384  1.00  0.00     0.029 A 
ATOM     24  C   UNL A   1      34.025  28.088  26.281  1.00  0.00     0.011 A 
ATOM     25  C   UNL A   1      33.379  30.171  27.278  1.00  0.00     0.002 A 
ATOM     26  C   UNL A   1      34.217  29.069  27.254  1.00  0.00     0.001 A 
ENDBRANCH  15  16
ENDBRANCH   9  15
ENDBRANCH   5   8
ENDBRANCH   3   4
ENDBRANCH   2   3
ENDBRANCH   1   2
BRANCH   1  27
ATOM     27  C   UNL A   1      41.045  21.179  26.410  1.00  0.00     0.002 C 
BRANCH  27  28
ATOM     28  C   UNL A   1      41.325  19.713  26.072  1.00  0.00     0.021 C 
BRANCH  28  29
ATOM     29  C   UNL A   1      42.658  19.183  26.588  1.00  0.00     0.116 C 
BRANCH  29  30
ATOM     30  N   UNL A   1      43.504  18.680  25.518  1.00  0.00    -0.352 N 
ATOM     31  C   UNL A   1      44.335  19.369  24.666  1.00  0.00     0.251 C 
ATOM     32  H   UNL A   1      43.479  17.705  25.385  1.00  0.00     0.163 HD
ATOM     33  O   UNL A   1      44.843  18.814  23.704  1.00  0.00    -0.269 OA
BRANCH  31  34
ATOM     34  C   UNL A   1      44.595  20.803  24.915  1.00  0.00     0.039 A 
ATOM     35  C   UNL A   1      44.144  21.747  23.988  1.00  0.00     0.014 A 
ATOM     36  C   UNL A   1      45.275  21.209  26.065  1.00  0.00     0.014 A 
ATOM     37  C   UNL A   1      44.310  23.109  24.254  1.00  0.00     0.010 A 
ATOM     38  C   UNL A   1      45.380  22.564  26.358  1.00  0.00     0.010 A 
ATOM     39  C   UNL A   1      44.896  23.528  25.459  1.00  0.00    -0.014 A 
BRANCH  39  40
ATOM     40  C   UNL A   1      45.030  24.963  25.816  1.00  0.00     0.031 A 
ATOM     41  C   UNL A   1      46.383  25.618  25.746  1.00  0.00     0.074 A 
ATOM     42  C   UNL A   1      43.973  25.638  26.309  1.00  0.00     0.049 A 
ATOM     43  N   UNL A   1      46.762  26.786  26.196  1.00  0.00    -0.248 NA
ATOM     44  C   UNL A   1      47.460  24.840  25.113  1.00  0.00     0.031 C 
ATOM     45  C   UNL A   1      42.615  25.107  26.442  1.00  0.00     0.029 A 
ATOM     46  N   UNL A   1      43.882  26.910  26.819  1.00  0.00    -0.354 N 
ATOM     47  C   UNL A   1      48.123  26.866  25.935  1.00  0.00     0.074 A 
ATOM     48  C   UNL A   1      48.512  25.621  25.313  1.00  0.00     0.031 C 
ATOM     49  C   UNL A   1      41.828  26.044  26.996  1.00  0.00     0.029 A 
ATOM     50  C   UNL A   1      42.635  27.221  27.306  1.00  0.00     0.049 A 
ATOM     51  H   UNL A   1      44.638  27.540  26.833  1.00  0.00     0.167 HD
ATOM     52  C   UNL A   1      48.968  27.894  26.186  1.00  0.00     0.037 A 
ATOM     53  C   UNL A   1      42.200  28.319  27.958  1.00  0.00     0.037 A 
ATOM     54  C   UNL A   1      48.563  29.149  26.761  1.00  0.00     0.049 A 
ATOM     55  C   UNL A   1      43.171  29.439  28.236  1.00  0.00     0.074 A 
ATOM     56  C   UNL A   1      49.329  30.280  26.980  1.00  0.00     0.029 A 
ATOM     57  N   UNL A   1      47.283  29.437  27.206  1.00  0.00    -0.354 N 
ATOM     58  N   UNL A   1      44.441  29.529  27.926  1.00  0.00    -0.248 NA
ATOM     59  C   UNL A   1      42.648  30.609  28.956  1.00  0.00     0.031 C 
ATOM     60  C   UNL A   1      48.527  31.234  27.608  1.00  0.00     0.029 A 
ATOM     61  C   UNL A   1      47.245  30.720  27.724  1.00  0.00     0.049 A 
ATOM     62  H   UNL A   1      46.516  28.822  27.161  1.00  0.00     0.167 HD
ATOM     63  C   UNL A   1      44.852  30.781  28.367  1.00  0.00     0.074 A 
ATOM     64  C   UNL A   1      43.701  31.415  28.969  1.00  0.00     0.031 C 
ATOM     65  C   UNL A   1      46.076  31.354  28.276  1.00  0.00     0.037 A 
BRANCH  52  66
ATOM     66  C   UNL A   1      50.418  27.718  25.848  1.00  0.00     0.064 A 
ATOM     67  C   UNL A   1      51.359  27.324  26.810  1.00  0.00     0.173 A 
ATOM     68  C   UNL A   1      50.856  27.864  24.522  1.00  0.00     0.173 A 
ATOM     69  F   UNL A   1      50.993  27.180  28.092  1.00  0.00    -0.203 F 
ATOM     70  C   UNL A   1      52.686  27.093  26.459  1.00  0.00     0.198 A 
ATOM     71  C   UNL A   1      52.177  27.603  24.170  1.00  0.00     0.198 A 
ATOM     72  F   UNL A   1      49.994  28.235  23.562  1.00  0.00    -0.203 F 
ATOM     73  F   UNL A   1      53.575  26.746  27.401  1.00  0.00    -0.200 F 
ATOM     74  C   UNL A   1      53.091  27.221  25.139  1.00  0.00     0.200 A 
ATOM     75  F   UNL A   1      52.563  27.713  22.891  1.00  0.00    -0.200 F 
ATOM     76  F   UNL A   1      54.365  26.977  24.800  1.00  0.00    -0.200 F 
ENDBRANCH  52  66
BRANCH  53  77
ATOM     77  C   UNL A   1      40.785  28.423  28.403  1.00  0.00     0.064 A 
ATOM     78  C   UNL A   1      39.803  28.960  27.557  1.00  0.00     0.173 A 
ATOM     79  C   UNL A   1      40.390  28.038  29.693  1.00  0.00     0.173 A 
ATOM     80  F   UNL A   1      40.134  29.363  26.321  1.00  0.00    -0.203 F 
ATOM     81  C   UNL A   1      38.493  29.142  27.995  1.00  0.00     0.198 A 
ATOM     82  C   UNL A   1      39.072  28.190  30.119  1.00  0.00     0.198 A 
ATOM     83  F   UNL A   1      41.285  27.514  30.542  1.00  0.00    -0.203 F 
ATOM     84  F   UNL A   1      37.594  29.720  27.187  1.00  0.00    -0.200 F 
ATOM     85  C   UNL A   1      38.127  28.755  29.275  1.00  0.00     0.200 A 
ATOM     86  F   UNL A   1      38.719  27.799  31.351  1.00  0.00    -0.200 F 
ATOM     87  F   UNL A   1      36.870  28.939  29.699  1.00  0.00    -0.200 F 
ENDBRANCH  53  77
BRANCH  65  88
ATOM     88  C   UNL A   1      46.228  32.766  28.759  1.00  0.00     0.064 A 
ATOM     89  C   UNL A   1      46.665  33.062  30.058  1.00  0.00     0.173 A 
ATOM     90  C   UNL A   1      46.021  33.835  27.873  1.00  0.00     0.173 A 
ATOM     91  F   UNL A   1      46.864  32.075  30.945  1.00  0.00    -0.203 F 
ATOM     92  C   UNL A   1      46.882  34.379  30.454  1.00  0.00     0.198 A 
ATOM     93  C   UNL A   1      46.268  35.147  28.265  1.00  0.00     0.198 A 
ATOM     94  F   UNL A   1      45.611  33.602  26.618  1.00  0.00    -0.203 F 
ATOM     95  F   UNL A   1      47.272  34.642  31.710  1.00  0.00    -0.200 F 
ATOM     96  C   UNL A   1      46.695  35.418  29.555  1.00  0.00     0.200 A 
ATOM     97  F   UNL A   1      46.103  36.148  27.388  1.00  0.00    -0.200 F 
ATOM     98  F   UNL A   1      46.928  36.683  29.933  1.00  0.00    -0.200 F 
ENDBRANCH  65  88
ENDBRANCH  39  40
ENDBRANCH  31  34
ENDBRANCH  29  30
ENDBRANCH  28  29
ENDBRANCH  27  28
ENDBRANCH   1  27
TORSDOF 15
ENDMDL
MODEL 3
REMARK VINA RESULT:     -12.8      1.552      7.347
REMARK SMILES Cc1cc(C[N@H+]2CC[C@](C)(C(=O)NCCCCCCNC(=O)c3ccc(-c4c5nc(c(-c6c(F)c(F)c(F)c(F)c6F)c6ccc([nH]6)c(-c6c(F)c(F)c(F)c(F)c6F)c6nc(c(-c7c(F)c(F)c(F)c(F)c7F)c7ccc4[nH]7)C=C6)C=C5)cc3)C2)c2ccccc2n1
REMARK SMILES IDX 16 1 15 2 14 3 13 4 11 5 12 6 9 8 6 9 7 10 86 11 8 13 10 14
REMARK SMILES IDX 5 15 4 16 1 17 2 18 3 19 93 20 92 21 87 22 91 23 88 24 90 25
REMARK SMILES IDX 89 26 17 27 18 28 19 29 20 30 21 31 22 33 23 34 24 35 85 36
REMARK SMILES IDX 25 37 84 38 26 39 27 40 28 41 78 42 29 43 83 44 77 45 79 46
REMARK SMILES IDX 30 47 82 48 76 49 75 50 31 52 63 53 43 54 62 55 44 56 47 57
REMARK SMILES IDX 61 58 80 59 45 60 46 61 60 63 81 64 48 65 32 66 33 67 41 68
REMARK SMILES IDX 34 69 35 70 39 71 42 72 36 73 37 74 40 75 38 76 64 77 65 78
REMARK SMILES IDX 73 79 66 80 67 81 71 82 74 83 68 84 69 85 72 86 70 87 49 88
REMARK SMILES IDX 50 89 58 90 51 91 52 92 56 93 59 94 53 95 54 96 57 97 55 98
REMARK H PARENT 13 7 6 12 20 32 79 51 47 62
REMARK Flexibility Score: inf
ROOT
ATOM      1  C   UNL A   1      34.950  32.348  28.024  1.00  0.00     0.002 C 
ENDROOT
BRANCH   1   2
ATOM      2  C   UNL A   1      33.666  31.541  27.816  1.00  0.00     0.021 C 
BRANCH   2   3
ATOM      3  C   UNL A   1      33.885  30.160  27.203  1.00  0.00     0.116 C 
BRANCH   3   4
ATOM      4  N   UNL A   1      33.388  30.064  25.839  1.00  0.00    -0.355 N 
ATOM      5  C   UNL A   1      32.636  29.104  25.215  1.00  0.00     0.231 C 
ATOM      6  O   UNL A   1      32.289  29.328  24.054  1.00  0.00    -0.274 OA
ATOM      7  H   UNL A   1      33.637  30.822  25.263  1.00  0.00     0.163 HD
BRANCH   5   8
ATOM      8  C   UNL A   1      32.230  27.823  25.948  1.00  0.00     0.100 C 
ATOM      9  N   UNL A   1      32.801  25.476  25.757  1.00  0.00    -0.330 N 
ATOM     10  C   UNL A   1      31.348  25.592  25.732  1.00  0.00     0.263 C 
ATOM     11  C   UNL A   1      33.375  26.809  25.873  1.00  0.00     0.279 C 
ATOM     12  H   UNL A   1      33.068  25.077  24.858  1.00  0.00     0.348 HD
ATOM     13  C   UNL A   1      31.119  27.025  25.242  1.00  0.00     0.084 C 
ATOM     14  C   UNL A   1      31.739  28.169  27.368  1.00  0.00     0.028 C 
BRANCH   9  15
ATOM     15  C   UNL A   1      33.420  24.410  26.547  1.00  0.00     0.299 C 
BRANCH  15  16
ATOM     16  C   UNL A   1      33.966  23.220  25.775  1.00  0.00     0.017 A 
ATOM     17  C   UNL A   1      32.545  20.179  24.014  1.00  0.00     0.067 C 
ATOM     18  C   UNL A   1      33.491  21.129  24.681  1.00  0.00     0.038 A 
ATOM     19  C   UNL A   1      33.038  22.305  25.255  1.00  0.00     0.033 A 
ATOM     20  N   UNL A   1      34.794  20.776  24.692  1.00  0.00    -0.253 NA
ATOM     21  C   UNL A   1      35.697  21.654  25.155  1.00  0.00     0.071 A 
ATOM     22  C   UNL A   1      35.349  22.942  25.613  1.00  0.00     0.009 A 
ATOM     23  C   UNL A   1      37.031  21.266  25.188  1.00  0.00     0.029 A 
ATOM     24  C   UNL A   1      36.402  23.852  25.884  1.00  0.00     0.011 A 
ATOM     25  C   UNL A   1      38.048  22.135  25.583  1.00  0.00     0.002 A 
ATOM     26  C   UNL A   1      37.737  23.449  25.892  1.00  0.00     0.001 A 
ENDBRANCH  15  16
ENDBRANCH   9  15
ENDBRANCH   5   8
ENDBRANCH   3   4
ENDBRANCH   2   3
ENDBRANCH   1   2
BRANCH   1  27
ATOM     27  C   UNL A   1      34.824  33.537  28.984  1.00  0.00     0.002 C 
BRANCH  27  28
ATOM     28  C   UNL A   1      33.471  34.252  28.968  1.00  0.00     0.021 C 
BRANCH  28  29
ATOM     29  C   UNL A   1      33.545  35.761  29.176  1.00  0.00     0.116 C 
BRANCH  29  30
ATOM     30  N   UNL A   1      32.657  36.216  30.234  1.00  0.00    -0.352 N 
ATOM     31  C   UNL A   1      32.645  35.880  31.568  1.00  0.00     0.251 C 
ATOM     32  H   UNL A   1      31.965  36.859  29.955  1.00  0.00     0.163 HD
ATOM     33  O   UNL A   1      31.719  36.218  32.289  1.00  0.00    -0.269 OA
BRANCH  31  34
ATOM     34  C   UNL A   1      33.761  35.084  32.122  1.00  0.00     0.039 A 
ATOM     35  C   UNL A   1      33.503  33.804  32.620  1.00  0.00     0.014 A 
ATOM     36  C   UNL A   1      35.058  35.602  32.139  1.00  0.00     0.014 A 
ATOM     37  C   UNL A   1      34.563  33.011  33.068  1.00  0.00     0.010 A 
ATOM     38  C   UNL A   1      36.117  34.788  32.523  1.00  0.00     0.010 A 
ATOM     39  C   UNL A   1      35.882  33.484  32.988  1.00  0.00    -0.014 A 
BRANCH  39  40
ATOM     40  C   UNL A   1      37.045  32.651  33.387  1.00  0.00     0.031 A 
ATOM     41  C   UNL A   1      37.773  32.963  34.666  1.00  0.00     0.074 A 
ATOM     42  C   UNL A   1      37.514  31.702  32.553  1.00  0.00     0.049 A 
ATOM     43  N   UNL A   1      38.917  32.502  35.102  1.00  0.00    -0.248 NA
ATOM     44  C   UNL A   1      37.143  33.951  35.558  1.00  0.00     0.031 C 
ATOM     45  C   UNL A   1      36.906  31.319  31.276  1.00  0.00     0.029 A 
ATOM     46  N   UNL A   1      38.630  30.906  32.640  1.00  0.00    -0.354 N 
ATOM     47  C   UNL A   1      39.159  33.169  36.295  1.00  0.00     0.074 A 
ATOM     48  C   UNL A   1      38.061  34.085  36.504  1.00  0.00     0.031 C 
ATOM     49  C   UNL A   1      37.655  30.363  30.702  1.00  0.00     0.029 A 
ATOM     50  C   UNL A   1      38.822  30.104  31.540  1.00  0.00     0.049 A 
ATOM     51  H   UNL A   1      39.234  30.908  33.417  1.00  0.00     0.167 HD
ATOM     52  C   UNL A   1      40.204  33.019  37.144  1.00  0.00     0.037 A 
ATOM     53  C   UNL A   1      39.841  29.277  31.230  1.00  0.00     0.037 A 
ATOM     54  C   UNL A   1      41.268  32.070  36.954  1.00  0.00     0.049 A 
ATOM     55  C   UNL A   1      40.997  29.145  32.189  1.00  0.00     0.074 A 
ATOM     56  C   UNL A   1      42.328  31.787  37.798  1.00  0.00     0.029 A 
ATOM     57  N   UNL A   1      41.406  31.250  35.845  1.00  0.00    -0.354 N 
ATOM     58  N   UNL A   1      41.184  29.733  33.345  1.00  0.00    -0.248 NA
ATOM     59  C   UNL A   1      42.086  28.236  31.798  1.00  0.00     0.031 C 
ATOM     60  C   UNL A   1      43.138  30.836  37.175  1.00  0.00     0.029 A 
ATOM     61  C   UNL A   1      42.550  30.480  35.972  1.00  0.00     0.049 A 
ATOM     62  H   UNL A   1      40.785  31.219  35.083  1.00  0.00     0.167 HD
ATOM     63  C   UNL A   1      42.380  29.228  33.840  1.00  0.00     0.074 A 
ATOM     64  C   UNL A   1      42.879  28.289  32.859  1.00  0.00     0.031 C 
ATOM     65  C   UNL A   1      43.006  29.515  35.006  1.00  0.00     0.037 A 
BRANCH  52  66
ATOM     66  C   UNL A   1      40.263  33.897  38.359  1.00  0.00     0.064 A 
ATOM     67  C   UNL A   1      40.931  35.129  38.349  1.00  0.00     0.173 A 
ATOM     68  C   UNL A   1      39.565  33.536  39.523  1.00  0.00     0.173 A 
ATOM     69  F   UNL A   1      41.619  35.515  37.264  1.00  0.00    -0.203 F 
ATOM     70  C   UNL A   1      40.909  35.964  39.463  1.00  0.00     0.198 A 
ATOM     71  C   UNL A   1      39.522  34.386  40.624  1.00  0.00     0.198 A 
ATOM     72  F   UNL A   1      38.906  32.369  39.582  1.00  0.00    -0.203 F 
ATOM     73  F   UNL A   1      41.580  37.124  39.442  1.00  0.00    -0.200 F 
ATOM     74  C   UNL A   1      40.196  35.597  40.594  1.00  0.00     0.200 A 
ATOM     75  F   UNL A   1      38.819  34.037  41.711  1.00  0.00    -0.200 F 
ATOM     76  F   UNL A   1      40.158  36.412  41.658  1.00  0.00    -0.200 F 
ENDBRANCH  52  66
BRANCH  53  77
ATOM     77  C   UNL A   1      39.830  28.509  29.955  1.00  0.00     0.064 A 
ATOM     78  C   UNL A   1      39.288  27.216  29.901  1.00  0.00     0.173 A 
ATOM     79  C   UNL A   1      40.402  29.023  28.782  1.00  0.00     0.173 A 
ATOM     80  F   UNL A   1      38.748  26.671  31.000  1.00  0.00    -0.203 F 
ATOM     81  C   UNL A   1      39.351  26.456  28.735  1.00  0.00     0.198 A 
ATOM     82  C   UNL A   1      40.435  28.274  27.608  1.00  0.00     0.198 A 
ATOM     83  F   UNL A   1      40.931  30.256  28.776  1.00  0.00    -0.203 F 
ATOM     84  F   UNL A   1      38.885  25.199  28.732  1.00  0.00    -0.200 F 
ATOM     85  C   UNL A   1      39.923  26.985  27.589  1.00  0.00     0.200 A 
ATOM     86  F   UNL A   1      40.974  28.796  26.498  1.00  0.00    -0.200 F 
ATOM     87  F   UNL A   1      39.992  26.250  26.470  1.00  0.00    -0.200 F 
ENDBRANCH  53  77
BRANCH  65  88
ATOM     88  C   UNL A   1      44.255  28.753  35.339  1.00  0.00     0.064 A 
ATOM     89  C   UNL A   1      44.217  27.525  36.013  1.00  0.00     0.173 A 
ATOM     90  C   UNL A   1      45.500  29.222  34.892  1.00  0.00     0.173 A 
ATOM     91  F   UNL A   1      43.052  27.043  36.473  1.00  0.00    -0.203 F 
ATOM     92  C   UNL A   1      45.382  26.796  36.233  1.00  0.00     0.198 A 
ATOM     93  C   UNL A   1      46.658  28.476  35.087  1.00  0.00     0.198 A 
ATOM     94  F   UNL A   1      45.587  30.388  34.235  1.00  0.00    -0.203 F 
ATOM     95  F   UNL A   1      45.328  25.637  36.905  1.00  0.00    -0.200 F 
ATOM     96  C   UNL A   1      46.599  27.265  35.759  1.00  0.00     0.200 A 
ATOM     97  F   UNL A   1      47.830  28.923  34.613  1.00  0.00    -0.200 F 
ATOM     98  F   UNL A   1      47.716  26.549  35.952  1.00  0.00    -0.200 F 
ENDBRANCH  65  88
ENDBRANCH  39  40
ENDBRANCH  31  34
ENDBRANCH  29  30
ENDBRANCH  28  29
ENDBRANCH  27  28
ENDBRANCH   1  27
TORSDOF 15
ENDMDL
