MODEL 1
REMARK VINA RESULT:     -10.9      0.000      0.000
REMARK SMILES CCCCCCNC(=O)Oc1cccc(-c2ccc([C@@H](C)C(=O)NCCCCCCNC(=O)c3ccc(-c4c5nc(c(-c6c(F)c(F)c(F)c(F)c6F)c6ccc([nH]6)c(-c6c(F)c(F)c(F)c(F)c6F)c6nc(c(-c7c(F)c(F)c(F)c(F)c7F)c7ccc4[nH]7)C=C6)C=C5)cc3)cc2Cl)c1
REMARK SMILES IDX 22 1 23 2 24 3 20 5 21 6 19 7 16 8 17 9 98 10 18 11 97 12
REMARK SMILES IDX 99 13 15 14 11 15 12 16 100 17 13 18 14 19 10 20 8 21 7 22
REMARK SMILES IDX 9 24 6 25 5 26 4 27 3 28 2 29 1 30 25 31 26 32 27 33 28 34
REMARK SMILES IDX 29 35 30 36 31 37 32 38 33 40 34 41 35 42 96 43 36 44 95 45
REMARK SMILES IDX 37 46 38 47 39 48 89 49 40 50 94 51 88 52 90 53 41 54 93 55
REMARK SMILES IDX 87 56 86 57 42 59 74 60 54 61 73 62 55 63 58 64 72 65 91 66
REMARK SMILES IDX 56 67 57 68 71 70 92 71 59 72 43 73 44 74 52 75 45 76 46 77
REMARK SMILES IDX 50 78 53 79 47 80 48 81 51 82 49 83 75 84 76 85 84 86 77 87
REMARK SMILES IDX 78 88 82 89 85 90 79 91 80 92 83 93 81 94 60 95 61 96 69 97
REMARK SMILES IDX 62 98 63 99 67 100 70 101 64 102 65 103 68 104 66 105
REMARK H PARENT 24 4 7 23 31 39 90 58 58 69
REMARK Flexibility Score: inf
ROOT
ATOM      1  C   UNL A   1      31.691  26.161  26.097  1.00  0.00     0.227 C 
ATOM      2  O   UNL A   1      30.625  25.805  26.615  1.00  0.00    -0.274 OA
ATOM      3  N   UNL A   1      32.396  27.114  26.762  1.00  0.00    -0.356 N 
ATOM      4  H   UNL A   1      32.014  27.358  27.636  1.00  0.00     0.163 HD
ENDROOT
BRANCH   1   5
ATOM      5  C   UNL A   1      32.153  25.512  24.782  1.00  0.00     0.105 C 
ATOM      6  C   UNL A   1      31.018  24.952  23.925  1.00  0.00     0.023 C 
BRANCH   5   7
ATOM      7  C   UNL A   1      33.369  24.609  24.929  1.00  0.00    -0.034 A 
ATOM      8  C   UNL A   1      35.587  22.806  25.217  1.00  0.00     0.000 A 
ATOM      9  C   UNL A   1      35.535  23.779  24.201  1.00  0.00     0.010 A 
ATOM     10  C   UNL A   1      34.503  22.787  26.118  1.00  0.00     0.049 A 
ATOM     11  C   UNL A   1      34.476  24.686  24.086  1.00  0.00     0.005 A 
ATOM     12  C   UNL A   1      33.403  23.649  25.951  1.00  0.00     0.025 A 
ATOM     13  Cl  UNL A   1      34.466  21.781  27.530  1.00  0.00    -0.084 Cl
BRANCH   8  14
ATOM     14  C   UNL A   1      36.765  21.902  25.268  1.00  0.00    -0.013 A 
ATOM     15  C   UNL A   1      39.110  21.454  25.733  1.00  0.00     0.133 A 
ATOM     16  C   UNL A   1      38.964  20.115  25.383  1.00  0.00     0.047 A 
ATOM     17  C   UNL A   1      38.028  22.338  25.697  1.00  0.00     0.056 A 
ATOM     18  C   UNL A   1      37.716  19.653  24.987  1.00  0.00     0.004 A 
ATOM     19  C   UNL A   1      36.639  20.541  24.914  1.00  0.00     0.009 A 
BRANCH  15  20
ATOM     20  O   UNL A   1      40.424  21.898  25.960  1.00  0.00    -0.410 OA
BRANCH  20  21
ATOM     21  C   UNL A   1      41.101  21.505  27.102  1.00  0.00     0.412 C 
ATOM     22  N   UNL A   1      42.458  21.469  26.923  1.00  0.00    -0.321 N 
ATOM     23  H   UNL A   1      42.999  21.163  27.686  1.00  0.00     0.167 HD
ATOM     24  O   UNL A   1      40.592  21.198  28.171  1.00  0.00    -0.224 OA
BRANCH  22  25
ATOM     25  C   UNL A   1      43.180  21.839  25.720  1.00  0.00     0.119 C 
BRANCH  25  26
ATOM     26  C   UNL A   1      44.441  22.644  26.032  1.00  0.00     0.021 C 
BRANCH  26  27
ATOM     27  C   UNL A   1      44.202  24.133  26.308  1.00  0.00     0.002 C 
BRANCH  27  28
ATOM     28  C   UNL A   1      44.941  24.705  27.524  1.00  0.00    -0.000 C 
BRANCH  28  29
ATOM     29  C   UNL A   1      44.046  25.270  28.630  1.00  0.00    -0.003 C 
ATOM     30  C   UNL A   1      43.004  24.279  29.125  1.00  0.00     0.004 C 
ENDBRANCH  28  29
ENDBRANCH  27  28
ENDBRANCH  26  27
ENDBRANCH  25  26
ENDBRANCH  22  25
ENDBRANCH  20  21
ENDBRANCH  15  20
ENDBRANCH   8  14
ENDBRANCH   5   7
ENDBRANCH   1   5
BRANCH   3  31
ATOM     31  C   UNL A   1      33.604  27.836  26.425  1.00  0.00     0.116 C 
BRANCH  31  32
ATOM     32  C   UNL A   1      33.296  29.259  25.953  1.00  0.00     0.021 C 
BRANCH  32  33
ATOM     33  C   UNL A   1      32.190  29.952  26.755  1.00  0.00     0.002 C 
BRANCH  33  34
ATOM     34  C   UNL A   1      31.302  30.907  25.947  1.00  0.00     0.002 C 
BRANCH  34  35
ATOM     35  C   UNL A   1      31.291  32.362  26.425  1.00  0.00     0.021 C 
BRANCH  35  36
ATOM     36  C   UNL A   1      32.550  32.799  27.170  1.00  0.00     0.116 C 
BRANCH  36  37
ATOM     37  N   UNL A   1      32.466  34.184  27.606  1.00  0.00    -0.352 N 
ATOM     38  C   UNL A   1      33.139  34.828  28.614  1.00  0.00     0.251 C 
ATOM     39  H   UNL A   1      31.833  34.744  27.102  1.00  0.00     0.163 HD
ATOM     40  O   UNL A   1      32.775  35.939  28.988  1.00  0.00    -0.269 OA
BRANCH  38  41
ATOM     41  C   UNL A   1      34.301  34.184  29.263  1.00  0.00     0.039 A 
ATOM     42  C   UNL A   1      35.589  34.548  28.860  1.00  0.00     0.014 A 
ATOM     43  C   UNL A   1      34.123  33.194  30.233  1.00  0.00     0.014 A 
ATOM     44  C   UNL A   1      36.699  33.957  29.468  1.00  0.00     0.010 A 
ATOM     45  C   UNL A   1      35.229  32.650  30.883  1.00  0.00     0.010 A 
ATOM     46  C   UNL A   1      36.528  33.023  30.503  1.00  0.00    -0.014 A 
BRANCH  46  47
ATOM     47  C   UNL A   1      37.692  32.405  31.186  1.00  0.00     0.031 A 
ATOM     48  C   UNL A   1      38.439  31.280  30.525  1.00  0.00     0.074 A 
ATOM     49  C   UNL A   1      38.040  32.816  32.421  1.00  0.00     0.049 A 
ATOM     50  N   UNL A   1      39.415  30.543  30.994  1.00  0.00    -0.248 NA
ATOM     51  C   UNL A   1      38.018  30.919  29.161  1.00  0.00     0.031 C 
ATOM     52  C   UNL A   1      37.377  33.880  33.177  1.00  0.00     0.029 A 
ATOM     53  N   UNL A   1      39.031  32.378  33.263  1.00  0.00    -0.354 N 
ATOM     54  C   UNL A   1      39.716  29.631  29.992  1.00  0.00     0.074 A 
ATOM     55  C   UNL A   1      38.787  29.870  28.909  1.00  0.00     0.031 C 
ATOM     56  C   UNL A   1      37.990  34.024  34.362  1.00  0.00     0.029 A 
ATOM     57  C   UNL A   1      39.061  33.039  34.467  1.00  0.00     0.049 A 
ATOM     58  H   UNL A   1      39.660  31.659  33.026  1.00  0.00     0.167 HD
ATOM     59  C   UNL A   1      40.696  28.697  29.966  1.00  0.00     0.037 A 
ATOM     60  C   UNL A   1      39.859  32.860  35.537  1.00  0.00     0.037 A 
ATOM     61  C   UNL A   1      41.632  28.474  31.035  1.00  0.00     0.049 A 
ATOM     62  C   UNL A   1      40.923  31.796  35.490  1.00  0.00     0.074 A 
ATOM     63  C   UNL A   1      42.675  27.566  31.098  1.00  0.00     0.029 A 
ATOM     64  N   UNL A   1      41.644  29.177  32.232  1.00  0.00    -0.354 N 
ATOM     65  N   UNL A   1      41.222  30.965  34.521  1.00  0.00    -0.248 NA
ATOM     66  C   UNL A   1      41.764  31.646  36.687  1.00  0.00     0.031 C 
ATOM     67  C   UNL A   1      43.298  27.698  32.343  1.00  0.00     0.029 A 
ATOM     68  C   UNL A   1      42.670  28.717  33.040  1.00  0.00     0.049 A 
ATOM     69  H   UNL A   1      41.014  29.896  32.470  1.00  0.00     0.167 HD
ATOM     70  C   UNL A   1      42.306  30.226  34.974  1.00  0.00     0.074 A 
ATOM     71  C   UNL A   1      42.618  30.710  36.302  1.00  0.00     0.031 C 
ATOM     72  C   UNL A   1      42.982  29.232  34.348  1.00  0.00     0.037 A 
BRANCH  59  73
ATOM     73  C   UNL A   1      40.815  27.850  28.733  1.00  0.00     0.064 A 
ATOM     74  C   UNL A   1      41.700  28.188  27.699  1.00  0.00     0.173 A 
ATOM     75  C   UNL A   1      40.077  26.664  28.604  1.00  0.00     0.173 A 
ATOM     76  F   UNL A   1      42.420  29.318  27.770  1.00  0.00    -0.203 F 
ATOM     77  C   UNL A   1      41.828  27.382  26.571  1.00  0.00     0.198 A 
ATOM     78  C   UNL A   1      40.227  25.845  27.488  1.00  0.00     0.198 A 
ATOM     79  F   UNL A   1      39.221  26.291  29.567  1.00  0.00    -0.203 F 
ATOM     80  F   UNL A   1      42.650  27.746  25.578  1.00  0.00    -0.200 F 
ATOM     81  C   UNL A   1      41.097  26.207  26.470  1.00  0.00     0.200 A 
ATOM     82  F   UNL A   1      39.531  24.704  27.397  1.00  0.00    -0.200 F 
ATOM     83  F   UNL A   1      41.229  25.426  25.390  1.00  0.00    -0.200 F 
ENDBRANCH  59  73
BRANCH  60  84
ATOM     84  C   UNL A   1      39.703  33.718  36.741  1.00  0.00     0.064 A 
ATOM     85  C   UNL A   1      38.886  33.314  37.808  1.00  0.00     0.173 A 
ATOM     86  C   UNL A   1      40.333  34.966  36.838  1.00  0.00     0.173 A 
ATOM     87  F   UNL A   1      38.245  32.138  37.751  1.00  0.00    -0.203 F 
ATOM     88  C   UNL A   1      38.683  34.139  38.912  1.00  0.00     0.198 A 
ATOM     89  C   UNL A   1      40.151  35.778  37.956  1.00  0.00     0.198 A 
ATOM     90  F   UNL A   1      41.126  35.398  35.847  1.00  0.00    -0.203 F 
ATOM     91  F   UNL A   1      37.853  33.753  39.891  1.00  0.00    -0.200 F 
ATOM     92  C   UNL A   1      39.319  35.369  38.987  1.00  0.00     0.200 A 
ATOM     93  F   UNL A   1      40.778  36.961  38.030  1.00  0.00    -0.200 F 
ATOM     94  F   UNL A   1      39.119  36.166  40.046  1.00  0.00    -0.200 F 
ENDBRANCH  60  84
BRANCH  72  95
ATOM     95  C   UNL A   1      44.159  28.641  35.066  1.00  0.00     0.064 A 
ATOM     96  C   UNL A   1      44.031  27.518  35.893  1.00  0.00     0.173 A 
ATOM     97  C   UNL A   1      45.440  29.186  34.887  1.00  0.00     0.173 A 
ATOM     98  F   UNL A   1      42.825  26.971  36.106  1.00  0.00    -0.203 F 
ATOM     99  C   UNL A   1      45.139  26.975  36.536  1.00  0.00     0.198 A 
ATOM    100  C   UNL A   1      46.550  28.624  35.510  1.00  0.00     0.198 A 
ATOM    101  F   UNL A   1      45.616  30.259  34.101  1.00  0.00    -0.203 F 
ATOM    102  F   UNL A   1      44.987  25.928  37.360  1.00  0.00    -0.200 F 
ATOM    103  C   UNL A   1      46.398  27.522  36.339  1.00  0.00     0.200 A 
ATOM    104  F   UNL A   1      47.768  29.147  35.308  1.00  0.00    -0.200 F 
ATOM    105  F   UNL A   1      47.465  26.993  36.954  1.00  0.00    -0.200 F 
ENDBRANCH  72  95
ENDBRANCH  46  47
ENDBRANCH  38  41
ENDBRANCH  36  37
ENDBRANCH  35  36
ENDBRANCH  34  35
ENDBRANCH  33  34
ENDBRANCH  32  33
ENDBRANCH  31  32
ENDBRANCH   3  31
TORSDOF 22
ENDMDL
MODEL 2
REMARK VINA RESULT:     -10.7      0.770      7.026
REMARK SMILES CCCCCCNC(=O)Oc1cccc(-c2ccc([C@@H](C)C(=O)NCCCCCCNC(=O)c3ccc(-c4c5nc(c(-c6c(F)c(F)c(F)c(F)c6F)c6ccc([nH]6)c(-c6c(F)c(F)c(F)c(F)c6F)c6nc(c(-c7c(F)c(F)c(F)c(F)c7F)c7ccc4[nH]7)C=C6)C=C5)cc3)cc2Cl)c1
REMARK SMILES IDX 22 1 23 2 24 3 20 5 21 6 19 7 16 8 17 9 98 10 18 11 97 12
REMARK SMILES IDX 99 13 15 14 11 15 12 16 100 17 13 18 14 19 10 20 8 21 7 22
REMARK SMILES IDX 9 24 6 25 5 26 4 27 3 28 2 29 1 30 25 31 26 32 27 33 28 34
REMARK SMILES IDX 29 35 30 36 31 37 32 38 33 40 34 41 35 42 96 43 36 44 95 45
REMARK SMILES IDX 37 46 38 47 39 48 89 49 40 50 94 51 88 52 90 53 41 54 93 55
REMARK SMILES IDX 87 56 86 57 42 59 74 60 54 61 73 62 55 63 58 64 72 65 91 66
REMARK SMILES IDX 56 67 57 68 71 70 92 71 59 72 43 73 44 74 52 75 45 76 46 77
REMARK SMILES IDX 50 78 53 79 47 80 48 81 51 82 49 83 75 84 76 85 84 86 77 87
REMARK SMILES IDX 78 88 82 89 85 90 79 91 80 92 83 93 81 94 60 95 61 96 69 97
REMARK SMILES IDX 62 98 63 99 67 100 70 101 64 102 65 103 68 104 66 105
REMARK H PARENT 24 4 7 23 31 39 90 58 58 69
REMARK Flexibility Score: inf
ROOT
ATOM      1  C   UNL A   1      31.748  26.244  26.192  1.00  0.00     0.227 C 
ATOM      2  O   UNL A   1      30.769  25.905  26.869  1.00  0.00    -0.274 OA
ATOM      3  N   UNL A   1      32.468  27.298  26.660  1.00  0.00    -0.356 N 
ATOM      4  H   UNL A   1      32.174  27.625  27.541  1.00  0.00     0.163 HD
ENDROOT
BRANCH   1   5
ATOM      5  C   UNL A   1      32.094  25.468  24.912  1.00  0.00     0.105 C 
ATOM      6  C   UNL A   1      30.888  24.846  24.208  1.00  0.00     0.023 C 
BRANCH   5   7
ATOM      7  C   UNL A   1      33.312  24.566  25.042  1.00  0.00    -0.034 A 
ATOM      8  C   UNL A   1      35.535  22.762  25.288  1.00  0.00     0.000 A 
ATOM      9  C   UNL A   1      35.526  23.824  24.364  1.00  0.00     0.010 A 
ATOM     10  C   UNL A   1      34.403  22.651  26.121  1.00  0.00     0.049 A 
ATOM     11  C   UNL A   1      34.463  24.729  24.274  1.00  0.00     0.005 A 
ATOM     12  C   UNL A   1      33.303  23.515  25.972  1.00  0.00     0.025 A 
ATOM     13  Cl  UNL A   1      34.302  21.518  27.431  1.00  0.00    -0.084 Cl
BRANCH   8  14
ATOM     14  C   UNL A   1      36.720  21.866  25.322  1.00  0.00    -0.013 A 
ATOM     15  C   UNL A   1      39.069  21.429  25.774  1.00  0.00     0.133 A 
ATOM     16  C   UNL A   1      38.934  20.095  25.402  1.00  0.00     0.047 A 
ATOM     17  C   UNL A   1      37.981  22.305  25.756  1.00  0.00     0.056 A 
ATOM     18  C   UNL A   1      37.688  19.630  25.001  1.00  0.00     0.004 A 
ATOM     19  C   UNL A   1      36.604  20.510  24.945  1.00  0.00     0.009 A 
BRANCH  15  20
ATOM     20  O   UNL A   1      40.380  21.880  26.006  1.00  0.00    -0.410 OA
BRANCH  20  21
ATOM     21  C   UNL A   1      41.153  21.289  26.992  1.00  0.00     0.412 C 
ATOM     22  N   UNL A   1      42.495  21.393  26.741  1.00  0.00    -0.321 N 
ATOM     23  H   UNL A   1      43.101  20.962  27.386  1.00  0.00     0.167 HD
ATOM     24  O   UNL A   1      40.733  20.713  27.987  1.00  0.00    -0.224 OA
BRANCH  22  25
ATOM     25  C   UNL A   1      43.113  22.075  25.621  1.00  0.00     0.119 C 
BRANCH  25  26
ATOM     26  C   UNL A   1      44.624  22.221  25.801  1.00  0.00     0.021 C 
BRANCH  26  27
ATOM     27  C   UNL A   1      45.452  21.956  24.537  1.00  0.00     0.002 C 
BRANCH  27  28
ATOM     28  C   UNL A   1      46.339  20.707  24.580  1.00  0.00    -0.000 C 
BRANCH  28  29
ATOM     29  C   UNL A   1      45.635  19.415  25.000  1.00  0.00    -0.003 C 
ATOM     30  C   UNL A   1      46.542  18.453  25.751  1.00  0.00     0.004 C 
ENDBRANCH  28  29
ENDBRANCH  27  28
ENDBRANCH  26  27
ENDBRANCH  25  26
ENDBRANCH  22  25
ENDBRANCH  20  21
ENDBRANCH  15  20
ENDBRANCH   8  14
ENDBRANCH   5   7
ENDBRANCH   1   5
BRANCH   3  31
ATOM     31  C   UNL A   1      33.587  28.027  26.104  1.00  0.00     0.116 C 
BRANCH  31  32
ATOM     32  C   UNL A   1      33.161  29.405  25.589  1.00  0.00     0.021 C 
BRANCH  32  33
ATOM     33  C   UNL A   1      32.411  30.249  26.624  1.00  0.00     0.002 C 
BRANCH  33  34
ATOM     34  C   UNL A   1      31.300  31.140  26.055  1.00  0.00     0.002 C 
BRANCH  34  35
ATOM     35  C   UNL A   1      31.320  32.599  26.520  1.00  0.00     0.021 C 
BRANCH  35  36
ATOM     36  C   UNL A   1      32.625  33.042  27.178  1.00  0.00     0.116 C 
BRANCH  36  37
ATOM     37  N   UNL A   1      32.528  34.390  27.715  1.00  0.00    -0.352 N 
ATOM     38  C   UNL A   1      33.160  34.949  28.798  1.00  0.00     0.251 C 
ATOM     39  H   UNL A   1      31.920  34.991  27.229  1.00  0.00     0.163 HD
ATOM     40  O   UNL A   1      32.785  36.031  29.240  1.00  0.00    -0.269 OA
BRANCH  38  41
ATOM     41  C   UNL A   1      34.290  34.249  29.443  1.00  0.00     0.039 A 
ATOM     42  C   UNL A   1      34.027  33.356  30.487  1.00  0.00     0.014 A 
ATOM     43  C   UNL A   1      35.608  34.501  29.052  1.00  0.00     0.014 A 
ATOM     44  C   UNL A   1      35.081  32.677  31.102  1.00  0.00     0.010 A 
ATOM     45  C   UNL A   1      36.653  33.778  29.623  1.00  0.00     0.010 A 
ATOM     46  C   UNL A   1      36.400  32.863  30.657  1.00  0.00    -0.014 A 
BRANCH  46  47
ATOM     47  C   UNL A   1      37.534  32.129  31.274  1.00  0.00     0.031 A 
ATOM     48  C   UNL A   1      38.024  32.518  32.641  1.00  0.00     0.074 A 
ATOM     49  C   UNL A   1      38.156  31.155  30.583  1.00  0.00     0.049 A 
ATOM     50  N   UNL A   1      39.057  32.072  33.310  1.00  0.00    -0.248 NA
ATOM     51  C   UNL A   1      37.264  33.567  33.342  1.00  0.00     0.031 C 
ATOM     52  C   UNL A   1      37.791  30.705  29.239  1.00  0.00     0.029 A 
ATOM     53  N   UNL A   1      39.237  30.376  30.912  1.00  0.00    -0.354 N 
ATOM     54  C   UNL A   1      39.076  32.787  34.499  1.00  0.00     0.074 A 
ATOM     55  C   UNL A   1      37.983  33.734  34.441  1.00  0.00     0.031 C 
ATOM     56  C   UNL A   1      38.620  29.717  28.865  1.00  0.00     0.029 A 
ATOM     57  C   UNL A   1      39.599  29.493  29.924  1.00  0.00     0.049 A 
ATOM     58  H   UNL A   1      39.707  30.444  31.774  1.00  0.00     0.167 HD
ATOM     59  C   UNL A   1      39.911  32.650  35.556  1.00  0.00     0.037 A 
ATOM     60  C   UNL A   1      40.615  28.609  29.878  1.00  0.00     0.037 A 
ATOM     61  C   UNL A   1      40.985  31.693  35.621  1.00  0.00     0.049 A 
ATOM     62  C   UNL A   1      41.544  28.496  31.056  1.00  0.00     0.074 A 
ATOM     63  C   UNL A   1      41.875  31.461  36.655  1.00  0.00     0.029 A 
ATOM     64  N   UNL A   1      41.308  30.802  34.608  1.00  0.00    -0.354 N 
ATOM     65  N   UNL A   1      41.527  29.151  32.191  1.00  0.00    -0.248 NA
ATOM     66  C   UNL A   1      42.634  27.514  30.949  1.00  0.00     0.031 C 
ATOM     67  C   UNL A   1      42.756  30.451  36.257  1.00  0.00     0.029 A 
ATOM     68  C   UNL A   1      42.388  30.025  34.991  1.00  0.00     0.049 A 
ATOM     69  H   UNL A   1      40.839  30.734  33.745  1.00  0.00     0.167 HD
ATOM     70  C   UNL A   1      42.574  28.637  32.944  1.00  0.00     0.074 A 
ATOM     71  C   UNL A   1      43.201  27.608  32.142  1.00  0.00     0.031 C 
ATOM     72  C   UNL A   1      42.980  28.986  34.189  1.00  0.00     0.037 A 
BRANCH  59  73
ATOM     73  C   UNL A   1      39.690  33.547  36.739  1.00  0.00     0.064 A 
ATOM     74  C   UNL A   1      40.319  34.797  36.833  1.00  0.00     0.173 A 
ATOM     75  C   UNL A   1      38.805  33.177  37.762  1.00  0.00     0.173 A 
ATOM     76  F   UNL A   1      41.182  35.192  35.885  1.00  0.00    -0.203 F 
ATOM     77  C   UNL A   1      40.085  35.637  37.919  1.00  0.00     0.198 A 
ATOM     78  C   UNL A   1      38.553  34.031  38.834  1.00  0.00     0.198 A 
ATOM     79  F   UNL A   1      38.174  31.994  37.717  1.00  0.00    -0.203 F 
ATOM     80  F   UNL A   1      40.728  36.809  38.007  1.00  0.00    -0.200 F 
ATOM     81  C   UNL A   1      39.198  35.256  38.914  1.00  0.00     0.200 A 
ATOM     82  F   UNL A   1      37.685  33.668  39.787  1.00  0.00    -0.200 F 
ATOM     83  F   UNL A   1      38.965  36.070  39.953  1.00  0.00    -0.200 F 
ENDBRANCH  59  73
BRANCH  60  84
ATOM     84  C   UNL A   1      40.801  27.743  28.683  1.00  0.00     0.064 A 
ATOM     85  C   UNL A   1      41.654  28.133  27.641  1.00  0.00     0.173 A 
ATOM     86  C   UNL A   1      40.110  26.531  28.542  1.00  0.00     0.173 A 
ATOM     87  F   UNL A   1      42.320  29.295  27.721  1.00  0.00    -0.203 F 
ATOM     88  C   UNL A   1      41.786  27.359  26.490  1.00  0.00     0.198 A 
ATOM     89  C   UNL A   1      40.265  25.744  27.402  1.00  0.00     0.198 A 
ATOM     90  F   UNL A   1      39.285  26.111  29.511  1.00  0.00    -0.203 F 
ATOM     91  F   UNL A   1      42.565  27.784  25.485  1.00  0.00    -0.200 F 
ATOM     92  C   UNL A   1      41.094  26.163  26.374  1.00  0.00     0.200 A 
ATOM     93  F   UNL A   1      39.604  24.582  27.300  1.00  0.00    -0.200 F 
ATOM     94  F   UNL A   1      41.217  25.421  25.264  1.00  0.00    -0.200 F 
ENDBRANCH  60  84
BRANCH  72  95
ATOM     95  C   UNL A   1      44.121  28.213  34.782  1.00  0.00     0.064 A 
ATOM     96  C   UNL A   1      43.912  27.048  35.532  1.00  0.00     0.173 A 
ATOM     97  C   UNL A   1      45.444  28.626  34.560  1.00  0.00     0.173 A 
ATOM     98  F   UNL A   1      42.666  26.623  35.785  1.00  0.00    -0.203 F 
ATOM     99  C   UNL A   1      44.986  26.337  36.060  1.00  0.00     0.198 A 
ATOM    100  C   UNL A   1      46.516  27.896  35.065  1.00  0.00     0.198 A 
ATOM    101  F   UNL A   1      45.697  29.731  33.843  1.00  0.00    -0.203 F 
ATOM    102  F   UNL A   1      44.761  25.251  36.814  1.00  0.00    -0.200 F 
ATOM    103  C   UNL A   1      46.286  26.756  35.820  1.00  0.00     0.200 A 
ATOM    104  F   UNL A   1      47.772  28.296  34.821  1.00  0.00    -0.200 F 
ATOM    105  F   UNL A   1      47.318  26.065  36.322  1.00  0.00    -0.200 F 
ENDBRANCH  72  95
ENDBRANCH  46  47
ENDBRANCH  38  41
ENDBRANCH  36  37
ENDBRANCH  35  36
ENDBRANCH  34  35
ENDBRANCH  33  34
ENDBRANCH  32  33
ENDBRANCH  31  32
ENDBRANCH   3  31
TORSDOF 22
ENDMDL
MODEL 3
REMARK VINA RESULT:     -10.6      0.651      7.021
REMARK SMILES CCCCCCNC(=O)Oc1cccc(-c2ccc([C@@H](C)C(=O)NCCCCCCNC(=O)c3ccc(-c4c5nc(c(-c6c(F)c(F)c(F)c(F)c6F)c6ccc([nH]6)c(-c6c(F)c(F)c(F)c(F)c6F)c6nc(c(-c7c(F)c(F)c(F)c(F)c7F)c7ccc4[nH]7)C=C6)C=C5)cc3)cc2Cl)c1
REMARK SMILES IDX 22 1 23 2 24 3 20 5 21 6 19 7 16 8 17 9 98 10 18 11 97 12
REMARK SMILES IDX 99 13 15 14 11 15 12 16 100 17 13 18 14 19 10 20 8 21 7 22
REMARK SMILES IDX 9 24 6 25 5 26 4 27 3 28 2 29 1 30 25 31 26 32 27 33 28 34
REMARK SMILES IDX 29 35 30 36 31 37 32 38 33 40 34 41 35 42 96 43 36 44 95 45
REMARK SMILES IDX 37 46 38 47 39 48 89 49 40 50 94 51 88 52 90 53 41 54 93 55
REMARK SMILES IDX 87 56 86 57 42 59 74 60 54 61 73 62 55 63 58 64 72 65 91 66
REMARK SMILES IDX 56 67 57 68 71 70 92 71 59 72 43 73 44 74 52 75 45 76 46 77
REMARK SMILES IDX 50 78 53 79 47 80 48 81 51 82 49 83 75 84 76 85 84 86 77 87
REMARK SMILES IDX 78 88 82 89 85 90 79 91 80 92 83 93 81 94 60 95 61 96 69 97
REMARK SMILES IDX 62 98 63 99 67 100 70 101 64 102 65 103 68 104 66 105
REMARK H PARENT 24 4 7 23 31 39 90 58 58 69
REMARK Flexibility Score: inf
ROOT
ATOM      1  C   UNL A   1      31.152  26.078  26.223  1.00  0.00     0.227 C 
ATOM      2  O   UNL A   1      30.138  25.399  26.424  1.00  0.00    -0.274 OA
ATOM      3  N   UNL A   1      31.505  26.939  27.216  1.00  0.00    -0.356 N 
ATOM      4  H   UNL A   1      30.953  26.863  28.027  1.00  0.00     0.163 HD
ENDROOT
BRANCH   1   5
ATOM      5  C   UNL A   1      31.941  25.905  24.916  1.00  0.00     0.105 C 
ATOM      6  C   UNL A   1      31.067  25.722  23.675  1.00  0.00     0.023 C 
BRANCH   5   7
ATOM      7  C   UNL A   1      33.126  24.956  25.027  1.00  0.00    -0.034 A 
ATOM      8  C   UNL A   1      35.281  23.071  25.250  1.00  0.00     0.000 A 
ATOM      9  C   UNL A   1      35.241  24.053  24.241  1.00  0.00     0.010 A 
ATOM     10  C   UNL A   1      34.220  23.085  26.176  1.00  0.00     0.049 A 
ATOM     11  C   UNL A   1      34.214  24.999  24.159  1.00  0.00     0.005 A 
ATOM     12  C   UNL A   1      33.149  23.988  26.041  1.00  0.00     0.025 A 
ATOM     13  Cl  UNL A   1      34.179  22.069  27.582  1.00  0.00    -0.084 Cl
BRANCH   8  14
ATOM     14  C   UNL A   1      36.426  22.123  25.266  1.00  0.00    -0.013 A 
ATOM     15  C   UNL A   1      38.744  21.564  25.745  1.00  0.00     0.133 A 
ATOM     16  C   UNL A   1      38.559  20.255  25.310  1.00  0.00     0.047 A 
ATOM     17  C   UNL A   1      37.695  22.487  25.745  1.00  0.00     0.056 A 
ATOM     18  C   UNL A   1      37.304  19.863  24.863  1.00  0.00     0.004 A 
ATOM     19  C   UNL A   1      36.260  20.792  24.825  1.00  0.00     0.009 A 
BRANCH  15  20
ATOM     20  O   UNL A   1      40.068  21.945  26.023  1.00  0.00    -0.410 OA
BRANCH  20  21
ATOM     21  C   UNL A   1      41.004  20.991  26.384  1.00  0.00     0.412 C 
ATOM     22  N   UNL A   1      42.264  21.298  25.945  1.00  0.00    -0.321 N 
ATOM     23  H   UNL A   1      42.973  20.642  26.138  1.00  0.00     0.167 HD
ATOM     24  O   UNL A   1      40.780  19.964  27.010  1.00  0.00    -0.224 OA
BRANCH  22  25
ATOM     25  C   UNL A   1      42.660  22.494  25.227  1.00  0.00     0.119 C 
BRANCH  25  26
ATOM     26  C   UNL A   1      44.138  22.825  25.434  1.00  0.00     0.021 C 
BRANCH  26  27
ATOM     27  C   UNL A   1      44.521  23.190  26.874  1.00  0.00     0.002 C 
BRANCH  27  28
ATOM     28  C   UNL A   1      43.875  24.468  27.424  1.00  0.00    -0.000 C 
BRANCH  28  29
ATOM     29  C   UNL A   1      43.322  24.364  28.846  1.00  0.00    -0.003 C 
ATOM     30  C   UNL A   1      42.488  23.114  29.077  1.00  0.00     0.004 C 
ENDBRANCH  28  29
ENDBRANCH  27  28
ENDBRANCH  26  27
ENDBRANCH  25  26
ENDBRANCH  22  25
ENDBRANCH  20  21
ENDBRANCH  15  20
ENDBRANCH   8  14
ENDBRANCH   5   7
ENDBRANCH   1   5
BRANCH   3  31
ATOM     31  C   UNL A   1      32.543  27.944  27.299  1.00  0.00     0.116 C 
BRANCH  31  32
ATOM     32  C   UNL A   1      32.331  29.058  26.271  1.00  0.00     0.021 C 
BRANCH  32  33
ATOM     33  C   UNL A   1      32.189  30.453  26.888  1.00  0.00     0.002 C 
BRANCH  33  34
ATOM     34  C   UNL A   1      31.256  31.407  26.131  1.00  0.00     0.002 C 
BRANCH  34  35
ATOM     35  C   UNL A   1      31.368  32.885  26.518  1.00  0.00     0.021 C 
BRANCH  35  36
ATOM     36  C   UNL A   1      32.645  33.253  27.269  1.00  0.00     0.116 C 
BRANCH  36  37
ATOM     37  N   UNL A   1      32.556  34.576  27.869  1.00  0.00    -0.352 N 
ATOM     38  C   UNL A   1      33.202  35.085  28.968  1.00  0.00     0.251 C 
ATOM     39  H   UNL A   1      31.941  35.198  27.419  1.00  0.00     0.163 HD
ATOM     40  O   UNL A   1      32.833  36.145  29.463  1.00  0.00    -0.269 OA
BRANCH  38  41
ATOM     41  C   UNL A   1      34.340  34.356  29.565  1.00  0.00     0.039 A 
ATOM     42  C   UNL A   1      34.102  33.488  30.635  1.00  0.00     0.014 A 
ATOM     43  C   UNL A   1      35.644  34.559  29.103  1.00  0.00     0.014 A 
ATOM     44  C   UNL A   1      35.164  32.783  31.206  1.00  0.00     0.010 A 
ATOM     45  C   UNL A   1      36.693  33.809  29.631  1.00  0.00     0.010 A 
ATOM     46  C   UNL A   1      36.464  32.918  30.691  1.00  0.00    -0.014 A 
BRANCH  46  47
ATOM     47  C   UNL A   1      37.603  32.155  31.261  1.00  0.00     0.031 A 
ATOM     48  C   UNL A   1      38.100  32.471  32.644  1.00  0.00     0.074 A 
ATOM     49  C   UNL A   1      38.223  31.221  30.514  1.00  0.00     0.049 A 
ATOM     50  N   UNL A   1      39.139  31.993  33.282  1.00  0.00    -0.248 NA
ATOM     51  C   UNL A   1      37.342  33.478  33.405  1.00  0.00     0.031 C 
ATOM     52  C   UNL A   1      37.851  30.843  29.151  1.00  0.00     0.029 A 
ATOM     53  N   UNL A   1      39.308  30.429  30.795  1.00  0.00    -0.354 N 
ATOM     54  C   UNL A   1      39.163  32.643  34.508  1.00  0.00     0.074 A 
ATOM     55  C   UNL A   1      38.067  33.588  34.507  1.00  0.00     0.031 C 
ATOM     56  C   UNL A   1      38.681  29.880  28.719  1.00  0.00     0.029 A 
ATOM     57  C   UNL A   1      39.667  29.601  29.759  1.00  0.00     0.049 A 
ATOM     58  H   UNL A   1      39.784  30.451  31.657  1.00  0.00     0.167 HD
ATOM     59  C   UNL A   1      40.005  32.451  35.550  1.00  0.00     0.037 A 
ATOM     60  C   UNL A   1      40.684  28.724  29.659  1.00  0.00     0.037 A 
ATOM     61  C   UNL A   1      41.081  31.496  35.558  1.00  0.00     0.049 A 
ATOM     62  C   UNL A   1      41.621  28.550  30.824  1.00  0.00     0.074 A 
ATOM     63  C   UNL A   1      41.978  31.210  36.573  1.00  0.00     0.029 A 
ATOM     64  N   UNL A   1      41.401  30.661  34.496  1.00  0.00    -0.354 N 
ATOM     65  N   UNL A   1      41.609  29.144  31.992  1.00  0.00    -0.248 NA
ATOM     66  C   UNL A   1      42.712  27.579  30.657  1.00  0.00     0.031 C 
ATOM     67  C   UNL A   1      42.860  30.225  36.115  1.00  0.00     0.029 A 
ATOM     68  C   UNL A   1      42.485  29.867  34.830  1.00  0.00     0.049 A 
ATOM     69  H   UNL A   1      40.927  30.638  33.633  1.00  0.00     0.167 HD
ATOM     70  C   UNL A   1      42.662  28.592  32.710  1.00  0.00     0.074 A 
ATOM     71  C   UNL A   1      43.286  27.610  31.850  1.00  0.00     0.031 C 
ATOM     72  C   UNL A   1      43.075  28.875  33.970  1.00  0.00     0.037 A 
BRANCH  59  73
ATOM     73  C   UNL A   1      39.789  33.283  36.781  1.00  0.00     0.064 A 
ATOM     74  C   UNL A   1      38.867  32.901  37.766  1.00  0.00     0.173 A 
ATOM     75  C   UNL A   1      40.545  34.444  37.003  1.00  0.00     0.173 A 
ATOM     76  F   UNL A   1      38.112  31.805  37.596  1.00  0.00    -0.203 F 
ATOM     77  C   UNL A   1      38.693  33.662  38.919  1.00  0.00     0.198 A 
ATOM     78  C   UNL A   1      40.388  35.188  38.170  1.00  0.00     0.198 A 
ATOM     79  F   UNL A   1      41.444  34.850  36.094  1.00  0.00    -0.203 F 
ATOM     80  F   UNL A   1      37.777  33.299  39.828  1.00  0.00    -0.200 F 
ATOM     81  C   UNL A   1      39.459  34.799  39.123  1.00  0.00     0.200 A 
ATOM     82  F   UNL A   1      41.138  36.279  38.372  1.00  0.00    -0.200 F 
ATOM     83  F   UNL A   1      39.299  35.525  40.239  1.00  0.00    -0.200 F 
ENDBRANCH  59  73
BRANCH  60  84
ATOM     84  C   UNL A   1      40.865  27.924  28.418  1.00  0.00     0.064 A 
ATOM     85  C   UNL A   1      40.209  26.695  28.255  1.00  0.00     0.173 A 
ATOM     86  C   UNL A   1      41.718  28.349  27.391  1.00  0.00     0.173 A 
ATOM     87  F   UNL A   1      39.400  26.236  29.221  1.00  0.00    -0.203 F 
ATOM     88  C   UNL A   1      40.423  25.909  27.126  1.00  0.00     0.198 A 
ATOM     89  C   UNL A   1      41.909  27.575  26.248  1.00  0.00     0.198 A 
ATOM     90  F   UNL A   1      42.367  29.518  27.496  1.00  0.00    -0.203 F 
ATOM     91  F   UNL A   1      39.827  24.713  27.022  1.00  0.00    -0.200 F 
ATOM     92  C   UNL A   1      41.269  26.351  26.121  1.00  0.00     0.200 A 
ATOM     93  F   UNL A   1      42.719  28.012  25.273  1.00  0.00    -0.200 F 
ATOM     94  F   UNL A   1      41.480  25.592  25.036  1.00  0.00    -0.200 F 
ENDBRANCH  60  84
BRANCH  72  95
ATOM     95  C   UNL A   1      44.222  28.075  34.514  1.00  0.00     0.064 A 
ATOM     96  C   UNL A   1      45.546  28.521  34.413  1.00  0.00     0.173 A 
ATOM     97  C   UNL A   1      43.983  26.863  35.181  1.00  0.00     0.173 A 
ATOM     98  F   UNL A   1      45.826  29.665  33.771  1.00  0.00    -0.203 F 
ATOM     99  C   UNL A   1      46.594  27.771  34.940  1.00  0.00     0.198 A 
ATOM    100  C   UNL A   1      45.030  26.131  35.731  1.00  0.00     0.198 A 
ATOM    101  F   UNL A   1      42.732  26.396  35.308  1.00  0.00    -0.203 F 
ATOM    102  F   UNL A   1      47.858  28.194  34.792  1.00  0.00    -0.200 F 
ATOM    103  C   UNL A   1      46.335  26.582  35.604  1.00  0.00     0.200 A 
ATOM    104  F   UNL A   1      44.777  24.988  36.384  1.00  0.00    -0.200 F 
ATOM    105  F   UNL A   1      47.345  25.865  36.118  1.00  0.00    -0.200 F 
ENDBRANCH  72  95
ENDBRANCH  46  47
ENDBRANCH  38  41
ENDBRANCH  36  37
ENDBRANCH  35  36
ENDBRANCH  34  35
ENDBRANCH  33  34
ENDBRANCH  32  33
ENDBRANCH  31  32
ENDBRANCH   3  31
TORSDOF 22
ENDMDL
