MODEL 1
REMARK VINA RESULT:     -12.4      0.000      0.000
REMARK SMILES O=C(Cn1cnc(-c2ccccc2)c1-c1ccccc1)NCCCCCCNC(=O)c1ccc(-c2c3nc(c(-c4c(F)c(F)c(F)c(F)c4F)c4ccc([nH]4)c(-c4c(F)c(F)c(F)c(F)c4F)c4nc(c(-c5c(F)c(F)c(F)c(F)c5F)c5ccc2[nH]5)C=C4)C=C3)cc1
REMARK SMILES IDX 24 1 23 2 22 3 21 4 1 5 2 6 3 8 4 9 5 10 14 11 6 12 7 13
REMARK SMILES IDX 15 14 16 15 20 16 17 17 19 18 18 19 8 20 9 21 13 22 10 23
REMARK SMILES IDX 12 24 11 25 25 26 26 27 27 28 28 29 29 30 30 32 31 33 32 34
REMARK SMILES IDX 93 35 33 36 92 37 34 38 35 39 36 40 86 41 37 42 91 43 85 44
REMARK SMILES IDX 87 45 38 46 90 47 84 48 83 49 39 51 71 52 51 53 70 54 52 55
REMARK SMILES IDX 55 56 69 57 88 58 53 59 54 60 68 62 89 63 56 64 40 65 41 66
REMARK SMILES IDX 49 67 42 68 43 69 47 70 50 71 44 72 45 73 48 74 46 75 72 76
REMARK SMILES IDX 73 77 81 78 74 79 75 80 79 81 82 82 76 83 77 84 80 85 78 86
REMARK SMILES IDX 57 87 58 88 66 89 59 90 60 91 64 92 67 93 61 94 62 95 65 96
REMARK SMILES IDX 63 97
REMARK H PARENT 21 7 28 31 87 50 55 61
REMARK Flexibility Score: inf
ROOT
ATOM      1  C   UNL A   1      39.828  21.674  26.232  1.00  0.00     0.002 C 
ENDROOT
BRANCH   1   2
ATOM      2  C   UNL A   1      38.607  22.557  26.515  1.00  0.00     0.021 C 
BRANCH   2   3
ATOM      3  C   UNL A   1      37.445  22.370  25.542  1.00  0.00     0.116 C 
BRANCH   3   4
ATOM      4  N   UNL A   1      36.183  22.825  26.091  1.00  0.00    -0.355 N 
ATOM      5  O   UNL A   1      35.569  24.031  24.247  1.00  0.00    -0.273 OA
ATOM      6  C   UNL A   1      35.293  23.584  25.359  1.00  0.00     0.239 C 
ATOM      7  H   UNL A   1      35.953  22.584  27.018  1.00  0.00     0.163 HD
BRANCH   6   8
ATOM      8  C   UNL A   1      33.977  23.917  26.032  1.00  0.00     0.223 C 
BRANCH   8   9
ATOM      9  N   UNL A   1      32.917  24.328  25.124  1.00  0.00    -0.321 N 
ATOM     10  C   UNL A   1      32.282  23.476  24.259  1.00  0.00     0.201 A 
ATOM     11  C   UNL A   1      32.305  25.562  25.031  1.00  0.00     0.076 A 
ATOM     12  N   UNL A   1      31.311  24.074  23.611  1.00  0.00    -0.236 NA
ATOM     13  C   UNL A   1      31.315  25.366  24.075  1.00  0.00     0.096 A 
BRANCH  11  14
ATOM     14  C   UNL A   1      32.615  26.749  25.826  1.00  0.00     0.000 A 
ATOM     15  C   UNL A   1      31.731  27.168  26.828  1.00  0.00     0.010 A 
ATOM     16  C   UNL A   1      33.729  27.542  25.532  1.00  0.00     0.010 A 
ATOM     17  C   UNL A   1      31.965  28.354  27.529  1.00  0.00     0.001 A 
ATOM     18  C   UNL A   1      33.974  28.716  26.247  1.00  0.00     0.001 A 
ATOM     19  C   UNL A   1      33.090  29.123  27.243  1.00  0.00     0.000 A 
ENDBRANCH  11  14
BRANCH  13  20
ATOM     20  C   UNL A   1      30.367  26.373  23.636  1.00  0.00     0.002 A 
ATOM     21  C   UNL A   1      29.034  26.307  24.053  1.00  0.00     0.010 A 
ATOM     22  C   UNL A   1      30.787  27.445  22.838  1.00  0.00     0.010 A 
ATOM     23  C   UNL A   1      28.139  27.322  23.704  1.00  0.00     0.001 A 
ATOM     24  C   UNL A   1      29.891  28.454  22.485  1.00  0.00     0.001 A 
ATOM     25  C   UNL A   1      28.569  28.396  22.924  1.00  0.00     0.000 A 
ENDBRANCH  13  20
ENDBRANCH   8   9
ENDBRANCH   6   8
ENDBRANCH   3   4
ENDBRANCH   2   3
ENDBRANCH   1   2
BRANCH   1  26
ATOM     26  C   UNL A   1      40.816  21.481  27.394  1.00  0.00     0.002 C 
BRANCH  26  27
ATOM     27  C   UNL A   1      41.959  20.481  27.173  1.00  0.00     0.021 C 
BRANCH  27  28
ATOM     28  C   UNL A   1      42.009  19.882  25.776  1.00  0.00     0.116 C 
BRANCH  28  29
ATOM     29  N   UNL A   1      43.372  19.616  25.309  1.00  0.00    -0.352 N 
ATOM     30  C   UNL A   1      44.332  20.532  24.907  1.00  0.00     0.251 C 
ATOM     31  H   UNL A   1      43.639  18.670  25.276  1.00  0.00     0.163 HD
ATOM     32  O   UNL A   1      45.267  20.206  24.197  1.00  0.00    -0.269 OA
BRANCH  30  33
ATOM     33  C   UNL A   1      44.203  21.924  25.376  1.00  0.00     0.039 A 
ATOM     34  C   UNL A   1      43.281  22.816  24.820  1.00  0.00     0.014 A 
ATOM     35  C   UNL A   1      45.024  22.314  26.427  1.00  0.00     0.014 A 
ATOM     36  C   UNL A   1      43.147  24.081  25.391  1.00  0.00     0.010 A 
ATOM     37  C   UNL A   1      44.751  23.467  27.108  1.00  0.00     0.010 A 
ATOM     38  C   UNL A   1      43.879  24.390  26.548  1.00  0.00    -0.014 A 
BRANCH  38  39
ATOM     39  C   UNL A   1      43.686  25.640  27.271  1.00  0.00     0.031 A 
ATOM     40  C   UNL A   1      44.649  26.710  26.902  1.00  0.00     0.074 A 
ATOM     41  C   UNL A   1      42.580  25.874  28.015  1.00  0.00     0.049 A 
ATOM     42  N   UNL A   1      45.547  27.256  27.651  1.00  0.00    -0.248 NA
ATOM     43  C   UNL A   1      44.719  27.129  25.491  1.00  0.00     0.031 C 
ATOM     44  C   UNL A   1      41.400  25.015  28.187  1.00  0.00     0.029 A 
ATOM     45  N   UNL A   1      42.223  26.996  28.697  1.00  0.00    -0.354 N 
ATOM     46  C   UNL A   1      46.159  28.232  26.868  1.00  0.00     0.074 A 
ATOM     47  C   UNL A   1      45.751  27.976  25.514  1.00  0.00     0.031 C 
ATOM     48  C   UNL A   1      40.383  25.734  28.711  1.00  0.00     0.029 A 
ATOM     49  C   UNL A   1      40.886  27.043  29.078  1.00  0.00     0.049 A 
ATOM     50  H   UNL A   1      42.860  27.717  28.903  1.00  0.00     0.167 HD
ATOM     51  C   UNL A   1      46.734  29.324  27.447  1.00  0.00     0.037 A 
ATOM     52  C   UNL A   1      40.238  28.097  29.635  1.00  0.00     0.037 A 
ATOM     53  C   UNL A   1      46.955  29.096  28.855  1.00  0.00     0.049 A 
ATOM     54  C   UNL A   1      41.275  29.005  30.181  1.00  0.00     0.074 A 
ATOM     55  C   UNL A   1      47.689  28.187  29.591  1.00  0.00     0.029 A 
ATOM     56  N   UNL A   1      46.050  29.640  29.732  1.00  0.00    -0.354 N 
ATOM     57  N   UNL A   1      42.047  28.701  31.187  1.00  0.00    -0.248 NA
ATOM     58  C   UNL A   1      41.773  30.054  29.304  1.00  0.00     0.031 C 
ATOM     59  C   UNL A   1      46.873  27.884  30.723  1.00  0.00     0.029 A 
ATOM     60  C   UNL A   1      45.730  28.681  30.657  1.00  0.00     0.049 A 
ATOM     61  H   UNL A   1      45.693  30.557  29.703  1.00  0.00     0.167 HD
ATOM     62  C   UNL A   1      43.297  29.184  30.829  1.00  0.00     0.074 A 
ATOM     63  C   UNL A   1      43.049  30.080  29.701  1.00  0.00     0.031 C 
ATOM     64  C   UNL A   1      44.433  28.581  31.286  1.00  0.00     0.037 A 
BRANCH  51  65
ATOM     65  C   UNL A   1      46.714  30.719  26.863  1.00  0.00     0.064 A 
ATOM     66  C   UNL A   1      47.903  31.479  26.881  1.00  0.00     0.173 A 
ATOM     67  C   UNL A   1      45.538  31.450  26.585  1.00  0.00     0.173 A 
ATOM     68  F   UNL A   1      49.084  30.895  27.139  1.00  0.00    -0.203 F 
ATOM     69  C   UNL A   1      47.897  32.869  26.741  1.00  0.00     0.198 A 
ATOM     70  C   UNL A   1      45.543  32.832  26.393  1.00  0.00     0.198 A 
ATOM     71  F   UNL A   1      44.323  30.892  26.599  1.00  0.00    -0.203 F 
ATOM     72  F   UNL A   1      49.033  33.559  26.911  1.00  0.00    -0.200 F 
ATOM     73  C   UNL A   1      46.716  33.546  26.508  1.00  0.00     0.200 A 
ATOM     74  F   UNL A   1      44.384  33.469  26.183  1.00  0.00    -0.200 F 
ATOM     75  F   UNL A   1      46.695  34.883  26.445  1.00  0.00    -0.200 F 
ENDBRANCH  51  65
BRANCH  52  76
ATOM     76  C   UNL A   1      38.831  28.527  29.450  1.00  0.00     0.064 A 
ATOM     77  C   UNL A   1      37.989  28.748  30.554  1.00  0.00     0.173 A 
ATOM     78  C   UNL A   1      38.374  29.014  28.210  1.00  0.00     0.173 A 
ATOM     79  F   UNL A   1      38.368  28.358  31.780  1.00  0.00    -0.203 F 
ATOM     80  C   UNL A   1      36.779  29.441  30.429  1.00  0.00     0.198 A 
ATOM     81  C   UNL A   1      37.165  29.701  28.086  1.00  0.00     0.198 A 
ATOM     82  F   UNL A   1      39.139  28.919  27.113  1.00  0.00    -0.203 F 
ATOM     83  F   UNL A   1      36.034  29.689  31.516  1.00  0.00    -0.200 F 
ATOM     84  C   UNL A   1      36.374  29.927  29.197  1.00  0.00     0.200 A 
ATOM     85  F   UNL A   1      36.804  30.201  26.896  1.00  0.00    -0.200 F 
ATOM     86  F   UNL A   1      35.249  30.648  29.089  1.00  0.00    -0.200 F 
ENDBRANCH  52  76
BRANCH  64  87
ATOM     87  C   UNL A   1      44.296  27.575  32.396  1.00  0.00     0.064 A 
ATOM     88  C   UNL A   1      44.173  26.187  32.202  1.00  0.00     0.173 A 
ATOM     89  C   UNL A   1      44.437  28.028  33.713  1.00  0.00     0.173 A 
ATOM     90  F   UNL A   1      44.129  25.662  30.972  1.00  0.00    -0.203 F 
ATOM     91  C   UNL A   1      44.154  25.303  33.281  1.00  0.00     0.198 A 
ATOM     92  C   UNL A   1      44.455  27.142  34.787  1.00  0.00     0.198 A 
ATOM     93  F   UNL A   1      44.609  29.336  33.958  1.00  0.00    -0.203 F 
ATOM     94  F   UNL A   1      44.025  23.985  33.070  1.00  0.00    -0.200 F 
ATOM     95  C   UNL A   1      44.302  25.782  34.572  1.00  0.00     0.200 A 
ATOM     96  F   UNL A   1      44.647  27.605  36.029  1.00  0.00    -0.200 F 
ATOM     97  F   UNL A   1      44.326  24.931  35.608  1.00  0.00    -0.200 F 
ENDBRANCH  64  87
ENDBRANCH  38  39
ENDBRANCH  30  33
ENDBRANCH  28  29
ENDBRANCH  27  28
ENDBRANCH  26  27
ENDBRANCH   1  26
TORSDOF 16
ENDMDL
MODEL 2
REMARK VINA RESULT:     -12.2      2.179      3.179
REMARK SMILES O=C(Cn1cnc(-c2ccccc2)c1-c1ccccc1)NCCCCCCNC(=O)c1ccc(-c2c3nc(c(-c4c(F)c(F)c(F)c(F)c4F)c4ccc([nH]4)c(-c4c(F)c(F)c(F)c(F)c4F)c4nc(c(-c5c(F)c(F)c(F)c(F)c5F)c5ccc2[nH]5)C=C4)C=C3)cc1
REMARK SMILES IDX 24 1 23 2 22 3 21 4 1 5 2 6 3 8 4 9 5 10 14 11 6 12 7 13
REMARK SMILES IDX 15 14 16 15 20 16 17 17 19 18 18 19 8 20 9 21 13 22 10 23
REMARK SMILES IDX 12 24 11 25 25 26 26 27 27 28 28 29 29 30 30 32 31 33 32 34
REMARK SMILES IDX 93 35 33 36 92 37 34 38 35 39 36 40 86 41 37 42 91 43 85 44
REMARK SMILES IDX 87 45 38 46 90 47 84 48 83 49 39 51 71 52 51 53 70 54 52 55
REMARK SMILES IDX 55 56 69 57 88 58 53 59 54 60 68 62 89 63 56 64 40 65 41 66
REMARK SMILES IDX 49 67 42 68 43 69 47 70 50 71 44 72 45 73 48 74 46 75 72 76
REMARK SMILES IDX 73 77 81 78 74 79 75 80 79 81 82 82 76 83 77 84 80 85 78 86
REMARK SMILES IDX 57 87 58 88 66 89 59 90 60 91 64 92 67 93 61 94 62 95 65 96
REMARK SMILES IDX 63 97
REMARK H PARENT 21 7 28 31 87 50 55 61
REMARK Flexibility Score: inf
ROOT
ATOM      1  C   UNL A   1      36.943  22.720  24.672  1.00  0.00     0.002 C 
ENDROOT
BRANCH   1   2
ATOM      2  C   UNL A   1      35.786  21.720  24.787  1.00  0.00     0.021 C 
BRANCH   2   3
ATOM      3  C   UNL A   1      34.500  22.148  24.085  1.00  0.00     0.116 C 
BRANCH   3   4
ATOM      4  N   UNL A   1      34.523  23.543  23.688  1.00  0.00    -0.355 N 
ATOM      5  O   UNL A   1      32.709  24.153  24.941  1.00  0.00    -0.273 OA
ATOM      6  C   UNL A   1      33.645  24.471  24.210  1.00  0.00     0.239 C 
ATOM      7  H   UNL A   1      35.187  23.837  23.023  1.00  0.00     0.163 HD
BRANCH   6   8
ATOM      8  C   UNL A   1      33.839  25.907  23.766  1.00  0.00     0.223 C 
BRANCH   8   9
ATOM      9  N   UNL A   1      32.681  26.505  23.121  1.00  0.00    -0.321 N 
ATOM     10  C   UNL A   1      32.153  26.059  21.938  1.00  0.00     0.201 A 
ATOM     11  C   UNL A   1      31.869  27.516  23.594  1.00  0.00     0.076 A 
ATOM     12  N   UNL A   1      31.064  26.714  21.613  1.00  0.00    -0.236 NA
ATOM     13  C   UNL A   1      30.877  27.621  22.626  1.00  0.00     0.096 A 
BRANCH  11  14
ATOM     14  C   UNL A   1      32.018  28.231  24.861  1.00  0.00     0.000 A 
ATOM     15  C   UNL A   1      32.826  29.373  24.926  1.00  0.00     0.010 A 
ATOM     16  C   UNL A   1      31.457  27.733  26.041  1.00  0.00     0.010 A 
ATOM     17  C   UNL A   1      33.057  30.010  26.148  1.00  0.00     0.001 A 
ATOM     18  C   UNL A   1      31.670  28.382  27.259  1.00  0.00     0.001 A 
ATOM     19  C   UNL A   1      32.473  29.517  27.312  1.00  0.00     0.000 A 
ENDBRANCH  11  14
BRANCH  13  20
ATOM     20  C   UNL A   1      29.755  28.539  22.677  1.00  0.00     0.002 A 
ATOM     21  C   UNL A   1      29.917  29.865  22.262  1.00  0.00     0.010 A 
ATOM     22  C   UNL A   1      28.491  28.097  23.089  1.00  0.00     0.010 A 
ATOM     23  C   UNL A   1      28.819  30.728  22.228  1.00  0.00     0.001 A 
ATOM     24  C   UNL A   1      27.397  28.961  23.060  1.00  0.00     0.001 A 
ATOM     25  C   UNL A   1      27.560  30.275  22.622  1.00  0.00     0.000 A 
ENDBRANCH  13  20
ENDBRANCH   8   9
ENDBRANCH   6   8
ENDBRANCH   3   4
ENDBRANCH   2   3
ENDBRANCH   1   2
BRANCH   1  26
ATOM     26  C   UNL A   1      38.022  22.644  25.764  1.00  0.00     0.002 C 
BRANCH  26  27
ATOM     27  C   UNL A   1      38.937  21.412  25.750  1.00  0.00     0.021 C 
BRANCH  27  28
ATOM     28  C   UNL A   1      40.124  21.500  26.696  1.00  0.00     0.116 C 
BRANCH  28  29
ATOM     29  N   UNL A   1      41.413  21.574  26.004  1.00  0.00    -0.352 N 
ATOM     30  C   UNL A   1      42.200  22.693  25.781  1.00  0.00     0.251 C 
ATOM     31  H   UNL A   1      41.763  20.724  25.655  1.00  0.00     0.163 HD
ATOM     32  O   UNL A   1      43.036  22.718  24.895  1.00  0.00    -0.269 OA
BRANCH  30  33
ATOM     33  C   UNL A   1      42.012  23.862  26.660  1.00  0.00     0.039 A 
ATOM     34  C   UNL A   1      42.625  23.959  27.913  1.00  0.00     0.014 A 
ATOM     35  C   UNL A   1      41.213  24.892  26.179  1.00  0.00     0.014 A 
ATOM     36  C   UNL A   1      42.483  25.141  28.637  1.00  0.00     0.010 A 
ATOM     37  C   UNL A   1      41.243  26.114  26.789  1.00  0.00     0.010 A 
ATOM     38  C   UNL A   1      41.801  26.221  28.055  1.00  0.00    -0.014 A 
BRANCH  38  39
ATOM     39  C   UNL A   1      41.733  27.527  28.699  1.00  0.00     0.031 A 
ATOM     40  C   UNL A   1      42.836  28.449  28.321  1.00  0.00     0.074 A 
ATOM     41  C   UNL A   1      40.633  27.938  29.371  1.00  0.00     0.049 A 
ATOM     42  N   UNL A   1      43.761  28.926  29.084  1.00  0.00    -0.248 NA
ATOM     43  C   UNL A   1      43.019  28.770  26.894  1.00  0.00     0.031 C 
ATOM     44  C   UNL A   1      39.349  27.240  29.530  1.00  0.00     0.029 A 
ATOM     45  N   UNL A   1      40.388  29.134  29.971  1.00  0.00    -0.354 N 
ATOM     46  C   UNL A   1      44.523  29.772  28.281  1.00  0.00     0.074 A 
ATOM     47  C   UNL A   1      44.146  29.486  26.923  1.00  0.00     0.031 C 
ATOM     48  C   UNL A   1      38.407  28.107  29.961  1.00  0.00     0.029 A 
ATOM     49  C   UNL A   1      39.051  29.365  30.281  1.00  0.00     0.049 A 
ATOM     50  H   UNL A   1      41.100  29.783  30.171  1.00  0.00     0.167 HD
ATOM     51  C   UNL A   1      45.203  30.820  28.827  1.00  0.00     0.037 A 
ATOM     52  C   UNL A   1      38.515  30.521  30.746  1.00  0.00     0.037 A 
ATOM     53  C   UNL A   1      45.331  30.652  30.255  1.00  0.00     0.049 A 
ATOM     54  C   UNL A   1      39.632  31.329  31.294  1.00  0.00     0.074 A 
ATOM     55  C   UNL A   1      45.914  29.707  31.076  1.00  0.00     0.029 A 
ATOM     56  N   UNL A   1      44.463  31.353  31.054  1.00  0.00    -0.354 N 
ATOM     57  N   UNL A   1      40.315  30.994  32.353  1.00  0.00    -0.248 NA
ATOM     58  C   UNL A   1      40.293  32.254  30.387  1.00  0.00     0.031 C 
ATOM     59  C   UNL A   1      45.019  29.574  32.179  1.00  0.00     0.029 A 
ATOM     60  C   UNL A   1      43.987  30.498  32.013  1.00  0.00     0.049 A 
ATOM     61  H   UNL A   1      44.224  32.303  30.957  1.00  0.00     0.167 HD
ATOM     62  C   UNL A   1      41.629  31.300  32.033  1.00  0.00     0.074 A 
ATOM     63  C   UNL A   1      41.543  32.150  30.847  1.00  0.00     0.031 C 
ATOM     64  C   UNL A   1      42.661  30.593  32.579  1.00  0.00     0.037 A 
BRANCH  51  65
ATOM     65  C   UNL A   1      45.381  32.169  28.167  1.00  0.00     0.064 A 
ATOM     66  C   UNL A   1      44.232  32.922  27.845  1.00  0.00     0.173 A 
ATOM     67  C   UNL A   1      46.577  32.607  27.558  1.00  0.00     0.173 A 
ATOM     68  F   UNL A   1      43.035  32.598  28.360  1.00  0.00    -0.203 F 
ATOM     69  C   UNL A   1      44.262  33.957  26.907  1.00  0.00     0.198 A 
ATOM     70  C   UNL A   1      46.613  33.675  26.662  1.00  0.00     0.198 A 
ATOM     71  F   UNL A   1      47.738  31.962  27.705  1.00  0.00    -0.203 F 
ATOM     72  F   UNL A   1      43.119  34.544  26.528  1.00  0.00    -0.200 F 
ATOM     73  C   UNL A   1      45.451  34.326  26.308  1.00  0.00     0.200 A 
ATOM     74  F   UNL A   1      47.774  34.007  26.082  1.00  0.00    -0.200 F 
ATOM     75  F   UNL A   1      45.473  35.268  25.357  1.00  0.00    -0.200 F 
ENDBRANCH  51  65
BRANCH  52  76
ATOM     76  C   UNL A   1      37.181  31.106  30.467  1.00  0.00     0.064 A 
ATOM     77  C   UNL A   1      36.309  31.457  31.513  1.00  0.00     0.173 A 
ATOM     78  C   UNL A   1      36.857  31.605  29.191  1.00  0.00     0.173 A 
ATOM     79  F   UNL A   1      36.570  31.063  32.768  1.00  0.00    -0.203 F 
ATOM     80  C   UNL A   1      35.199  32.281  31.298  1.00  0.00     0.198 A 
ATOM     81  C   UNL A   1      35.746  32.424  28.977  1.00  0.00     0.198 A 
ATOM     82  F   UNL A   1      37.667  31.389  28.144  1.00  0.00    -0.203 F 
ATOM     83  F   UNL A   1      34.428  32.647  32.332  1.00  0.00    -0.200 F 
ATOM     84  C   UNL A   1      34.925  32.774  30.034  1.00  0.00     0.200 A 
ATOM     85  F   UNL A   1      35.516  32.926  27.757  1.00  0.00    -0.200 F 
ATOM     86  F   UNL A   1      33.901  33.617  29.841  1.00  0.00    -0.200 F 
ENDBRANCH  52  76
BRANCH  64  87
ATOM     87  C   UNL A   1      42.353  29.680  33.735  1.00  0.00     0.064 A 
ATOM     88  C   UNL A   1      41.992  28.326  33.605  1.00  0.00     0.173 A 
ATOM     89  C   UNL A   1      42.569  30.164  35.030  1.00  0.00     0.173 A 
ATOM     90  F   UNL A   1      41.857  27.759  32.400  1.00  0.00    -0.203 F 
ATOM     91  C   UNL A   1      41.820  27.512  34.724  1.00  0.00     0.198 A 
ATOM     92  C   UNL A   1      42.434  29.341  36.144  1.00  0.00     0.198 A 
ATOM     93  F   UNL A   1      42.965  31.434  35.215  1.00  0.00    -0.203 F 
ATOM     94  F   UNL A   1      41.465  26.227  34.574  1.00  0.00    -0.200 F 
ATOM     95  C   UNL A   1      42.049  28.019  35.992  1.00  0.00     0.200 A 
ATOM     96  F   UNL A   1      42.704  29.823  37.364  1.00  0.00    -0.200 F 
ATOM     97  F   UNL A   1      41.925  27.227  37.067  1.00  0.00    -0.200 F 
ENDBRANCH  64  87
ENDBRANCH  38  39
ENDBRANCH  30  33
ENDBRANCH  28  29
ENDBRANCH  27  28
ENDBRANCH  26  27
ENDBRANCH   1  26
TORSDOF 16
ENDMDL
MODEL 3
REMARK VINA RESULT:     -12.2      3.785      9.468
REMARK SMILES O=C(Cn1cnc(-c2ccccc2)c1-c1ccccc1)NCCCCCCNC(=O)c1ccc(-c2c3nc(c(-c4c(F)c(F)c(F)c(F)c4F)c4ccc([nH]4)c(-c4c(F)c(F)c(F)c(F)c4F)c4nc(c(-c5c(F)c(F)c(F)c(F)c5F)c5ccc2[nH]5)C=C4)C=C3)cc1
REMARK SMILES IDX 24 1 23 2 22 3 21 4 1 5 2 6 3 8 4 9 5 10 14 11 6 12 7 13
REMARK SMILES IDX 15 14 16 15 20 16 17 17 19 18 18 19 8 20 9 21 13 22 10 23
REMARK SMILES IDX 12 24 11 25 25 26 26 27 27 28 28 29 29 30 30 32 31 33 32 34
REMARK SMILES IDX 93 35 33 36 92 37 34 38 35 39 36 40 86 41 37 42 91 43 85 44
REMARK SMILES IDX 87 45 38 46 90 47 84 48 83 49 39 51 71 52 51 53 70 54 52 55
REMARK SMILES IDX 55 56 69 57 88 58 53 59 54 60 68 62 89 63 56 64 40 65 41 66
REMARK SMILES IDX 49 67 42 68 43 69 47 70 50 71 44 72 45 73 48 74 46 75 72 76
REMARK SMILES IDX 73 77 81 78 74 79 75 80 79 81 82 82 76 83 77 84 80 85 78 86
REMARK SMILES IDX 57 87 58 88 66 89 59 90 60 91 64 92 67 93 61 94 62 95 65 96
REMARK SMILES IDX 63 97
REMARK H PARENT 21 7 28 31 87 50 55 61
REMARK Flexibility Score: inf
ROOT
ATOM      1  C   UNL A   1      34.194  31.787  28.443  1.00  0.00     0.002 C 
ENDROOT
BRANCH   1   2
ATOM      2  C   UNL A   1      34.476  30.741  27.357  1.00  0.00     0.021 C 
BRANCH   2   3
ATOM      3  C   UNL A   1      33.250  30.301  26.562  1.00  0.00     0.116 C 
BRANCH   3   4
ATOM      4  N   UNL A   1      33.583  29.374  25.498  1.00  0.00    -0.355 N 
ATOM      5  O   UNL A   1      33.273  27.486  26.752  1.00  0.00    -0.273 OA
ATOM      6  C   UNL A   1      33.503  28.006  25.662  1.00  0.00     0.239 C 
ATOM      7  H   UNL A   1      33.876  29.733  24.629  1.00  0.00     0.163 HD
BRANCH   6   8
ATOM      8  C   UNL A   1      33.800  27.162  24.439  1.00  0.00     0.223 C 
BRANCH   8   9
ATOM      9  N   UNL A   1      33.001  25.951  24.329  1.00  0.00    -0.321 N 
ATOM     10  C   UNL A   1      31.649  25.948  24.106  1.00  0.00     0.201 A 
ATOM     11  C   UNL A   1      33.435  24.641  24.323  1.00  0.00     0.076 A 
ATOM     12  N   UNL A   1      31.181  24.730  23.966  1.00  0.00    -0.236 NA
ATOM     13  C   UNL A   1      32.274  23.910  24.101  1.00  0.00     0.096 A 
BRANCH  11  14
ATOM     14  C   UNL A   1      34.817  24.182  24.455  1.00  0.00     0.000 A 
ATOM     15  C   UNL A   1      35.450  23.554  23.374  1.00  0.00     0.010 A 
ATOM     16  C   UNL A   1      35.490  24.259  25.679  1.00  0.00     0.010 A 
ATOM     17  C   UNL A   1      36.735  23.023  23.515  1.00  0.00     0.001 A 
ATOM     18  C   UNL A   1      36.782  23.749  25.813  1.00  0.00     0.001 A 
ATOM     19  C   UNL A   1      37.403  23.128  24.733  1.00  0.00     0.000 A 
ENDBRANCH  11  14
BRANCH  13  20
ATOM     20  C   UNL A   1      32.205  22.466  23.983  1.00  0.00     0.002 A 
ATOM     21  C   UNL A   1      32.157  21.869  22.719  1.00  0.00     0.010 A 
ATOM     22  C   UNL A   1      32.241  21.656  25.125  1.00  0.00     0.010 A 
ATOM     23  C   UNL A   1      32.179  20.477  22.599  1.00  0.00     0.001 A 
ATOM     24  C   UNL A   1      32.257  20.266  25.004  1.00  0.00     0.001 A 
ATOM     25  C   UNL A   1      32.233  19.678  23.741  1.00  0.00     0.000 A 
ENDBRANCH  13  20
ENDBRANCH   8   9
ENDBRANCH   6   8
ENDBRANCH   3   4
ENDBRANCH   2   3
ENDBRANCH   1   2
BRANCH   1  26
ATOM     26  C   UNL A   1      34.275  33.259  28.012  1.00  0.00     0.002 C 
BRANCH  26  27
ATOM     27  C   UNL A   1      33.213  34.209  28.584  1.00  0.00     0.021 C 
BRANCH  27  28
ATOM     28  C   UNL A   1      33.778  35.443  29.269  1.00  0.00     0.116 C 
BRANCH  28  29
ATOM     29  N   UNL A   1      33.205  35.682  30.596  1.00  0.00    -0.352 N 
ATOM     30  C   UNL A   1      33.401  34.949  31.756  1.00  0.00     0.251 C 
ATOM     31  H   UNL A   1      32.609  36.461  30.673  1.00  0.00     0.163 HD
ATOM     32  O   UNL A   1      32.610  34.997  32.681  1.00  0.00    -0.269 OA
BRANCH  30  33
ATOM     33  C   UNL A   1      34.610  34.109  31.852  1.00  0.00     0.039 A 
ATOM     34  C   UNL A   1      34.549  32.713  31.852  1.00  0.00     0.014 A 
ATOM     35  C   UNL A   1      35.831  34.768  31.914  1.00  0.00     0.014 A 
ATOM     36  C   UNL A   1      35.742  31.993  31.837  1.00  0.00     0.010 A 
ATOM     37  C   UNL A   1      36.987  34.072  31.694  1.00  0.00     0.010 A 
ATOM     38  C   UNL A   1      36.959  32.686  31.742  1.00  0.00    -0.014 A 
BRANCH  38  39
ATOM     39  C   UNL A   1      38.231  31.993  31.586  1.00  0.00     0.031 A 
ATOM     40  C   UNL A   1      38.944  31.738  32.865  1.00  0.00     0.074 A 
ATOM     41  C   UNL A   1      38.596  31.419  30.418  1.00  0.00     0.049 A 
ATOM     42  N   UNL A   1      40.080  32.221  33.246  1.00  0.00    -0.248 NA
ATOM     43  C   UNL A   1      38.249  30.964  33.909  1.00  0.00     0.031 C 
ATOM     44  C   UNL A   1      37.822  31.319  29.172  1.00  0.00     0.029 A 
ATOM     45  N   UNL A   1      39.709  30.693  30.125  1.00  0.00    -0.354 N 
ATOM     46  C   UNL A   1      40.342  31.651  34.489  1.00  0.00     0.074 A 
ATOM     47  C   UNL A   1      39.110  31.052  34.926  1.00  0.00     0.031 C 
ATOM     48  C   UNL A   1      38.375  30.389  28.362  1.00  0.00     0.029 A 
ATOM     49  C   UNL A   1      39.632  29.961  28.944  1.00  0.00     0.049 A 
ATOM     50  H   UNL A   1      40.505  30.687  30.703  1.00  0.00     0.167 HD
ATOM     51  C   UNL A   1      41.625  31.495  34.923  1.00  0.00     0.037 A 
ATOM     52  C   UNL A   1      40.531  29.050  28.494  1.00  0.00     0.037 A 
ATOM     53  C   UNL A   1      42.525  32.323  34.155  1.00  0.00     0.049 A 
ATOM     54  C   UNL A   1      41.801  29.299  29.220  1.00  0.00     0.074 A 
ATOM     55  C   UNL A   1      42.651  33.680  33.935  1.00  0.00     0.029 A 
ATOM     56  N   UNL A   1      43.242  31.716  33.154  1.00  0.00    -0.354 N 
ATOM     57  N   UNL A   1      42.523  30.374  29.067  1.00  0.00    -0.248 NA
ATOM     58  C   UNL A   1      42.013  28.572  30.462  1.00  0.00     0.031 C 
ATOM     59  C   UNL A   1      43.016  33.799  32.560  1.00  0.00     0.029 A 
ATOM     60  C   UNL A   1      43.172  32.513  32.042  1.00  0.00     0.049 A 
ATOM     61  H   UNL A   1      43.722  30.860  33.222  1.00  0.00     0.167 HD
ATOM     62  C   UNL A   1      42.939  30.701  30.349  1.00  0.00     0.074 A 
ATOM     63  C   UNL A   1      42.666  29.511  31.152  1.00  0.00     0.031 C 
ATOM     64  C   UNL A   1      43.183  32.000  30.692  1.00  0.00     0.037 A 
BRANCH  51  65
ATOM     65  C   UNL A   1      42.124  30.317  35.730  1.00  0.00     0.064 A 
ATOM     66  C   UNL A   1      43.044  30.553  36.773  1.00  0.00     0.173 A 
ATOM     67  C   UNL A   1      41.997  28.968  35.334  1.00  0.00     0.173 A 
ATOM     68  F   UNL A   1      43.255  31.797  37.232  1.00  0.00    -0.203 F 
ATOM     69  C   UNL A   1      43.847  29.536  37.298  1.00  0.00     0.198 A 
ATOM     70  C   UNL A   1      42.762  27.947  35.898  1.00  0.00     0.198 A 
ATOM     71  F   UNL A   1      41.220  28.587  34.315  1.00  0.00    -0.203 F 
ATOM     72  F   UNL A   1      44.806  29.837  38.184  1.00  0.00    -0.200 F 
ATOM     73  C   UNL A   1      43.713  28.236  36.852  1.00  0.00     0.200 A 
ATOM     74  F   UNL A   1      42.626  26.695  35.440  1.00  0.00    -0.200 F 
ATOM     75  F   UNL A   1      44.527  27.273  37.300  1.00  0.00    -0.200 F 
ENDBRANCH  51  65
BRANCH  52  76
ATOM     76  C   UNL A   1      40.289  27.801  27.734  1.00  0.00     0.064 A 
ATOM     77  C   UNL A   1      41.030  27.500  26.577  1.00  0.00     0.173 A 
ATOM     78  C   UNL A   1      39.540  26.744  28.287  1.00  0.00     0.173 A 
ATOM     79  F   UNL A   1      41.806  28.436  26.012  1.00  0.00    -0.203 F 
ATOM     80  C   UNL A   1      41.043  26.213  26.027  1.00  0.00     0.198 A 
ATOM     81  C   UNL A   1      39.551  25.462  27.736  1.00  0.00     0.198 A 
ATOM     82  F   UNL A   1      38.861  26.911  29.432  1.00  0.00    -0.203 F 
ATOM     83  F   UNL A   1      41.813  25.949  24.962  1.00  0.00    -0.200 F 
ATOM     84  C   UNL A   1      40.314  25.192  26.614  1.00  0.00     0.200 A 
ATOM     85  F   UNL A   1      38.873  24.474  28.336  1.00  0.00    -0.200 F 
ATOM     86  F   UNL A   1      40.380  23.945  26.127  1.00  0.00    -0.200 F 
ENDBRANCH  52  76
BRANCH  64  87
ATOM     87  C   UNL A   1      43.264  33.015  29.584  1.00  0.00     0.064 A 
ATOM     88  C   UNL A   1      42.221  33.890  29.229  1.00  0.00     0.173 A 
ATOM     89  C   UNL A   1      44.499  33.200  28.951  1.00  0.00     0.173 A 
ATOM     90  F   UNL A   1      41.037  33.843  29.851  1.00  0.00    -0.203 F 
ATOM     91  C   UNL A   1      42.401  34.875  28.258  1.00  0.00     0.198 A 
ATOM     92  C   UNL A   1      44.688  34.208  28.011  1.00  0.00     0.198 A 
ATOM     93  F   UNL A   1      45.546  32.429  29.285  1.00  0.00    -0.203 F 
ATOM     94  F   UNL A   1      41.388  35.690  27.930  1.00  0.00    -0.200 F 
ATOM     95  C   UNL A   1      43.637  35.038  27.656  1.00  0.00     0.200 A 
ATOM     96  F   UNL A   1      45.899  34.391  27.467  1.00  0.00    -0.200 F 
ATOM     97  F   UNL A   1      43.824  36.011  26.753  1.00  0.00    -0.200 F 
ENDBRANCH  64  87
ENDBRANCH  38  39
ENDBRANCH  30  33
ENDBRANCH  28  29
ENDBRANCH  27  28
ENDBRANCH  26  27
ENDBRANCH   1  26
TORSDOF 16
ENDMDL
