MODEL 1
REMARK VINA RESULT:     -14.4      0.000      0.000
REMARK SMILES Cc1cccc(-c2ncc(C[NH+]3CCC4(CC3)NC(=O)C[C@H]4C(=O)NCCCCCCNC(=O)c3ccc(-c4c5nc(c(-c6c(F)c(F)c(F)c(F)c6F)c6ccc([nH]6)c(-c6c(F)c(F)c(F)c(F)c6F)c6nc(c(-c7c(F)c(F)c(F)c(F)c7F)c7ccc4[nH]7)C=C6)C=C5)cc3)cn2)c1
REMARK SMILES IDX 28 1 27 2 26 3 25 4 23 5 24 6 22 8 12 9 13 10 17 11 14 13
REMARK SMILES IDX 16 14 15 15 18 16 19 17 21 19 20 20 11 21 10 22 7 23 8 24
REMARK SMILES IDX 99 25 9 26 98 27 6 28 1 29 2 30 3 31 100 32 4 33 5 34 29 35
REMARK SMILES IDX 30 36 31 37 32 38 33 39 34 41 35 42 36 43 97 44 37 45 96 46
REMARK SMILES IDX 38 47 39 48 40 49 90 50 41 51 95 52 89 53 91 54 42 55 94 56
REMARK SMILES IDX 88 57 87 58 43 60 75 61 55 62 74 63 56 64 59 65 73 66 92 67
REMARK SMILES IDX 57 68 58 69 72 71 93 72 60 73 44 74 45 75 53 76 46 77 47 78
REMARK SMILES IDX 51 79 54 80 48 81 49 82 52 83 50 84 76 85 77 86 85 87 78 88
REMARK SMILES IDX 79 89 83 90 86 91 80 92 81 93 84 94 82 95 61 96 62 97 70 98
REMARK SMILES IDX 63 99 64 100 68 101 71 102 65 103 66 104 69 105 67 106
REMARK H PARENT 25 7 12 12 18 18 32 40 91 59 59 70
REMARK Flexibility Score: inf
ROOT
ATOM      1  C   UNL A   1      33.366  26.989  24.416  1.00  0.00     0.002 C 
ENDROOT
BRANCH   1   2
ATOM      2  C   UNL A   1      33.653  26.476  23.007  1.00  0.00     0.021 C 
BRANCH   2   3
ATOM      3  C   UNL A   1      33.413  24.970  22.777  1.00  0.00     0.116 C 
BRANCH   3   4
ATOM      4  N   UNL A   1      32.515  24.332  23.737  1.00  0.00    -0.356 N 
ATOM      5  C   UNL A   1      32.473  23.096  24.319  1.00  0.00     0.226 C 
ATOM      6  O   UNL A   1      31.509  22.878  25.062  1.00  0.00    -0.275 OA
ATOM      7  H   UNL A   1      31.779  24.919  24.026  1.00  0.00     0.163 HD
BRANCH   5   8
ATOM      8  C   UNL A   1      33.511  21.968  24.108  1.00  0.00     0.114 C 
ATOM      9  N   UNL A   1      37.124  23.496  25.475  1.00  0.00    -0.331 N 
ATOM     10  C   UNL A   1      37.141  22.396  24.518  1.00  0.00     0.264 C 
ATOM     11  C   UNL A   1      35.804  24.078  25.550  1.00  0.00     0.264 C 
ATOM     12  H   UNL A   1      37.769  24.169  25.062  1.00  0.00     0.348 HD
ATOM     13  C   UNL A   1      36.035  21.338  24.648  1.00  0.00     0.091 C 
ATOM     14  C   UNL A   1      34.770  23.070  26.010  1.00  0.00     0.091 C 
ATOM     15  C   UNL A   1      34.640  21.810  25.157  1.00  0.00     0.063 C 
ATOM     16  N   UNL A   1      34.150  20.668  25.923  1.00  0.00    -0.349 N 
ATOM     17  C   UNL A   1      33.156  19.936  25.308  1.00  0.00     0.221 C 
ATOM     18  H   UNL A   1      34.502  20.438  26.812  1.00  0.00     0.164 HD
ATOM     19  C   UNL A   1      32.789  20.619  24.024  1.00  0.00     0.116 C 
ATOM     20  O   UNL A   1      32.664  18.921  25.749  1.00  0.00    -0.275 OA
BRANCH   9  21
ATOM     21  C   UNL A   1      37.856  23.389  26.752  1.00  0.00     0.302 C 
BRANCH  21  22
ATOM     22  C   UNL A   1      39.304  22.979  26.693  1.00  0.00     0.043 A 
ATOM     23  C   UNL A   1      41.883  22.438  26.003  1.00  0.00     0.159 A 
ATOM     24  N   UNL A   1      41.598  23.667  26.480  1.00  0.00    -0.236 NA
ATOM     25  N   UNL A   1      41.001  21.422  25.938  1.00  0.00    -0.236 NA
ATOM     26  C   UNL A   1      40.323  23.890  26.857  1.00  0.00     0.124 A 
ATOM     27  C   UNL A   1      39.726  21.718  26.295  1.00  0.00     0.124 A 
BRANCH  23  28
ATOM     28  C   UNL A   1      43.213  22.249  25.408  1.00  0.00     0.019 A 
ATOM     29  C   UNL A   1      46.018  19.627  25.381  1.00  0.00     0.044 C 
ATOM     30  C   UNL A   1      45.230  20.871  25.085  1.00  0.00    -0.050 A 
ATOM     31  C   UNL A   1      45.707  21.802  24.161  1.00  0.00     0.003 A 
ATOM     32  C   UNL A   1      43.987  21.104  25.694  1.00  0.00     0.015 A 
ATOM     33  C   UNL A   1      44.969  22.952  23.876  1.00  0.00     0.001 A 
ATOM     34  C   UNL A   1      43.740  23.178  24.503  1.00  0.00     0.012 A 
ENDBRANCH  23  28
ENDBRANCH  21  22
ENDBRANCH   9  21
ENDBRANCH   5   8
ENDBRANCH   3   4
ENDBRANCH   2   3
ENDBRANCH   1   2
BRANCH   1  35
ATOM     35  C   UNL A   1      33.865  28.405  24.702  1.00  0.00     0.002 C 
BRANCH  35  36
ATOM     36  C   UNL A   1      32.868  29.317  25.413  1.00  0.00     0.021 C 
BRANCH  36  37
ATOM     37  C   UNL A   1      33.080  29.415  26.910  1.00  0.00     0.116 C 
BRANCH  37  38
ATOM     38  N   UNL A   1      33.056  30.789  27.385  1.00  0.00    -0.352 N 
ATOM     39  C   UNL A   1      34.034  31.556  27.979  1.00  0.00     0.251 C 
ATOM     40  H   UNL A   1      32.195  31.250  27.259  1.00  0.00     0.163 HD
ATOM     41  O   UNL A   1      33.714  32.610  28.519  1.00  0.00    -0.269 OA
BRANCH  39  42
ATOM     42  C   UNL A   1      35.470  31.244  27.772  1.00  0.00     0.039 A 
ATOM     43  C   UNL A   1      35.805  29.880  27.726  1.00  0.00     0.014 A 
ATOM     44  C   UNL A   1      36.450  32.188  28.037  1.00  0.00     0.014 A 
ATOM     45  C   UNL A   1      37.016  29.458  28.251  1.00  0.00     0.010 A 
ATOM     46  C   UNL A   1      37.553  31.780  28.727  1.00  0.00     0.010 A 
ATOM     47  C   UNL A   1      37.802  30.414  28.872  1.00  0.00    -0.014 A 
BRANCH  47  48
ATOM     48  C   UNL A   1      39.008  30.151  29.610  1.00  0.00     0.031 A 
ATOM     49  C   UNL A   1      39.699  28.893  29.288  1.00  0.00     0.074 A 
ATOM     50  C   UNL A   1      39.569  31.185  30.273  1.00  0.00     0.049 A 
ATOM     51  N   UNL A   1      40.689  28.428  29.950  1.00  0.00    -0.248 NA
ATOM     52  C   UNL A   1      39.295  28.022  28.184  1.00  0.00     0.031 C 
ATOM     53  C   UNL A   1      40.958  31.347  30.680  1.00  0.00     0.029 A 
ATOM     54  N   UNL A   1      38.909  32.278  30.862  1.00  0.00    -0.354 N 
ATOM     55  C   UNL A   1      41.247  27.409  29.209  1.00  0.00     0.074 A 
ATOM     56  C   UNL A   1      40.284  27.124  28.179  1.00  0.00     0.031 C 
ATOM     57  C   UNL A   1      41.016  32.244  31.679  1.00  0.00     0.029 A 
ATOM     58  C   UNL A   1      39.645  32.560  32.040  1.00  0.00     0.049 A 
ATOM     59  H   UNL A   1      38.110  32.746  30.529  1.00  0.00     0.167 HD
ATOM     60  C   UNL A   1      42.527  27.052  29.510  1.00  0.00     0.037 A 
ATOM     61  C   UNL A   1      39.093  32.323  33.269  1.00  0.00     0.037 A 
ATOM     62  C   UNL A   1      42.964  27.793  30.692  1.00  0.00     0.049 A 
ATOM     63  C   UNL A   1      39.841  31.261  34.040  1.00  0.00     0.074 A 
ATOM     64  C   UNL A   1      43.691  28.961  30.847  1.00  0.00     0.029 A 
ATOM     65  N   UNL A   1      42.312  27.564  31.897  1.00  0.00    -0.354 N 
ATOM     66  N   UNL A   1      40.530  30.306  33.475  1.00  0.00    -0.248 NA
ATOM     67  C   UNL A   1      39.925  31.226  35.496  1.00  0.00     0.031 C 
ATOM     68  C   UNL A   1      43.432  29.461  32.150  1.00  0.00     0.029 A 
ATOM     69  C   UNL A   1      42.565  28.587  32.786  1.00  0.00     0.049 A 
ATOM     70  H   UNL A   1      41.748  26.781  32.090  1.00  0.00     0.167 HD
ATOM     71  C   UNL A   1      41.173  29.573  34.441  1.00  0.00     0.074 A 
ATOM     72  C   UNL A   1      40.752  30.182  35.689  1.00  0.00     0.031 C 
ATOM     73  C   UNL A   1      42.019  28.543  34.133  1.00  0.00     0.037 A 
BRANCH  60  74
ATOM     74  C   UNL A   1      43.481  26.243  28.661  1.00  0.00     0.064 A 
ATOM     75  C   UNL A   1      43.859  24.945  29.083  1.00  0.00     0.173 A 
ATOM     76  C   UNL A   1      44.097  26.667  27.469  1.00  0.00     0.173 A 
ATOM     77  F   UNL A   1      43.326  24.377  30.173  1.00  0.00    -0.203 F 
ATOM     78  C   UNL A   1      44.805  24.173  28.405  1.00  0.00     0.198 A 
ATOM     79  C   UNL A   1      45.055  25.899  26.798  1.00  0.00     0.198 A 
ATOM     80  F   UNL A   1      43.782  27.820  26.877  1.00  0.00    -0.203 F 
ATOM     81  F   UNL A   1      45.126  22.958  28.871  1.00  0.00    -0.200 F 
ATOM     82  C   UNL A   1      45.413  24.654  27.267  1.00  0.00     0.200 A 
ATOM     83  F   UNL A   1      45.625  26.381  25.683  1.00  0.00    -0.200 F 
ATOM     84  F   UNL A   1      46.325  23.919  26.619  1.00  0.00    -0.200 F 
ENDBRANCH  60  74
BRANCH  61  85
ATOM     85  C   UNL A   1      37.618  32.555  33.259  1.00  0.00     0.064 A 
ATOM     86  C   UNL A   1      37.195  33.888  33.455  1.00  0.00     0.173 A 
ATOM     87  C   UNL A   1      36.753  31.700  32.565  1.00  0.00     0.173 A 
ATOM     88  F   UNL A   1      37.973  34.740  34.140  1.00  0.00    -0.203 F 
ATOM     89  C   UNL A   1      36.071  34.391  32.803  1.00  0.00     0.198 A 
ATOM     90  C   UNL A   1      35.605  32.203  31.943  1.00  0.00     0.198 A 
ATOM     91  F   UNL A   1      37.086  30.417  32.363  1.00  0.00    -0.203 F 
ATOM     92  F   UNL A   1      35.797  35.703  32.862  1.00  0.00    -0.200 F 
ATOM     93  C   UNL A   1      35.303  33.556  32.011  1.00  0.00     0.200 A 
ATOM     94  F   UNL A   1      34.845  31.395  31.191  1.00  0.00    -0.200 F 
ATOM     95  F   UNL A   1      34.297  34.062  31.282  1.00  0.00    -0.200 F 
ENDBRANCH  61  85
BRANCH  73  96
ATOM     96  C   UNL A   1      42.505  27.446  35.061  1.00  0.00     0.064 A 
ATOM     97  C   UNL A   1      41.821  26.241  35.282  1.00  0.00     0.173 A 
ATOM     98  C   UNL A   1      43.800  27.514  35.644  1.00  0.00     0.173 A 
ATOM     99  F   UNL A   1      40.650  25.978  34.691  1.00  0.00    -0.203 F 
ATOM    100  C   UNL A   1      42.354  25.221  36.076  1.00  0.00     0.198 A 
ATOM    101  C   UNL A   1      44.360  26.462  36.364  1.00  0.00     0.198 A 
ATOM    102  F   UNL A   1      44.589  28.589  35.509  1.00  0.00    -0.203 F 
ATOM    103  F   UNL A   1      41.631  24.114  36.301  1.00  0.00    -0.200 F 
ATOM    104  C   UNL A   1      43.628  25.323  36.602  1.00  0.00     0.200 A 
ATOM    105  F   UNL A   1      45.624  26.556  36.803  1.00  0.00    -0.200 F 
ATOM    106  F   UNL A   1      44.152  24.320  37.316  1.00  0.00    -0.200 F 
ENDBRANCH  73  96
ENDBRANCH  47  48
ENDBRANCH  39  42
ENDBRANCH  37  38
ENDBRANCH  36  37
ENDBRANCH  35  36
ENDBRANCH   1  35
TORSDOF 16
ENDMDL
MODEL 2
REMARK VINA RESULT:     -13.8      1.672      2.830
REMARK SMILES Cc1cccc(-c2ncc(C[NH+]3CCC4(CC3)NC(=O)C[C@H]4C(=O)NCCCCCCNC(=O)c3ccc(-c4c5nc(c(-c6c(F)c(F)c(F)c(F)c6F)c6ccc([nH]6)c(-c6c(F)c(F)c(F)c(F)c6F)c6nc(c(-c7c(F)c(F)c(F)c(F)c7F)c7ccc4[nH]7)C=C6)C=C5)cc3)cn2)c1
REMARK SMILES IDX 28 1 27 2 26 3 25 4 23 5 24 6 22 8 12 9 13 10 17 11 14 13
REMARK SMILES IDX 16 14 15 15 18 16 19 17 21 19 20 20 11 21 10 22 7 23 8 24
REMARK SMILES IDX 99 25 9 26 98 27 6 28 1 29 2 30 3 31 100 32 4 33 5 34 29 35
REMARK SMILES IDX 30 36 31 37 32 38 33 39 34 41 35 42 36 43 97 44 37 45 96 46
REMARK SMILES IDX 38 47 39 48 40 49 90 50 41 51 95 52 89 53 91 54 42 55 94 56
REMARK SMILES IDX 88 57 87 58 43 60 75 61 55 62 74 63 56 64 59 65 73 66 92 67
REMARK SMILES IDX 57 68 58 69 72 71 93 72 60 73 44 74 45 75 53 76 46 77 47 78
REMARK SMILES IDX 51 79 54 80 48 81 49 82 52 83 50 84 76 85 77 86 85 87 78 88
REMARK SMILES IDX 79 89 83 90 86 91 80 92 81 93 84 94 82 95 61 96 62 97 70 98
REMARK SMILES IDX 63 99 64 100 68 101 71 102 65 103 66 104 69 105 67 106
REMARK H PARENT 25 7 12 12 18 18 32 40 91 59 59 70
REMARK Flexibility Score: inf
ROOT
ATOM      1  C   UNL A   1      32.213  29.408  25.131  1.00  0.00     0.002 C 
ENDROOT
BRANCH   1   2
ATOM      2  C   UNL A   1      32.833  29.043  23.783  1.00  0.00     0.021 C 
BRANCH   2   3
ATOM      3  C   UNL A   1      33.577  27.694  23.728  1.00  0.00     0.116 C 
BRANCH   3   4
ATOM      4  N   UNL A   1      33.580  27.042  22.421  1.00  0.00    -0.356 N 
ATOM      5  C   UNL A   1      32.997  25.909  21.925  1.00  0.00     0.226 C 
ATOM      6  O   UNL A   1      33.273  25.623  20.754  1.00  0.00    -0.275 OA
ATOM      7  H   UNL A   1      34.122  27.520  21.752  1.00  0.00     0.163 HD
BRANCH   5   8
ATOM      8  C   UNL A   1      32.053  24.967  22.710  1.00  0.00     0.114 C 
ATOM      9  N   UNL A   1      34.447  21.854  24.065  1.00  0.00    -0.331 N 
ATOM     10  C   UNL A   1      33.012  21.634  23.935  1.00  0.00     0.264 C 
ATOM     11  C   UNL A   1      34.834  23.069  23.386  1.00  0.00     0.264 C 
ATOM     12  H   UNL A   1      34.847  21.052  23.578  1.00  0.00     0.348 HD
ATOM     13  C   UNL A   1      32.090  22.816  24.269  1.00  0.00     0.091 C 
ATOM     14  C   UNL A   1      34.142  24.284  23.971  1.00  0.00     0.091 C 
ATOM     15  C   UNL A   1      32.615  24.250  23.963  1.00  0.00     0.063 C 
ATOM     16  N   UNL A   1      32.035  25.063  25.029  1.00  0.00    -0.349 N 
ATOM     17  C   UNL A   1      30.987  25.871  24.644  1.00  0.00     0.221 C 
ATOM     18  H   UNL A   1      32.369  25.035  25.954  1.00  0.00     0.164 HD
ATOM     19  C   UNL A   1      30.812  25.745  23.159  1.00  0.00     0.116 C 
ATOM     20  O   UNL A   1      30.336  26.569  25.387  1.00  0.00    -0.275 OA
BRANCH   9  21
ATOM     21  C   UNL A   1      35.134  21.580  25.342  1.00  0.00     0.302 C 
BRANCH  21  22
ATOM     22  C   UNL A   1      36.596  21.930  25.437  1.00  0.00     0.043 A 
ATOM     23  C   UNL A   1      39.210  22.240  26.134  1.00  0.00     0.159 A 
ATOM     24  N   UNL A   1      38.871  21.153  25.413  1.00  0.00    -0.236 NA
ATOM     25  N   UNL A   1      38.365  23.241  26.450  1.00  0.00    -0.236 NA
ATOM     26  C   UNL A   1      37.579  21.051  25.042  1.00  0.00     0.124 A 
ATOM     27  C   UNL A   1      37.071  23.063  26.084  1.00  0.00     0.124 A 
BRANCH  23  28
ATOM     28  C   UNL A   1      40.563  22.261  26.709  1.00  0.00     0.019 A 
ATOM     29  C   UNL A   1      44.172  21.518  25.627  1.00  0.00     0.044 C 
ATOM     30  C   UNL A   1      42.992  21.927  26.462  1.00  0.00    -0.050 A 
ATOM     31  C   UNL A   1      43.183  22.430  27.749  1.00  0.00     0.003 A 
ATOM     32  C   UNL A   1      41.685  21.852  25.956  1.00  0.00     0.015 A 
ATOM     33  C   UNL A   1      42.088  22.823  28.521  1.00  0.00     0.001 A 
ATOM     34  C   UNL A   1      40.790  22.728  28.009  1.00  0.00     0.012 A 
ENDBRANCH  23  28
ENDBRANCH  21  22
ENDBRANCH   9  21
ENDBRANCH   5   8
ENDBRANCH   3   4
ENDBRANCH   2   3
ENDBRANCH   1   2
BRANCH   1  35
ATOM     35  C   UNL A   1      31.062  30.412  25.061  1.00  0.00     0.002 C 
BRANCH  35  36
ATOM     36  C   UNL A   1      31.152  31.576  26.045  1.00  0.00     0.021 C 
BRANCH  36  37
ATOM     37  C   UNL A   1      32.301  31.466  27.026  1.00  0.00     0.116 C 
BRANCH  37  38
ATOM     38  N   UNL A   1      32.601  32.734  27.672  1.00  0.00    -0.352 N 
ATOM     39  C   UNL A   1      33.731  33.165  28.331  1.00  0.00     0.251 C 
ATOM     40  H   UNL A   1      31.874  33.396  27.631  1.00  0.00     0.163 HD
ATOM     41  O   UNL A   1      33.669  34.186  29.010  1.00  0.00    -0.269 OA
BRANCH  39  42
ATOM     42  C   UNL A   1      35.053  32.555  28.045  1.00  0.00     0.039 A 
ATOM     43  C   UNL A   1      35.165  31.177  28.300  1.00  0.00     0.014 A 
ATOM     44  C   UNL A   1      36.195  33.336  27.954  1.00  0.00     0.014 A 
ATOM     45  C   UNL A   1      36.364  30.667  28.770  1.00  0.00     0.010 A 
ATOM     46  C   UNL A   1      37.316  32.896  28.593  1.00  0.00     0.010 A 
ATOM     47  C   UNL A   1      37.373  31.575  29.042  1.00  0.00    -0.014 A 
BRANCH  47  48
ATOM     48  C   UNL A   1      38.626  31.266  29.679  1.00  0.00     0.031 A 
ATOM     49  C   UNL A   1      39.424  30.204  29.047  1.00  0.00     0.074 A 
ATOM     50  C   UNL A   1      39.105  32.157  30.571  1.00  0.00     0.049 A 
ATOM     51  N   UNL A   1      40.478  29.696  29.563  1.00  0.00    -0.248 NA
ATOM     52  C   UNL A   1      39.068  29.594  27.766  1.00  0.00     0.031 C 
ATOM     53  C   UNL A   1      40.485  32.358  30.992  1.00  0.00     0.029 A 
ATOM     54  N   UNL A   1      38.363  32.997  31.421  1.00  0.00    -0.354 N 
ATOM     55  C   UNL A   1      41.107  28.953  28.587  1.00  0.00     0.074 A 
ATOM     56  C   UNL A   1      40.140  28.833  27.528  1.00  0.00     0.031 C 
ATOM     57  C   UNL A   1      40.491  32.982  32.182  1.00  0.00     0.029 A 
ATOM     58  C   UNL A   1      39.110  33.056  32.624  1.00  0.00     0.049 A 
ATOM     59  H   UNL A   1      37.511  33.448  31.222  1.00  0.00     0.167 HD
ATOM     60  C   UNL A   1      42.425  28.669  28.776  1.00  0.00     0.037 A 
ATOM     61  C   UNL A   1      38.628  32.468  33.761  1.00  0.00     0.037 A 
ATOM     62  C   UNL A   1      42.829  29.137  30.101  1.00  0.00     0.049 A 
ATOM     63  C   UNL A   1      39.503  31.332  34.236  1.00  0.00     0.074 A 
ATOM     64  C   UNL A   1      43.444  30.301  30.533  1.00  0.00     0.029 A 
ATOM     65  N   UNL A   1      42.247  28.553  31.218  1.00  0.00    -0.354 N 
ATOM     66  N   UNL A   1      40.262  30.623  33.445  1.00  0.00    -0.248 NA
ATOM     67  C   UNL A   1      39.642  30.950  35.637  1.00  0.00     0.031 C 
ATOM     68  C   UNL A   1      43.183  30.435  31.923  1.00  0.00     0.029 A 
ATOM     69  C   UNL A   1      42.429  29.346  32.331  1.00  0.00     0.049 A 
ATOM     70  H   UNL A   1      41.769  27.692  31.216  1.00  0.00     0.167 HD
ATOM     71  C   UNL A   1      41.008  29.745  34.193  1.00  0.00     0.074 A 
ATOM     72  C   UNL A   1      40.573  29.982  35.557  1.00  0.00     0.031 C 
ATOM     73  C   UNL A   1      41.939  28.916  33.630  1.00  0.00     0.037 A 
BRANCH  60  74
ATOM     74  C   UNL A   1      43.423  28.197  27.743  1.00  0.00     0.064 A 
ATOM     75  C   UNL A   1      43.499  26.819  27.427  1.00  0.00     0.173 A 
ATOM     76  C   UNL A   1      44.354  28.999  27.060  1.00  0.00     0.173 A 
ATOM     77  F   UNL A   1      42.650  25.928  27.958  1.00  0.00    -0.203 F 
ATOM     78  C   UNL A   1      44.455  26.292  26.556  1.00  0.00     0.198 A 
ATOM     79  C   UNL A   1      45.321  28.471  26.197  1.00  0.00     0.198 A 
ATOM     80  F   UNL A   1      44.358  30.330  27.163  1.00  0.00    -0.203 F 
ATOM     81  F   UNL A   1      44.478  24.974  26.316  1.00  0.00    -0.200 F 
ATOM     82  C   UNL A   1      45.374  27.117  25.947  1.00  0.00     0.200 A 
ATOM     83  F   UNL A   1      46.199  29.293  25.604  1.00  0.00    -0.200 F 
ATOM     84  F   UNL A   1      46.296  26.614  25.117  1.00  0.00    -0.200 F 
ENDBRANCH  60  74
BRANCH  61  85
ATOM     85  C   UNL A   1      37.137  32.541  33.825  1.00  0.00     0.064 A 
ATOM     86  C   UNL A   1      36.595  33.678  34.462  1.00  0.00     0.173 A 
ATOM     87  C   UNL A   1      36.338  31.892  32.876  1.00  0.00     0.173 A 
ATOM     88  F   UNL A   1      37.308  34.319  35.401  1.00  0.00    -0.203 F 
ATOM     89  C   UNL A   1      35.410  34.258  34.016  1.00  0.00     0.198 A 
ATOM     90  C   UNL A   1      35.129  32.459  32.458  1.00  0.00     0.198 A 
ATOM     91  F   UNL A   1      36.785  30.794  32.249  1.00  0.00    -0.203 F 
ATOM     92  F   UNL A   1      35.013  35.437  34.518  1.00  0.00    -0.200 F 
ATOM     93  C   UNL A   1      34.701  33.671  32.983  1.00  0.00     0.200 A 
ATOM     94  F   UNL A   1      34.427  31.884  31.471  1.00  0.00    -0.200 F 
ATOM     95  F   UNL A   1      33.631  34.292  32.467  1.00  0.00    -0.200 F 
ENDBRANCH  61  85
BRANCH  73  96
ATOM     96  C   UNL A   1      42.563  27.682  34.251  1.00  0.00     0.064 A 
ATOM     97  C   UNL A   1      43.909  27.589  34.637  1.00  0.00     0.173 A 
ATOM     98  C   UNL A   1      41.754  26.578  34.637  1.00  0.00     0.173 A 
ATOM     99  F   UNL A   1      44.763  28.604  34.461  1.00  0.00    -0.203 F 
ATOM    100  C   UNL A   1      44.417  26.462  35.290  1.00  0.00     0.198 A 
ATOM    101  C   UNL A   1      42.247  25.496  35.360  1.00  0.00     0.198 A 
ATOM    102  F   UNL A   1      40.443  26.522  34.360  1.00  0.00    -0.203 F 
ATOM    103  F   UNL A   1      45.724  26.404  35.584  1.00  0.00    -0.200 F 
ATOM    104  C   UNL A   1      43.586  25.424  35.666  1.00  0.00     0.200 A 
ATOM    105  F   UNL A   1      41.407  24.536  35.776  1.00  0.00    -0.200 F 
ATOM    106  F   UNL A   1      44.070  24.373  36.339  1.00  0.00    -0.200 F 
ENDBRANCH  73  96
ENDBRANCH  47  48
ENDBRANCH  39  42
ENDBRANCH  37  38
ENDBRANCH  36  37
ENDBRANCH  35  36
ENDBRANCH   1  35
TORSDOF 16
ENDMDL
MODEL 3
REMARK VINA RESULT:     -13.5      4.202     11.302
REMARK SMILES Cc1cccc(-c2ncc(C[NH+]3CCC4(CC3)NC(=O)C[C@H]4C(=O)NCCCCCCNC(=O)c3ccc(-c4c5nc(c(-c6c(F)c(F)c(F)c(F)c6F)c6ccc([nH]6)c(-c6c(F)c(F)c(F)c(F)c6F)c6nc(c(-c7c(F)c(F)c(F)c(F)c7F)c7ccc4[nH]7)C=C6)C=C5)cc3)cn2)c1
REMARK SMILES IDX 28 1 27 2 26 3 25 4 23 5 24 6 22 8 12 9 13 10 17 11 14 13
REMARK SMILES IDX 16 14 15 15 18 16 19 17 21 19 20 20 11 21 10 22 7 23 8 24
REMARK SMILES IDX 99 25 9 26 98 27 6 28 1 29 2 30 3 31 100 32 4 33 5 34 29 35
REMARK SMILES IDX 30 36 31 37 32 38 33 39 34 41 35 42 36 43 97 44 37 45 96 46
REMARK SMILES IDX 38 47 39 48 40 49 90 50 41 51 95 52 89 53 91 54 42 55 94 56
REMARK SMILES IDX 88 57 87 58 43 60 75 61 55 62 74 63 56 64 59 65 73 66 92 67
REMARK SMILES IDX 57 68 58 69 72 71 93 72 60 73 44 74 45 75 53 76 46 77 47 78
REMARK SMILES IDX 51 79 54 80 48 81 49 82 52 83 50 84 76 85 77 86 85 87 78 88
REMARK SMILES IDX 79 89 83 90 86 91 80 92 81 93 84 94 82 95 61 96 62 97 70 98
REMARK SMILES IDX 63 99 64 100 68 101 71 102 65 103 66 104 69 105 67 106
REMARK H PARENT 25 7 12 12 18 18 32 40 91 59 59 70
REMARK Flexibility Score: inf
ROOT
ATOM      1  C   UNL A   1      39.124  23.567  26.172  1.00  0.00     0.002 C 
ENDROOT
BRANCH   1   2
ATOM      2  C   UNL A   1      37.629  23.263  26.235  1.00  0.00     0.021 C 
BRANCH   2   3
ATOM      3  C   UNL A   1      37.207  21.860  25.757  1.00  0.00     0.116 C 
BRANCH   3   4
ATOM      4  N   UNL A   1      35.983  21.341  26.364  1.00  0.00    -0.356 N 
ATOM      5  C   UNL A   1      34.664  21.362  26.004  1.00  0.00     0.226 C 
ATOM      6  O   UNL A   1      33.873  20.860  26.811  1.00  0.00    -0.275 OA
ATOM      7  H   UNL A   1      36.142  20.877  27.218  1.00  0.00     0.163 HD
BRANCH   5   8
ATOM      8  C   UNL A   1      34.098  21.972  24.700  1.00  0.00     0.114 C 
ATOM      9  N   UNL A   1      31.025  24.504  25.886  1.00  0.00    -0.331 N 
ATOM     10  C   UNL A   1      31.023  23.983  24.525  1.00  0.00     0.264 C 
ATOM     11  C   UNL A   1      31.971  23.776  26.702  1.00  0.00     0.264 C 
ATOM     12  H   UNL A   1      30.078  24.306  26.208  1.00  0.00     0.348 HD
ATOM     13  C   UNL A   1      32.387  23.814  23.839  1.00  0.00     0.091 C 
ATOM     14  C   UNL A   1      33.384  23.906  26.174  1.00  0.00     0.091 C 
ATOM     15  C   UNL A   1      33.605  23.440  24.735  1.00  0.00     0.063 C 
ATOM     16  N   UNL A   1      34.725  24.124  24.095  1.00  0.00    -0.349 N 
ATOM     17  C   UNL A   1      35.586  23.306  23.396  1.00  0.00     0.221 C 
ATOM     18  H   UNL A   1      34.855  25.097  24.159  1.00  0.00     0.164 HD
ATOM     19  C   UNL A   1      35.155  21.883  23.594  1.00  0.00     0.116 C 
ATOM     20  O   UNL A   1      36.535  23.685  22.747  1.00  0.00    -0.275 OA
BRANCH   9  21
ATOM     21  C   UNL A   1      30.941  25.956  26.134  1.00  0.00     0.302 C 
BRANCH  21  22
ATOM     22  C   UNL A   1      30.546  26.838  24.979  1.00  0.00     0.043 A 
ATOM     23  C   UNL A   1      29.628  28.809  23.339  1.00  0.00     0.159 A 
ATOM     24  N   UNL A   1      30.894  28.900  23.792  1.00  0.00    -0.236 NA
ATOM     25  N   UNL A   1      28.812  27.759  23.558  1.00  0.00    -0.236 NA
ATOM     26  C   UNL A   1      31.336  27.886  24.563  1.00  0.00     0.124 A 
ATOM     27  C   UNL A   1      29.298  26.789  24.371  1.00  0.00     0.124 A 
BRANCH  23  28
ATOM     28  C   UNL A   1      29.076  29.995  22.669  1.00  0.00     0.019 A 
ATOM     29  C   UNL A   1      28.921  33.797  23.188  1.00  0.00     0.044 C 
ATOM     30  C   UNL A   1      28.743  32.435  22.580  1.00  0.00    -0.050 A 
ATOM     31  C   UNL A   1      28.148  32.299  21.324  1.00  0.00     0.003 A 
ATOM     32  C   UNL A   1      29.203  31.282  23.234  1.00  0.00     0.015 A 
ATOM     33  C   UNL A   1      27.993  31.035  20.753  1.00  0.00     0.001 A 
ATOM     34  C   UNL A   1      28.443  29.893  21.424  1.00  0.00     0.012 A 
ENDBRANCH  23  28
ENDBRANCH  21  22
ENDBRANCH   9  21
ENDBRANCH   5   8
ENDBRANCH   3   4
ENDBRANCH   2   3
ENDBRANCH   1   2
BRANCH   1  35
ATOM     35  C   UNL A   1      40.035  22.427  26.629  1.00  0.00     0.002 C 
BRANCH  35  36
ATOM     36  C   UNL A   1      41.412  22.389  25.971  1.00  0.00     0.021 C 
BRANCH  36  37
ATOM     37  C   UNL A   1      42.311  21.284  26.486  1.00  0.00     0.116 C 
BRANCH  37  38
ATOM     38  N   UNL A   1      43.152  20.721  25.442  1.00  0.00    -0.352 N 
ATOM     39  C   UNL A   1      44.183  21.276  24.717  1.00  0.00     0.251 C 
ATOM     40  H   UNL A   1      42.950  19.785  25.215  1.00  0.00     0.163 HD
ATOM     41  O   UNL A   1      44.586  20.691  23.716  1.00  0.00    -0.269 OA
BRANCH  39  42
ATOM     42  C   UNL A   1      44.953  22.426  25.253  1.00  0.00     0.039 A 
ATOM     43  C   UNL A   1      45.288  22.362  26.617  1.00  0.00     0.014 A 
ATOM     44  C   UNL A   1      44.962  23.646  24.595  1.00  0.00     0.014 A 
ATOM     45  C   UNL A   1      45.315  23.526  27.366  1.00  0.00     0.010 A 
ATOM     46  C   UNL A   1      44.794  24.772  25.346  1.00  0.00     0.010 A 
ATOM     47  C   UNL A   1      44.923  24.694  26.734  1.00  0.00    -0.014 A 
BRANCH  47  48
ATOM     48  C   UNL A   1      44.732  25.967  27.376  1.00  0.00     0.031 A 
ATOM     49  C   UNL A   1      43.364  26.505  27.345  1.00  0.00     0.074 A 
ATOM     50  C   UNL A   1      45.706  26.395  28.207  1.00  0.00     0.049 A 
ATOM     51  N   UNL A   1      43.048  27.684  27.725  1.00  0.00    -0.248 NA
ATOM     52  C   UNL A   1      42.219  25.745  26.840  1.00  0.00     0.031 C 
ATOM     53  C   UNL A   1      45.597  27.342  29.309  1.00  0.00     0.029 A 
ATOM     54  N   UNL A   1      47.085  26.144  28.106  1.00  0.00    -0.354 N 
ATOM     55  C   UNL A   1      41.674  27.739  27.823  1.00  0.00     0.074 A 
ATOM     56  C   UNL A   1      41.204  26.552  27.161  1.00  0.00     0.031 C 
ATOM     57  C   UNL A   1      46.818  27.840  29.575  1.00  0.00     0.029 A 
ATOM     58  C   UNL A   1      47.710  27.338  28.546  1.00  0.00     0.049 A 
ATOM     59  H   UNL A   1      47.523  25.318  27.797  1.00  0.00     0.167 HD
ATOM     60  C   UNL A   1      41.146  28.736  28.587  1.00  0.00     0.037 A 
ATOM     61  C   UNL A   1      48.389  28.125  27.658  1.00  0.00     0.037 A 
ATOM     62  C   UNL A   1      42.223  29.620  29.029  1.00  0.00     0.049 A 
ATOM     63  C   UNL A   1      47.755  29.487  27.495  1.00  0.00     0.074 A 
ATOM     64  C   UNL A   1      42.963  29.679  30.197  1.00  0.00     0.029 A 
ATOM     65  N   UNL A   1      42.927  30.337  28.071  1.00  0.00    -0.354 N 
ATOM     66  N   UNL A   1      46.486  29.723  27.688  1.00  0.00    -0.248 NA
ATOM     67  C   UNL A   1      48.506  30.695  27.169  1.00  0.00     0.031 C 
ATOM     68  C   UNL A   1      44.152  30.405  29.918  1.00  0.00     0.029 A 
ATOM     69  C   UNL A   1      44.119  30.798  28.590  1.00  0.00     0.049 A 
ATOM     70  H   UNL A   1      42.620  30.495  27.149  1.00  0.00     0.167 HD
ATOM     71  C   UNL A   1      46.247  31.069  27.567  1.00  0.00     0.074 A 
ATOM     72  C   UNL A   1      47.541  31.631  27.230  1.00  0.00     0.031 C 
ATOM     73  C   UNL A   1      45.009  31.612  27.779  1.00  0.00     0.037 A 
BRANCH  60  74
ATOM     74  C   UNL A   1      39.743  28.824  29.144  1.00  0.00     0.064 A 
ATOM     75  C   UNL A   1      38.699  29.317  28.325  1.00  0.00     0.173 A 
ATOM     76  C   UNL A   1      39.347  28.496  30.453  1.00  0.00     0.173 A 
ATOM     77  F   UNL A   1      38.902  29.631  27.039  1.00  0.00    -0.203 F 
ATOM     78  C   UNL A   1      37.398  29.517  28.794  1.00  0.00     0.198 A 
ATOM     79  C   UNL A   1      38.047  28.709  30.927  1.00  0.00     0.198 A 
ATOM     80  F   UNL A   1      40.179  27.926  31.327  1.00  0.00    -0.203 F 
ATOM     81  F   UNL A   1      36.463  30.004  27.966  1.00  0.00    -0.200 F 
ATOM     82  C   UNL A   1      37.073  29.223  30.099  1.00  0.00     0.200 A 
ATOM     83  F   UNL A   1      37.748  28.403  32.198  1.00  0.00    -0.200 F 
ATOM     84  F   UNL A   1      35.829  29.420  30.553  1.00  0.00    -0.200 F 
ENDBRANCH  60  74
BRANCH  61  85
ATOM     85  C   UNL A   1      49.047  27.309  26.595  1.00  0.00     0.064 A 
ATOM     86  C   UNL A   1      48.417  27.304  25.332  1.00  0.00     0.173 A 
ATOM     87  C   UNL A   1      50.423  27.045  26.629  1.00  0.00     0.173 A 
ATOM     88  F   UNL A   1      47.095  27.521  25.246  1.00  0.00    -0.203 F 
ATOM     89  C   UNL A   1      49.160  27.255  24.155  1.00  0.00     0.198 A 
ATOM     90  C   UNL A   1      51.159  26.958  25.442  1.00  0.00     0.198 A 
ATOM     91  F   UNL A   1      51.079  27.014  27.798  1.00  0.00    -0.203 F 
ATOM     92  F   UNL A   1      48.551  27.436  22.973  1.00  0.00    -0.200 F 
ATOM     93  C   UNL A   1      50.536  27.127  24.213  1.00  0.00     0.200 A 
ATOM     94  F   UNL A   1      52.491  26.815  25.492  1.00  0.00    -0.200 F 
ATOM     95  F   UNL A   1      51.266  27.208  23.091  1.00  0.00    -0.200 F 
ENDBRANCH  61  85
BRANCH  73  96
ATOM     96  C   UNL A   1      44.522  32.982  27.348  1.00  0.00     0.064 A 
ATOM     97  C   UNL A   1      43.994  33.266  26.079  1.00  0.00     0.173 A 
ATOM     98  C   UNL A   1      44.419  34.042  28.289  1.00  0.00     0.173 A 
ATOM     99  F   UNL A   1      43.901  32.328  25.129  1.00  0.00    -0.203 F 
ATOM    100  C   UNL A   1      43.473  34.523  25.757  1.00  0.00     0.198 A 
ATOM    101  C   UNL A   1      43.823  35.264  27.988  1.00  0.00     0.198 A 
ATOM    102  F   UNL A   1      44.859  33.924  29.550  1.00  0.00    -0.203 F 
ATOM    103  F   UNL A   1      43.034  34.757  24.512  1.00  0.00    -0.200 F 
ATOM    104  C   UNL A   1      43.372  35.516  26.714  1.00  0.00     0.200 A 
ATOM    105  F   UNL A   1      43.672  36.185  28.952  1.00  0.00    -0.200 F 
ATOM    106  F   UNL A   1      42.822  36.698  26.413  1.00  0.00    -0.200 F 
ENDBRANCH  73  96
ENDBRANCH  47  48
ENDBRANCH  39  42
ENDBRANCH  37  38
ENDBRANCH  36  37
ENDBRANCH  35  36
ENDBRANCH   1  35
TORSDOF 16
ENDMDL
