MODEL 1
REMARK VINA RESULT:     -12.5      0.000      0.000
REMARK SMILES O=C(NCCCCCCNC(=O)[C@@H]1C[N@@H+](CC(=O)c2ccc[nH]2)CC[NH2+]1)c1ccc(-c2c3nc(c(-c4c(F)c(F)c(F)c(F)c4F)c4ccc([nH]4)c(-c4c(F)c(F)c(F)c(F)c4F)c4nc(c(-c5c(F)c(F)c(F)c(F)c5F)c5ccc2[nH]5)C=C4)C=C3)cc1
REMARK SMILES IDX 7 1 6 2 5 3 4 4 3 5 1 6 2 7 27 9 28 10 89 11 29 12 88 13
REMARK SMILES IDX 30 14 31 15 32 16 82 17 33 18 87 19 81 20 83 21 34 22 86 23
REMARK SMILES IDX 80 24 79 25 35 27 67 28 47 29 66 30 48 31 51 32 65 33 84 34
REMARK SMILES IDX 49 35 50 36 64 38 85 39 52 40 36 41 37 42 45 43 38 44 39 45
REMARK SMILES IDX 43 46 46 47 40 48 41 49 44 50 42 51 68 52 69 53 77 54 70 55
REMARK SMILES IDX 71 56 75 57 78 58 72 59 73 60 76 61 74 62 53 63 54 64 62 65
REMARK SMILES IDX 55 66 56 67 60 68 63 69 57 70 58 71 61 72 59 73 8 74 9 75
REMARK SMILES IDX 10 76 11 77 12 79 13 80 14 81 26 82 15 83 25 84 24 87 16 89
REMARK SMILES IDX 17 90 18 91 19 92 20 93 23 94 21 95 22 96
REMARK H PARENT 3 8 83 26 51 37 10 78 26 85 26 86 15 88 23 97
REMARK Flexibility Score: inf
ROOT
ATOM      1  C   UNL A   1      32.398  27.262  25.157  1.00  0.00     0.002 C 
ENDROOT
BRANCH   1   2
ATOM      2  C   UNL A   1      33.061  27.287  26.540  1.00  0.00     0.002 C 
BRANCH   2   3
ATOM      3  C   UNL A   1      33.435  28.679  27.052  1.00  0.00     0.021 C 
BRANCH   3   4
ATOM      4  C   UNL A   1      34.888  29.076  26.786  1.00  0.00     0.116 C 
BRANCH   4   5
ATOM      5  N   UNL A   1      35.318  30.294  27.446  1.00  0.00    -0.352 N 
ATOM      6  O   UNL A   1      36.645  31.824  28.407  1.00  0.00    -0.269 OA
ATOM      7  C   UNL A   1      36.530  30.683  27.948  1.00  0.00     0.251 C 
ATOM      8  H   UNL A   1      34.605  30.966  27.551  1.00  0.00     0.163 HD
BRANCH   7   9
ATOM      9  C   UNL A   1      37.679  29.755  28.035  1.00  0.00     0.039 A 
ATOM     10  C   UNL A   1      38.683  29.693  27.065  1.00  0.00     0.014 A 
ATOM     11  C   UNL A   1      37.759  28.927  29.168  1.00  0.00     0.014 A 
ATOM     12  C   UNL A   1      39.695  28.751  27.165  1.00  0.00     0.010 A 
ATOM     13  C   UNL A   1      38.805  28.016  29.306  1.00  0.00     0.010 A 
ATOM     14  C   UNL A   1      39.779  27.941  28.304  1.00  0.00    -0.014 A 
BRANCH  14  15
ATOM     15  C   UNL A   1      41.107  27.341  28.566  1.00  0.00     0.031 A 
ATOM     16  C   UNL A   1      41.078  25.833  28.159  1.00  0.00     0.074 A 
ATOM     17  C   UNL A   1      42.054  28.138  29.159  1.00  0.00     0.049 A 
ATOM     18  N   UNL A   1      41.766  24.825  28.603  1.00  0.00    -0.248 NA
ATOM     19  C   UNL A   1      40.076  25.367  27.150  1.00  0.00     0.031 C 
ATOM     20  C   UNL A   1      41.901  29.587  29.424  1.00  0.00     0.029 A 
ATOM     21  N   UNL A   1      43.322  27.913  29.667  1.00  0.00    -0.354 N 
ATOM     22  C   UNL A   1      41.459  23.702  27.790  1.00  0.00     0.074 A 
ATOM     23  C   UNL A   1      40.317  24.062  27.018  1.00  0.00     0.031 C 
ATOM     24  C   UNL A   1      42.965  30.078  30.106  1.00  0.00     0.029 A 
ATOM     25  C   UNL A   1      43.928  29.019  30.341  1.00  0.00     0.049 A 
ATOM     26  H   UNL A   1      43.779  27.046  29.569  1.00  0.00     0.167 HD
ATOM     27  C   UNL A   1      42.289  22.621  27.679  1.00  0.00     0.037 A 
ATOM     28  C   UNL A   1      45.096  29.055  31.068  1.00  0.00     0.037 A 
ATOM     29  C   UNL A   1      43.367  22.770  28.590  1.00  0.00     0.049 A 
ATOM     30  C   UNL A   1      45.713  27.749  30.815  1.00  0.00     0.074 A 
ATOM     31  C   UNL A   1      43.447  22.681  29.952  1.00  0.00     0.029 A 
ATOM     32  N   UNL A   1      44.477  23.413  28.104  1.00  0.00    -0.354 N 
ATOM     33  N   UNL A   1      46.284  27.415  29.698  1.00  0.00    -0.248 NA
ATOM     34  C   UNL A   1      45.613  26.712  31.848  1.00  0.00     0.031 C 
ATOM     35  C   UNL A   1      44.353  23.709  30.278  1.00  0.00     0.029 A 
ATOM     36  C   UNL A   1      44.970  24.187  29.116  1.00  0.00     0.049 A 
ATOM     37  H   UNL A   1      44.847  23.333  27.195  1.00  0.00     0.167 HD
ATOM     38  C   UNL A   1      46.285  26.047  29.786  1.00  0.00     0.074 A 
ATOM     39  C   UNL A   1      46.201  25.716  31.192  1.00  0.00     0.031 C 
ATOM     40  C   UNL A   1      45.782  25.321  28.757  1.00  0.00     0.037 A 
BRANCH  27  41
ATOM     41  C   UNL A   1      42.461  21.558  26.617  1.00  0.00     0.064 A 
ATOM     42  C   UNL A   1      42.128  20.224  26.979  1.00  0.00     0.173 A 
ATOM     43  C   UNL A   1      43.323  21.697  25.523  1.00  0.00     0.173 A 
ATOM     44  F   UNL A   1      41.237  19.977  27.953  1.00  0.00    -0.203 F 
ATOM     45  C   UNL A   1      42.800  19.126  26.448  1.00  0.00     0.198 A 
ATOM     46  C   UNL A   1      43.945  20.585  24.946  1.00  0.00     0.198 A 
ATOM     47  F   UNL A   1      43.669  22.901  25.055  1.00  0.00    -0.203 F 
ATOM     48  F   UNL A   1      42.609  17.908  26.973  1.00  0.00    -0.200 F 
ATOM     49  C   UNL A   1      43.733  19.312  25.450  1.00  0.00     0.200 A 
ATOM     50  F   UNL A   1      44.829  20.764  23.955  1.00  0.00    -0.200 F 
ATOM     51  F   UNL A   1      44.455  18.276  25.001  1.00  0.00    -0.200 F 
ENDBRANCH  27  41
BRANCH  28  52
ATOM     52  C   UNL A   1      45.860  29.948  32.036  1.00  0.00     0.064 A 
ATOM     53  C   UNL A   1      47.017  30.682  31.759  1.00  0.00     0.173 A 
ATOM     54  C   UNL A   1      45.343  30.175  33.353  1.00  0.00     0.173 A 
ATOM     55  F   UNL A   1      47.702  30.478  30.629  1.00  0.00    -0.203 F 
ATOM     56  C   UNL A   1      47.521  31.652  32.658  1.00  0.00     0.198 A 
ATOM     57  C   UNL A   1      45.796  31.179  34.210  1.00  0.00     0.198 A 
ATOM     58  F   UNL A   1      44.364  29.422  33.871  1.00  0.00    -0.203 F 
ATOM     59  F   UNL A   1      48.632  32.334  32.347  1.00  0.00    -0.200 F 
ATOM     60  C   UNL A   1      46.879  31.937  33.853  1.00  0.00     0.200 A 
ATOM     61  F   UNL A   1      45.153  31.406  35.365  1.00  0.00    -0.200 F 
ATOM     62  F   UNL A   1      47.307  32.919  34.657  1.00  0.00    -0.200 F 
ENDBRANCH  28  52
BRANCH  40  63
ATOM     63  C   UNL A   1      45.824  26.024  27.411  1.00  0.00     0.064 A 
ATOM     64  C   UNL A   1      47.061  26.367  26.847  1.00  0.00     0.173 A 
ATOM     65  C   UNL A   1      44.690  26.469  26.711  1.00  0.00     0.173 A 
ATOM     66  F   UNL A   1      48.196  25.956  27.433  1.00  0.00    -0.203 F 
ATOM     67  C   UNL A   1      47.154  27.126  25.676  1.00  0.00     0.198 A 
ATOM     68  C   UNL A   1      44.776  27.231  25.542  1.00  0.00     0.198 A 
ATOM     69  F   UNL A   1      43.467  26.164  27.138  1.00  0.00    -0.203 F 
ATOM     70  F   UNL A   1      48.359  27.426  25.171  1.00  0.00    -0.200 F 
ATOM     71  C   UNL A   1      46.012  27.563  25.027  1.00  0.00     0.200 A 
ATOM     72  F   UNL A   1      43.658  27.628  24.913  1.00  0.00    -0.200 F 
ATOM     73  F   UNL A   1      46.103  28.283  23.898  1.00  0.00    -0.200 F 
ENDBRANCH  40  63
ENDBRANCH  14  15
ENDBRANCH   7   9
ENDBRANCH   4   5
ENDBRANCH   3   4
ENDBRANCH   2   3
ENDBRANCH   1   2
BRANCH   1  74
ATOM     74  C   UNL A   1      30.869  27.356  25.188  1.00  0.00     0.021 C 
BRANCH  74  75
ATOM     75  C   UNL A   1      30.201  26.028  24.838  1.00  0.00     0.116 C 
BRANCH  75  76
ATOM     76  N   UNL A   1      29.997  25.243  26.038  1.00  0.00    -0.351 N 
ATOM     77  C   UNL A   1      30.333  23.964  26.374  1.00  0.00     0.284 C 
ATOM     78  H   UNL A   1      29.524  25.727  26.751  1.00  0.00     0.163 HD
ATOM     79  O   UNL A   1      29.813  23.526  27.406  1.00  0.00    -0.268 OA
BRANCH  77  80
ATOM     80  C   UNL A   1      31.381  23.155  25.570  1.00  0.00     0.328 C 
ATOM     81  C   UNL A   1      32.847  23.562  25.804  1.00  0.00     0.339 C 
ATOM     82  N   UNL A   1      31.074  23.225  24.112  1.00  0.00    -0.327 N 
ATOM     83  N   UNL A   1      33.819  22.681  25.134  1.00  0.00    -0.318 N 
ATOM     84  C   UNL A   1      32.043  22.453  23.316  1.00  0.00     0.323 C 
ATOM     85  H   UNL A   1      31.103  24.200  23.813  1.00  0.00     0.347 HD
ATOM     86  H   UNL A   1      30.148  22.827  23.961  1.00  0.00     0.347 HD
ATOM     87  C   UNL A   1      33.536  22.639  23.693  1.00  0.00     0.324 C 
ATOM     88  H   UNL A   1      34.741  23.103  25.248  1.00  0.00     0.348 HD
BRANCH  83  89
ATOM     89  C   UNL A   1      34.075  21.374  25.791  1.00  0.00     0.346 C 
BRANCH  89  90
ATOM     90  C   UNL A   1      34.917  20.326  25.038  1.00  0.00     0.232 C 
ATOM     91  O   UNL A   1      36.113  20.533  24.818  1.00  0.00    -0.286 OA
BRANCH  90  92
ATOM     92  C   UNL A   1      34.289  19.092  24.576  1.00  0.00     0.088 A 
ATOM     93  C   UNL A   1      33.099  18.848  23.913  1.00  0.00     0.031 A 
ATOM     94  N   UNL A   1      34.895  17.859  24.726  1.00  0.00    -0.359 N 
ATOM     95  C   UNL A   1      33.123  17.515  23.438  1.00  0.00     0.020 A 
ATOM     96  C   UNL A   1      34.233  16.918  23.983  1.00  0.00     0.083 A 
ATOM     97  H   UNL A   1      35.686  17.684  25.285  1.00  0.00     0.166 HD
ENDBRANCH  90  92
ENDBRANCH  89  90
ENDBRANCH  83  89
ENDBRANCH  77  80
ENDBRANCH  75  76
ENDBRANCH  74  75
ENDBRANCH   1  74
TORSDOF 16
ENDMDL
MODEL 2
REMARK VINA RESULT:     -12.3      1.621      2.397
REMARK SMILES O=C(NCCCCCCNC(=O)[C@@H]1C[N@@H+](CC(=O)c2ccc[nH]2)CC[NH2+]1)c1ccc(-c2c3nc(c(-c4c(F)c(F)c(F)c(F)c4F)c4ccc([nH]4)c(-c4c(F)c(F)c(F)c(F)c4F)c4nc(c(-c5c(F)c(F)c(F)c(F)c5F)c5ccc2[nH]5)C=C4)C=C3)cc1
REMARK SMILES IDX 7 1 6 2 5 3 4 4 3 5 1 6 2 7 27 9 28 10 89 11 29 12 88 13
REMARK SMILES IDX 30 14 31 15 32 16 82 17 33 18 87 19 81 20 83 21 34 22 86 23
REMARK SMILES IDX 80 24 79 25 35 27 67 28 47 29 66 30 48 31 51 32 65 33 84 34
REMARK SMILES IDX 49 35 50 36 64 38 85 39 52 40 36 41 37 42 45 43 38 44 39 45
REMARK SMILES IDX 43 46 46 47 40 48 41 49 44 50 42 51 68 52 69 53 77 54 70 55
REMARK SMILES IDX 71 56 75 57 78 58 72 59 73 60 76 61 74 62 53 63 54 64 62 65
REMARK SMILES IDX 55 66 56 67 60 68 63 69 57 70 58 71 61 72 59 73 8 74 9 75
REMARK SMILES IDX 10 76 11 77 12 79 13 80 14 81 26 82 15 83 25 84 24 87 16 89
REMARK SMILES IDX 17 90 18 91 19 92 20 93 23 94 21 95 22 96
REMARK H PARENT 3 8 83 26 51 37 10 78 26 85 26 86 15 88 23 97
REMARK Flexibility Score: inf
ROOT
ATOM      1  C   UNL A   1      32.509  27.374  25.065  1.00  0.00     0.002 C 
ENDROOT
BRANCH   1   2
ATOM      2  C   UNL A   1      33.185  27.324  26.440  1.00  0.00     0.002 C 
BRANCH   2   3
ATOM      3  C   UNL A   1      33.393  28.684  27.108  1.00  0.00     0.021 C 
BRANCH   3   4
ATOM      4  C   UNL A   1      34.781  29.287  26.884  1.00  0.00     0.116 C 
BRANCH   4   5
ATOM      5  N   UNL A   1      35.101  30.412  27.741  1.00  0.00    -0.352 N 
ATOM      6  O   UNL A   1      36.269  31.813  29.046  1.00  0.00    -0.269 OA
ATOM      7  C   UNL A   1      36.235  30.739  28.435  1.00  0.00     0.251 C 
ATOM      8  H   UNL A   1      34.368  31.062  27.841  1.00  0.00     0.163 HD
BRANCH   7   9
ATOM      9  C   UNL A   1      37.384  29.813  28.546  1.00  0.00     0.039 A 
ATOM     10  C   UNL A   1      38.435  29.792  27.627  1.00  0.00     0.014 A 
ATOM     11  C   UNL A   1      37.409  28.943  29.649  1.00  0.00     0.014 A 
ATOM     12  C   UNL A   1      39.446  28.851  27.743  1.00  0.00     0.010 A 
ATOM     13  C   UNL A   1      38.453  28.031  29.806  1.00  0.00     0.010 A 
ATOM     14  C   UNL A   1      39.477  27.998  28.853  1.00  0.00    -0.014 A 
BRANCH  14  15
ATOM     15  C   UNL A   1      40.793  27.393  29.160  1.00  0.00     0.031 A 
ATOM     16  C   UNL A   1      40.933  26.046  28.383  1.00  0.00     0.074 A 
ATOM     17  C   UNL A   1      41.585  28.037  30.078  1.00  0.00     0.049 A 
ATOM     18  N   UNL A   1      41.620  24.978  28.659  1.00  0.00    -0.248 NA
ATOM     19  C   UNL A   1      40.122  25.828  27.143  1.00  0.00     0.031 C 
ATOM     20  C   UNL A   1      41.291  29.360  30.676  1.00  0.00     0.029 A 
ATOM     21  N   UNL A   1      42.780  27.728  30.706  1.00  0.00    -0.354 N 
ATOM     22  C   UNL A   1      41.516  24.100  27.549  1.00  0.00     0.074 A 
ATOM     23  C   UNL A   1      40.473  24.612  26.723  1.00  0.00     0.031 C 
ATOM     24  C   UNL A   1      42.207  29.689  31.619  1.00  0.00     0.029 A 
ATOM     25  C   UNL A   1      43.200  28.636  31.726  1.00  0.00     0.049 A 
ATOM     26  H   UNL A   1      43.307  26.932  30.464  1.00  0.00     0.167 HD
ATOM     27  C   UNL A   1      42.429  23.113  27.298  1.00  0.00     0.037 A 
ATOM     28  C   UNL A   1      44.246  28.518  32.613  1.00  0.00     0.037 A 
ATOM     29  C   UNL A   1      43.351  23.052  28.376  1.00  0.00     0.049 A 
ATOM     30  C   UNL A   1      44.986  27.345  32.136  1.00  0.00     0.074 A 
ATOM     31  C   UNL A   1      43.240  22.611  29.666  1.00  0.00     0.029 A 
ATOM     32  N   UNL A   1      44.470  23.836  28.251  1.00  0.00    -0.354 N 
ATOM     33  N   UNL A   1      45.734  27.335  31.076  1.00  0.00    -0.248 NA
ATOM     34  C   UNL A   1      44.813  26.071  32.842  1.00  0.00     0.031 C 
ATOM     35  C   UNL A   1      44.013  23.546  30.381  1.00  0.00     0.029 A 
ATOM     36  C   UNL A   1      44.755  24.332  29.492  1.00  0.00     0.049 A 
ATOM     37  H   UNL A   1      44.972  24.010  27.422  1.00  0.00     0.167 HD
ATOM     38  C   UNL A   1      45.821  25.993  30.812  1.00  0.00     0.074 A 
ATOM     39  C   UNL A   1      45.560  25.301  32.056  1.00  0.00     0.031 C 
ATOM     40  C   UNL A   1      45.526  25.546  29.566  1.00  0.00     0.037 A 
BRANCH  27  41
ATOM     41  C   UNL A   1      42.829  22.373  26.042  1.00  0.00     0.064 A 
ATOM     42  C   UNL A   1      42.823  20.952  26.100  1.00  0.00     0.173 A 
ATOM     43  C   UNL A   1      43.618  22.939  25.034  1.00  0.00     0.173 A 
ATOM     44  F   UNL A   1      42.030  20.301  26.967  1.00  0.00    -0.203 F 
ATOM     45  C   UNL A   1      43.725  20.180  25.373  1.00  0.00     0.198 A 
ATOM     46  C   UNL A   1      44.473  22.152  24.256  1.00  0.00     0.198 A 
ATOM     47  F   UNL A   1      43.664  24.262  24.844  1.00  0.00    -0.203 F 
ATOM     48  F   UNL A   1      43.833  18.867  25.620  1.00  0.00    -0.200 F 
ATOM     49  C   UNL A   1      44.574  20.787  24.471  1.00  0.00     0.200 A 
ATOM     50  F   UNL A   1      45.276  22.740  23.358  1.00  0.00    -0.200 F 
ATOM     51  F   UNL A   1      45.511  20.068  23.838  1.00  0.00    -0.200 F 
ENDBRANCH  27  41
BRANCH  28  52
ATOM     52  C   UNL A   1      44.796  29.150  33.885  1.00  0.00     0.064 A 
ATOM     53  C   UNL A   1      44.438  28.828  35.198  1.00  0.00     0.173 A 
ATOM     54  C   UNL A   1      45.855  30.111  33.802  1.00  0.00     0.173 A 
ATOM     55  F   UNL A   1      43.375  28.056  35.448  1.00  0.00    -0.203 F 
ATOM     56  C   UNL A   1      45.165  29.312  36.311  1.00  0.00     0.198 A 
ATOM     57  C   UNL A   1      46.616  30.533  34.892  1.00  0.00     0.198 A 
ATOM     58  F   UNL A   1      46.200  30.688  32.644  1.00  0.00    -0.203 F 
ATOM     59  F   UNL A   1      44.786  28.975  37.552  1.00  0.00    -0.200 F 
ATOM     60  C   UNL A   1      46.283  30.116  36.153  1.00  0.00     0.200 A 
ATOM     61  F   UNL A   1      47.680  31.326  34.692  1.00  0.00    -0.200 F 
ATOM     62  F   UNL A   1      47.022  30.498  37.204  1.00  0.00    -0.200 F 
ENDBRANCH  28  52
BRANCH  40  63
ATOM     63  C   UNL A   1      45.710  26.580  28.467  1.00  0.00     0.064 A 
ATOM     64  C   UNL A   1      46.989  27.093  28.207  1.00  0.00     0.173 A 
ATOM     65  C   UNL A   1      44.659  27.161  27.738  1.00  0.00     0.173 A 
ATOM     66  F   UNL A   1      48.054  26.575  28.836  1.00  0.00    -0.203 F 
ATOM     67  C   UNL A   1      47.194  28.136  27.298  1.00  0.00     0.198 A 
ATOM     68  C   UNL A   1      44.858  28.205  26.830  1.00  0.00     0.198 A 
ATOM     69  F   UNL A   1      43.411  26.720  27.879  1.00  0.00    -0.203 F 
ATOM     70  F   UNL A   1      48.436  28.591  27.078  1.00  0.00    -0.200 F 
ATOM     71  C   UNL A   1      46.129  28.696  26.614  1.00  0.00     0.200 A 
ATOM     72  F   UNL A   1      43.816  28.722  26.159  1.00  0.00    -0.200 F 
ATOM     73  F   UNL A   1      46.330  29.689  25.735  1.00  0.00    -0.200 F 
ENDBRANCH  40  63
ENDBRANCH  14  15
ENDBRANCH   7   9
ENDBRANCH   4   5
ENDBRANCH   3   4
ENDBRANCH   2   3
ENDBRANCH   1   2
BRANCH   1  74
ATOM     74  C   UNL A   1      31.006  27.075  25.087  1.00  0.00     0.021 C 
BRANCH  74  75
ATOM     75  C   UNL A   1      30.702  25.610  24.784  1.00  0.00     0.116 C 
BRANCH  75  76
ATOM     76  N   UNL A   1      30.118  24.973  25.947  1.00  0.00    -0.351 N 
ATOM     77  C   UNL A   1      30.415  23.823  26.618  1.00  0.00     0.284 C 
ATOM     78  H   UNL A   1      29.357  25.468  26.328  1.00  0.00     0.163 HD
ATOM     79  O   UNL A   1      29.575  23.452  27.446  1.00  0.00    -0.268 OA
BRANCH  77  80
ATOM     80  C   UNL A   1      31.768  23.092  26.431  1.00  0.00     0.328 C 
ATOM     81  C   UNL A   1      31.804  22.057  25.294  1.00  0.00     0.339 C 
ATOM     82  N   UNL A   1      32.179  22.441  27.708  1.00  0.00    -0.327 N 
ATOM     83  N   UNL A   1      33.141  21.487  25.055  1.00  0.00    -0.318 N 
ATOM     84  C   UNL A   1      33.471  21.749  27.572  1.00  0.00     0.323 C 
ATOM     85  H   UNL A   1      31.467  21.762  27.980  1.00  0.00     0.347 HD
ATOM     86  H   UNL A   1      32.279  23.166  28.419  1.00  0.00     0.347 HD
ATOM     87  C   UNL A   1      33.651  20.886  26.296  1.00  0.00     0.324 C 
ATOM     88  H   UNL A   1      33.035  20.733  24.376  1.00  0.00     0.348 HD
BRANCH  83  89
ATOM     89  C   UNL A   1      34.092  22.347  24.305  1.00  0.00     0.346 C 
BRANCH  89  90
ATOM     90  C   UNL A   1      35.248  23.013  25.077  1.00  0.00     0.232 C 
ATOM     91  O   UNL A   1      35.078  24.102  25.630  1.00  0.00    -0.286 OA
BRANCH  90  92
ATOM     92  C   UNL A   1      36.547  22.352  25.140  1.00  0.00     0.088 A 
ATOM     93  C   UNL A   1      37.751  22.723  25.713  1.00  0.00     0.031 A 
ATOM     94  N   UNL A   1      36.759  21.097  24.602  1.00  0.00    -0.359 N 
ATOM     95  C   UNL A   1      38.594  21.587  25.746  1.00  0.00     0.020 A 
ATOM     96  C   UNL A   1      37.965  20.603  25.023  1.00  0.00     0.083 A 
ATOM     97  H   UNL A   1      36.134  20.627  24.003  1.00  0.00     0.166 HD
ENDBRANCH  90  92
ENDBRANCH  89  90
ENDBRANCH  83  89
ENDBRANCH  77  80
ENDBRANCH  75  76
ENDBRANCH  74  75
ENDBRANCH   1  74
TORSDOF 16
ENDMDL
MODEL 3
REMARK VINA RESULT:     -12.2      1.403      2.103
REMARK SMILES O=C(NCCCCCCNC(=O)[C@@H]1C[N@@H+](CC(=O)c2ccc[nH]2)CC[NH2+]1)c1ccc(-c2c3nc(c(-c4c(F)c(F)c(F)c(F)c4F)c4ccc([nH]4)c(-c4c(F)c(F)c(F)c(F)c4F)c4nc(c(-c5c(F)c(F)c(F)c(F)c5F)c5ccc2[nH]5)C=C4)C=C3)cc1
REMARK SMILES IDX 7 1 6 2 5 3 4 4 3 5 1 6 2 7 27 9 28 10 89 11 29 12 88 13
REMARK SMILES IDX 30 14 31 15 32 16 82 17 33 18 87 19 81 20 83 21 34 22 86 23
REMARK SMILES IDX 80 24 79 25 35 27 67 28 47 29 66 30 48 31 51 32 65 33 84 34
REMARK SMILES IDX 49 35 50 36 64 38 85 39 52 40 36 41 37 42 45 43 38 44 39 45
REMARK SMILES IDX 43 46 46 47 40 48 41 49 44 50 42 51 68 52 69 53 77 54 70 55
REMARK SMILES IDX 71 56 75 57 78 58 72 59 73 60 76 61 74 62 53 63 54 64 62 65
REMARK SMILES IDX 55 66 56 67 60 68 63 69 57 70 58 71 61 72 59 73 8 74 9 75
REMARK SMILES IDX 10 76 11 77 12 79 13 80 14 81 26 82 15 83 25 84 24 87 16 89
REMARK SMILES IDX 17 90 18 91 19 92 20 93 23 94 21 95 22 96
REMARK H PARENT 3 8 83 26 51 37 10 78 26 85 26 86 15 88 23 97
REMARK Flexibility Score: inf
ROOT
ATOM      1  C   UNL A   1      32.479  28.746  24.440  1.00  0.00     0.002 C 
ENDROOT
BRANCH   1   2
ATOM      2  C   UNL A   1      32.931  28.018  25.712  1.00  0.00     0.002 C 
BRANCH   2   3
ATOM      3  C   UNL A   1      33.438  28.928  26.831  1.00  0.00     0.021 C 
BRANCH   3   4
ATOM      4  C   UNL A   1      34.948  29.175  26.805  1.00  0.00     0.116 C 
BRANCH   4   5
ATOM      5  N   UNL A   1      35.381  30.379  27.487  1.00  0.00    -0.352 N 
ATOM      6  O   UNL A   1      36.711  31.884  28.483  1.00  0.00    -0.269 OA
ATOM      7  C   UNL A   1      36.591  30.751  28.006  1.00  0.00     0.251 C 
ATOM      8  H   UNL A   1      34.673  31.055  27.595  1.00  0.00     0.163 HD
BRANCH   7   9
ATOM      9  C   UNL A   1      37.732  29.812  28.091  1.00  0.00     0.039 A 
ATOM     10  C   UNL A   1      38.739  29.749  27.124  1.00  0.00     0.014 A 
ATOM     11  C   UNL A   1      37.800  28.975  29.218  1.00  0.00     0.014 A 
ATOM     12  C   UNL A   1      39.742  28.798  27.221  1.00  0.00     0.010 A 
ATOM     13  C   UNL A   1      38.837  28.054  29.352  1.00  0.00     0.010 A 
ATOM     14  C   UNL A   1      39.815  27.978  28.353  1.00  0.00    -0.014 A 
BRANCH  14  15
ATOM     15  C   UNL A   1      41.136  27.365  28.617  1.00  0.00     0.031 A 
ATOM     16  C   UNL A   1      41.100  25.864  28.185  1.00  0.00     0.074 A 
ATOM     17  C   UNL A   1      42.084  28.145  29.229  1.00  0.00     0.049 A 
ATOM     18  N   UNL A   1      41.777  24.843  28.619  1.00  0.00    -0.248 NA
ATOM     19  C   UNL A   1      40.102  25.420  27.161  1.00  0.00     0.031 C 
ATOM     20  C   UNL A   1      41.940  29.591  29.516  1.00  0.00     0.029 A 
ATOM     21  N   UNL A   1      43.347  27.903  29.744  1.00  0.00    -0.354 N 
ATOM     22  C   UNL A   1      41.469  23.736  27.785  1.00  0.00     0.074 A 
ATOM     23  C   UNL A   1      40.335  24.116  27.010  1.00  0.00     0.031 C 
ATOM     24  C   UNL A   1      43.001  30.063  30.214  1.00  0.00     0.029 A 
ATOM     25  C   UNL A   1      43.955  28.993  30.440  1.00  0.00     0.049 A 
ATOM     26  H   UNL A   1      43.798  27.034  29.636  1.00  0.00     0.167 HD
ATOM     27  C   UNL A   1      42.292  22.650  27.663  1.00  0.00     0.037 A 
ATOM     28  C   UNL A   1      45.118  29.010  31.176  1.00  0.00     0.037 A 
ATOM     29  C   UNL A   1      43.364  22.778  28.586  1.00  0.00     0.049 A 
ATOM     30  C   UNL A   1      45.727  27.704  30.907  1.00  0.00     0.074 A 
ATOM     31  C   UNL A   1      43.433  22.667  29.946  1.00  0.00     0.029 A 
ATOM     32  N   UNL A   1      44.482  23.420  28.118  1.00  0.00    -0.354 N 
ATOM     33  N   UNL A   1      46.305  27.383  29.789  1.00  0.00    -0.248 NA
ATOM     34  C   UNL A   1      45.612  26.651  31.923  1.00  0.00     0.031 C 
ATOM     35  C   UNL A   1      44.343  23.682  30.296  1.00  0.00     0.029 A 
ATOM     36  C   UNL A   1      44.973  24.174  29.146  1.00  0.00     0.049 A 
ATOM     37  H   UNL A   1      44.859  23.352  27.211  1.00  0.00     0.167 HD
ATOM     38  C   UNL A   1      46.295  26.014  29.856  1.00  0.00     0.074 A 
ATOM     39  C   UNL A   1      46.198  25.661  31.256  1.00  0.00     0.031 C 
ATOM     40  C   UNL A   1      45.796  25.308  28.812  1.00  0.00     0.037 A 
BRANCH  27  41
ATOM     41  C   UNL A   1      42.465  21.604  26.586  1.00  0.00     0.064 A 
ATOM     42  C   UNL A   1      42.110  20.268  26.921  1.00  0.00     0.173 A 
ATOM     43  C   UNL A   1      43.344  21.750  25.507  1.00  0.00     0.173 A 
ATOM     44  F   UNL A   1      41.203  20.016  27.879  1.00  0.00    -0.203 F 
ATOM     45  C   UNL A   1      42.775  19.171  26.381  1.00  0.00     0.198 A 
ATOM     46  C   UNL A   1      43.959  20.639  24.919  1.00  0.00     0.198 A 
ATOM     47  F   UNL A   1      43.711  22.957  25.063  1.00  0.00    -0.203 F 
ATOM     48  F   UNL A   1      42.562  17.946  26.882  1.00  0.00    -0.200 F 
ATOM     49  C   UNL A   1      43.724  19.361  25.399  1.00  0.00     0.200 A 
ATOM     50  F   UNL A   1      44.858  20.824  23.943  1.00  0.00    -0.200 F 
ATOM     51  F   UNL A   1      44.439  18.324  24.942  1.00  0.00    -0.200 F 
ENDBRANCH  27  41
BRANCH  28  52
ATOM     52  C   UNL A   1      45.880  29.882  32.165  1.00  0.00     0.064 A 
ATOM     53  C   UNL A   1      45.730  29.894  33.555  1.00  0.00     0.173 A 
ATOM     54  C   UNL A   1      46.935  30.731  31.698  1.00  0.00     0.173 A 
ATOM     55  F   UNL A   1      44.704  29.267  34.138  1.00  0.00    -0.203 F 
ATOM     56  C   UNL A   1      46.639  30.575  34.399  1.00  0.00     0.198 A 
ATOM     57  C   UNL A   1      47.872  31.345  32.529  1.00  0.00     0.198 A 
ATOM     58  F   UNL A   1      47.104  31.004  30.398  1.00  0.00    -0.203 F 
ATOM     59  F   UNL A   1      46.457  30.556  35.727  1.00  0.00    -0.200 F 
ATOM     60  C   UNL A   1      47.737  31.251  33.889  1.00  0.00     0.200 A 
ATOM     61  F   UNL A   1      48.908  32.004  31.990  1.00  0.00    -0.200 F 
ATOM     62  F   UNL A   1      48.644  31.817  34.696  1.00  0.00    -0.200 F 
ENDBRANCH  28  52
BRANCH  40  63
ATOM     63  C   UNL A   1      45.853  26.032  27.477  1.00  0.00     0.064 A 
ATOM     64  C   UNL A   1      47.096  26.383  26.933  1.00  0.00     0.173 A 
ATOM     65  C   UNL A   1      44.727  26.489  26.772  1.00  0.00     0.173 A 
ATOM     66  F   UNL A   1      48.224  25.963  27.525  1.00  0.00    -0.203 F 
ATOM     67  C   UNL A   1      47.203  27.161  25.775  1.00  0.00     0.198 A 
ATOM     68  C   UNL A   1      44.827  27.269  25.616  1.00  0.00     0.198 A 
ATOM     69  F   UNL A   1      43.499  26.178  27.179  1.00  0.00    -0.203 F 
ATOM     70  F   UNL A   1      48.413  27.467  25.288  1.00  0.00    -0.200 F 
ATOM     71  C   UNL A   1      46.069  27.609  25.119  1.00  0.00     0.200 A 
ATOM     72  F   UNL A   1      43.716  27.676  24.980  1.00  0.00    -0.200 F 
ATOM     73  F   UNL A   1      46.173  28.345  24.004  1.00  0.00    -0.200 F 
ENDBRANCH  40  63
ENDBRANCH  14  15
ENDBRANCH   7   9
ENDBRANCH   4   5
ENDBRANCH   3   4
ENDBRANCH   2   3
ENDBRANCH   1   2
BRANCH   1  74
ATOM     74  C   UNL A   1      30.981  28.624  24.140  1.00  0.00     0.021 C 
BRANCH  74  75
ATOM     75  C   UNL A   1      30.690  27.587  23.058  1.00  0.00     0.116 C 
BRANCH  75  76
ATOM     76  N   UNL A   1      31.878  27.353  22.262  1.00  0.00    -0.351 N 
ATOM     77  C   UNL A   1      32.819  26.365  22.274  1.00  0.00     0.284 C 
ATOM     78  H   UNL A   1      32.037  28.042  21.578  1.00  0.00     0.163 HD
ATOM     79  O   UNL A   1      33.834  26.582  21.602  1.00  0.00    -0.268 OA
BRANCH  77  80
ATOM     80  C   UNL A   1      32.580  25.016  22.996  1.00  0.00     0.328 C 
ATOM     81  C   UNL A   1      33.821  24.117  23.139  1.00  0.00     0.339 C 
ATOM     82  N   UNL A   1      31.493  24.256  22.314  1.00  0.00    -0.327 N 
ATOM     83  N   UNL A   1      33.587  22.911  23.952  1.00  0.00    -0.318 N 
ATOM     84  C   UNL A   1      31.226  22.972  22.983  1.00  0.00     0.323 C 
ATOM     85  H   UNL A   1      31.769  24.074  21.349  1.00  0.00     0.347 HD
ATOM     86  H   UNL A   1      30.641  24.816  22.348  1.00  0.00     0.347 HD
ATOM     87  C   UNL A   1      32.473  22.140  23.382  1.00  0.00     0.324 C 
ATOM     88  H   UNL A   1      34.423  22.330  23.882  1.00  0.00     0.348 HD
BRANCH  83  89
ATOM     89  C   UNL A   1      33.561  23.112  25.423  1.00  0.00     0.346 C 
BRANCH  89  90
ATOM     90  C   UNL A   1      34.778  22.654  26.249  1.00  0.00     0.232 C 
ATOM     91  O   UNL A   1      34.880  22.975  27.435  1.00  0.00    -0.286 OA
BRANCH  90  92
ATOM     92  C   UNL A   1      35.817  21.848  25.616  1.00  0.00     0.088 A 
ATOM     93  C   UNL A   1      37.110  22.143  25.220  1.00  0.00     0.031 A 
ATOM     94  N   UNL A   1      35.634  20.508  25.330  1.00  0.00    -0.359 N 
ATOM     95  C   UNL A   1      37.777  20.926  24.945  1.00  0.00     0.020 A 
ATOM     96  C   UNL A   1      36.830  19.933  24.992  1.00  0.00     0.083 A 
ATOM     97  H   UNL A   1      34.770  20.037  25.363  1.00  0.00     0.166 HD
ENDBRANCH  90  92
ENDBRANCH  89  90
ENDBRANCH  83  89
ENDBRANCH  77  80
ENDBRANCH  75  76
ENDBRANCH  74  75
ENDBRANCH   1  74
TORSDOF 16
ENDMDL
