MODEL 1
REMARK VINA RESULT:     -11.3      0.000      0.000
REMARK SMILES COCc1cccc(C(=O)N2C[C@@H](O)C[C@@H]2C(=O)NCCCCCCNC(=O)c2ccc(-c3c4nc(c(-c5c(F)c(F)c(F)c(F)c5F)c5ccc([nH]5)c(-c5c(F)c(F)c(F)c(F)c5F)c5nc(c(-c6c(F)c(F)c(F)c(F)c6F)c6ccc3[nH]6)C=C5)C=C4)cc2)c1
REMARK SMILES IDX 21 1 20 2 19 3 17 4 18 5 16 7 11 8 12 9 13 10 15 11 9 12
REMARK SMILES IDX 10 13 8 14 4 15 5 16 92 17 6 18 7 19 3 20 2 21 1 22 14 23
REMARK SMILES IDX 22 25 23 26 24 27 25 28 26 29 27 30 28 32 29 33 30 34 91 35
REMARK SMILES IDX 31 36 90 37 32 38 33 39 34 40 84 41 35 42 89 43 83 44 85 45
REMARK SMILES IDX 36 46 88 47 82 48 81 49 37 51 69 52 49 53 68 54 50 55 53 56
REMARK SMILES IDX 67 57 86 58 51 59 52 60 66 62 87 63 54 64 38 65 39 66 47 67
REMARK SMILES IDX 40 68 41 69 45 70 48 71 42 72 43 73 46 74 44 75 70 76 71 77
REMARK SMILES IDX 79 78 72 79 73 80 77 81 80 82 74 83 75 84 78 85 76 86 55 87
REMARK SMILES IDX 56 88 64 89 57 90 58 91 62 92 65 93 59 94 60 95 63 96 61 97
REMARK H PARENT 19 6 14 24 26 31 85 50 53 61
REMARK Flexibility Score: inf
ROOT
ATOM      1  C   UNL A   1      31.370  26.135  24.817  1.00  0.00     0.021 C 
ENDROOT
BRANCH   1   2
ATOM      2  C   UNL A   1      31.013  24.652  24.700  1.00  0.00     0.116 C 
BRANCH   2   3
ATOM      3  N   UNL A   1      31.658  24.025  23.572  1.00  0.00    -0.354 N 
ATOM      4  C   UNL A   1      32.728  23.204  23.442  1.00  0.00     0.242 C 
ATOM      5  O   UNL A   1      32.827  22.691  22.316  1.00  0.00    -0.273 OA
ATOM      6  H   UNL A   1      31.229  24.239  22.713  1.00  0.00     0.163 HD
BRANCH   4   7
ATOM      7  C   UNL A   1      33.703  22.749  24.574  1.00  0.00     0.177 C 
ATOM      8  N   UNL A   1      34.923  21.955  24.318  1.00  0.00    -0.324 N 
ATOM      9  C   UNL A   1      34.909  20.741  25.125  1.00  0.00     0.152 C 
ATOM     10  C   UNL A   1      33.431  20.457  25.307  1.00  0.00     0.136 C 
ATOM     11  C   UNL A   1      32.892  21.861  25.557  1.00  0.00     0.069 C 
BRANCH   8  12
ATOM     12  C   UNL A   1      36.133  22.551  23.996  1.00  0.00     0.254 C 
ATOM     13  O   UNL A   1      36.467  22.778  22.838  1.00  0.00    -0.269 OA
BRANCH  12  14
ATOM     14  C   UNL A   1      37.141  22.694  25.104  1.00  0.00     0.040 A 
ATOM     15  C   UNL A   1      39.279  22.071  26.118  1.00  0.00    -0.022 A 
ATOM     16  C   UNL A   1      39.257  23.250  26.869  1.00  0.00     0.006 A 
ATOM     17  C   UNL A   1      38.215  21.804  25.244  1.00  0.00     0.020 A 
ATOM     18  C   UNL A   1      38.195  24.146  26.740  1.00  0.00     0.001 A 
ATOM     19  C   UNL A   1      37.142  23.871  25.863  1.00  0.00     0.014 A 
BRANCH  15  20
ATOM     20  C   UNL A   1      40.426  21.097  26.202  1.00  0.00     0.195 C 
BRANCH  20  21
ATOM     21  O   UNL A   1      40.645  20.662  27.541  1.00  0.00    -0.380 OA
ATOM     22  C   UNL A   1      41.553  19.570  27.624  1.00  0.00     0.195 C 
ENDBRANCH  20  21
ENDBRANCH  15  20
ENDBRANCH  12  14
ENDBRANCH   8  12
BRANCH  10  23
ATOM     23  O   UNL A   1      33.160  19.568  26.372  1.00  0.00    -0.391 OA
ATOM     24  H   UNL A   1      32.253  19.708  26.688  1.00  0.00     0.211 HD
ENDBRANCH  10  23
ENDBRANCH   4   7
ENDBRANCH   2   3
ENDBRANCH   1   2
BRANCH   1  25
ATOM     25  C   UNL A   1      31.065  26.762  26.182  1.00  0.00     0.002 C 
BRANCH  25  26
ATOM     26  C   UNL A   1      32.157  27.674  26.758  1.00  0.00     0.002 C 
BRANCH  26  27
ATOM     27  C   UNL A   1      33.460  27.779  25.957  1.00  0.00     0.021 C 
BRANCH  27  28
ATOM     28  C   UNL A   1      33.674  29.081  25.185  1.00  0.00     0.116 C 
BRANCH  28  29
ATOM     29  N   UNL A   1      33.101  30.231  25.856  1.00  0.00    -0.352 N 
ATOM     30  C   UNL A   1      33.508  30.922  26.968  1.00  0.00     0.251 C 
ATOM     31  H   UNL A   1      32.276  30.574  25.444  1.00  0.00     0.163 HD
ATOM     32  O   UNL A   1      32.766  31.785  27.434  1.00  0.00    -0.269 OA
BRANCH  30  33
ATOM     33  C   UNL A   1      34.808  30.659  27.635  1.00  0.00     0.039 A 
ATOM     34  C   UNL A   1      34.943  29.459  28.342  1.00  0.00     0.014 A 
ATOM     35  C   UNL A   1      35.847  31.595  27.671  1.00  0.00     0.014 A 
ATOM     36  C   UNL A   1      36.111  29.187  29.059  1.00  0.00     0.010 A 
ATOM     37  C   UNL A   1      37.040  31.299  28.345  1.00  0.00     0.010 A 
ATOM     38  C   UNL A   1      37.179  30.098  29.058  1.00  0.00    -0.014 A 
BRANCH  38  39
ATOM     39  C   UNL A   1      38.424  29.779  29.811  1.00  0.00     0.031 A 
ATOM     40  C   UNL A   1      38.655  30.315  31.197  1.00  0.00     0.074 A 
ATOM     41  C   UNL A   1      39.358  28.992  29.243  1.00  0.00     0.049 A 
ATOM     42  N   UNL A   1      39.643  30.074  32.024  1.00  0.00    -0.248 NA
ATOM     43  C   UNL A   1      37.658  31.262  31.718  1.00  0.00     0.031 C 
ATOM     44  C   UNL A   1      39.291  28.450  27.887  1.00  0.00     0.029 A 
ATOM     45  N   UNL A   1      40.545  28.508  29.738  1.00  0.00    -0.354 N 
ATOM     46  C   UNL A   1      39.391  30.840  33.155  1.00  0.00     0.074 A 
ATOM     47  C   UNL A   1      38.182  31.592  32.891  1.00  0.00     0.031 C 
ATOM     48  C   UNL A   1      40.373  27.689  27.664  1.00  0.00     0.029 A 
ATOM     49  C   UNL A   1      41.220  27.701  28.855  1.00  0.00     0.049 A 
ATOM     50  H   UNL A   1      40.879  28.719  30.639  1.00  0.00     0.167 HD
ATOM     51  C   UNL A   1      40.091  30.895  34.315  1.00  0.00     0.037 A 
ATOM     52  C   UNL A   1      42.383  27.034  28.990  1.00  0.00     0.037 A 
ATOM     53  C   UNL A   1      41.279  30.129  34.593  1.00  0.00     0.049 A 
ATOM     54  C   UNL A   1      43.121  27.083  30.299  1.00  0.00     0.074 A 
ATOM     55  C   UNL A   1      42.007  30.061  35.770  1.00  0.00     0.029 A 
ATOM     56  N   UNL A   1      41.920  29.304  33.681  1.00  0.00    -0.354 N 
ATOM     57  N   UNL A   1      42.818  27.732  31.396  1.00  0.00    -0.248 NA
ATOM     58  C   UNL A   1      44.354  26.287  30.395  1.00  0.00     0.031 C 
ATOM     59  C   UNL A   1      43.114  29.232  35.555  1.00  0.00     0.029 A 
ATOM     60  C   UNL A   1      43.048  28.743  34.260  1.00  0.00     0.049 A 
ATOM     61  H   UNL A   1      41.618  29.140  32.758  1.00  0.00     0.167 HD
ATOM     62  C   UNL A   1      43.804  27.406  32.318  1.00  0.00     0.074 A 
ATOM     63  C   UNL A   1      44.707  26.488  31.656  1.00  0.00     0.031 C 
ATOM     64  C   UNL A   1      43.944  27.831  33.597  1.00  0.00     0.037 A 
BRANCH  51  65
ATOM     65  C   UNL A   1      39.588  31.823  35.385  1.00  0.00     0.064 A 
ATOM     66  C   UNL A   1      40.036  33.150  35.480  1.00  0.00     0.173 A 
ATOM     67  C   UNL A   1      38.614  31.393  36.298  1.00  0.00     0.173 A 
ATOM     68  F   UNL A   1      40.972  33.607  34.636  1.00  0.00    -0.203 F 
ATOM     69  C   UNL A   1      39.548  34.001  36.469  1.00  0.00     0.198 A 
ATOM     70  C   UNL A   1      38.106  32.256  37.267  1.00  0.00     0.198 A 
ATOM     71  F   UNL A   1      38.144  30.138  36.246  1.00  0.00    -0.203 F 
ATOM     72  F   UNL A   1      40.026  35.249  36.569  1.00  0.00    -0.200 F 
ATOM     73  C   UNL A   1      38.580  33.556  37.356  1.00  0.00     0.200 A 
ATOM     74  F   UNL A   1      37.162  31.828  38.115  1.00  0.00    -0.200 F 
ATOM     75  F   UNL A   1      38.109  34.379  38.303  1.00  0.00    -0.200 F 
ENDBRANCH  51  65
BRANCH  52  76
ATOM     76  C   UNL A   1      42.898  26.227  27.855  1.00  0.00     0.064 A 
ATOM     77  C   UNL A   1      42.572  24.871  27.725  1.00  0.00     0.173 A 
ATOM     78  C   UNL A   1      43.716  26.801  26.870  1.00  0.00     0.173 A 
ATOM     79  F   UNL A   1      41.810  24.274  28.653  1.00  0.00    -0.203 F 
ATOM     80  C   UNL A   1      43.055  24.113  26.660  1.00  0.00     0.198 A 
ATOM     81  C   UNL A   1      44.177  26.050  25.792  1.00  0.00     0.198 A 
ATOM     82  F   UNL A   1      44.051  28.097  26.948  1.00  0.00    -0.203 F 
ATOM     83  F   UNL A   1      42.759  22.810  26.578  1.00  0.00    -0.200 F 
ATOM     84  C   UNL A   1      43.852  24.706  25.691  1.00  0.00     0.200 A 
ATOM     85  F   UNL A   1      44.934  26.629  24.851  1.00  0.00    -0.200 F 
ATOM     86  F   UNL A   1      44.309  23.980  24.661  1.00  0.00    -0.200 F 
ENDBRANCH  52  76
BRANCH  64  87
ATOM     87  C   UNL A   1      45.106  27.288  34.380  1.00  0.00     0.064 A 
ATOM     88  C   UNL A   1      46.343  27.948  34.417  1.00  0.00     0.173 A 
ATOM     89  C   UNL A   1      44.970  26.106  35.126  1.00  0.00     0.173 A 
ATOM     90  F   UNL A   1      46.528  29.073  33.710  1.00  0.00    -0.203 F 
ATOM     91  C   UNL A   1      47.409  27.431  35.150  1.00  0.00     0.198 A 
ATOM     92  C   UNL A   1      46.029  25.608  35.879  1.00  0.00     0.198 A 
ATOM     93  F   UNL A   1      43.806  25.440  35.131  1.00  0.00    -0.203 F 
ATOM     94  F   UNL A   1      48.596  28.054  35.130  1.00  0.00    -0.200 F 
ATOM     95  C   UNL A   1      47.250  26.266  35.884  1.00  0.00     0.200 A 
ATOM     96  F   UNL A   1      45.871  24.488  36.598  1.00  0.00    -0.200 F 
ATOM     97  F   UNL A   1      48.276  25.772  36.591  1.00  0.00    -0.200 F 
ENDBRANCH  64  87
ENDBRANCH  38  39
ENDBRANCH  30  33
ENDBRANCH  28  29
ENDBRANCH  27  28
ENDBRANCH  26  27
ENDBRANCH  25  26
ENDBRANCH   1  25
TORSDOF 18
ENDMDL
MODEL 2
REMARK VINA RESULT:     -11.3      2.381      4.781
REMARK SMILES COCc1cccc(C(=O)N2C[C@@H](O)C[C@@H]2C(=O)NCCCCCCNC(=O)c2ccc(-c3c4nc(c(-c5c(F)c(F)c(F)c(F)c5F)c5ccc([nH]5)c(-c5c(F)c(F)c(F)c(F)c5F)c5nc(c(-c6c(F)c(F)c(F)c(F)c6F)c6ccc3[nH]6)C=C5)C=C4)cc2)c1
REMARK SMILES IDX 21 1 20 2 19 3 17 4 18 5 16 7 11 8 12 9 13 10 15 11 9 12
REMARK SMILES IDX 10 13 8 14 4 15 5 16 92 17 6 18 7 19 3 20 2 21 1 22 14 23
REMARK SMILES IDX 22 25 23 26 24 27 25 28 26 29 27 30 28 32 29 33 30 34 91 35
REMARK SMILES IDX 31 36 90 37 32 38 33 39 34 40 84 41 35 42 89 43 83 44 85 45
REMARK SMILES IDX 36 46 88 47 82 48 81 49 37 51 69 52 49 53 68 54 50 55 53 56
REMARK SMILES IDX 67 57 86 58 51 59 52 60 66 62 87 63 54 64 38 65 39 66 47 67
REMARK SMILES IDX 40 68 41 69 45 70 48 71 42 72 43 73 46 74 44 75 70 76 71 77
REMARK SMILES IDX 79 78 72 79 73 80 77 81 80 82 74 83 75 84 78 85 76 86 55 87
REMARK SMILES IDX 56 88 64 89 57 90 58 91 62 92 65 93 59 94 60 95 63 96 61 97
REMARK H PARENT 19 6 14 24 26 31 85 50 53 61
REMARK Flexibility Score: inf
ROOT
ATOM      1  C   UNL A   1      33.911  28.544  27.196  1.00  0.00     0.021 C 
ENDROOT
BRANCH   1   2
ATOM      2  C   UNL A   1      33.627  27.457  26.158  1.00  0.00     0.116 C 
BRANCH   2   3
ATOM      3  N   UNL A   1      32.436  26.704  26.471  1.00  0.00    -0.354 N 
ATOM      4  C   UNL A   1      32.028  25.441  26.200  1.00  0.00     0.242 C 
ATOM      5  O   UNL A   1      31.029  25.091  26.848  1.00  0.00    -0.273 OA
ATOM      6  H   UNL A   1      31.780  27.218  26.994  1.00  0.00     0.163 HD
BRANCH   4   7
ATOM      7  C   UNL A   1      32.763  24.389  25.309  1.00  0.00     0.177 C 
ATOM      8  N   UNL A   1      32.357  24.081  23.922  1.00  0.00    -0.324 N 
ATOM      9  C   UNL A   1      32.111  22.651  23.779  1.00  0.00     0.152 C 
ATOM     10  C   UNL A   1      31.685  22.225  25.169  1.00  0.00     0.136 C 
ATOM     11  C   UNL A   1      32.663  23.017  26.030  1.00  0.00     0.069 C 
BRANCH   8  12
ATOM     12  C   UNL A   1      32.826  24.809  22.840  1.00  0.00     0.254 C 
ATOM     13  O   UNL A   1      33.731  24.404  22.118  1.00  0.00    -0.269 OA
BRANCH  12  14
ATOM     14  C   UNL A   1      32.355  26.233  22.717  1.00  0.00     0.040 A 
ATOM     15  C   UNL A   1      30.590  27.909  22.963  1.00  0.00    -0.022 A 
ATOM     16  C   UNL A   1      31.558  28.918  22.960  1.00  0.00     0.006 A 
ATOM     17  C   UNL A   1      31.000  26.574  22.837  1.00  0.00     0.020 A 
ATOM     18  C   UNL A   1      32.911  28.593  22.843  1.00  0.00     0.001 A 
ATOM     19  C   UNL A   1      33.308  27.259  22.722  1.00  0.00     0.014 A 
BRANCH  15  20
ATOM     20  C   UNL A   1      29.123  28.218  23.125  1.00  0.00     0.195 C 
BRANCH  20  21
ATOM     21  O   UNL A   1      28.881  29.621  23.126  1.00  0.00    -0.380 OA
ATOM     22  C   UNL A   1      28.030  30.035  22.064  1.00  0.00     0.195 C 
ENDBRANCH  20  21
ENDBRANCH  15  20
ENDBRANCH  12  14
ENDBRANCH   8  12
BRANCH  10  23
ATOM     23  O   UNL A   1      31.775  20.830  25.379  1.00  0.00    -0.391 OA
ATOM     24  H   UNL A   1      32.688  20.539  25.231  1.00  0.00     0.211 HD
ENDBRANCH  10  23
ENDBRANCH   4   7
ENDBRANCH   2   3
ENDBRANCH   1   2
BRANCH   1  25
ATOM     25  C   UNL A   1      33.443  29.948  26.799  1.00  0.00     0.002 C 
BRANCH  25  26
ATOM     26  C   UNL A   1      31.927  30.185  26.842  1.00  0.00     0.002 C 
BRANCH  26  27
ATOM     27  C   UNL A   1      31.459  31.645  26.876  1.00  0.00     0.021 C 
BRANCH  27  28
ATOM     28  C   UNL A   1      32.518  32.701  26.557  1.00  0.00     0.116 C 
BRANCH  28  29
ATOM     29  N   UNL A   1      32.319  33.934  27.293  1.00  0.00    -0.352 N 
ATOM     30  C   UNL A   1      32.980  34.456  28.375  1.00  0.00     0.251 C 
ATOM     31  H   UNL A   1      31.580  34.492  26.959  1.00  0.00     0.163 HD
ATOM     32  O   UNL A   1      32.527  35.463  28.916  1.00  0.00    -0.269 OA
BRANCH  30  33
ATOM     33  C   UNL A   1      34.216  33.843  28.921  1.00  0.00     0.039 A 
ATOM     34  C   UNL A   1      34.073  32.749  29.782  1.00  0.00     0.014 A 
ATOM     35  C   UNL A   1      35.491  34.373  28.695  1.00  0.00     0.014 A 
ATOM     36  C   UNL A   1      35.192  32.178  30.393  1.00  0.00     0.010 A 
ATOM     37  C   UNL A   1      36.619  33.767  29.266  1.00  0.00     0.010 A 
ATOM     38  C   UNL A   1      36.480  32.671  30.133  1.00  0.00    -0.014 A 
BRANCH  38  39
ATOM     39  C   UNL A   1      37.661  32.035  30.778  1.00  0.00     0.031 A 
ATOM     40  C   UNL A   1      38.089  32.416  32.168  1.00  0.00     0.074 A 
ATOM     41  C   UNL A   1      38.356  31.095  30.107  1.00  0.00     0.049 A 
ATOM     42  N   UNL A   1      39.043  31.907  32.909  1.00  0.00    -0.248 NA
ATOM     43  C   UNL A   1      37.367  33.527  32.804  1.00  0.00     0.031 C 
ATOM     44  C   UNL A   1      38.087  30.669  28.734  1.00  0.00     0.029 A 
ATOM     45  N   UNL A   1      39.428  30.327  30.491  1.00  0.00    -0.354 N 
ATOM     46  C   UNL A   1      39.040  32.636  34.091  1.00  0.00     0.074 A 
ATOM     47  C   UNL A   1      38.022  33.656  33.951  1.00  0.00     0.031 C 
ATOM     48  C   UNL A   1      38.952  29.700  28.398  1.00  0.00     0.029 A 
ATOM     49  C   UNL A   1      39.848  29.446  29.524  1.00  0.00     0.049 A 
ATOM     50  H   UNL A   1      39.854  30.399  31.375  1.00  0.00     0.167 HD
ATOM     51  C   UNL A   1      39.801  32.460  35.200  1.00  0.00     0.037 A 
ATOM     52  C   UNL A   1      40.833  28.528  29.543  1.00  0.00     0.037 A 
ATOM     53  C   UNL A   1      40.797  31.430  35.354  1.00  0.00     0.049 A 
ATOM     54  C   UNL A   1      41.639  28.327  30.797  1.00  0.00     0.074 A 
ATOM     55  C   UNL A   1      41.558  31.126  36.471  1.00  0.00     0.029 A 
ATOM     56  N   UNL A   1      41.178  30.541  34.360  1.00  0.00    -0.354 N 
ATOM     57  N   UNL A   1      41.557  28.956  31.942  1.00  0.00    -0.248 NA
ATOM     58  C   UNL A   1      42.661  27.270  30.765  1.00  0.00     0.031 C 
ATOM     59  C   UNL A   1      42.432  30.085  36.137  1.00  0.00     0.029 A 
ATOM     60  C   UNL A   1      42.180  29.706  34.829  1.00  0.00     0.049 A 
ATOM     61  H   UNL A   1      40.792  30.509  33.454  1.00  0.00     0.167 HD
ATOM     62  C   UNL A   1      42.495  28.360  32.774  1.00  0.00     0.074 A 
ATOM     63  C   UNL A   1      43.124  27.306  32.006  1.00  0.00     0.031 C 
ATOM     64  C   UNL A   1      42.804  28.660  34.060  1.00  0.00     0.037 A 
BRANCH  51  65
ATOM     65  C   UNL A   1      39.587  33.407  36.346  1.00  0.00     0.064 A 
ATOM     66  C   UNL A   1      38.726  33.096  37.409  1.00  0.00     0.173 A 
ATOM     67  C   UNL A   1      40.289  34.621  36.405  1.00  0.00     0.173 A 
ATOM     68  F   UNL A   1      38.027  31.951  37.397  1.00  0.00    -0.203 F 
ATOM     69  C   UNL A   1      38.551  33.978  38.472  1.00  0.00     0.198 A 
ATOM     70  C   UNL A   1      40.134  35.488  37.485  1.00  0.00     0.198 A 
ATOM     71  F   UNL A   1      41.133  34.964  35.421  1.00  0.00    -0.203 F 
ATOM     72  F   UNL A   1      37.686  33.680  39.452  1.00  0.00    -0.200 F 
ATOM     73  C   UNL A   1      39.259  35.169  38.512  1.00  0.00     0.200 A 
ATOM     74  F   UNL A   1      40.829  36.632  37.528  1.00  0.00    -0.200 F 
ATOM     75  F   UNL A   1      39.094  36.014  39.539  1.00  0.00    -0.200 F 
ENDBRANCH  51  65
BRANCH  52  76
ATOM     76  C   UNL A   1      41.083  27.699  28.336  1.00  0.00     0.064 A 
ATOM     77  C   UNL A   1      41.998  28.105  27.357  1.00  0.00     0.173 A 
ATOM     78  C   UNL A   1      40.419  26.478  28.146  1.00  0.00     0.173 A 
ATOM     79  F   UNL A   1      42.640  29.275  27.485  1.00  0.00    -0.203 F 
ATOM     80  C   UNL A   1      42.232  27.328  26.224  1.00  0.00     0.198 A 
ATOM     81  C   UNL A   1      40.673  25.689  27.028  1.00  0.00     0.198 A 
ATOM     82  F   UNL A   1      39.538  26.044  29.060  1.00  0.00    -0.203 F 
ATOM     83  F   UNL A   1      43.085  27.756  25.284  1.00  0.00    -0.200 F 
ATOM     84  C   UNL A   1      41.574  26.117  26.064  1.00  0.00     0.200 A 
ATOM     85  F   UNL A   1      40.046  24.513  26.884  1.00  0.00    -0.200 F 
ATOM     86  F   UNL A   1      41.806  25.364  24.980  1.00  0.00    -0.200 F 
ENDBRANCH  52  76
BRANCH  64  87
ATOM     87  C   UNL A   1      43.855  27.821  34.730  1.00  0.00     0.064 A 
ATOM     88  C   UNL A   1      43.542  26.601  35.346  1.00  0.00     0.173 A 
ATOM     89  C   UNL A   1      45.198  28.231  34.730  1.00  0.00     0.173 A 
ATOM     90  F   UNL A   1      42.272  26.171  35.385  1.00  0.00    -0.203 F 
ATOM     91  C   UNL A   1      44.530  25.834  35.961  1.00  0.00     0.198 A 
ATOM     92  C   UNL A   1      46.186  27.450  35.321  1.00  0.00     0.198 A 
ATOM     93  F   UNL A   1      45.552  29.387  34.149  1.00  0.00    -0.203 F 
ATOM     94  F   UNL A   1      44.199  24.696  36.585  1.00  0.00    -0.200 F 
ATOM     95  C   UNL A   1      45.851  26.256  35.944  1.00  0.00     0.200 A 
ATOM     96  F   UNL A   1      47.464  27.852  35.293  1.00  0.00    -0.200 F 
ATOM     97  F   UNL A   1      46.800  25.516  36.533  1.00  0.00    -0.200 F 
ENDBRANCH  64  87
ENDBRANCH  38  39
ENDBRANCH  30  33
ENDBRANCH  28  29
ENDBRANCH  27  28
ENDBRANCH  26  27
ENDBRANCH  25  26
ENDBRANCH   1  25
TORSDOF 18
ENDMDL
MODEL 3
REMARK VINA RESULT:     -11.3      4.368      9.857
REMARK SMILES COCc1cccc(C(=O)N2C[C@@H](O)C[C@@H]2C(=O)NCCCCCCNC(=O)c2ccc(-c3c4nc(c(-c5c(F)c(F)c(F)c(F)c5F)c5ccc([nH]5)c(-c5c(F)c(F)c(F)c(F)c5F)c5nc(c(-c6c(F)c(F)c(F)c(F)c6F)c6ccc3[nH]6)C=C5)C=C4)cc2)c1
REMARK SMILES IDX 21 1 20 2 19 3 17 4 18 5 16 7 11 8 12 9 13 10 15 11 9 12
REMARK SMILES IDX 10 13 8 14 4 15 5 16 92 17 6 18 7 19 3 20 2 21 1 22 14 23
REMARK SMILES IDX 22 25 23 26 24 27 25 28 26 29 27 30 28 32 29 33 30 34 91 35
REMARK SMILES IDX 31 36 90 37 32 38 33 39 34 40 84 41 35 42 89 43 83 44 85 45
REMARK SMILES IDX 36 46 88 47 82 48 81 49 37 51 69 52 49 53 68 54 50 55 53 56
REMARK SMILES IDX 67 57 86 58 51 59 52 60 66 62 87 63 54 64 38 65 39 66 47 67
REMARK SMILES IDX 40 68 41 69 45 70 48 71 42 72 43 73 46 74 44 75 70 76 71 77
REMARK SMILES IDX 79 78 72 79 73 80 77 81 80 82 74 83 75 84 78 85 76 86 55 87
REMARK SMILES IDX 56 88 64 89 57 90 58 91 62 92 65 93 59 94 60 95 63 96 61 97
REMARK H PARENT 19 6 14 24 26 31 85 50 53 61
REMARK Flexibility Score: inf
ROOT
ATOM      1  C   UNL A   1      36.758  22.325  24.162  1.00  0.00     0.021 C 
ENDROOT
BRANCH   1   2
ATOM      2  C   UNL A   1      36.182  23.721  24.403  1.00  0.00     0.116 C 
BRANCH   2   3
ATOM      3  N   UNL A   1      34.944  23.928  23.692  1.00  0.00    -0.354 N 
ATOM      4  C   UNL A   1      33.638  23.882  24.049  1.00  0.00     0.242 C 
ATOM      5  O   UNL A   1      32.870  24.352  23.194  1.00  0.00    -0.273 OA
ATOM      6  H   UNL A   1      35.076  24.153  22.742  1.00  0.00     0.163 HD
BRANCH   4   7
ATOM      7  C   UNL A   1      33.061  23.455  25.437  1.00  0.00     0.177 C 
ATOM      8  N   UNL A   1      32.264  22.228  25.637  1.00  0.00    -0.324 N 
ATOM      9  C   UNL A   1      30.983  22.557  26.253  1.00  0.00     0.152 C 
ATOM     10  C   UNL A   1      30.721  23.974  25.782  1.00  0.00     0.136 C 
ATOM     11  C   UNL A   1      32.111  24.588  25.913  1.00  0.00     0.069 C 
BRANCH   8  12
ATOM     12  C   UNL A   1      32.855  21.002  25.899  1.00  0.00     0.254 C 
ATOM     13  O   UNL A   1      33.495  20.785  26.923  1.00  0.00    -0.269 OA
BRANCH  12  14
ATOM     14  C   UNL A   1      32.896  20.008  24.770  1.00  0.00     0.040 A 
ATOM     15  C   UNL A   1      32.990  17.691  23.989  1.00  0.00    -0.022 A 
ATOM     16  C   UNL A   1      32.501  18.098  22.745  1.00  0.00     0.006 A 
ATOM     17  C   UNL A   1      33.186  18.653  24.990  1.00  0.00     0.020 A 
ATOM     18  C   UNL A   1      32.206  19.442  22.512  1.00  0.00     0.001 A 
ATOM     19  C   UNL A   1      32.402  20.393  23.517  1.00  0.00     0.014 A 
BRANCH  15  20
ATOM     20  C   UNL A   1      33.285  16.244  24.291  1.00  0.00     0.195 C 
BRANCH  20  21
ATOM     21  O   UNL A   1      33.993  16.099  25.518  1.00  0.00    -0.380 OA
ATOM     22  C   UNL A   1      35.403  16.049  25.339  1.00  0.00     0.195 C 
ENDBRANCH  20  21
ENDBRANCH  15  20
ENDBRANCH  12  14
ENDBRANCH   8  12
BRANCH  10  23
ATOM     23  O   UNL A   1      29.749  24.649  26.555  1.00  0.00    -0.391 OA
ATOM     24  H   UNL A   1      30.088  24.787  27.454  1.00  0.00     0.211 HD
ENDBRANCH  10  23
ENDBRANCH   4   7
ENDBRANCH   2   3
ENDBRANCH   1   2
BRANCH   1  25
ATOM     25  C   UNL A   1      36.575  21.346  25.326  1.00  0.00     0.002 C 
BRANCH  25  26
ATOM     26  C   UNL A   1      36.582  19.857  24.956  1.00  0.00     0.002 C 
BRANCH  26  27
ATOM     27  C   UNL A   1      37.944  19.151  24.968  1.00  0.00     0.021 C 
BRANCH  27  28
ATOM     28  C   UNL A   1      39.051  19.833  25.772  1.00  0.00     0.116 C 
BRANCH  28  29
ATOM     29  N   UNL A   1      40.274  19.055  25.811  1.00  0.00    -0.352 N 
ATOM     30  C   UNL A   1      41.570  19.424  26.060  1.00  0.00     0.251 C 
ATOM     31  H   UNL A   1      40.152  18.096  25.627  1.00  0.00     0.163 HD
ATOM     32  O   UNL A   1      42.464  18.597  25.893  1.00  0.00    -0.269 OA
BRANCH  30  33
ATOM     33  C   UNL A   1      41.934  20.790  26.513  1.00  0.00     0.039 A 
ATOM     34  C   UNL A   1      42.104  21.776  25.534  1.00  0.00     0.014 A 
ATOM     35  C   UNL A   1      42.210  21.100  27.849  1.00  0.00     0.014 A 
ATOM     36  C   UNL A   1      42.524  23.060  25.887  1.00  0.00     0.010 A 
ATOM     37  C   UNL A   1      42.579  22.403  28.210  1.00  0.00     0.010 A 
ATOM     38  C   UNL A   1      42.755  23.393  27.231  1.00  0.00    -0.014 A 
BRANCH  38  39
ATOM     39  C   UNL A   1      43.182  24.774  27.589  1.00  0.00     0.031 A 
ATOM     40  C   UNL A   1      44.597  25.233  27.371  1.00  0.00     0.074 A 
ATOM     41  C   UNL A   1      42.283  25.631  28.111  1.00  0.00     0.049 A 
ATOM     42  N   UNL A   1      45.119  26.422  27.552  1.00  0.00    -0.248 NA
ATOM     43  C   UNL A   1      45.559  24.223  26.909  1.00  0.00     0.031 C 
ATOM     44  C   UNL A   1      40.893  25.303  28.428  1.00  0.00     0.029 A 
ATOM     45  N   UNL A   1      42.403  26.953  28.465  1.00  0.00    -0.354 N 
ATOM     46  C   UNL A   1      46.466  26.301  27.233  1.00  0.00     0.074 A 
ATOM     47  C   UNL A   1      46.692  24.912  26.894  1.00  0.00     0.031 C 
ATOM     48  C   UNL A   1      40.282  26.399  28.905  1.00  0.00     0.029 A 
ATOM     49  C   UNL A   1      41.239  27.502  28.944  1.00  0.00     0.049 A 
ATOM     50  H   UNL A   1      43.243  27.459  28.382  1.00  0.00     0.167 HD
ATOM     51  C   UNL A   1      47.420  27.264  27.205  1.00  0.00     0.037 A 
ATOM     52  C   UNL A   1      40.965  28.755  29.356  1.00  0.00     0.037 A 
ATOM     53  C   UNL A   1      47.194  28.652  27.516  1.00  0.00     0.049 A 
ATOM     54  C   UNL A   1      42.032  29.813  29.281  1.00  0.00     0.074 A 
ATOM     55  C   UNL A   1      48.083  29.711  27.435  1.00  0.00     0.029 A 
ATOM     56  N   UNL A   1      45.994  29.176  27.975  1.00  0.00    -0.354 N 
ATOM     57  N   UNL A   1      43.275  29.707  28.881  1.00  0.00    -0.248 NA
ATOM     58  C   UNL A   1      41.649  31.171  29.694  1.00  0.00     0.031 C 
ATOM     59  C   UNL A   1      47.436  30.865  27.890  1.00  0.00     0.029 A 
ATOM     60  C   UNL A   1      46.128  30.536  28.206  1.00  0.00     0.049 A 
ATOM     61  H   UNL A   1      45.169  28.656  28.115  1.00  0.00     0.167 HD
ATOM     62  C   UNL A   1      43.815  30.983  28.972  1.00  0.00     0.074 A 
ATOM     63  C   UNL A   1      42.760  31.851  29.449  1.00  0.00     0.031 C 
ATOM     64  C   UNL A   1      45.074  31.395  28.682  1.00  0.00     0.037 A 
BRANCH  51  65
ATOM     65  C   UNL A   1      48.813  26.849  26.822  1.00  0.00     0.064 A 
ATOM     66  C   UNL A   1      49.726  26.366  27.772  1.00  0.00     0.173 A 
ATOM     67  C   UNL A   1      49.224  26.893  25.481  1.00  0.00     0.173 A 
ATOM     68  F   UNL A   1      49.384  26.311  29.068  1.00  0.00    -0.203 F 
ATOM     69  C   UNL A   1      51.007  25.971  27.397  1.00  0.00     0.198 A 
ATOM     70  C   UNL A   1      50.497  26.469  25.106  1.00  0.00     0.198 A 
ATOM     71  F   UNL A   1      48.388  27.337  24.531  1.00  0.00    -0.203 F 
ATOM     72  F   UNL A   1      51.878  25.557  28.330  1.00  0.00    -0.200 F 
ATOM     73  C   UNL A   1      51.389  26.016  26.066  1.00  0.00     0.200 A 
ATOM     74  F   UNL A   1      50.860  26.501  23.817  1.00  0.00    -0.200 F 
ATOM     75  F   UNL A   1      52.622  25.630  25.707  1.00  0.00    -0.200 F 
ENDBRANCH  51  65
BRANCH  52  76
ATOM     76  C   UNL A   1      39.600  29.083  29.842  1.00  0.00     0.064 A 
ATOM     77  C   UNL A   1      38.617  29.560  28.967  1.00  0.00     0.173 A 
ATOM     78  C   UNL A   1      39.251  28.913  31.190  1.00  0.00     0.173 A 
ATOM     79  F   UNL A   1      38.911  29.759  27.673  1.00  0.00    -0.203 F 
ATOM     80  C   UNL A   1      37.336  29.868  29.422  1.00  0.00     0.198 A 
ATOM     81  C   UNL A   1      37.964  29.195  31.639  1.00  0.00     0.198 A 
ATOM     82  F   UNL A   1      40.158  28.453  32.065  1.00  0.00    -0.203 F 
ATOM     83  F   UNL A   1      36.424  30.357  28.572  1.00  0.00    -0.200 F 
ATOM     84  C   UNL A   1      37.009  29.678  30.757  1.00  0.00     0.200 A 
ATOM     85  F   UNL A   1      37.648  28.997  32.926  1.00  0.00    -0.200 F 
ATOM     86  F   UNL A   1      35.776  29.965  31.194  1.00  0.00    -0.200 F 
ENDBRANCH  52  76
BRANCH  64  87
ATOM     87  C   UNL A   1      45.376  32.857  28.850  1.00  0.00     0.064 A 
ATOM     88  C   UNL A   1      45.850  33.377  30.063  1.00  0.00     0.173 A 
ATOM     89  C   UNL A   1      45.217  33.744  27.773  1.00  0.00     0.173 A 
ATOM     90  F   UNL A   1      46.006  32.575  31.126  1.00  0.00    -0.203 F 
ATOM     91  C   UNL A   1      46.127  34.736  30.200  1.00  0.00     0.198 A 
ATOM     92  C   UNL A   1      45.521  35.095  27.906  1.00  0.00     0.198 A 
ATOM     93  F   UNL A   1      44.773  33.297  26.589  1.00  0.00    -0.203 F 
ATOM     94  F   UNL A   1      46.532  35.218  31.384  1.00  0.00    -0.200 F 
ATOM     95  C   UNL A   1      45.968  35.592  29.121  1.00  0.00     0.200 A 
ATOM     96  F   UNL A   1      45.378  35.920  26.859  1.00  0.00    -0.200 F 
ATOM     97  F   UNL A   1      46.238  36.898  29.255  1.00  0.00    -0.200 F 
ENDBRANCH  64  87
ENDBRANCH  38  39
ENDBRANCH  30  33
ENDBRANCH  28  29
ENDBRANCH  27  28
ENDBRANCH  26  27
ENDBRANCH  25  26
ENDBRANCH   1  25
TORSDOF 18
ENDMDL
