MODEL 1
REMARK VINA RESULT:     -12.3      0.000      0.000
REMARK SMILES C[C@]1(C(=O)NCCCCCCNC(=O)c2ccc(-c3c4nc(c(-c5c(F)c(F)c(F)c(F)c5F)c5ccc([nH]5)c(-c5c(F)c(F)c(F)c(F)c5F)c5nc(c(-c6c(F)c(F)c(F)c(F)c6F)c6ccc3[nH]6)C=C5)C=C4)cc2)COC[C@H]1Nc1ccc2nnnn2n1
REMARK SMILES IDX 8 1 7 2 6 3 5 4 3 5 4 6 2 8 1 9 78 10 81 11 79 12 80 13
REMARK SMILES IDX 82 14 83 16 84 17 91 18 85 19 90 20 86 21 89 22 87 23 88 24
REMARK SMILES IDX 9 25 10 26 11 27 12 28 13 29 14 31 15 32 16 33 77 34 17 35
REMARK SMILES IDX 76 36 18 37 19 38 20 39 70 40 21 41 75 42 69 43 71 44 22 45
REMARK SMILES IDX 74 46 68 47 67 48 23 50 55 51 35 52 54 53 36 54 39 55 53 56
REMARK SMILES IDX 72 57 37 58 38 59 52 61 73 62 40 63 24 64 25 65 33 66 26 67
REMARK SMILES IDX 27 68 31 69 34 70 28 71 29 72 32 73 30 74 56 75 57 76 65 77
REMARK SMILES IDX 58 78 59 79 63 80 66 81 60 82 61 83 64 84 62 85 41 86 42 87
REMARK SMILES IDX 50 88 43 89 44 90 48 91 51 92 45 93 46 94 49 95 47 96
REMARK H PARENT 5 7 82 15 12 30 71 49 39 60
REMARK Flexibility Score: inf
ROOT
ATOM      1  C   UNL A   1      32.428  29.860  26.910  1.00  0.00     0.002 C 
ENDROOT
BRANCH   1   2
ATOM      2  C   UNL A   1      31.800  28.618  27.547  1.00  0.00     0.021 C 
BRANCH   2   3
ATOM      3  C   UNL A   1      31.354  27.584  26.504  1.00  0.00     0.116 C 
BRANCH   3   4
ATOM      4  N   UNL A   1      32.252  26.459  26.516  1.00  0.00    -0.355 N 
ATOM      5  C   UNL A   1      32.857  25.753  25.544  1.00  0.00     0.230 C 
ATOM      6  O   UNL A   1      33.452  24.751  25.978  1.00  0.00    -0.274 OA
ATOM      7  H   UNL A   1      32.467  26.141  27.423  1.00  0.00     0.163 HD
BRANCH   5   8
ATOM      8  C   UNL A   1      33.042  26.156  24.067  1.00  0.00     0.092 C 
ATOM      9  C   UNL A   1      33.767  27.525  24.099  1.00  0.00     0.026 C 
ATOM     10  C   UNL A   1      34.028  25.080  23.514  1.00  0.00     0.179 C 
ATOM     11  C   UNL A   1      32.007  26.202  22.927  1.00  0.00     0.124 C 
ATOM     12  O   UNL A   1      33.743  24.872  22.125  1.00  0.00    -0.378 OA
ATOM     13  C   UNL A   1      32.336  25.026  22.014  1.00  0.00     0.186 C 
BRANCH  11  14
ATOM     14  N   UNL A   1      30.568  26.278  23.178  1.00  0.00    -0.362 N 
ATOM     15  H   UNL A   1      30.060  25.505  23.516  1.00  0.00     0.162 HD
BRANCH  14  16
ATOM     16  C   UNL A   1      29.958  27.490  22.918  1.00  0.00     0.149 A 
ATOM     17  C   UNL A   1      30.831  28.622  22.377  1.00  0.00     0.053 A 
ATOM     18  N   UNL A   1      28.696  27.643  23.213  1.00  0.00    -0.129 NA
ATOM     19  C   UNL A   1      30.489  29.804  22.929  1.00  0.00     0.057 A 
ATOM     20  N   UNL A   1      28.298  28.934  23.177  1.00  0.00    -0.108 N 
ATOM     21  C   UNL A   1      29.106  30.047  23.114  1.00  0.00     0.200 A 
ATOM     22  N   UNL A   1      27.034  29.318  23.395  1.00  0.00    -0.022 NA
ATOM     23  N   UNL A   1      28.372  31.111  23.341  1.00  0.00    -0.107 NA
ATOM     24  N   UNL A   1      27.084  30.643  23.490  1.00  0.00    -0.022 NA
ENDBRANCH  14  16
ENDBRANCH  11  14
ENDBRANCH   5   8
ENDBRANCH   3   4
ENDBRANCH   2   3
ENDBRANCH   1   2
BRANCH   1  25
ATOM     25  C   UNL A   1      31.422  30.719  26.139  1.00  0.00     0.002 C 
BRANCH  25  26
ATOM     26  C   UNL A   1      31.325  32.176  26.605  1.00  0.00     0.021 C 
BRANCH  26  27
ATOM     27  C   UNL A   1      32.643  32.788  27.075  1.00  0.00     0.116 C 
BRANCH  27  28
ATOM     28  N   UNL A   1      32.470  34.144  27.576  1.00  0.00    -0.352 N 
ATOM     29  C   UNL A   1      33.064  34.779  28.631  1.00  0.00     0.251 C 
ATOM     30  H   UNL A   1      31.823  34.691  27.074  1.00  0.00     0.163 HD
ATOM     31  O   UNL A   1      32.606  35.854  29.035  1.00  0.00    -0.269 OA
BRANCH  29  32
ATOM     32  C   UNL A   1      34.242  34.195  29.297  1.00  0.00     0.039 A 
ATOM     33  C   UNL A   1      34.046  33.282  30.338  1.00  0.00     0.014 A 
ATOM     34  C   UNL A   1      35.538  34.571  28.932  1.00  0.00     0.014 A 
ATOM     35  C   UNL A   1      35.147  32.707  30.970  1.00  0.00     0.010 A 
ATOM     36  C   UNL A   1      36.635  33.937  29.509  1.00  0.00     0.010 A 
ATOM     37  C   UNL A   1      36.450  33.004  30.538  1.00  0.00    -0.014 A 
BRANCH  37  38
ATOM     38  C   UNL A   1      37.621  32.319  31.142  1.00  0.00     0.031 A 
ATOM     39  C   UNL A   1      38.130  32.714  32.498  1.00  0.00     0.074 A 
ATOM     40  C   UNL A   1      38.257  31.368  30.434  1.00  0.00     0.049 A 
ATOM     41  N   UNL A   1      39.133  32.222  33.181  1.00  0.00    -0.248 NA
ATOM     42  C   UNL A   1      37.441  33.831  33.162  1.00  0.00     0.031 C 
ATOM     43  C   UNL A   1      37.905  30.951  29.076  1.00  0.00     0.029 A 
ATOM     44  N   UNL A   1      39.337  30.584  30.754  1.00  0.00    -0.354 N 
ATOM     45  C   UNL A   1      39.198  32.971  34.349  1.00  0.00     0.074 A 
ATOM     46  C   UNL A   1      38.178  33.992  34.251  1.00  0.00     0.031 C 
ATOM     47  C   UNL A   1      38.732  29.968  28.690  1.00  0.00     0.029 A 
ATOM     48  C   UNL A   1      39.691  29.707  29.759  1.00  0.00     0.049 A 
ATOM     49  H   UNL A   1      39.811  30.644  31.614  1.00  0.00     0.167 HD
ATOM     50  C   UNL A   1      40.019  32.804  35.415  1.00  0.00     0.037 A 
ATOM     51  C   UNL A   1      40.677  28.793  29.712  1.00  0.00     0.037 A 
ATOM     52  C   UNL A   1      41.027  31.780  35.506  1.00  0.00     0.049 A 
ATOM     53  C   UNL A   1      41.563  28.611  30.912  1.00  0.00     0.074 A 
ATOM     54  C   UNL A   1      41.861  31.478  36.568  1.00  0.00     0.029 A 
ATOM     55  N   UNL A   1      41.349  30.894  34.485  1.00  0.00    -0.354 N 
ATOM     56  N   UNL A   1      41.557  29.261  32.050  1.00  0.00    -0.248 NA
ATOM     57  C   UNL A   1      42.582  27.558  30.826  1.00  0.00     0.031 C 
ATOM     58  C   UNL A   1      42.724  30.450  36.171  1.00  0.00     0.029 A 
ATOM     59  C   UNL A   1      42.391  30.070  34.880  1.00  0.00     0.049 A 
ATOM     60  H   UNL A   1      40.902  30.858  33.609  1.00  0.00     0.167 HD
ATOM     61  C   UNL A   1      42.561  28.693  32.820  1.00  0.00     0.074 A 
ATOM     62  C   UNL A   1      43.136  27.624  32.028  1.00  0.00     0.031 C 
ATOM     63  C   UNL A   1      42.973  29.027  34.069  1.00  0.00     0.037 A 
BRANCH  50  64
ATOM     64  C   UNL A   1      39.858  33.764  36.562  1.00  0.00     0.064 A 
ATOM     65  C   UNL A   1      40.579  34.967  36.627  1.00  0.00     0.173 A 
ATOM     66  C   UNL A   1      38.970  33.478  37.611  1.00  0.00     0.173 A 
ATOM     67  F   UNL A   1      41.449  35.287  35.656  1.00  0.00    -0.203 F 
ATOM     68  C   UNL A   1      40.457  35.821  37.721  1.00  0.00     0.198 A 
ATOM     69  C   UNL A   1      38.823  34.354  38.685  1.00  0.00     0.198 A 
ATOM     70  F   UNL A   1      38.248  32.348  37.600  1.00  0.00    -0.203 F 
ATOM     71  F   UNL A   1      41.211  36.927  37.792  1.00  0.00    -0.200 F 
ATOM     72  C   UNL A   1      39.576  35.516  38.746  1.00  0.00     0.200 A 
ATOM     73  F   UNL A   1      37.962  34.064  39.669  1.00  0.00    -0.200 F 
ATOM     74  F   UNL A   1      39.462  36.337  39.800  1.00  0.00    -0.200 F 
ENDBRANCH  50  64
BRANCH  51  75
ATOM     75  C   UNL A   1      40.843  27.964  28.491  1.00  0.00     0.064 A 
ATOM     76  C   UNL A   1      40.175  26.740  28.353  1.00  0.00     0.173 A 
ATOM     77  C   UNL A   1      41.634  28.402  27.419  1.00  0.00     0.173 A 
ATOM     78  F   UNL A   1      39.421  26.271  29.358  1.00  0.00    -0.203 F 
ATOM     79  C   UNL A   1      40.298  25.982  27.191  1.00  0.00     0.198 A 
ATOM     80  C   UNL A   1      41.734  27.657  26.247  1.00  0.00     0.198 A 
ATOM     81  F   UNL A   1      42.285  29.572  27.500  1.00  0.00    -0.203 F 
ATOM     82  F   UNL A   1      39.672  24.801  27.096  1.00  0.00    -0.200 F 
ATOM     83  C   UNL A   1      41.069  26.445  26.136  1.00  0.00     0.200 A 
ATOM     84  F   UNL A   1      42.465  28.117  25.224  1.00  0.00    -0.200 F 
ATOM     85  F   UNL A   1      41.173  25.723  25.011  1.00  0.00    -0.200 F 
ENDBRANCH  51  75
BRANCH  63  86
ATOM     86  C   UNL A   1      44.103  28.225  34.650  1.00  0.00     0.064 A 
ATOM     87  C   UNL A   1      45.439  28.628  34.506  1.00  0.00     0.173 A 
ATOM     88  C   UNL A   1      43.849  27.045  35.367  1.00  0.00     0.173 A 
ATOM     89  F   UNL A   1      45.739  29.741  33.818  1.00  0.00    -0.203 F 
ATOM     90  C   UNL A   1      46.480  27.861  35.024  1.00  0.00     0.198 A 
ATOM     91  C   UNL A   1      44.890  26.299  35.912  1.00  0.00     0.198 A 
ATOM     92  F   UNL A   1      42.589  26.618  35.541  1.00  0.00    -0.203 F 
ATOM     93  F   UNL A   1      47.751  28.234  34.818  1.00  0.00    -0.200 F 
ATOM     94  C   UNL A   1      46.203  26.700  35.731  1.00  0.00     0.200 A 
ATOM     95  F   UNL A   1      44.620  25.186  36.608  1.00  0.00    -0.200 F 
ATOM     96  F   UNL A   1      47.207  25.964  36.229  1.00  0.00    -0.200 F 
ENDBRANCH  63  86
ENDBRANCH  37  38
ENDBRANCH  29  32
ENDBRANCH  27  28
ENDBRANCH  26  27
ENDBRANCH  25  26
ENDBRANCH   1  25
TORSDOF 15
ENDMDL
MODEL 2
REMARK VINA RESULT:     -12.2      6.304     10.647
REMARK SMILES C[C@]1(C(=O)NCCCCCCNC(=O)c2ccc(-c3c4nc(c(-c5c(F)c(F)c(F)c(F)c5F)c5ccc([nH]5)c(-c5c(F)c(F)c(F)c(F)c5F)c5nc(c(-c6c(F)c(F)c(F)c(F)c6F)c6ccc3[nH]6)C=C5)C=C4)cc2)COC[C@H]1Nc1ccc2nnnn2n1
REMARK SMILES IDX 8 1 7 2 6 3 5 4 3 5 4 6 2 8 1 9 78 10 81 11 79 12 80 13
REMARK SMILES IDX 82 14 83 16 84 17 91 18 85 19 90 20 86 21 89 22 87 23 88 24
REMARK SMILES IDX 9 25 10 26 11 27 12 28 13 29 14 31 15 32 16 33 77 34 17 35
REMARK SMILES IDX 76 36 18 37 19 38 20 39 70 40 21 41 75 42 69 43 71 44 22 45
REMARK SMILES IDX 74 46 68 47 67 48 23 50 55 51 35 52 54 53 36 54 39 55 53 56
REMARK SMILES IDX 72 57 37 58 38 59 52 61 73 62 40 63 24 64 25 65 33 66 26 67
REMARK SMILES IDX 27 68 31 69 34 70 28 71 29 72 32 73 30 74 56 75 57 76 65 77
REMARK SMILES IDX 58 78 59 79 63 80 66 81 60 82 61 83 64 84 62 85 41 86 42 87
REMARK SMILES IDX 50 88 43 89 44 90 48 91 51 92 45 93 46 94 49 95 47 96
REMARK H PARENT 5 7 82 15 12 30 71 49 39 60
REMARK Flexibility Score: inf
ROOT
ATOM      1  C   UNL A   1      37.417  21.776  24.387  1.00  0.00     0.002 C 
ENDROOT
BRANCH   1   2
ATOM      2  C   UNL A   1      37.569  22.873  25.444  1.00  0.00     0.021 C 
BRANCH   2   3
ATOM      3  C   UNL A   1      36.335  23.781  25.530  1.00  0.00     0.116 C 
BRANCH   3   4
ATOM      4  N   UNL A   1      35.420  23.465  24.466  1.00  0.00    -0.355 N 
ATOM      5  C   UNL A   1      34.270  22.768  24.417  1.00  0.00     0.230 C 
ATOM      6  O   UNL A   1      33.855  22.608  23.257  1.00  0.00    -0.274 OA
ATOM      7  H   UNL A   1      35.691  23.835  23.595  1.00  0.00     0.163 HD
BRANCH   5   8
ATOM      8  C   UNL A   1      33.371  22.355  25.601  1.00  0.00     0.092 C 
ATOM      9  C   UNL A   1      34.341  22.057  26.772  1.00  0.00     0.026 C 
ATOM     10  C   UNL A   1      32.576  23.657  25.929  1.00  0.00     0.179 C 
ATOM     11  C   UNL A   1      32.239  21.312  25.654  1.00  0.00     0.124 C 
ATOM     12  O   UNL A   1      31.289  23.287  26.441  1.00  0.00    -0.378 OA
ATOM     13  C   UNL A   1      30.940  22.107  25.736  1.00  0.00     0.186 C 
BRANCH  11  14
ATOM     14  N   UNL A   1      32.126  20.229  24.678  1.00  0.00    -0.362 N 
ATOM     15  H   UNL A   1      31.595  20.328  23.854  1.00  0.00     0.162 HD
BRANCH  14  16
ATOM     16  C   UNL A   1      32.802  19.060  24.970  1.00  0.00     0.149 A 
ATOM     17  C   UNL A   1      34.292  18.999  24.636  1.00  0.00     0.053 A 
ATOM     18  N   UNL A   1      32.136  18.041  25.441  1.00  0.00    -0.129 NA
ATOM     19  C   UNL A   1      34.630  17.790  24.143  1.00  0.00     0.057 A 
ATOM     20  N   UNL A   1      32.845  16.890  25.417  1.00  0.00    -0.108 N 
ATOM     21  C   UNL A   1      34.028  16.662  24.751  1.00  0.00     0.200 A 
ATOM     22  N   UNL A   1      32.378  15.732  25.898  1.00  0.00    -0.022 NA
ATOM     23  N   UNL A   1      34.274  15.373  24.767  1.00  0.00    -0.107 NA
ATOM     24  N   UNL A   1      33.253  14.813  25.505  1.00  0.00    -0.022 NA
ENDBRANCH  14  16
ENDBRANCH  11  14
ENDBRANCH   5   8
ENDBRANCH   3   4
ENDBRANCH   2   3
ENDBRANCH   1   2
BRANCH   1  25
ATOM     25  C   UNL A   1      37.224  20.381  24.987  1.00  0.00     0.002 C 
BRANCH  25  26
ATOM     26  C   UNL A   1      38.475  19.496  24.982  1.00  0.00     0.021 C 
BRANCH  26  27
ATOM     27  C   UNL A   1      39.517  19.852  26.040  1.00  0.00     0.116 C 
BRANCH  27  28
ATOM     28  N   UNL A   1      40.648  18.935  26.027  1.00  0.00    -0.352 N 
ATOM     29  C   UNL A   1      41.991  19.190  26.023  1.00  0.00     0.251 C 
ATOM     30  H   UNL A   1      40.407  17.981  26.019  1.00  0.00     0.163 HD
ATOM     31  O   UNL A   1      42.786  18.278  25.771  1.00  0.00    -0.269 OA
BRANCH  29  32
ATOM     32  C   UNL A   1      42.505  20.541  26.312  1.00  0.00     0.039 A 
ATOM     33  C   UNL A   1      42.948  21.335  25.250  1.00  0.00     0.014 A 
ATOM     34  C   UNL A   1      42.589  21.016  27.624  1.00  0.00     0.014 A 
ATOM     35  C   UNL A   1      43.423  22.622  25.501  1.00  0.00     0.010 A 
ATOM     36  C   UNL A   1      42.988  22.328  27.864  1.00  0.00     0.010 A 
ATOM     37  C   UNL A   1      43.414  23.142  26.806  1.00  0.00    -0.014 A 
BRANCH  37  38
ATOM     38  C   UNL A   1      43.825  24.545  27.063  1.00  0.00     0.031 A 
ATOM     39  C   UNL A   1      42.829  25.568  27.527  1.00  0.00     0.074 A 
ATOM     40  C   UNL A   1      45.100  24.905  26.824  1.00  0.00     0.049 A 
ATOM     41  N   UNL A   1      43.013  26.834  27.806  1.00  0.00    -0.248 NA
ATOM     42  C   UNL A   1      41.437  25.117  27.667  1.00  0.00     0.031 C 
ATOM     43  C   UNL A   1      46.140  24.021  26.297  1.00  0.00     0.029 A 
ATOM     44  N   UNL A   1      45.735  26.110  26.985  1.00  0.00    -0.354 N 
ATOM     45  C   UNL A   1      41.762  27.330  28.148  1.00  0.00     0.074 A 
ATOM     46  C   UNL A   1      40.817  26.247  27.976  1.00  0.00     0.031 C 
ATOM     47  C   UNL A   1      47.292  24.703  26.207  1.00  0.00     0.029 A 
ATOM     48  C   UNL A   1      47.064  26.078  26.638  1.00  0.00     0.049 A 
ATOM     49  H   UNL A   1      45.284  26.919  27.317  1.00  0.00     0.167 HD
ATOM     50  C   UNL A   1      41.436  28.570  28.589  1.00  0.00     0.037 A 
ATOM     51  C   UNL A   1      47.996  27.048  26.667  1.00  0.00     0.037 A 
ATOM     52  C   UNL A   1      42.384  29.641  28.763  1.00  0.00     0.049 A 
ATOM     53  C   UNL A   1      47.618  28.410  27.178  1.00  0.00     0.074 A 
ATOM     54  C   UNL A   1      42.172  30.910  29.272  1.00  0.00     0.029 A 
ATOM     55  N   UNL A   1      43.727  29.570  28.420  1.00  0.00    -0.354 N 
ATOM     56  N   UNL A   1      46.452  28.845  27.588  1.00  0.00    -0.248 NA
ATOM     57  C   UNL A   1      48.690  29.410  27.242  1.00  0.00     0.031 C 
ATOM     58  C   UNL A   1      43.372  31.625  29.182  1.00  0.00     0.029 A 
ATOM     59  C   UNL A   1      44.349  30.784  28.673  1.00  0.00     0.049 A 
ATOM     60  H   UNL A   1      44.174  28.775  28.050  1.00  0.00     0.167 HD
ATOM     61  C   UNL A   1      46.649  30.164  27.969  1.00  0.00     0.074 A 
ATOM     62  C   UNL A   1      48.055  30.449  27.768  1.00  0.00     0.031 C 
ATOM     63  C   UNL A   1      45.746  31.061  28.441  1.00  0.00     0.037 A 
BRANCH  50  64
ATOM     64  C   UNL A   1      39.987  28.829  28.902  1.00  0.00     0.064 A 
ATOM     65  C   UNL A   1      39.462  28.632  30.190  1.00  0.00     0.173 A 
ATOM     66  C   UNL A   1      39.112  29.281  27.903  1.00  0.00     0.173 A 
ATOM     67  F   UNL A   1      40.251  28.191  31.181  1.00  0.00    -0.203 F 
ATOM     68  C   UNL A   1      38.108  28.828  30.451  1.00  0.00     0.198 A 
ATOM     69  C   UNL A   1      37.765  29.512  28.178  1.00  0.00     0.198 A 
ATOM     70  F   UNL A   1      39.558  29.495  26.656  1.00  0.00    -0.203 F 
ATOM     71  F   UNL A   1      37.618  28.561  31.671  1.00  0.00    -0.200 F 
ATOM     72  C   UNL A   1      37.262  29.272  29.447  1.00  0.00     0.200 A 
ATOM     73  F   UNL A   1      36.952  29.954  27.210  1.00  0.00    -0.200 F 
ATOM     74  F   UNL A   1      35.958  29.456  29.700  1.00  0.00    -0.200 F 
ENDBRANCH  50  64
BRANCH  51  75
ATOM     75  C   UNL A   1      49.380  26.740  26.227  1.00  0.00     0.064 A 
ATOM     76  C   UNL A   1      49.794  26.997  24.913  1.00  0.00     0.173 A 
ATOM     77  C   UNL A   1      50.330  26.229  27.124  1.00  0.00     0.173 A 
ATOM     78  F   UNL A   1      48.917  27.469  24.015  1.00  0.00    -0.203 F 
ATOM     79  C   UNL A   1      51.104  26.747  24.511  1.00  0.00     0.198 A 
ATOM     80  C   UNL A   1      51.646  26.007  26.729  1.00  0.00     0.198 A 
ATOM     81  F   UNL A   1      49.984  25.977  28.395  1.00  0.00    -0.203 F 
ATOM     82  F   UNL A   1      51.467  26.973  23.242  1.00  0.00    -0.200 F 
ATOM     83  C   UNL A   1      52.031  26.261  25.422  1.00  0.00     0.200 A 
ATOM     84  F   UNL A   1      52.542  25.555  27.616  1.00  0.00    -0.200 F 
ATOM     85  F   UNL A   1      53.296  26.038  25.038  1.00  0.00    -0.200 F 
ENDBRANCH  51  75
BRANCH  63  86
ATOM     86  C   UNL A   1      46.258  32.435  28.766  1.00  0.00     0.064 A 
ATOM     87  C   UNL A   1      46.761  32.750  30.038  1.00  0.00     0.173 A 
ATOM     88  C   UNL A   1      46.255  33.449  27.795  1.00  0.00     0.173 A 
ATOM     89  F   UNL A   1      46.773  31.822  31.008  1.00  0.00    -0.203 F 
ATOM     90  C   UNL A   1      47.205  34.036  30.336  1.00  0.00     0.198 A 
ATOM     91  C   UNL A   1      46.732  34.724  28.087  1.00  0.00     0.198 A 
ATOM     92  F   UNL A   1      45.793  33.200  26.560  1.00  0.00    -0.203 F 
ATOM     93  F   UNL A   1      47.621  34.328  31.577  1.00  0.00    -0.200 F 
ATOM     94  C   UNL A   1      47.195  35.019  29.359  1.00  0.00     0.200 A 
ATOM     95  F   UNL A   1      46.735  35.669  27.137  1.00  0.00    -0.200 F 
ATOM     96  F   UNL A   1      47.623  36.256  29.648  1.00  0.00    -0.200 F 
ENDBRANCH  63  86
ENDBRANCH  37  38
ENDBRANCH  29  32
ENDBRANCH  27  28
ENDBRANCH  26  27
ENDBRANCH  25  26
ENDBRANCH   1  25
TORSDOF 15
ENDMDL
MODEL 3
REMARK VINA RESULT:     -11.9      1.210      7.490
REMARK SMILES C[C@]1(C(=O)NCCCCCCNC(=O)c2ccc(-c3c4nc(c(-c5c(F)c(F)c(F)c(F)c5F)c5ccc([nH]5)c(-c5c(F)c(F)c(F)c(F)c5F)c5nc(c(-c6c(F)c(F)c(F)c(F)c6F)c6ccc3[nH]6)C=C5)C=C4)cc2)COC[C@H]1Nc1ccc2nnnn2n1
REMARK SMILES IDX 8 1 7 2 6 3 5 4 3 5 4 6 2 8 1 9 78 10 81 11 79 12 80 13
REMARK SMILES IDX 82 14 83 16 84 17 91 18 85 19 90 20 86 21 89 22 87 23 88 24
REMARK SMILES IDX 9 25 10 26 11 27 12 28 13 29 14 31 15 32 16 33 77 34 17 35
REMARK SMILES IDX 76 36 18 37 19 38 20 39 70 40 21 41 75 42 69 43 71 44 22 45
REMARK SMILES IDX 74 46 68 47 67 48 23 50 55 51 35 52 54 53 36 54 39 55 53 56
REMARK SMILES IDX 72 57 37 58 38 59 52 61 73 62 40 63 24 64 25 65 33 66 26 67
REMARK SMILES IDX 27 68 31 69 34 70 28 71 29 72 32 73 30 74 56 75 57 76 65 77
REMARK SMILES IDX 58 78 59 79 63 80 66 81 60 82 61 83 64 84 62 85 41 86 42 87
REMARK SMILES IDX 50 88 43 89 44 90 48 91 51 92 45 93 46 94 49 95 47 96
REMARK H PARENT 5 7 82 15 12 30 71 49 39 60
REMARK Flexibility Score: inf
ROOT
ATOM      1  C   UNL A   1      33.986  30.771  27.733  1.00  0.00     0.002 C 
ENDROOT
BRANCH   1   2
ATOM      2  C   UNL A   1      34.796  29.669  27.045  1.00  0.00     0.021 C 
BRANCH   2   3
ATOM      3  C   UNL A   1      33.917  28.722  26.219  1.00  0.00     0.116 C 
BRANCH   3   4
ATOM      4  N   UNL A   1      34.235  28.854  24.821  1.00  0.00    -0.355 N 
ATOM      5  C   UNL A   1      33.724  28.304  23.705  1.00  0.00     0.230 C 
ATOM      6  O   UNL A   1      34.386  28.578  22.689  1.00  0.00    -0.274 OA
ATOM      7  H   UNL A   1      34.978  29.476  24.647  1.00  0.00     0.163 HD
BRANCH   5   8
ATOM      8  C   UNL A   1      32.370  27.584  23.548  1.00  0.00     0.092 C 
ATOM      9  C   UNL A   1      32.230  27.291  22.033  1.00  0.00     0.026 C 
ATOM     10  C   UNL A   1      32.583  26.234  24.301  1.00  0.00     0.179 C 
ATOM     11  C   UNL A   1      30.980  27.985  24.076  1.00  0.00     0.124 C 
ATOM     12  O   UNL A   1      31.327  25.817  24.852  1.00  0.00    -0.378 OA
ATOM     13  C   UNL A   1      30.670  27.020  25.216  1.00  0.00     0.186 C 
BRANCH  11  14
ATOM     14  N   UNL A   1      30.652  29.359  24.455  1.00  0.00    -0.362 N 
ATOM     15  H   UNL A   1      31.078  29.800  25.225  1.00  0.00     0.162 HD
BRANCH  14  16
ATOM     16  C   UNL A   1      29.714  30.009  23.675  1.00  0.00     0.149 A 
ATOM     17  C   UNL A   1      29.067  29.219  22.539  1.00  0.00     0.053 A 
ATOM     18  N   UNL A   1      29.478  31.275  23.887  1.00  0.00    -0.129 NA
ATOM     19  C   UNL A   1      28.914  29.987  21.440  1.00  0.00     0.057 A 
ATOM     20  N   UNL A   1      28.765  31.852  22.895  1.00  0.00    -0.108 N 
ATOM     21  C   UNL A   1      28.506  31.327  21.649  1.00  0.00     0.200 A 
ATOM     22  N   UNL A   1      28.365  33.129  22.927  1.00  0.00    -0.022 NA
ATOM     23  N   UNL A   1      28.000  32.273  20.892  1.00  0.00    -0.107 NA
ATOM     24  N   UNL A   1      27.897  33.379  21.708  1.00  0.00    -0.022 NA
ENDBRANCH  14  16
ENDBRANCH  11  14
ENDBRANCH   5   8
ENDBRANCH   3   4
ENDBRANCH   2   3
ENDBRANCH   1   2
BRANCH   1  25
ATOM     25  C   UNL A   1      32.522  30.813  27.287  1.00  0.00     0.002 C 
BRANCH  25  26
ATOM     26  C   UNL A   1      31.941  32.220  27.109  1.00  0.00     0.021 C 
BRANCH  26  27
ATOM     27  C   UNL A   1      32.979  33.333  26.991  1.00  0.00     0.116 C 
BRANCH  27  28
ATOM     28  N   UNL A   1      32.591  34.525  27.732  1.00  0.00    -0.352 N 
ATOM     29  C   UNL A   1      32.995  34.974  28.959  1.00  0.00     0.251 C 
ATOM     30  H   UNL A   1      31.934  35.099  27.277  1.00  0.00     0.163 HD
ATOM     31  O   UNL A   1      32.371  35.884  29.514  1.00  0.00    -0.269 OA
BRANCH  29  32
ATOM     32  C   UNL A   1      34.166  34.381  29.631  1.00  0.00     0.039 A 
ATOM     33  C   UNL A   1      33.965  33.608  30.778  1.00  0.00     0.014 A 
ATOM     34  C   UNL A   1      35.462  34.615  29.163  1.00  0.00     0.014 A 
ATOM     35  C   UNL A   1      35.057  33.025  31.420  1.00  0.00     0.010 A 
ATOM     36  C   UNL A   1      36.543  33.968  29.757  1.00  0.00     0.010 A 
ATOM     37  C   UNL A   1      36.352  33.172  30.894  1.00  0.00    -0.014 A 
BRANCH  37  38
ATOM     38  C   UNL A   1      37.503  32.474  31.518  1.00  0.00     0.031 A 
ATOM     39  C   UNL A   1      38.204  31.354  30.804  1.00  0.00     0.074 A 
ATOM     40  C   UNL A   1      37.883  32.822  32.761  1.00  0.00     0.049 A 
ATOM     41  N   UNL A   1      39.229  30.638  31.194  1.00  0.00    -0.248 NA
ATOM     42  C   UNL A   1      37.664  30.967  29.493  1.00  0.00     0.031 C 
ATOM     43  C   UNL A   1      37.231  33.841  33.586  1.00  0.00     0.029 A 
ATOM     44  N   UNL A   1      38.903  32.356  33.551  1.00  0.00    -0.354 N 
ATOM     45  C   UNL A   1      39.451  29.714  30.181  1.00  0.00     0.074 A 
ATOM     46  C   UNL A   1      38.414  29.917  29.192  1.00  0.00     0.031 C 
ATOM     47  C   UNL A   1      37.884  33.944  34.753  1.00  0.00     0.029 A 
ATOM     48  C   UNL A   1      38.979  32.979  34.772  1.00  0.00     0.049 A 
ATOM     49  H   UNL A   1      39.521  31.643  33.269  1.00  0.00     0.167 HD
ATOM     50  C   UNL A   1      40.445  28.798  30.075  1.00  0.00     0.037 A 
ATOM     51  C   UNL A   1      39.837  32.797  35.792  1.00  0.00     0.037 A 
ATOM     52  C   UNL A   1      41.477  28.608  31.061  1.00  0.00     0.049 A 
ATOM     53  C   UNL A   1      40.943  31.791  35.646  1.00  0.00     0.074 A 
ATOM     54  C   UNL A   1      42.570  27.761  31.019  1.00  0.00     0.029 A 
ATOM     55  N   UNL A   1      41.536  29.270  32.281  1.00  0.00    -0.354 N 
ATOM     56  N   UNL A   1      41.202  30.986  34.644  1.00  0.00    -0.248 NA
ATOM     57  C   UNL A   1      41.884  31.678  36.767  1.00  0.00     0.031 C 
ATOM     58  C   UNL A   1      43.257  27.868  32.234  1.00  0.00     0.029 A 
ATOM     59  C   UNL A   1      42.626  28.825  33.013  1.00  0.00     0.049 A 
ATOM     60  H   UNL A   1      40.897  29.955  32.582  1.00  0.00     0.167 HD
ATOM     61  C   UNL A   1      42.339  30.278  35.007  1.00  0.00     0.074 A 
ATOM     62  C   UNL A   1      42.736  30.771  36.310  1.00  0.00     0.031 C 
ATOM     63  C   UNL A   1      42.994  29.306  34.323  1.00  0.00     0.037 A 
BRANCH  50  64
ATOM     64  C   UNL A   1      40.449  27.928  28.847  1.00  0.00     0.064 A 
ATOM     65  C   UNL A   1      39.752  26.709  28.803  1.00  0.00     0.173 A 
ATOM     66  C   UNL A   1      41.158  28.317  27.701  1.00  0.00     0.173 A 
ATOM     67  F   UNL A   1      39.065  26.284  29.874  1.00  0.00    -0.203 F 
ATOM     68  C   UNL A   1      39.807  25.891  27.676  1.00  0.00     0.198 A 
ATOM     69  C   UNL A   1      41.180  27.512  26.563  1.00  0.00     0.198 A 
ATOM     70  F   UNL A   1      41.836  29.474  27.683  1.00  0.00    -0.203 F 
ATOM     71  F   UNL A   1      39.194  24.699  27.687  1.00  0.00    -0.200 F 
ATOM     72  C   UNL A   1      40.518  26.295  26.557  1.00  0.00     0.200 A 
ATOM     73  F   UNL A   1      41.856  27.910  25.477  1.00  0.00    -0.200 F 
ATOM     74  F   UNL A   1      40.573  25.505  25.475  1.00  0.00    -0.200 F 
ENDBRANCH  50  64
BRANCH  51  75
ATOM     75  C   UNL A   1      39.691  33.618  37.021  1.00  0.00     0.064 A 
ATOM     76  C   UNL A   1      40.348  34.849  37.149  1.00  0.00     0.173 A 
ATOM     77  C   UNL A   1      38.854  33.211  38.070  1.00  0.00     0.173 A 
ATOM     78  F   UNL A   1      41.173  35.273  36.180  1.00  0.00    -0.203 F 
ATOM     79  C   UNL A   1      40.179  35.639  38.284  1.00  0.00     0.198 A 
ATOM     80  C   UNL A   1      38.663  34.014  39.191  1.00  0.00     0.198 A 
ATOM     81  F   UNL A   1      38.196  32.045  37.988  1.00  0.00    -0.203 F 
ATOM     82  F   UNL A   1      40.841  36.798  38.395  1.00  0.00    -0.200 F 
ATOM     83  C   UNL A   1      39.329  35.225  39.299  1.00  0.00     0.200 A 
ATOM     84  F   UNL A   1      37.828  33.619  40.161  1.00  0.00    -0.200 F 
ATOM     85  F   UNL A   1      39.154  35.994  40.383  1.00  0.00    -0.200 F 
ENDBRANCH  51  75
BRANCH  63  86
ATOM     86  C   UNL A   1      44.207  28.711  34.981  1.00  0.00     0.064 A 
ATOM     87  C   UNL A   1      45.469  29.316  34.878  1.00  0.00     0.173 A 
ATOM     88  C   UNL A   1      44.107  27.528  35.728  1.00  0.00     0.173 A 
ATOM     89  F   UNL A   1      45.623  30.441  34.163  1.00  0.00    -0.203 F 
ATOM     90  C   UNL A   1      46.591  28.738  35.468  1.00  0.00     0.198 A 
ATOM     91  C   UNL A   1      45.225  26.971  36.345  1.00  0.00     0.198 A 
ATOM     92  F   UNL A   1      42.923  26.911  35.865  1.00  0.00    -0.203 F 
ATOM     93  F   UNL A   1      47.797  29.302  35.303  1.00  0.00    -0.200 F 
ATOM     94  C   UNL A   1      46.467  27.570  36.205  1.00  0.00     0.200 A 
ATOM     95  F   UNL A   1      45.100  25.851  37.068  1.00  0.00    -0.200 F 
ATOM     96  F   UNL A   1      47.548  27.016  36.771  1.00  0.00    -0.200 F 
ENDBRANCH  63  86
ENDBRANCH  37  38
ENDBRANCH  29  32
ENDBRANCH  27  28
ENDBRANCH  26  27
ENDBRANCH  25  26
ENDBRANCH   1  25
TORSDOF 15
ENDMDL
