MODEL 1
REMARK VINA RESULT:     -13.1      0.000      0.000
REMARK SMILES Cc1ccc(C(F)(F)F)cc1/C=C/C(=O)NCCCCCCNC(=O)c1ccc(-c2c3nc(c(-c4c(F)c(F)c(F)c(F)c4F)c4ccc([nH]4)c(-c4c(F)c(F)c(F)c(F)c4F)c4nc(c(-c5c(F)c(F)c(F)c(F)c5F)c5ccc2[nH]5)C=C4)C=C3)cc1
REMARK SMILES IDX 19 1 18 2 17 3 16 4 14 5 15 6 13 8 12 9 11 10 1 11 2 12 3 13
REMARK SMILES IDX 4 14 10 15 5 16 6 17 7 18 8 19 9 20 20 21 21 22 22 23 23 24
REMARK SMILES IDX 24 25 25 27 26 28 27 29 88 30 28 31 87 32 29 33 30 34 31 35
REMARK SMILES IDX 81 36 32 37 86 38 80 39 82 40 33 41 85 42 79 43 78 44 34 46
REMARK SMILES IDX 66 47 46 48 65 49 47 50 50 51 64 52 83 53 48 54 49 55 63 57
REMARK SMILES IDX 84 58 51 59 35 60 36 61 44 62 37 63 38 64 42 65 45 66 39 67
REMARK SMILES IDX 40 68 43 69 41 70 67 71 68 72 76 73 69 74 70 75 74 76 77 77
REMARK SMILES IDX 71 78 72 79 75 80 73 81 52 82 53 83 61 84 54 85 55 86 59 87
REMARK SMILES IDX 62 88 56 89 57 90 60 91 58 92
REMARK H PARENT 16 7 23 26 82 45 50 56
REMARK Flexibility Score: inf
ROOT
ATOM      1  C   UNL A   1      31.641  29.608  24.698  1.00  0.00     0.002 C 
ENDROOT
BRANCH   1   2
ATOM      2  C   UNL A   1      30.489  28.765  24.133  1.00  0.00     0.021 C 
BRANCH   2   3
ATOM      3  C   UNL A   1      30.886  27.817  23.002  1.00  0.00     0.116 C 
BRANCH   3   4
ATOM      4  N   UNL A   1      32.136  28.215  22.387  1.00  0.00    -0.353 N 
ATOM      5  C   UNL A   1      33.335  27.576  22.353  1.00  0.00     0.243 C 
ATOM      6  O   UNL A   1      34.238  28.001  21.637  1.00  0.00    -0.270 OA
ATOM      7  H   UNL A   1      32.113  29.083  21.922  1.00  0.00     0.163 HD
BRANCH   5   8
ATOM      8  C   UNL A   1      33.540  26.321  23.109  1.00  0.00     0.072 C 
ATOM      9  C   UNL A   1      33.752  26.275  24.434  1.00  0.00     0.014 C 
BRANCH   9  10
ATOM     10  C   UNL A   1      34.017  25.013  25.146  1.00  0.00    -0.022 A 
ATOM     11  C   UNL A   1      31.841  25.162  26.501  1.00  0.00     0.045 C 
ATOM     12  C   UNL A   1      33.136  24.498  26.117  1.00  0.00    -0.044 A 
ATOM     13  C   UNL A   1      33.480  23.316  26.797  1.00  0.00     0.004 A 
ATOM     14  C   UNL A   1      34.664  22.637  26.508  1.00  0.00     0.013 A 
ATOM     15  C   UNL A   1      35.213  24.323  24.875  1.00  0.00     0.021 A 
ATOM     16  C   UNL A   1      35.540  23.129  25.535  1.00  0.00     0.056 A 
BRANCH  16  17
ATOM     17  C   UNL A   1      36.820  22.393  25.228  1.00  0.00     0.416 C 
ATOM     18  F   UNL A   1      37.890  22.914  25.888  1.00  0.00    -0.166 F 
ATOM     19  F   UNL A   1      36.764  21.079  25.587  1.00  0.00    -0.166 F 
ATOM     20  F   UNL A   1      37.152  22.402  23.907  1.00  0.00    -0.166 F 
ENDBRANCH  16  17
ENDBRANCH   9  10
ENDBRANCH   5   8
ENDBRANCH   3   4
ENDBRANCH   2   3
ENDBRANCH   1   2
BRANCH   1  21
ATOM     21  C   UNL A   1      31.867  29.532  26.218  1.00  0.00     0.002 C 
BRANCH  21  22
ATOM     22  C   UNL A   1      32.735  30.636  26.831  1.00  0.00     0.021 C 
BRANCH  22  23
ATOM     23  C   UNL A   1      33.929  30.119  27.624  1.00  0.00     0.116 C 
BRANCH  23  24
ATOM     24  N   UNL A   1      34.566  31.125  28.464  1.00  0.00    -0.352 N 
ATOM     25  C   UNL A   1      35.763  31.057  29.157  1.00  0.00     0.251 C 
ATOM     26  H   UNL A   1      34.076  31.974  28.552  1.00  0.00     0.163 HD
ATOM     27  O   UNL A   1      36.125  31.988  29.860  1.00  0.00    -0.269 OA
BRANCH  25  28
ATOM     28  C   UNL A   1      36.660  29.897  28.940  1.00  0.00     0.039 A 
ATOM     29  C   UNL A   1      36.993  29.104  30.046  1.00  0.00     0.014 A 
ATOM     30  C   UNL A   1      37.304  29.704  27.721  1.00  0.00     0.014 A 
ATOM     31  C   UNL A   1      38.127  28.295  29.989  1.00  0.00     0.010 A 
ATOM     32  C   UNL A   1      38.478  28.979  27.691  1.00  0.00     0.010 A 
ATOM     33  C   UNL A   1      38.926  28.329  28.846  1.00  0.00    -0.014 A 
BRANCH  33  34
ATOM     34  C   UNL A   1      40.289  27.811  28.802  1.00  0.00     0.031 A 
ATOM     35  C   UNL A   1      40.552  26.405  28.433  1.00  0.00     0.074 A 
ATOM     36  C   UNL A   1      41.320  28.657  29.018  1.00  0.00     0.049 A 
ATOM     37  N   UNL A   1      41.652  25.780  28.688  1.00  0.00    -0.248 NA
ATOM     38  C   UNL A   1      39.560  25.575  27.763  1.00  0.00     0.031 C 
ATOM     39  C   UNL A   1      42.740  28.417  28.766  1.00  0.00     0.029 A 
ATOM     40  N   UNL A   1      41.296  29.863  29.739  1.00  0.00    -0.354 N 
ATOM     41  C   UNL A   1      41.615  24.568  28.039  1.00  0.00     0.074 A 
ATOM     42  C   UNL A   1      40.276  24.477  27.499  1.00  0.00     0.031 C 
ATOM     43  C   UNL A   1      43.459  29.220  29.566  1.00  0.00     0.029 A 
ATOM     44  C   UNL A   1      42.522  29.893  30.449  1.00  0.00     0.049 A 
ATOM     45  H   UNL A   1      40.582  30.541  29.749  1.00  0.00     0.167 HD
ATOM     46  C   UNL A   1      42.753  23.820  27.952  1.00  0.00     0.037 A 
ATOM     47  C   UNL A   1      42.540  29.835  31.812  1.00  0.00     0.037 A 
ATOM     48  C   UNL A   1      43.849  24.419  28.708  1.00  0.00     0.049 A 
ATOM     49  C   UNL A   1      43.276  28.643  32.387  1.00  0.00     0.074 A 
ATOM     50  C   UNL A   1      44.918  25.237  28.379  1.00  0.00     0.029 A 
ATOM     51  N   UNL A   1      43.765  24.432  30.087  1.00  0.00    -0.354 N 
ATOM     52  N   UNL A   1      43.741  27.653  31.678  1.00  0.00    -0.248 NA
ATOM     53  C   UNL A   1      43.446  28.427  33.826  1.00  0.00     0.031 C 
ATOM     54  C   UNL A   1      45.453  25.771  29.587  1.00  0.00     0.029 A 
ATOM     55  C   UNL A   1      44.712  25.271  30.641  1.00  0.00     0.049 A 
ATOM     56  H   UNL A   1      43.113  23.911  30.608  1.00  0.00     0.167 HD
ATOM     57  C   UNL A   1      44.212  26.682  32.518  1.00  0.00     0.074 A 
ATOM     58  C   UNL A   1      44.007  27.207  33.854  1.00  0.00     0.031 C 
ATOM     59  C   UNL A   1      44.702  25.493  32.073  1.00  0.00     0.037 A 
BRANCH  46  60
ATOM     60  C   UNL A   1      42.932  22.651  27.016  1.00  0.00     0.064 A 
ATOM     61  C   UNL A   1      42.200  21.458  27.206  1.00  0.00     0.173 A 
ATOM     62  C   UNL A   1      43.836  22.622  25.939  1.00  0.00     0.173 A 
ATOM     63  F   UNL A   1      41.234  21.369  28.130  1.00  0.00    -0.203 F 
ATOM     64  C   UNL A   1      42.440  20.302  26.458  1.00  0.00     0.198 A 
ATOM     65  C   UNL A   1      44.121  21.449  25.231  1.00  0.00     0.198 A 
ATOM     66  F   UNL A   1      44.431  23.738  25.501  1.00  0.00    -0.203 F 
ATOM     67  F   UNL A   1      41.714  19.199  26.687  1.00  0.00    -0.200 F 
ATOM     68  C   UNL A   1      43.431  20.286  25.499  1.00  0.00     0.200 A 
ATOM     69  F   UNL A   1      45.073  21.458  24.286  1.00  0.00    -0.200 F 
ATOM     70  F   UNL A   1      43.699  19.163  24.818  1.00  0.00    -0.200 F 
ENDBRANCH  46  60
BRANCH  47  71
ATOM     71  C   UNL A   1      41.345  30.468  32.434  1.00  0.00     0.064 A 
ATOM     72  C   UNL A   1      41.206  31.869  32.351  1.00  0.00     0.173 A 
ATOM     73  C   UNL A   1      40.209  29.724  32.766  1.00  0.00     0.173 A 
ATOM     74  F   UNL A   1      42.265  32.632  32.035  1.00  0.00    -0.203 F 
ATOM     75  C   UNL A   1      39.960  32.479  32.465  1.00  0.00     0.198 A 
ATOM     76  C   UNL A   1      38.967  30.343  32.906  1.00  0.00     0.198 A 
ATOM     77  F   UNL A   1      40.270  28.386  32.844  1.00  0.00    -0.203 F 
ATOM     78  F   UNL A   1      39.839  33.798  32.251  1.00  0.00    -0.200 F 
ATOM     79  C   UNL A   1      38.836  31.711  32.717  1.00  0.00     0.200 A 
ATOM     80  F   UNL A   1      37.875  29.596  33.125  1.00  0.00    -0.200 F 
ATOM     81  F   UNL A   1      37.623  32.280  32.734  1.00  0.00    -0.200 F 
ENDBRANCH  47  71
BRANCH  59  82
ATOM     82  C   UNL A   1      45.225  24.442  32.994  1.00  0.00     0.064 A 
ATOM     83  C   UNL A   1      44.446  23.337  33.368  1.00  0.00     0.173 A 
ATOM     84  C   UNL A   1      46.478  24.578  33.621  1.00  0.00     0.173 A 
ATOM     85  F   UNL A   1      43.227  23.152  32.839  1.00  0.00    -0.203 F 
ATOM     86  C   UNL A   1      44.906  22.407  34.301  1.00  0.00     0.198 A 
ATOM     87  C   UNL A   1      46.915  23.673  34.584  1.00  0.00     0.198 A 
ATOM     88  F   UNL A   1      47.308  25.581  33.296  1.00  0.00    -0.203 F 
ATOM     89  F   UNL A   1      44.153  21.341  34.604  1.00  0.00    -0.200 F 
ATOM     90  C   UNL A   1      46.133  22.583  34.918  1.00  0.00     0.200 A 
ATOM     91  F   UNL A   1      48.099  23.862  35.184  1.00  0.00    -0.200 F 
ATOM     92  F   UNL A   1      46.563  21.702  35.831  1.00  0.00    -0.200 F 
ENDBRANCH  59  82
ENDBRANCH  33  34
ENDBRANCH  25  28
ENDBRANCH  23  24
ENDBRANCH  22  23
ENDBRANCH  21  22
ENDBRANCH   1  21
TORSDOF 15
ENDMDL
MODEL 2
REMARK VINA RESULT:     -13.1      1.615      2.047
REMARK SMILES Cc1ccc(C(F)(F)F)cc1/C=C/C(=O)NCCCCCCNC(=O)c1ccc(-c2c3nc(c(-c4c(F)c(F)c(F)c(F)c4F)c4ccc([nH]4)c(-c4c(F)c(F)c(F)c(F)c4F)c4nc(c(-c5c(F)c(F)c(F)c(F)c5F)c5ccc2[nH]5)C=C4)C=C3)cc1
REMARK SMILES IDX 19 1 18 2 17 3 16 4 14 5 15 6 13 8 12 9 11 10 1 11 2 12 3 13
REMARK SMILES IDX 4 14 10 15 5 16 6 17 7 18 8 19 9 20 20 21 21 22 22 23 23 24
REMARK SMILES IDX 24 25 25 27 26 28 27 29 88 30 28 31 87 32 29 33 30 34 31 35
REMARK SMILES IDX 81 36 32 37 86 38 80 39 82 40 33 41 85 42 79 43 78 44 34 46
REMARK SMILES IDX 66 47 46 48 65 49 47 50 50 51 64 52 83 53 48 54 49 55 63 57
REMARK SMILES IDX 84 58 51 59 35 60 36 61 44 62 37 63 38 64 42 65 45 66 39 67
REMARK SMILES IDX 40 68 43 69 41 70 67 71 68 72 76 73 69 74 70 75 74 76 77 77
REMARK SMILES IDX 71 78 72 79 75 80 73 81 52 82 53 83 61 84 54 85 55 86 59 87
REMARK SMILES IDX 62 88 56 89 57 90 60 91 58 92
REMARK H PARENT 16 7 23 26 82 45 50 56
REMARK Flexibility Score: inf
ROOT
ATOM      1  C   UNL A   1      31.760  28.087  27.224  1.00  0.00     0.002 C 
ENDROOT
BRANCH   1   2
ATOM      2  C   UNL A   1      32.029  26.738  26.541  1.00  0.00     0.021 C 
BRANCH   2   3
ATOM      3  C   UNL A   1      30.849  26.177  25.747  1.00  0.00     0.116 C 
BRANCH   3   4
ATOM      4  N   UNL A   1      30.171  25.124  26.475  1.00  0.00    -0.353 N 
ATOM      5  C   UNL A   1      30.556  23.842  26.716  1.00  0.00     0.243 C 
ATOM      6  O   UNL A   1      29.914  23.145  27.498  1.00  0.00    -0.270 OA
ATOM      7  H   UNL A   1      29.297  25.375  26.853  1.00  0.00     0.163 HD
BRANCH   5   8
ATOM      8  C   UNL A   1      31.791  23.301  26.109  1.00  0.00     0.072 C 
ATOM      9  C   UNL A   1      32.592  22.411  26.716  1.00  0.00     0.014 C 
BRANCH   9  10
ATOM     10  C   UNL A   1      33.850  21.941  26.111  1.00  0.00    -0.022 A 
ATOM     11  C   UNL A   1      32.795  19.746  25.294  1.00  0.00     0.045 C 
ATOM     12  C   UNL A   1      33.951  20.697  25.458  1.00  0.00    -0.044 A 
ATOM     13  C   UNL A   1      35.197  20.287  24.951  1.00  0.00     0.004 A 
ATOM     14  C   UNL A   1      36.323  21.103  25.063  1.00  0.00     0.013 A 
ATOM     15  C   UNL A   1      34.997  22.747  26.227  1.00  0.00     0.021 A 
ATOM     16  C   UNL A   1      36.234  22.348  25.695  1.00  0.00     0.056 A 
BRANCH  16  17
ATOM     17  C   UNL A   1      37.454  23.224  25.816  1.00  0.00     0.416 C 
ATOM     18  F   UNL A   1      37.650  23.998  24.713  1.00  0.00    -0.166 F 
ATOM     19  F   UNL A   1      37.372  24.088  26.868  1.00  0.00    -0.166 F 
ATOM     20  F   UNL A   1      38.611  22.529  25.998  1.00  0.00    -0.166 F 
ENDBRANCH  16  17
ENDBRANCH   9  10
ENDBRANCH   5   8
ENDBRANCH   3   4
ENDBRANCH   2   3
ENDBRANCH   1   2
BRANCH   1  21
ATOM     21  C   UNL A   1      31.828  29.336  26.329  1.00  0.00     0.002 C 
BRANCH  21  22
ATOM     22  C   UNL A   1      32.655  30.510  26.865  1.00  0.00     0.021 C 
BRANCH  22  23
ATOM     23  C   UNL A   1      33.945  30.094  27.560  1.00  0.00     0.116 C 
BRANCH  23  24
ATOM     24  N   UNL A   1      34.486  31.100  28.463  1.00  0.00    -0.352 N 
ATOM     25  C   UNL A   1      35.678  31.096  29.169  1.00  0.00     0.251 C 
ATOM     26  H   UNL A   1      33.925  31.899  28.591  1.00  0.00     0.163 HD
ATOM     27  O   UNL A   1      35.953  32.012  29.927  1.00  0.00    -0.269 OA
BRANCH  25  28
ATOM     28  C   UNL A   1      36.673  30.029  28.901  1.00  0.00     0.039 A 
ATOM     29  C   UNL A   1      36.989  29.145  29.941  1.00  0.00     0.014 A 
ATOM     30  C   UNL A   1      37.410  30.014  27.720  1.00  0.00     0.014 A 
ATOM     31  C   UNL A   1      38.181  28.425  29.886  1.00  0.00     0.010 A 
ATOM     32  C   UNL A   1      38.635  29.377  27.704  1.00  0.00     0.010 A 
ATOM     33  C   UNL A   1      39.051  28.637  28.816  1.00  0.00    -0.014 A 
BRANCH  33  34
ATOM     34  C   UNL A   1      40.449  28.220  28.822  1.00  0.00     0.031 A 
ATOM     35  C   UNL A   1      40.845  26.896  28.301  1.00  0.00     0.074 A 
ATOM     36  C   UNL A   1      41.394  29.097  29.228  1.00  0.00     0.049 A 
ATOM     37  N   UNL A   1      41.967  26.316  28.567  1.00  0.00    -0.248 NA
ATOM     38  C   UNL A   1      39.972  26.098  27.451  1.00  0.00     0.031 C 
ATOM     39  C   UNL A   1      42.842  28.986  29.068  1.00  0.00     0.029 A 
ATOM     40  N   UNL A   1      41.224  30.193  30.092  1.00  0.00    -0.354 N 
ATOM     41  C   UNL A   1      42.071  25.201  27.769  1.00  0.00     0.074 A 
ATOM     42  C   UNL A   1      40.787  25.094  27.112  1.00  0.00     0.031 C 
ATOM     43  C   UNL A   1      43.436  29.722  30.020  1.00  0.00     0.029 A 
ATOM     44  C   UNL A   1      42.388  30.210  30.900  1.00  0.00     0.049 A 
ATOM     45  H   UNL A   1      40.462  30.815  30.128  1.00  0.00     0.167 HD
ATOM     46  C   UNL A   1      43.266  24.548  27.684  1.00  0.00     0.037 A 
ATOM     47  C   UNL A   1      42.308  29.973  32.242  1.00  0.00     0.037 A 
ATOM     48  C   UNL A   1      44.254  25.112  28.598  1.00  0.00     0.049 A 
ATOM     49  C   UNL A   1      43.088  28.766  32.721  1.00  0.00     0.074 A 
ATOM     50  C   UNL A   1      45.279  26.036  28.467  1.00  0.00     0.029 A 
ATOM     51  N   UNL A   1      44.067  24.938  29.956  1.00  0.00    -0.354 N 
ATOM     52  N   UNL A   1      43.679  27.912  31.934  1.00  0.00    -0.248 NA
ATOM     53  C   UNL A   1      43.166  28.374  34.130  1.00  0.00     0.031 C 
ATOM     54  C   UNL A   1      45.681  26.439  29.773  1.00  0.00     0.029 A 
ATOM     55  C   UNL A   1      44.903  25.757  30.689  1.00  0.00     0.049 A 
ATOM     56  H   UNL A   1      43.419  24.310  30.351  1.00  0.00     0.167 HD
ATOM     57  C   UNL A   1      44.158  26.871  32.681  1.00  0.00     0.074 A 
ATOM     58  C   UNL A   1      43.815  27.201  34.050  1.00  0.00     0.031 C 
ATOM     59  C   UNL A   1      44.769  25.787  32.132  1.00  0.00     0.037 A 
BRANCH  46  60
ATOM     60  C   UNL A   1      43.604  23.527  26.626  1.00  0.00     0.064 A 
ATOM     61  C   UNL A   1      43.105  22.208  26.714  1.00  0.00     0.173 A 
ATOM     62  C   UNL A   1      44.444  23.767  25.524  1.00  0.00     0.173 A 
ATOM     63  F   UNL A   1      42.217  21.857  27.653  1.00  0.00    -0.203 F 
ATOM     64  C   UNL A   1      43.509  21.193  25.842  1.00  0.00     0.198 A 
ATOM     65  C   UNL A   1      44.897  22.739  24.689  1.00  0.00     0.198 A 
ATOM     66  F   UNL A   1      44.809  25.009  25.186  1.00  0.00    -0.203 F 
ATOM     67  F   UNL A   1      43.001  19.960  25.977  1.00  0.00    -0.200 F 
ATOM     68  C   UNL A   1      44.438  21.449  24.856  1.00  0.00     0.200 A 
ATOM     69  F   UNL A   1      45.784  23.012  23.721  1.00  0.00    -0.200 F 
ATOM     70  F   UNL A   1      44.866  20.466  24.053  1.00  0.00    -0.200 F 
ENDBRANCH  46  60
BRANCH  47  71
ATOM     71  C   UNL A   1      41.026  30.439  32.836  1.00  0.00     0.064 A 
ATOM     72  C   UNL A   1      40.792  31.826  32.930  1.00  0.00     0.173 A 
ATOM     73  C   UNL A   1      39.925  29.587  32.965  1.00  0.00     0.173 A 
ATOM     74  F   UNL A   1      41.813  32.690  32.813  1.00  0.00    -0.203 F 
ATOM     75  C   UNL A   1      39.499  32.336  33.015  1.00  0.00     0.198 A 
ATOM     76  C   UNL A   1      38.634  30.103  33.077  1.00  0.00     0.198 A 
ATOM     77  F   UNL A   1      40.076  28.258  32.867  1.00  0.00    -0.203 F 
ATOM     78  F   UNL A   1      39.300  33.662  32.970  1.00  0.00    -0.200 F 
ATOM     79  C   UNL A   1      38.418  31.473  33.063  1.00  0.00     0.200 A 
ATOM     80  F   UNL A   1      37.585  29.267  33.098  1.00  0.00    -0.200 F 
ATOM     81  F   UNL A   1      37.169  31.958  33.051  1.00  0.00    -0.200 F 
ENDBRANCH  47  71
BRANCH  59  82
ATOM     82  C   UNL A   1      45.300  24.659  32.954  1.00  0.00     0.064 A 
ATOM     83  C   UNL A   1      44.501  23.560  33.299  1.00  0.00     0.173 A 
ATOM     84  C   UNL A   1      46.589  24.711  33.516  1.00  0.00     0.173 A 
ATOM     85  F   UNL A   1      43.249  23.452  32.829  1.00  0.00    -0.203 F 
ATOM     86  C   UNL A   1      44.975  22.556  34.144  1.00  0.00     0.198 A 
ATOM     87  C   UNL A   1      47.043  23.730  34.393  1.00  0.00     0.198 A 
ATOM     88  F   UNL A   1      47.438  25.704  33.209  1.00  0.00    -0.203 F 
ATOM     89  F   UNL A   1      44.199  21.499  34.420  1.00  0.00    -0.200 F 
ATOM     90  C   UNL A   1      46.239  22.648  34.701  1.00  0.00     0.200 A 
ATOM     91  F   UNL A   1      48.264  23.838  34.937  1.00  0.00    -0.200 F 
ATOM     92  F   UNL A   1      46.684  21.694  35.530  1.00  0.00    -0.200 F 
ENDBRANCH  59  82
ENDBRANCH  33  34
ENDBRANCH  25  28
ENDBRANCH  23  24
ENDBRANCH  22  23
ENDBRANCH  21  22
ENDBRANCH   1  21
TORSDOF 15
ENDMDL
MODEL 3
REMARK VINA RESULT:     -12.7      3.853     10.062
REMARK SMILES Cc1ccc(C(F)(F)F)cc1/C=C/C(=O)NCCCCCCNC(=O)c1ccc(-c2c3nc(c(-c4c(F)c(F)c(F)c(F)c4F)c4ccc([nH]4)c(-c4c(F)c(F)c(F)c(F)c4F)c4nc(c(-c5c(F)c(F)c(F)c(F)c5F)c5ccc2[nH]5)C=C4)C=C3)cc1
REMARK SMILES IDX 19 1 18 2 17 3 16 4 14 5 15 6 13 8 12 9 11 10 1 11 2 12 3 13
REMARK SMILES IDX 4 14 10 15 5 16 6 17 7 18 8 19 9 20 20 21 21 22 22 23 23 24
REMARK SMILES IDX 24 25 25 27 26 28 27 29 88 30 28 31 87 32 29 33 30 34 31 35
REMARK SMILES IDX 81 36 32 37 86 38 80 39 82 40 33 41 85 42 79 43 78 44 34 46
REMARK SMILES IDX 66 47 46 48 65 49 47 50 50 51 64 52 83 53 48 54 49 55 63 57
REMARK SMILES IDX 84 58 51 59 35 60 36 61 44 62 37 63 38 64 42 65 45 66 39 67
REMARK SMILES IDX 40 68 43 69 41 70 67 71 68 72 76 73 69 74 70 75 74 76 77 77
REMARK SMILES IDX 71 78 72 79 75 80 73 81 52 82 53 83 61 84 54 85 55 86 59 87
REMARK SMILES IDX 62 88 56 89 57 90 60 91 58 92
REMARK H PARENT 16 7 23 26 82 45 50 56
REMARK Flexibility Score: inf
ROOT
ATOM      1  C   UNL A   1      35.585  22.214  25.926  1.00  0.00     0.002 C 
ENDROOT
BRANCH   1   2
ATOM      2  C   UNL A   1      34.598  21.518  26.874  1.00  0.00     0.021 C 
BRANCH   2   3
ATOM      3  C   UNL A   1      33.656  22.463  27.620  1.00  0.00     0.116 C 
BRANCH   3   4
ATOM      4  N   UNL A   1      32.270  22.206  27.286  1.00  0.00    -0.353 N 
ATOM      5  C   UNL A   1      31.361  22.999  26.659  1.00  0.00     0.243 C 
ATOM      6  O   UNL A   1      30.275  22.539  26.317  1.00  0.00    -0.270 OA
ATOM      7  H   UNL A   1      31.934  21.319  27.554  1.00  0.00     0.163 HD
BRANCH   5   8
ATOM      8  C   UNL A   1      31.699  24.395  26.307  1.00  0.00     0.072 C 
ATOM      9  C   UNL A   1      30.783  25.360  26.125  1.00  0.00     0.014 C 
BRANCH   9  10
ATOM     10  C   UNL A   1      31.149  26.726  25.710  1.00  0.00    -0.022 A 
ATOM     11  C   UNL A   1      29.410  26.763  23.821  1.00  0.00     0.045 C 
ATOM     12  C   UNL A   1      30.519  27.377  24.632  1.00  0.00    -0.044 A 
ATOM     13  C   UNL A   1      30.956  28.661  24.256  1.00  0.00     0.004 A 
ATOM     14  C   UNL A   1      31.982  29.303  24.949  1.00  0.00     0.013 A 
ATOM     15  C   UNL A   1      32.190  27.383  26.391  1.00  0.00     0.021 A 
ATOM     16  C   UNL A   1      32.605  28.675  26.032  1.00  0.00     0.056 A 
BRANCH  16  17
ATOM     17  C   UNL A   1      33.715  29.372  26.776  1.00  0.00     0.416 C 
ATOM     18  F   UNL A   1      33.954  28.816  27.995  1.00  0.00    -0.166 F 
ATOM     19  F   UNL A   1      34.901  29.324  26.105  1.00  0.00    -0.166 F 
ATOM     20  F   UNL A   1      33.474  30.693  27.006  1.00  0.00    -0.166 F 
ENDBRANCH  16  17
ENDBRANCH   9  10
ENDBRANCH   5   8
ENDBRANCH   3   4
ENDBRANCH   2   3
ENDBRANCH   1   2
BRANCH   1  21
ATOM     21  C   UNL A   1      36.383  21.304  24.976  1.00  0.00     0.002 C 
BRANCH  21  22
ATOM     22  C   UNL A   1      37.910  21.409  25.058  1.00  0.00     0.021 C 
BRANCH  22  23
ATOM     23  C   UNL A   1      38.406  22.636  25.812  1.00  0.00     0.116 C 
BRANCH  23  24
ATOM     24  N   UNL A   1      39.829  22.607  26.125  1.00  0.00    -0.352 N 
ATOM     25  C   UNL A   1      40.645  23.624  26.592  1.00  0.00     0.251 C 
ATOM     26  H   UNL A   1      40.274  21.740  25.986  1.00  0.00     0.163 HD
ATOM     27  O   UNL A   1      41.840  23.433  26.756  1.00  0.00    -0.269 OA
BRANCH  25  28
ATOM     28  C   UNL A   1      40.033  24.909  27.008  1.00  0.00     0.039 A 
ATOM     29  C   UNL A   1      40.455  26.080  26.365  1.00  0.00     0.014 A 
ATOM     30  C   UNL A   1      39.207  24.983  28.126  1.00  0.00     0.014 A 
ATOM     31  C   UNL A   1      40.245  27.312  26.982  1.00  0.00     0.010 A 
ATOM     32  C   UNL A   1      39.080  26.189  28.786  1.00  0.00     0.010 A 
ATOM     33  C   UNL A   1      39.659  27.343  28.247  1.00  0.00    -0.014 A 
BRANCH  33  34
ATOM     34  C   UNL A   1      39.704  28.507  29.126  1.00  0.00     0.031 A 
ATOM     35  C   UNL A   1      38.704  29.587  29.002  1.00  0.00     0.074 A 
ATOM     36  C   UNL A   1      40.621  28.546  30.118  1.00  0.00     0.049 A 
ATOM     37  N   UNL A   1      38.854  30.775  29.482  1.00  0.00    -0.248 NA
ATOM     38  C   UNL A   1      37.449  29.411  28.284  1.00  0.00     0.031 C 
ATOM     39  C   UNL A   1      40.672  29.467  31.251  1.00  0.00     0.029 A 
ATOM     40  N   UNL A   1      41.852  27.868  30.167  1.00  0.00    -0.354 N 
ATOM     41  C   UNL A   1      37.661  31.445  29.346  1.00  0.00     0.074 A 
ATOM     42  C   UNL A   1      36.825  30.559  28.566  1.00  0.00     0.031 C 
ATOM     43  C   UNL A   1      41.941  29.547  31.682  1.00  0.00     0.029 A 
ATOM     44  C   UNL A   1      42.757  28.790  30.749  1.00  0.00     0.049 A 
ATOM     45  H   UNL A   1      42.043  26.952  29.864  1.00  0.00     0.167 HD
ATOM     46  C   UNL A   1      37.484  32.636  29.989  1.00  0.00     0.037 A 
ATOM     47  C   UNL A   1      43.803  29.289  30.028  1.00  0.00     0.037 A 
ATOM     48  C   UNL A   1      38.706  33.073  30.657  1.00  0.00     0.049 A 
ATOM     49  C   UNL A   1      43.792  30.794  29.852  1.00  0.00     0.074 A 
ATOM     50  C   UNL A   1      39.190  32.977  31.952  1.00  0.00     0.029 A 
ATOM     51  N   UNL A   1      39.777  33.465  29.876  1.00  0.00    -0.354 N 
ATOM     52  N   UNL A   1      42.809  31.570  30.215  1.00  0.00    -0.248 NA
ATOM     53  C   UNL A   1      44.851  31.523  29.150  1.00  0.00     0.031 C 
ATOM     54  C   UNL A   1      40.581  33.285  31.928  1.00  0.00     0.029 A 
ATOM     55  C   UNL A   1      40.933  33.570  30.623  1.00  0.00     0.049 A 
ATOM     56  H   UNL A   1      39.722  33.645  28.909  1.00  0.00     0.167 HD
ATOM     57  C   UNL A   1      43.059  32.841  29.778  1.00  0.00     0.074 A 
ATOM     58  C   UNL A   1      44.346  32.767  29.116  1.00  0.00     0.031 C 
ATOM     59  C   UNL A   1      42.181  33.867  29.948  1.00  0.00     0.037 A 
BRANCH  46  60
ATOM     60  C   UNL A   1      36.147  33.306  30.185  1.00  0.00     0.064 A 
ATOM     61  C   UNL A   1      35.459  33.872  29.088  1.00  0.00     0.173 A 
ATOM     62  C   UNL A   1      35.506  33.462  31.427  1.00  0.00     0.173 A 
ATOM     63  F   UNL A   1      35.897  33.718  27.832  1.00  0.00    -0.203 F 
ATOM     64  C   UNL A   1      34.294  34.629  29.243  1.00  0.00     0.198 A 
ATOM     65  C   UNL A   1      34.377  34.271  31.591  1.00  0.00     0.198 A 
ATOM     66  F   UNL A   1      35.919  32.793  32.510  1.00  0.00    -0.203 F 
ATOM     67  F   UNL A   1      33.687  35.144  28.164  1.00  0.00    -0.200 F 
ATOM     68  C   UNL A   1      33.777  34.864  30.499  1.00  0.00     0.200 A 
ATOM     69  F   UNL A   1      33.874  34.470  32.819  1.00  0.00    -0.200 F 
ATOM     70  F   UNL A   1      32.692  35.634  30.655  1.00  0.00    -0.200 F 
ENDBRANCH  46  60
BRANCH  47  71
ATOM     71  C   UNL A   1      44.322  28.326  29.019  1.00  0.00     0.064 A 
ATOM     72  C   UNL A   1      45.077  27.223  29.467  1.00  0.00     0.173 A 
ATOM     73  C   UNL A   1      43.801  28.269  27.723  1.00  0.00     0.173 A 
ATOM     74  F   UNL A   1      45.600  27.225  30.704  1.00  0.00    -0.203 F 
ATOM     75  C   UNL A   1      45.190  26.066  28.702  1.00  0.00     0.198 A 
ATOM     76  C   UNL A   1      43.940  27.117  26.949  1.00  0.00     0.198 A 
ATOM     77  F   UNL A   1      43.058  29.277  27.242  1.00  0.00    -0.203 F 
ATOM     78  F   UNL A   1      45.804  24.986  29.209  1.00  0.00    -0.200 F 
ATOM     79  C   UNL A   1      44.599  26.005  27.452  1.00  0.00     0.200 A 
ATOM     80  F   UNL A   1      43.346  27.049  25.748  1.00  0.00    -0.200 F 
ATOM     81  F   UNL A   1      44.625  24.863  26.751  1.00  0.00    -0.200 F 
ENDBRANCH  47  71
BRANCH  59  82
ATOM     82  C   UNL A   1      42.464  35.256  29.479  1.00  0.00     0.064 A 
ATOM     83  C   UNL A   1      41.900  35.764  28.300  1.00  0.00     0.173 A 
ATOM     84  C   UNL A   1      43.403  36.071  30.138  1.00  0.00     0.173 A 
ATOM     85  F   UNL A   1      41.019  35.036  27.597  1.00  0.00    -0.203 F 
ATOM     86  C   UNL A   1      42.240  37.028  27.818  1.00  0.00     0.198 A 
ATOM     87  C   UNL A   1      43.774  37.313  29.632  1.00  0.00     0.198 A 
ATOM     88  F   UNL A   1      43.963  35.685  31.294  1.00  0.00    -0.203 F 
ATOM     89  F   UNL A   1      41.651  37.499  26.711  1.00  0.00    -0.200 F 
ATOM     90  C   UNL A   1      43.187  37.796  28.476  1.00  0.00     0.200 A 
ATOM     91  F   UNL A   1      44.701  38.041  30.270  1.00  0.00    -0.200 F 
ATOM     92  F   UNL A   1      43.529  39.000  28.001  1.00  0.00    -0.200 F 
ENDBRANCH  59  82
ENDBRANCH  33  34
ENDBRANCH  25  28
ENDBRANCH  23  24
ENDBRANCH  22  23
ENDBRANCH  21  22
ENDBRANCH   1  21
TORSDOF 15
ENDMDL
