MODEL 1
REMARK VINA RESULT:     -12.2      0.000      0.000
REMARK SMILES Cc1c(Cl)cc2c(c1C)O[C@H](C(F)(F)F)C(C(=O)NCCCCCCNC(=O)c1ccc(-c3c4nc(c(-c5c(F)c(F)c(F)c(F)c5F)c5ccc([nH]5)c(-c5c(F)c(F)c(F)c(F)c5F)c5nc(c(-c6c(F)c(F)c(F)c(F)c6F)c6ccc3[nH]6)C=C5)C=C4)cc1)=C2
REMARK SMILES IDX 23 1 22 2 21 3 20 4 19 5 17 6 18 7 16 9 1 10 2 11 3 12 8 13
REMARK SMILES IDX 4 14 5 15 7 16 9 17 6 18 10 19 92 20 11 21 12 22 13 23 14 24
REMARK SMILES IDX 15 25 24 26 25 27 26 28 27 29 28 31 29 32 30 33 91 34 31 35
REMARK SMILES IDX 90 36 32 37 33 38 34 39 84 40 35 41 89 42 83 43 85 44 36 45
REMARK SMILES IDX 88 46 82 47 81 48 37 50 69 51 49 52 68 53 50 54 53 55 67 56
REMARK SMILES IDX 86 57 51 58 52 59 66 61 87 62 54 63 38 64 39 65 47 66 40 67
REMARK SMILES IDX 41 68 45 69 48 70 42 71 43 72 46 73 44 74 70 75 71 76 79 77
REMARK SMILES IDX 72 78 73 79 77 80 80 81 74 82 75 83 78 84 76 85 55 86 56 87
REMARK SMILES IDX 64 88 57 89 58 90 62 91 65 92 59 93 60 94 63 95 61 96
REMARK H PARENT 19 8 26 30 85 49 53 60
REMARK Flexibility Score: inf
ROOT
ATOM      1  C   UNL A   1      35.589  21.686  26.087  1.00  0.00     0.002 C 
ENDROOT
BRANCH   1   2
ATOM      2  C   UNL A   1      34.669  20.996  25.070  1.00  0.00     0.002 C 
BRANCH   2   3
ATOM      3  C   UNL A   1      33.185  20.978  25.445  1.00  0.00     0.021 C 
BRANCH   3   4
ATOM      4  C   UNL A   1      32.315  21.858  24.553  1.00  0.00     0.116 C 
BRANCH   4   5
ATOM      5  N   UNL A   1      33.053  22.376  23.415  1.00  0.00    -0.352 N 
ATOM      6  C   UNL A   1      33.342  23.590  22.888  1.00  0.00     0.251 C 
ATOM      7  O   UNL A   1      34.070  23.570  21.891  1.00  0.00    -0.270 OA
ATOM      8  H   UNL A   1      33.450  21.650  22.884  1.00  0.00     0.163 HD
BRANCH   6   9
ATOM      9  C   UNL A   1      32.849  24.898  23.414  1.00  0.00     0.067 C 
ATOM     10  C   UNL A   1      32.038  30.691  26.357  1.00  0.00     0.046 C 
ATOM     11  C   UNL A   1      32.448  29.329  25.858  1.00  0.00    -0.026 A 
ATOM     12  C   UNL A   1      33.547  28.637  26.406  1.00  0.00     0.045 A 
ATOM     13  C   UNL A   1      31.742  28.731  24.788  1.00  0.00    -0.004 A 
ATOM     14  Cl  UNL A   1      34.508  29.291  27.688  1.00  0.00    -0.084 Cl
ATOM     15  C   UNL A   1      33.930  27.380  25.920  1.00  0.00     0.032 A 
ATOM     16  C   UNL A   1      32.137  27.459  24.326  1.00  0.00     0.131 A 
ATOM     17  C   UNL A   1      30.564  29.390  24.110  1.00  0.00     0.049 C 
ATOM     18  C   UNL A   1      33.225  26.785  24.877  1.00  0.00     0.019 A 
ATOM     19  O   UNL A   1      31.431  26.949  23.274  1.00  0.00    -0.475 OA
ATOM     20  C   UNL A   1      33.640  25.503  24.320  1.00  0.00     0.025 C 
ATOM     21  C   UNL A   1      31.550  25.531  23.013  1.00  0.00     0.314 C 
BRANCH  21  22
ATOM     22  C   UNL A   1      30.326  24.808  23.601  1.00  0.00     0.429 C 
ATOM     23  F   UNL A   1      30.064  23.676  22.901  1.00  0.00    -0.167 F 
ATOM     24  F   UNL A   1      30.513  24.423  24.885  1.00  0.00    -0.167 F 
ATOM     25  F   UNL A   1      29.210  25.568  23.575  1.00  0.00    -0.167 F 
ENDBRANCH  21  22
ENDBRANCH   6   9
ENDBRANCH   4   5
ENDBRANCH   3   4
ENDBRANCH   2   3
ENDBRANCH   1   2
BRANCH   1  26
ATOM     26  C   UNL A   1      35.608  23.217  26.026  1.00  0.00     0.021 C 
BRANCH  26  27
ATOM     27  C   UNL A   1      36.939  23.823  25.593  1.00  0.00     0.116 C 
BRANCH  27  28
ATOM     28  N   UNL A   1      38.036  22.882  25.741  1.00  0.00    -0.352 N 
ATOM     29  C   UNL A   1      39.304  23.092  26.212  1.00  0.00     0.251 C 
ATOM     30  H   UNL A   1      37.839  21.959  25.462  1.00  0.00     0.163 HD
ATOM     31  O   UNL A   1      40.166  22.226  26.075  1.00  0.00    -0.269 OA
BRANCH  29  32
ATOM     32  C   UNL A   1      39.645  24.364  26.879  1.00  0.00     0.039 A 
ATOM     33  C   UNL A   1      39.279  24.544  28.216  1.00  0.00     0.014 A 
ATOM     34  C   UNL A   1      40.289  25.389  26.180  1.00  0.00     0.014 A 
ATOM     35  C   UNL A   1      39.604  25.734  28.868  1.00  0.00     0.010 A 
ATOM     36  C   UNL A   1      40.662  26.552  26.846  1.00  0.00     0.010 A 
ATOM     37  C   UNL A   1      40.318  26.736  28.193  1.00  0.00    -0.014 A 
BRANCH  37  38
ATOM     38  C   UNL A   1      40.711  27.994  28.873  1.00  0.00     0.031 A 
ATOM     39  C   UNL A   1      42.111  28.163  29.385  1.00  0.00     0.074 A 
ATOM     40  C   UNL A   1      39.789  28.952  29.080  1.00  0.00     0.049 A 
ATOM     41  N   UNL A   1      42.620  29.131  30.102  1.00  0.00    -0.248 NA
ATOM     42  C   UNL A   1      43.064  27.086  29.066  1.00  0.00     0.031 C 
ATOM     43  C   UNL A   1      38.395  28.892  28.638  1.00  0.00     0.029 A 
ATOM     44  N   UNL A   1      39.883  30.158  29.726  1.00  0.00    -0.354 N 
ATOM     45  C   UNL A   1      43.944  28.781  30.325  1.00  0.00     0.074 A 
ATOM     46  C   UNL A   1      44.151  27.488  29.709  1.00  0.00     0.031 C 
ATOM     47  C   UNL A   1      37.769  30.020  29.010  1.00  0.00     0.029 A 
ATOM     48  C   UNL A   1      38.703  30.861  29.754  1.00  0.00     0.049 A 
ATOM     49  H   UNL A   1      40.717  30.490  30.132  1.00  0.00     0.167 HD
ATOM     50  C   UNL A   1      44.904  29.487  30.968  1.00  0.00     0.037 A 
ATOM     51  C   UNL A   1      38.407  32.042  30.325  1.00  0.00     0.037 A 
ATOM     52  C   UNL A   1      44.694  30.778  31.568  1.00  0.00     0.049 A 
ATOM     53  C   UNL A   1      39.484  32.790  31.063  1.00  0.00     0.074 A 
ATOM     54  C   UNL A   1      45.607  31.580  32.231  1.00  0.00     0.029 A 
ATOM     55  N   UNL A   1      43.484  31.458  31.574  1.00  0.00    -0.354 N 
ATOM     56  N   UNL A   1      40.737  32.457  31.255  1.00  0.00    -0.248 NA
ATOM     57  C   UNL A   1      39.106  34.078  31.659  1.00  0.00     0.031 C 
ATOM     58  C   UNL A   1      44.940  32.728  32.673  1.00  0.00     0.029 A 
ATOM     59  C   UNL A   1      43.625  32.666  32.240  1.00  0.00     0.049 A 
ATOM     60  H   UNL A   1      42.650  31.131  31.167  1.00  0.00     0.167 HD
ATOM     61  C   UNL A   1      41.306  33.505  31.967  1.00  0.00     0.074 A 
ATOM     62  C   UNL A   1      40.262  34.490  32.163  1.00  0.00     0.031 C 
ATOM     63  C   UNL A   1      42.577  33.639  32.416  1.00  0.00     0.037 A 
BRANCH  50  64
ATOM     64  C   UNL A   1      46.277  28.882  31.051  1.00  0.00     0.064 A 
ATOM     65  C   UNL A   1      46.646  28.050  32.117  1.00  0.00     0.173 A 
ATOM     66  C   UNL A   1      47.211  29.088  30.025  1.00  0.00     0.173 A 
ATOM     67  F   UNL A   1      45.794  27.833  33.130  1.00  0.00    -0.203 F 
ATOM     68  C   UNL A   1      47.907  27.459  32.163  1.00  0.00     0.198 A 
ATOM     69  C   UNL A   1      48.460  28.474  30.059  1.00  0.00     0.198 A 
ATOM     70  F   UNL A   1      46.908  29.874  28.980  1.00  0.00    -0.203 F 
ATOM     71  F   UNL A   1      48.251  26.698  33.210  1.00  0.00    -0.200 F 
ATOM     72  C   UNL A   1      48.809  27.664  31.129  1.00  0.00     0.200 A 
ATOM     73  F   UNL A   1      49.326  28.661  29.053  1.00  0.00    -0.200 F 
ATOM     74  F   UNL A   1      50.015  27.082  31.167  1.00  0.00    -0.200 F 
ENDBRANCH  50  64
BRANCH  51  75
ATOM     75  C   UNL A   1      37.039  32.604  30.189  1.00  0.00     0.064 A 
ATOM     76  C   UNL A   1      36.072  32.382  31.180  1.00  0.00     0.173 A 
ATOM     77  C   UNL A   1      36.675  33.390  29.086  1.00  0.00     0.173 A 
ATOM     78  F   UNL A   1      36.368  31.620  32.243  1.00  0.00    -0.203 F 
ATOM     79  C   UNL A   1      34.792  32.918  31.069  1.00  0.00     0.198 A 
ATOM     80  C   UNL A   1      35.401  33.947  28.989  1.00  0.00     0.198 A 
ATOM     81  F   UNL A   1      37.564  33.635  28.112  1.00  0.00    -0.203 F 
ATOM     82  F   UNL A   1      33.877  32.662  32.014  1.00  0.00    -0.200 F 
ATOM     83  C   UNL A   1      34.460  33.706  29.978  1.00  0.00     0.200 A 
ATOM     84  F   UNL A   1      35.089  34.722  27.941  1.00  0.00    -0.200 F 
ATOM     85  F   UNL A   1      33.231  34.232  29.877  1.00  0.00    -0.200 F 
ENDBRANCH  51  75
BRANCH  63  86
ATOM     86  C   UNL A   1      42.927  34.912  33.131  1.00  0.00     0.064 A 
ATOM     87  C   UNL A   1      43.378  36.046  32.440  1.00  0.00     0.173 A 
ATOM     88  C   UNL A   1      42.760  35.013  34.521  1.00  0.00     0.173 A 
ATOM     89  F   UNL A   1      43.566  35.996  31.112  1.00  0.00    -0.203 F 
ATOM     90  C   UNL A   1      43.673  37.225  33.116  1.00  0.00     0.198 A 
ATOM     91  C   UNL A   1      43.027  36.203  35.190  1.00  0.00     0.198 A 
ATOM     92  F   UNL A   1      42.323  33.960  35.227  1.00  0.00    -0.203 F 
ATOM     93  F   UNL A   1      44.147  38.282  32.442  1.00  0.00    -0.200 F 
ATOM     94  C   UNL A   1      43.490  37.306  34.489  1.00  0.00     0.200 A 
ATOM     95  F   UNL A   1      42.834  36.283  36.514  1.00  0.00    -0.200 F 
ATOM     96  F   UNL A   1      43.765  38.446  35.137  1.00  0.00    -0.200 F 
ENDBRANCH  63  86
ENDBRANCH  37  38
ENDBRANCH  29  32
ENDBRANCH  27  28
ENDBRANCH  26  27
ENDBRANCH   1  26
TORSDOF 14
ENDMDL
MODEL 2
REMARK VINA RESULT:     -12.1      3.257      8.674
REMARK SMILES Cc1c(Cl)cc2c(c1C)O[C@H](C(F)(F)F)C(C(=O)NCCCCCCNC(=O)c1ccc(-c3c4nc(c(-c5c(F)c(F)c(F)c(F)c5F)c5ccc([nH]5)c(-c5c(F)c(F)c(F)c(F)c5F)c5nc(c(-c6c(F)c(F)c(F)c(F)c6F)c6ccc3[nH]6)C=C5)C=C4)cc1)=C2
REMARK SMILES IDX 23 1 22 2 21 3 20 4 19 5 17 6 18 7 16 9 1 10 2 11 3 12 8 13
REMARK SMILES IDX 4 14 5 15 7 16 9 17 6 18 10 19 92 20 11 21 12 22 13 23 14 24
REMARK SMILES IDX 15 25 24 26 25 27 26 28 27 29 28 31 29 32 30 33 91 34 31 35
REMARK SMILES IDX 90 36 32 37 33 38 34 39 84 40 35 41 89 42 83 43 85 44 36 45
REMARK SMILES IDX 88 46 82 47 81 48 37 50 69 51 49 52 68 53 50 54 53 55 67 56
REMARK SMILES IDX 86 57 51 58 52 59 66 61 87 62 54 63 38 64 39 65 47 66 40 67
REMARK SMILES IDX 41 68 45 69 48 70 42 71 43 72 46 73 44 74 70 75 71 76 79 77
REMARK SMILES IDX 72 78 73 79 77 80 80 81 74 82 75 83 78 84 76 85 55 86 56 87
REMARK SMILES IDX 64 88 57 89 58 90 62 91 65 92 59 93 60 94 63 95 61 96
REMARK H PARENT 19 8 26 30 85 49 53 60
REMARK Flexibility Score: inf
ROOT
ATOM      1  C   UNL A   1      33.692  28.196  24.585  1.00  0.00     0.002 C 
ENDROOT
BRANCH   1   2
ATOM      2  C   UNL A   1      32.815  28.733  23.445  1.00  0.00     0.002 C 
BRANCH   2   3
ATOM      3  C   UNL A   1      31.310  28.518  23.625  1.00  0.00     0.021 C 
BRANCH   3   4
ATOM      4  C   UNL A   1      30.881  27.057  23.523  1.00  0.00     0.116 C 
BRANCH   4   5
ATOM      5  N   UNL A   1      30.401  26.542  24.793  1.00  0.00    -0.352 N 
ATOM      6  C   UNL A   1      30.723  25.537  25.642  1.00  0.00     0.251 C 
ATOM      7  O   UNL A   1      30.048  25.486  26.676  1.00  0.00    -0.270 OA
ATOM      8  H   UNL A   1      29.637  27.064  25.128  1.00  0.00     0.163 HD
BRANCH   6   9
ATOM      9  C   UNL A   1      31.794  24.523  25.412  1.00  0.00     0.067 C 
ATOM     10  C   UNL A   1      37.332  21.037  25.179  1.00  0.00     0.046 C 
ATOM     11  C   UNL A   1      36.230  22.056  25.312  1.00  0.00    -0.026 A 
ATOM     12  C   UNL A   1      36.490  23.389  25.693  1.00  0.00     0.045 A 
ATOM     13  C   UNL A   1      34.887  21.670  25.088  1.00  0.00    -0.004 A 
ATOM     14  Cl  UNL A   1      38.089  23.959  26.033  1.00  0.00    -0.084 Cl
ATOM     15  C   UNL A   1      35.454  24.320  25.832  1.00  0.00     0.032 A 
ATOM     16  C   UNL A   1      33.863  22.630  25.221  1.00  0.00     0.131 A 
ATOM     17  C   UNL A   1      34.489  20.266  24.701  1.00  0.00     0.049 C 
ATOM     18  C   UNL A   1      34.134  23.944  25.596  1.00  0.00     0.019 A 
ATOM     19  O   UNL A   1      32.587  22.188  25.016  1.00  0.00    -0.475 OA
ATOM     20  C   UNL A   1      33.035  24.884  25.789  1.00  0.00     0.025 C 
ATOM     21  C   UNL A   1      31.564  23.183  24.779  1.00  0.00     0.314 C 
BRANCH  21  22
ATOM     22  C   UNL A   1      31.293  23.274  23.267  1.00  0.00     0.429 C 
ATOM     23  F   UNL A   1      31.463  22.062  22.682  1.00  0.00    -0.167 F 
ATOM     24  F   UNL A   1      30.025  23.656  22.984  1.00  0.00    -0.167 F 
ATOM     25  F   UNL A   1      32.116  24.144  22.642  1.00  0.00    -0.167 F 
ENDBRANCH  21  22
ENDBRANCH   6   9
ENDBRANCH   4   5
ENDBRANCH   3   4
ENDBRANCH   2   3
ENDBRANCH   1   2
BRANCH   1  26
ATOM     26  C   UNL A   1      33.155  28.439  26.000  1.00  0.00     0.021 C 
BRANCH  26  27
ATOM     27  C   UNL A   1      34.223  28.741  27.045  1.00  0.00     0.116 C 
BRANCH  27  28
ATOM     28  N   UNL A   1      34.054  30.061  27.627  1.00  0.00    -0.352 N 
ATOM     29  C   UNL A   1      34.872  30.745  28.487  1.00  0.00     0.251 C 
ATOM     30  H   UNL A   1      33.231  30.534  27.364  1.00  0.00     0.163 HD
ATOM     31  O   UNL A   1      34.472  31.768  29.038  1.00  0.00    -0.269 OA
BRANCH  29  32
ATOM     32  C   UNL A   1      36.235  30.250  28.761  1.00  0.00     0.039 A 
ATOM     33  C   UNL A   1      37.233  30.456  27.806  1.00  0.00     0.014 A 
ATOM     34  C   UNL A   1      36.519  29.555  29.941  1.00  0.00     0.014 A 
ATOM     35  C   UNL A   1      38.531  30.008  28.053  1.00  0.00     0.010 A 
ATOM     36  C   UNL A   1      37.825  29.157  30.211  1.00  0.00     0.010 A 
ATOM     37  C   UNL A   1      38.840  29.376  29.268  1.00  0.00    -0.014 A 
BRANCH  37  38
ATOM     38  C   UNL A   1      40.218  28.925  29.574  1.00  0.00     0.031 A 
ATOM     39  C   UNL A   1      41.126  29.794  30.396  1.00  0.00     0.074 A 
ATOM     40  C   UNL A   1      40.667  27.765  29.059  1.00  0.00     0.049 A 
ATOM     41  N   UNL A   1      42.394  29.635  30.677  1.00  0.00    -0.248 NA
ATOM     42  C   UNL A   1      40.533  31.017  30.960  1.00  0.00     0.031 C 
ATOM     43  C   UNL A   1      39.879  26.846  28.237  1.00  0.00     0.029 A 
ATOM     44  N   UNL A   1      41.899  27.168  29.142  1.00  0.00    -0.354 N 
ATOM     45  C   UNL A   1      42.751  30.735  31.443  1.00  0.00     0.074 A 
ATOM     46  C   UNL A   1      41.581  31.581  31.544  1.00  0.00     0.031 C 
ATOM     47  C   UNL A   1      40.642  25.792  27.906  1.00  0.00     0.029 A 
ATOM     48  C   UNL A   1      41.982  25.983  28.453  1.00  0.00     0.049 A 
ATOM     49  H   UNL A   1      42.652  27.552  29.647  1.00  0.00     0.167 HD
ATOM     50  C   UNL A   1      43.944  31.003  32.025  1.00  0.00     0.037 A 
ATOM     51  C   UNL A   1      43.025  25.151  28.275  1.00  0.00     0.037 A 
ATOM     52  C   UNL A   1      45.100  30.152  31.930  1.00  0.00     0.049 A 
ATOM     53  C   UNL A   1      44.349  25.490  28.906  1.00  0.00     0.074 A 
ATOM     54  C   UNL A   1      46.351  30.328  32.496  1.00  0.00     0.029 A 
ATOM     55  N   UNL A   1      45.145  28.957  31.225  1.00  0.00    -0.354 N 
ATOM     56  N   UNL A   1      44.672  26.526  29.640  1.00  0.00    -0.248 NA
ATOM     57  C   UNL A   1      45.449  24.541  28.685  1.00  0.00     0.031 C 
ATOM     58  C   UNL A   1      47.165  29.261  32.100  1.00  0.00     0.029 A 
ATOM     59  C   UNL A   1      46.406  28.392  31.332  1.00  0.00     0.049 A 
ATOM     60  H   UNL A   1      44.393  28.569  30.722  1.00  0.00     0.167 HD
ATOM     61  C   UNL A   1      46.002  26.341  29.996  1.00  0.00     0.074 A 
ATOM     62  C   UNL A   1      46.421  25.088  29.403  1.00  0.00     0.031 C 
ATOM     63  C   UNL A   1      46.803  27.138  30.744  1.00  0.00     0.037 A 
BRANCH  50  64
ATOM     64  C   UNL A   1      44.060  32.268  32.827  1.00  0.00     0.064 A 
ATOM     65  C   UNL A   1      44.459  33.475  32.235  1.00  0.00     0.173 A 
ATOM     66  C   UNL A   1      43.711  32.287  34.186  1.00  0.00     0.173 A 
ATOM     67  F   UNL A   1      44.817  33.507  30.943  1.00  0.00    -0.203 F 
ATOM     68  C   UNL A   1      44.522  34.652  32.979  1.00  0.00     0.198 A 
ATOM     69  C   UNL A   1      43.747  33.470  34.919  1.00  0.00     0.198 A 
ATOM     70  F   UNL A   1      43.320  31.160  34.801  1.00  0.00    -0.203 F 
ATOM     71  F   UNL A   1      44.942  35.785  32.401  1.00  0.00    -0.200 F 
ATOM     72  C   UNL A   1      44.156  34.650  34.317  1.00  0.00     0.200 A 
ATOM     73  F   UNL A   1      43.381  33.470  36.208  1.00  0.00    -0.200 F 
ATOM     74  F   UNL A   1      44.202  35.786  35.026  1.00  0.00    -0.200 F 
ENDBRANCH  50  64
BRANCH  51  75
ATOM     75  C   UNL A   1      42.845  23.901  27.494  1.00  0.00     0.064 A 
ATOM     76  C   UNL A   1      43.163  23.858  26.129  1.00  0.00     0.173 A 
ATOM     77  C   UNL A   1      42.378  22.722  28.092  1.00  0.00     0.173 A 
ATOM     78  F   UNL A   1      43.593  24.967  25.508  1.00  0.00    -0.203 F 
ATOM     79  C   UNL A   1      43.012  22.687  25.391  1.00  0.00     0.198 A 
ATOM     80  C   UNL A   1      42.253  21.543  27.359  1.00  0.00     0.198 A 
ATOM     81  F   UNL A   1      42.064  22.708  29.396  1.00  0.00    -0.203 F 
ATOM     82  F   UNL A   1      43.291  22.683  24.080  1.00  0.00    -0.200 F 
ATOM     83  C   UNL A   1      42.566  21.529  26.008  1.00  0.00     0.200 A 
ATOM     84  F   UNL A   1      41.836  20.422  27.962  1.00  0.00    -0.200 F 
ATOM     85  F   UNL A   1      42.433  20.398  25.301  1.00  0.00    -0.200 F 
ENDBRANCH  51  75
BRANCH  63  86
ATOM     86  C   UNL A   1      48.203  26.663  31.002  1.00  0.00     0.064 A 
ATOM     87  C   UNL A   1      48.504  25.795  32.061  1.00  0.00     0.173 A 
ATOM     88  C   UNL A   1      49.249  27.045  30.148  1.00  0.00     0.173 A 
ATOM     89  F   UNL A   1      47.541  25.411  32.913  1.00  0.00    -0.203 F 
ATOM     90  C   UNL A   1      49.804  25.345  32.269  1.00  0.00     0.198 A 
ATOM     91  C   UNL A   1      50.542  26.570  30.341  1.00  0.00     0.198 A 
ATOM     92  F   UNL A   1      49.012  27.868  29.115  1.00  0.00    -0.203 F 
ATOM     93  F   UNL A   1      50.077  24.552  33.315  1.00  0.00    -0.200 F 
ATOM     94  C   UNL A   1      50.821  25.726  31.405  1.00  0.00     0.200 A 
ATOM     95  F   UNL A   1      51.519  26.926  29.495  1.00  0.00    -0.200 F 
ATOM     96  F   UNL A   1      52.070  25.284  31.602  1.00  0.00    -0.200 F 
ENDBRANCH  63  86
ENDBRANCH  37  38
ENDBRANCH  29  32
ENDBRANCH  27  28
ENDBRANCH  26  27
ENDBRANCH   1  26
TORSDOF 14
ENDMDL
MODEL 3
REMARK VINA RESULT:     -12.0      3.550      6.886
REMARK SMILES Cc1c(Cl)cc2c(c1C)O[C@H](C(F)(F)F)C(C(=O)NCCCCCCNC(=O)c1ccc(-c3c4nc(c(-c5c(F)c(F)c(F)c(F)c5F)c5ccc([nH]5)c(-c5c(F)c(F)c(F)c(F)c5F)c5nc(c(-c6c(F)c(F)c(F)c(F)c6F)c6ccc3[nH]6)C=C5)C=C4)cc1)=C2
REMARK SMILES IDX 23 1 22 2 21 3 20 4 19 5 17 6 18 7 16 9 1 10 2 11 3 12 8 13
REMARK SMILES IDX 4 14 5 15 7 16 9 17 6 18 10 19 92 20 11 21 12 22 13 23 14 24
REMARK SMILES IDX 15 25 24 26 25 27 26 28 27 29 28 31 29 32 30 33 91 34 31 35
REMARK SMILES IDX 90 36 32 37 33 38 34 39 84 40 35 41 89 42 83 43 85 44 36 45
REMARK SMILES IDX 88 46 82 47 81 48 37 50 69 51 49 52 68 53 50 54 53 55 67 56
REMARK SMILES IDX 86 57 51 58 52 59 66 61 87 62 54 63 38 64 39 65 47 66 40 67
REMARK SMILES IDX 41 68 45 69 48 70 42 71 43 72 46 73 44 74 70 75 71 76 79 77
REMARK SMILES IDX 72 78 73 79 77 80 80 81 74 82 75 83 78 84 76 85 55 86 56 87
REMARK SMILES IDX 64 88 57 89 58 90 62 91 65 92 59 93 60 94 63 95 61 96
REMARK H PARENT 19 8 26 30 85 49 53 60
REMARK Flexibility Score: inf
ROOT
ATOM      1  C   UNL A   1      33.998  27.855  23.109  1.00  0.00     0.002 C 
ENDROOT
BRANCH   1   2
ATOM      2  C   UNL A   1      33.054  26.749  22.617  1.00  0.00     0.002 C 
BRANCH   2   3
ATOM      3  C   UNL A   1      31.573  26.966  22.943  1.00  0.00     0.021 C 
BRANCH   3   4
ATOM      4  C   UNL A   1      30.771  25.673  23.046  1.00  0.00     0.116 C 
BRANCH   4   5
ATOM      5  N   UNL A   1      30.459  25.335  24.424  1.00  0.00    -0.352 N 
ATOM      6  C   UNL A   1      31.013  24.597  25.415  1.00  0.00     0.251 C 
ATOM      7  O   UNL A   1      30.406  24.623  26.491  1.00  0.00    -0.270 OA
ATOM      8  H   UNL A   1      29.620  25.757  24.716  1.00  0.00     0.163 HD
BRANCH   6   9
ATOM      9  C   UNL A   1      32.257  23.782  25.291  1.00  0.00     0.067 C 
ATOM     10  C   UNL A   1      38.333  21.347  25.485  1.00  0.00     0.046 C 
ATOM     11  C   UNL A   1      37.061  22.156  25.511  1.00  0.00    -0.026 A 
ATOM     12  C   UNL A   1      37.063  23.534  25.808  1.00  0.00     0.045 A 
ATOM     13  C   UNL A   1      35.821  21.521  25.268  1.00  0.00    -0.004 A 
ATOM     14  Cl  UNL A   1      38.517  24.403  26.164  1.00  0.00    -0.084 Cl
ATOM     15  C   UNL A   1      35.871  24.270  25.849  1.00  0.00     0.032 A 
ATOM     16  C   UNL A   1      34.637  22.286  25.300  1.00  0.00     0.131 A 
ATOM     17  C   UNL A   1      35.697  20.047  24.963  1.00  0.00     0.049 C 
ATOM     18  C   UNL A   1      34.652  23.647  25.594  1.00  0.00     0.019 A 
ATOM     19  O   UNL A   1      33.471  21.609  25.082  1.00  0.00    -0.475 OA
ATOM     20  C   UNL A   1      33.396  24.383  25.685  1.00  0.00     0.025 C 
ATOM     21  C   UNL A   1      32.299  22.386  24.743  1.00  0.00     0.314 C 
BRANCH  21  22
ATOM     22  C   UNL A   1      32.086  22.335  23.220  1.00  0.00     0.429 C 
ATOM     23  F   UNL A   1      30.777  22.529  22.919  1.00  0.00    -0.167 F 
ATOM     24  F   UNL A   1      32.772  23.300  22.563  1.00  0.00    -0.167 F 
ATOM     25  F   UNL A   1      32.455  21.152  22.682  1.00  0.00    -0.167 F 
ENDBRANCH  21  22
ENDBRANCH   6   9
ENDBRANCH   4   5
ENDBRANCH   3   4
ENDBRANCH   2   3
ENDBRANCH   1   2
BRANCH   1  26
ATOM     26  C   UNL A   1      33.314  29.080  23.725  1.00  0.00     0.021 C 
BRANCH  26  27
ATOM     27  C   UNL A   1      33.445  29.189  25.241  1.00  0.00     0.116 C 
BRANCH  27  28
ATOM     28  N   UNL A   1      32.864  30.420  25.748  1.00  0.00    -0.352 N 
ATOM     29  C   UNL A   1      33.207  31.154  26.852  1.00  0.00     0.251 C 
ATOM     30  H   UNL A   1      32.115  30.779  25.221  1.00  0.00     0.163 HD
ATOM     31  O   UNL A   1      32.474  32.059  27.244  1.00  0.00    -0.269 OA
BRANCH  29  32
ATOM     32  C   UNL A   1      34.455  30.855  27.581  1.00  0.00     0.039 A 
ATOM     33  C   UNL A   1      35.426  31.853  27.693  1.00  0.00     0.014 A 
ATOM     34  C   UNL A   1      34.682  29.585  28.120  1.00  0.00     0.014 A 
ATOM     35  C   UNL A   1      36.607  31.594  28.389  1.00  0.00     0.010 A 
ATOM     36  C   UNL A   1      35.834  29.345  28.862  1.00  0.00     0.010 A 
ATOM     37  C   UNL A   1      36.808  30.345  28.998  1.00  0.00    -0.014 A 
BRANCH  37  38
ATOM     38  C   UNL A   1      38.035  30.056  29.777  1.00  0.00     0.031 A 
ATOM     39  C   UNL A   1      39.071  29.121  29.224  1.00  0.00     0.074 A 
ATOM     40  C   UNL A   1      38.183  30.586  31.006  1.00  0.00     0.049 A 
ATOM     41  N   UNL A   1      40.152  28.651  29.792  1.00  0.00    -0.248 NA
ATOM     42  C   UNL A   1      38.851  28.631  27.853  1.00  0.00     0.031 C 
ATOM     43  C   UNL A   1      37.236  31.497  31.650  1.00  0.00     0.029 A 
ATOM     44  N   UNL A   1      39.179  30.426  31.934  1.00  0.00    -0.354 N 
ATOM     45  C   UNL A   1      40.736  27.810  28.856  1.00  0.00     0.074 A 
ATOM     46  C   UNL A   1      39.867  27.794  27.699  1.00  0.00     0.031 C 
ATOM     47  C   UNL A   1      37.706  31.829  32.863  1.00  0.00     0.029 A 
ATOM     48  C   UNL A   1      38.962  31.122  33.099  1.00  0.00     0.049 A 
ATOM     49  H   UNL A   1      39.974  29.866  31.782  1.00  0.00     0.167 HD
ATOM     50  C   UNL A   1      41.903  27.130  28.948  1.00  0.00     0.037 A 
ATOM     51  C   UNL A   1      39.687  31.173  34.231  1.00  0.00     0.037 A 
ATOM     52  C   UNL A   1      42.768  27.160  30.098  1.00  0.00     0.049 A 
ATOM     53  C   UNL A   1      40.963  30.380  34.319  1.00  0.00     0.074 A 
ATOM     54  C   UNL A   1      43.979  26.516  30.284  1.00  0.00     0.029 A 
ATOM     55  N   UNL A   1      42.514  27.878  31.258  1.00  0.00    -0.354 N 
ATOM     56  N   UNL A   1      41.514  29.599  33.423  1.00  0.00    -0.248 NA
ATOM     57  C   UNL A   1      41.718  30.480  35.575  1.00  0.00     0.031 C 
ATOM     58  C   UNL A   1      44.439  26.813  31.571  1.00  0.00     0.029 A 
ATOM     59  C   UNL A   1      43.542  27.684  32.168  1.00  0.00     0.049 A 
ATOM     60  H   UNL A   1      41.722  28.441  31.412  1.00  0.00     0.167 HD
ATOM     61  C   UNL A   1      42.694  29.138  33.991  1.00  0.00     0.074 A 
ATOM     62  C   UNL A   1      42.783  29.737  35.307  1.00  0.00     0.031 C 
ATOM     63  C   UNL A   1      43.619  28.296  33.470  1.00  0.00     0.037 A 
BRANCH  50  64
ATOM     64  C   UNL A   1      42.320  26.298  27.769  1.00  0.00     0.064 A 
ATOM     65  C   UNL A   1      43.272  26.760  26.849  1.00  0.00     0.173 A 
ATOM     66  C   UNL A   1      41.809  25.004  27.591  1.00  0.00     0.173 A 
ATOM     67  F   UNL A   1      43.781  27.996  26.967  1.00  0.00    -0.203 F 
ATOM     68  C   UNL A   1      43.685  25.963  25.783  1.00  0.00     0.198 A 
ATOM     69  C   UNL A   1      42.244  24.199  26.542  1.00  0.00     0.198 A 
ATOM     70  F   UNL A   1      40.897  24.512  28.444  1.00  0.00    -0.203 F 
ATOM     71  F   UNL A   1      44.568  26.440  24.895  1.00  0.00    -0.200 F 
ATOM     72  C   UNL A   1      43.178  24.680  25.636  1.00  0.00     0.200 A 
ATOM     73  F   UNL A   1      41.764  22.955  26.408  1.00  0.00    -0.200 F 
ATOM     74  F   UNL A   1      43.588  23.910  24.620  1.00  0.00    -0.200 F 
ENDBRANCH  50  64
BRANCH  51  75
ATOM     75  C   UNL A   1      39.239  32.033  35.355  1.00  0.00     0.064 A 
ATOM     76  C   UNL A   1      38.474  31.501  36.402  1.00  0.00     0.173 A 
ATOM     77  C   UNL A   1      39.582  33.391  35.422  1.00  0.00     0.173 A 
ATOM     78  F   UNL A   1      38.104  30.212  36.371  1.00  0.00    -0.203 F 
ATOM     79  C   UNL A   1      38.061  32.296  37.469  1.00  0.00     0.198 A 
ATOM     80  C   UNL A   1      39.191  34.179  36.503  1.00  0.00     0.198 A 
ATOM     81  F   UNL A   1      40.316  33.948  34.447  1.00  0.00    -0.203 F 
ATOM     82  F   UNL A   1      37.302  31.769  38.440  1.00  0.00    -0.200 F 
ATOM     83  C   UNL A   1      38.428  33.631  37.523  1.00  0.00     0.200 A 
ATOM     84  F   UNL A   1      39.560  35.466  36.559  1.00  0.00    -0.200 F 
ATOM     85  F   UNL A   1      38.041  34.394  38.555  1.00  0.00    -0.200 F 
ENDBRANCH  51  75
BRANCH  63  86
ATOM     86  C   UNL A   1      44.831  28.000  34.305  1.00  0.00     0.064 A 
ATOM     87  C   UNL A   1      45.973  28.812  34.261  1.00  0.00     0.173 A 
ATOM     88  C   UNL A   1      44.830  26.915  35.195  1.00  0.00     0.173 A 
ATOM     89  F   UNL A   1      46.028  29.853  33.417  1.00  0.00    -0.203 F 
ATOM     90  C   UNL A   1      47.078  28.536  35.062  1.00  0.00     0.198 A 
ATOM     91  C   UNL A   1      45.924  26.659  36.016  1.00  0.00     0.198 A 
ATOM     92  F   UNL A   1      43.759  26.112  35.281  1.00  0.00    -0.203 F 
ATOM     93  F   UNL A   1      48.176  29.299  34.971  1.00  0.00    -0.200 F 
ATOM     94  C   UNL A   1      47.050  27.465  35.943  1.00  0.00     0.200 A 
ATOM     95  F   UNL A   1      45.888  25.634  36.879  1.00  0.00    -0.200 F 
ATOM     96  F   UNL A   1      48.111  27.207  36.719  1.00  0.00    -0.200 F 
ENDBRANCH  63  86
ENDBRANCH  37  38
ENDBRANCH  29  32
ENDBRANCH  27  28
ENDBRANCH  26  27
ENDBRANCH   1  26
TORSDOF 14
ENDMDL
