MODEL 1
REMARK VINA RESULT:     -11.3      0.000      0.000
REMARK SMILES CCCCCN(C)S(=O)(=O)c1cc(Cl)cc(C(=O)NCCCCCCNC(=O)c2ccc(-c3c4nc(c(-c5c(F)c(F)c(F)c(F)c5F)c5ccc([nH]5)c(-c5c(F)c(F)c(F)c(F)c5F)c5nc(c(-c6c(F)c(F)c(F)c(F)c6F)c6ccc3[nH]6)C=C5)C=C4)cc2)c1F
REMARK SMILES IDX 20 1 19 2 17 3 18 4 16 6 11 7 12 8 92 9 13 10 93 11 14 12
REMARK SMILES IDX 15 13 8 14 9 15 10 16 6 17 7 18 5 19 4 20 3 21 2 22 1 23
REMARK SMILES IDX 21 24 22 25 23 26 24 27 25 28 26 29 27 30 28 32 29 33 30 34
REMARK SMILES IDX 91 35 31 36 90 37 32 38 33 39 34 40 84 41 35 42 89 43 83 44
REMARK SMILES IDX 85 45 36 46 88 47 82 48 81 49 37 51 69 52 49 53 68 54 50 55
REMARK SMILES IDX 53 56 67 57 86 58 51 59 52 60 66 62 87 63 54 64 38 65 39 66
REMARK SMILES IDX 47 67 40 68 41 69 45 70 48 71 42 72 43 73 46 74 44 75 70 76
REMARK SMILES IDX 71 77 79 78 72 79 73 80 77 81 80 82 74 83 75 84 78 85 76 86
REMARK SMILES IDX 55 87 56 88 64 89 57 90 58 91 62 92 65 93 59 94 60 95 63 96
REMARK SMILES IDX 61 97
REMARK H PARENT 19 5 26 31 85 50 53 61
REMARK Flexibility Score: inf
ROOT
ATOM      1  C   UNL A   1      36.628  23.891  26.020  1.00  0.00     0.116 C 
ENDROOT
BRANCH   1   2
ATOM      2  N   UNL A   1      35.522  23.267  26.724  1.00  0.00    -0.352 N 
ATOM      3  C   UNL A   1      34.225  23.003  26.380  1.00  0.00     0.254 C 
ATOM      4  O   UNL A   1      33.505  22.499  27.244  1.00  0.00    -0.269 OA
ATOM      5  H   UNL A   1      35.752  22.975  27.635  1.00  0.00     0.163 HD
BRANCH   3   6
ATOM      6  C   UNL A   1      33.644  23.207  25.030  1.00  0.00     0.078 A 
ATOM      7  C   UNL A   1      32.905  24.486  23.118  1.00  0.00     0.120 A 
ATOM      8  C   UNL A   1      32.442  23.324  22.489  1.00  0.00     0.045 A 
ATOM      9  C   UNL A   1      33.475  24.437  24.389  1.00  0.00     0.156 A 
ATOM     10  C   UNL A   1      32.574  22.105  23.138  1.00  0.00     0.043 A 
ATOM     11  F   UNL A   1      33.807  25.575  25.005  1.00  0.00    -0.205 F 
ATOM     12  Cl  UNL A   1      32.011  20.669  22.380  1.00  0.00    -0.084 Cl
ATOM     13  C   UNL A   1      33.175  22.041  24.392  1.00  0.00     0.037 A 
BRANCH   7  14
ATOM     14  S   UNL A   1      32.860  25.979  22.180  1.00  0.00     0.245 S 
ATOM     15  O   UNL A   1      32.102  25.703  20.980  1.00  0.00    -0.207 OA
ATOM     16  O   UNL A   1      34.242  26.406  22.101  1.00  0.00    -0.207 OA
BRANCH  14  17
ATOM     17  N   UNL A   1      31.965  27.140  23.064  1.00  0.00    -0.201 NA
ATOM     18  C   UNL A   1      30.607  27.395  22.511  1.00  0.00     0.124 C 
BRANCH  17  19
ATOM     19  C   UNL A   1      32.698  28.438  23.264  1.00  0.00     0.102 C 
BRANCH  19  20
ATOM     20  C   UNL A   1      32.491  29.009  24.669  1.00  0.00     0.017 C 
BRANCH  20  21
ATOM     21  C   UNL A   1      31.753  28.121  25.678  1.00  0.00     0.001 C 
BRANCH  21  22
ATOM     22  C   UNL A   1      32.436  27.923  27.037  1.00  0.00    -0.003 C 
ATOM     23  C   UNL A   1      33.793  28.600  27.148  1.00  0.00     0.004 C 
ENDBRANCH  21  22
ENDBRANCH  20  21
ENDBRANCH  19  20
ENDBRANCH  17  19
ENDBRANCH  14  17
ENDBRANCH   7  14
ENDBRANCH   3   6
ENDBRANCH   1   2
BRANCH   1  24
ATOM     24  C   UNL A   1      37.673  22.835  25.646  1.00  0.00     0.021 C 
BRANCH  24  25
ATOM     25  C   UNL A   1      37.223  21.896  24.518  1.00  0.00     0.002 C 
BRANCH  25  26
ATOM     26  C   UNL A   1      36.919  20.458  24.956  1.00  0.00     0.002 C 
BRANCH  26  27
ATOM     27  C   UNL A   1      38.116  19.502  24.960  1.00  0.00     0.021 C 
BRANCH  27  28
ATOM     28  C   UNL A   1      39.313  19.957  25.794  1.00  0.00     0.116 C 
BRANCH  28  29
ATOM     29  N   UNL A   1      40.364  18.953  25.845  1.00  0.00    -0.352 N 
ATOM     30  C   UNL A   1      41.717  19.119  26.019  1.00  0.00     0.251 C 
ATOM     31  H   UNL A   1      40.063  18.022  25.741  1.00  0.00     0.163 HD
ATOM     32  O   UNL A   1      42.481  18.172  25.869  1.00  0.00    -0.269 OA
BRANCH  30  33
ATOM     33  C   UNL A   1      42.262  20.447  26.369  1.00  0.00     0.039 A 
ATOM     34  C   UNL A   1      42.820  21.235  25.358  1.00  0.00     0.014 A 
ATOM     35  C   UNL A   1      42.250  20.904  27.691  1.00  0.00     0.014 A 
ATOM     36  C   UNL A   1      43.312  22.509  25.658  1.00  0.00     0.010 A 
ATOM     37  C   UNL A   1      42.709  22.188  27.985  1.00  0.00     0.010 A 
ATOM     38  C   UNL A   1      43.237  23.002  26.969  1.00  0.00    -0.014 A 
BRANCH  38  39
ATOM     39  C   UNL A   1      43.685  24.376  27.300  1.00  0.00     0.031 A 
ATOM     40  C   UNL A   1      42.706  25.388  27.817  1.00  0.00     0.074 A 
ATOM     41  C   UNL A   1      44.962  24.732  27.063  1.00  0.00     0.049 A 
ATOM     42  N   UNL A   1      42.882  26.665  28.049  1.00  0.00    -0.248 NA
ATOM     43  C   UNL A   1      41.345  24.906  28.094  1.00  0.00     0.031 C 
ATOM     44  C   UNL A   1      46.002  23.847  26.537  1.00  0.00     0.029 A 
ATOM     45  N   UNL A   1      45.594  25.940  27.216  1.00  0.00    -0.354 N 
ATOM     46  C   UNL A   1      41.652  27.143  28.476  1.00  0.00     0.074 A 
ATOM     47  C   UNL A   1      40.732  26.024  28.457  1.00  0.00     0.031 C 
ATOM     48  C   UNL A   1      47.145  24.542  26.412  1.00  0.00     0.029 A 
ATOM     49  C   UNL A   1      46.908  25.924  26.821  1.00  0.00     0.049 A 
ATOM     50  H   UNL A   1      45.149  26.741  27.575  1.00  0.00     0.167 HD
ATOM     51  C   UNL A   1      41.323  28.400  28.856  1.00  0.00     0.037 A 
ATOM     52  C   UNL A   1      47.817  26.916  26.778  1.00  0.00     0.037 A 
ATOM     53  C   UNL A   1      42.240  29.506  28.909  1.00  0.00     0.049 A 
ATOM     54  C   UNL A   1      47.427  28.299  27.215  1.00  0.00     0.074 A 
ATOM     55  C   UNL A   1      42.010  30.801  29.344  1.00  0.00     0.029 A 
ATOM     56  N   UNL A   1      43.568  29.446  28.518  1.00  0.00    -0.354 N 
ATOM     57  N   UNL A   1      46.269  28.733  27.644  1.00  0.00    -0.248 NA
ATOM     58  C   UNL A   1      48.473  29.331  27.155  1.00  0.00     0.031 C 
ATOM     59  C   UNL A   1      43.195  31.531  29.194  1.00  0.00     0.029 A 
ATOM     60  C   UNL A   1      44.167  30.685  28.687  1.00  0.00     0.049 A 
ATOM     61  H   UNL A   1      44.020  28.643  28.173  1.00  0.00     0.167 HD
ATOM     62  C   UNL A   1      46.444  30.082  27.916  1.00  0.00     0.074 A 
ATOM     63  C   UNL A   1      47.826  30.395  27.612  1.00  0.00     0.031 C 
ATOM     64  C   UNL A   1      45.540  30.979  28.374  1.00  0.00     0.037 A 
BRANCH  51  65
ATOM     65  C   UNL A   1      39.899  28.649  29.244  1.00  0.00     0.064 A 
ATOM     66  C   UNL A   1      39.449  28.431  30.554  1.00  0.00     0.173 A 
ATOM     67  C   UNL A   1      38.983  29.145  28.305  1.00  0.00     0.173 A 
ATOM     68  F   UNL A   1      40.288  27.945  31.482  1.00  0.00    -0.203 F 
ATOM     69  C   UNL A   1      38.128  28.687  30.907  1.00  0.00     0.198 A 
ATOM     70  C   UNL A   1      37.666  29.416  28.666  1.00  0.00     0.198 A 
ATOM     71  F   UNL A   1      39.367  29.369  27.039  1.00  0.00    -0.203 F 
ATOM     72  F   UNL A   1      37.711  28.444  32.158  1.00  0.00    -0.200 F 
ATOM     73  C   UNL A   1      37.239  29.184  29.965  1.00  0.00     0.200 A 
ATOM     74  F   UNL A   1      36.809  29.899  27.756  1.00  0.00    -0.200 F 
ATOM     75  F   UNL A   1      35.967  29.432  30.307  1.00  0.00    -0.200 F 
ENDBRANCH  51  65
BRANCH  52  76
ATOM     76  C   UNL A   1      49.191  26.631  26.304  1.00  0.00     0.064 A 
ATOM     77  C   UNL A   1      49.547  26.851  24.968  1.00  0.00     0.173 A 
ATOM     78  C   UNL A   1      50.175  26.145  27.177  1.00  0.00     0.173 A 
ATOM     79  F   UNL A   1      48.630  27.295  24.096  1.00  0.00    -0.203 F 
ATOM     80  C   UNL A   1      50.839  26.589  24.517  1.00  0.00     0.198 A 
ATOM     81  C   UNL A   1      51.470  25.899  26.729  1.00  0.00     0.198 A 
ATOM     82  F   UNL A   1      49.878  25.920  28.465  1.00  0.00    -0.203 F 
ATOM     83  F   UNL A   1      51.148  26.783  23.229  1.00  0.00    -0.200 F 
ATOM     84  C   UNL A   1      51.800  26.118  25.400  1.00  0.00     0.200 A 
ATOM     85  F   UNL A   1      52.398  25.449  27.584  1.00  0.00    -0.200 F 
ATOM     86  F   UNL A   1      53.044  25.869  24.967  1.00  0.00    -0.200 F 
ENDBRANCH  52  76
BRANCH  64  87
ATOM     87  C   UNL A   1      46.020  32.382  28.582  1.00  0.00     0.064 A 
ATOM     88  C   UNL A   1      46.565  32.788  29.807  1.00  0.00     0.173 A 
ATOM     89  C   UNL A   1      45.965  33.316  27.538  1.00  0.00     0.173 A 
ATOM     90  F   UNL A   1      46.622  31.930  30.838  1.00  0.00    -0.203 F 
ATOM     91  C   UNL A   1      47.029  34.088  29.986  1.00  0.00     0.198 A 
ATOM     92  C   UNL A   1      46.442  34.612  27.716  1.00  0.00     0.198 A 
ATOM     93  F   UNL A   1      45.450  32.972  26.349  1.00  0.00    -0.203 F 
ATOM     94  F   UNL A   1      47.520  34.465  31.174  1.00  0.00    -0.200 F 
ATOM     95  C   UNL A   1      46.971  34.997  28.939  1.00  0.00     0.200 A 
ATOM     96  F   UNL A   1      46.389  35.489  26.704  1.00  0.00    -0.200 F 
ATOM     97  F   UNL A   1      47.418  36.249  29.112  1.00  0.00    -0.200 F 
ENDBRANCH  64  87
ENDBRANCH  38  39
ENDBRANCH  30  33
ENDBRANCH  28  29
ENDBRANCH  27  28
ENDBRANCH  26  27
ENDBRANCH  25  26
ENDBRANCH  24  25
ENDBRANCH   1  24
TORSDOF 19
ENDMDL
MODEL 2
REMARK VINA RESULT:     -10.8      1.106      7.352
REMARK SMILES CCCCCN(C)S(=O)(=O)c1cc(Cl)cc(C(=O)NCCCCCCNC(=O)c2ccc(-c3c4nc(c(-c5c(F)c(F)c(F)c(F)c5F)c5ccc([nH]5)c(-c5c(F)c(F)c(F)c(F)c5F)c5nc(c(-c6c(F)c(F)c(F)c(F)c6F)c6ccc3[nH]6)C=C5)C=C4)cc2)c1F
REMARK SMILES IDX 20 1 19 2 17 3 18 4 16 6 11 7 12 8 92 9 13 10 93 11 14 12
REMARK SMILES IDX 15 13 8 14 9 15 10 16 6 17 7 18 5 19 4 20 3 21 2 22 1 23
REMARK SMILES IDX 21 24 22 25 23 26 24 27 25 28 26 29 27 30 28 32 29 33 30 34
REMARK SMILES IDX 91 35 31 36 90 37 32 38 33 39 34 40 84 41 35 42 89 43 83 44
REMARK SMILES IDX 85 45 36 46 88 47 82 48 81 49 37 51 69 52 49 53 68 54 50 55
REMARK SMILES IDX 53 56 67 57 86 58 51 59 52 60 66 62 87 63 54 64 38 65 39 66
REMARK SMILES IDX 47 67 40 68 41 69 45 70 48 71 42 72 43 73 46 74 44 75 70 76
REMARK SMILES IDX 71 77 79 78 72 79 73 80 77 81 80 82 74 83 75 84 78 85 76 86
REMARK SMILES IDX 55 87 56 88 64 89 57 90 58 91 62 92 65 93 59 94 60 95 63 96
REMARK SMILES IDX 61 97
REMARK H PARENT 19 5 26 31 85 50 53 61
REMARK Flexibility Score: inf
ROOT
ATOM      1  C   UNL A   1      36.663  23.737  26.116  1.00  0.00     0.116 C 
ENDROOT
BRANCH   1   2
ATOM      2  N   UNL A   1      35.656  22.970  26.828  1.00  0.00    -0.352 N 
ATOM      3  C   UNL A   1      34.336  22.710  26.587  1.00  0.00     0.254 C 
ATOM      4  O   UNL A   1      33.728  22.052  27.434  1.00  0.00    -0.269 OA
ATOM      5  H   UNL A   1      35.993  22.551  27.652  1.00  0.00     0.163 HD
BRANCH   3   6
ATOM      6  C   UNL A   1      33.604  23.094  25.355  1.00  0.00     0.078 A 
ATOM      7  C   UNL A   1      32.524  24.610  23.814  1.00  0.00     0.120 A 
ATOM      8  C   UNL A   1      32.153  23.542  22.987  1.00  0.00     0.045 A 
ATOM      9  C   UNL A   1      33.217  24.390  25.003  1.00  0.00     0.156 A 
ATOM     10  C   UNL A   1      32.502  22.250  23.352  1.00  0.00     0.043 A 
ATOM     11  F   UNL A   1      33.461  25.418  25.821  1.00  0.00    -0.205 F 
ATOM     12  Cl  UNL A   1      32.055  20.929  22.348  1.00  0.00    -0.084 Cl
ATOM     13  C   UNL A   1      33.226  22.024  24.518  1.00  0.00     0.037 A 
BRANCH   7  14
ATOM     14  S   UNL A   1      32.197  26.237  23.219  1.00  0.00     0.245 S 
ATOM     15  O   UNL A   1      31.581  26.098  21.918  1.00  0.00    -0.207 OA
ATOM     16  O   UNL A   1      33.453  26.943  23.372  1.00  0.00    -0.207 OA
BRANCH  14  17
ATOM     17  N   UNL A   1      31.024  26.955  24.238  1.00  0.00    -0.201 NA
ATOM     18  C   UNL A   1      29.647  26.435  24.020  1.00  0.00     0.124 C 
BRANCH  17  19
ATOM     19  C   UNL A   1      31.027  28.458  24.192  1.00  0.00     0.102 C 
BRANCH  19  20
ATOM     20  C   UNL A   1      29.695  29.024  23.693  1.00  0.00     0.017 C 
BRANCH  20  21
ATOM     21  C   UNL A   1      29.557  30.551  23.660  1.00  0.00     0.001 C 
BRANCH  21  22
ATOM     22  C   UNL A   1      28.158  31.100  23.355  1.00  0.00    -0.003 C 
ATOM     23  C   UNL A   1      28.078  31.898  22.063  1.00  0.00     0.004 C 
ENDBRANCH  21  22
ENDBRANCH  20  21
ENDBRANCH  19  20
ENDBRANCH  17  19
ENDBRANCH  14  17
ENDBRANCH   7  14
ENDBRANCH   3   6
ENDBRANCH   1   2
BRANCH   1  24
ATOM     24  C   UNL A   1      37.721  22.796  25.530  1.00  0.00     0.021 C 
BRANCH  24  25
ATOM     25  C   UNL A   1      37.177  21.859  24.441  1.00  0.00     0.002 C 
BRANCH  25  26
ATOM     26  C   UNL A   1      36.968  20.406  24.883  1.00  0.00     0.002 C 
BRANCH  26  27
ATOM     27  C   UNL A   1      38.230  19.536  24.908  1.00  0.00     0.021 C 
BRANCH  27  28
ATOM     28  C   UNL A   1      39.240  19.883  26.001  1.00  0.00     0.116 C 
BRANCH  28  29
ATOM     29  N   UNL A   1      40.374  18.972  26.013  1.00  0.00    -0.352 N 
ATOM     30  C   UNL A   1      41.716  19.256  26.089  1.00  0.00     0.251 C 
ATOM     31  H   UNL A   1      40.147  18.016  25.960  1.00  0.00     0.163 HD
ATOM     32  O   UNL A   1      42.547  18.371  25.919  1.00  0.00    -0.269 OA
BRANCH  30  33
ATOM     33  C   UNL A   1      42.167  20.637  26.359  1.00  0.00     0.039 A 
ATOM     34  C   UNL A   1      42.282  21.531  25.289  1.00  0.00     0.014 A 
ATOM     35  C   UNL A   1      42.504  21.044  27.655  1.00  0.00     0.014 A 
ATOM     36  C   UNL A   1      42.674  22.851  25.523  1.00  0.00     0.010 A 
ATOM     37  C   UNL A   1      42.863  22.370  27.893  1.00  0.00     0.010 A 
ATOM     38  C   UNL A   1      42.943  23.286  26.830  1.00  0.00    -0.014 A 
BRANCH  38  39
ATOM     39  C   UNL A   1      43.291  24.698  27.114  1.00  0.00     0.031 A 
ATOM     40  C   UNL A   1      44.697  25.186  26.917  1.00  0.00     0.074 A 
ATOM     41  C   UNL A   1      42.355  25.523  27.619  1.00  0.00     0.049 A 
ATOM     42  N   UNL A   1      45.219  26.348  27.221  1.00  0.00    -0.248 NA
ATOM     43  C   UNL A   1      45.644  24.238  26.316  1.00  0.00     0.031 C 
ATOM     44  C   UNL A   1      40.962  25.161  27.881  1.00  0.00     0.029 A 
ATOM     45  N   UNL A   1      42.444  26.832  28.023  1.00  0.00    -0.354 N 
ATOM     46  C   UNL A   1      46.558  26.263  26.870  1.00  0.00     0.074 A 
ATOM     47  C   UNL A   1      46.775  24.931  26.345  1.00  0.00     0.031 C 
ATOM     48  C   UNL A   1      40.324  26.223  28.400  1.00  0.00     0.029 A 
ATOM     49  C   UNL A   1      41.270  27.328  28.534  1.00  0.00     0.049 A 
ATOM     50  H   UNL A   1      43.268  27.364  27.953  1.00  0.00     0.167 HD
ATOM     51  C   UNL A   1      47.516  27.213  26.971  1.00  0.00     0.037 A 
ATOM     52  C   UNL A   1      40.992  28.533  29.065  1.00  0.00     0.037 A 
ATOM     53  C   UNL A   1      47.299  28.548  27.460  1.00  0.00     0.049 A 
ATOM     54  C   UNL A   1      42.073  29.571  29.156  1.00  0.00     0.074 A 
ATOM     55  C   UNL A   1      48.198  29.599  27.538  1.00  0.00     0.029 A 
ATOM     56  N   UNL A   1      46.091  29.019  27.952  1.00  0.00    -0.354 N 
ATOM     57  N   UNL A   1      43.328  29.489  28.794  1.00  0.00    -0.248 NA
ATOM     58  C   UNL A   1      41.696  30.870  29.735  1.00  0.00     0.031 C 
ATOM     59  C   UNL A   1      47.539  30.699  28.098  1.00  0.00     0.029 A 
ATOM     60  C   UNL A   1      46.226  30.340  28.349  1.00  0.00     0.049 A 
ATOM     61  H   UNL A   1      45.262  28.493  28.010  1.00  0.00     0.167 HD
ATOM     62  C   UNL A   1      43.891  30.722  29.090  1.00  0.00     0.074 A 
ATOM     63  C   UNL A   1      42.837  31.541  29.652  1.00  0.00     0.031 C 
ATOM     64  C   UNL A   1      45.168  31.137  28.911  1.00  0.00     0.037 A 
BRANCH  51  65
ATOM     65  C   UNL A   1      48.902  26.839  26.544  1.00  0.00     0.064 A 
ATOM     66  C   UNL A   1      49.324  26.994  25.216  1.00  0.00     0.173 A 
ATOM     67  C   UNL A   1      49.826  26.353  27.480  1.00  0.00     0.173 A 
ATOM     68  F   UNL A   1      48.468  27.443  24.285  1.00  0.00    -0.203 F 
ATOM     69  C   UNL A   1      50.621  26.663  24.837  1.00  0.00     0.198 A 
ATOM     70  C   UNL A   1      51.128  26.039  27.100  1.00  0.00     0.198 A 
ATOM     71  F   UNL A   1      49.467  26.188  28.762  1.00  0.00    -0.203 F 
ATOM     72  F   UNL A   1      50.997  26.791  23.556  1.00  0.00    -0.200 F 
ATOM     73  C   UNL A   1      51.523  26.190  25.779  1.00  0.00     0.200 A 
ATOM     74  F   UNL A   1      51.999  25.585  28.011  1.00  0.00    -0.200 F 
ATOM     75  F   UNL A   1      52.772  25.873  25.412  1.00  0.00    -0.200 F 
ENDBRANCH  51  65
BRANCH  52  76
ATOM     76  C   UNL A   1      39.622  28.821  29.551  1.00  0.00     0.064 A 
ATOM     77  C   UNL A   1      38.659  29.366  28.693  1.00  0.00     0.173 A 
ATOM     78  C   UNL A   1      39.247  28.547  30.873  1.00  0.00     0.173 A 
ATOM     79  F   UNL A   1      38.984  29.663  27.425  1.00  0.00    -0.203 F 
ATOM     80  C   UNL A   1      37.369  29.636  29.142  1.00  0.00     0.198 A 
ATOM     81  C   UNL A   1      37.952  28.801  31.317  1.00  0.00     0.198 A 
ATOM     82  F   UNL A   1      40.137  28.024  31.729  1.00  0.00    -0.203 F 
ATOM     83  F   UNL A   1      36.473  30.182  28.309  1.00  0.00    -0.200 F 
ATOM     84  C   UNL A   1      37.015  29.348  30.452  1.00  0.00     0.200 A 
ATOM     85  F   UNL A   1      37.612  28.518  32.582  1.00  0.00    -0.200 F 
ATOM     86  F   UNL A   1      35.772  29.605  30.884  1.00  0.00    -0.200 F 
ENDBRANCH  52  76
BRANCH  64  87
ATOM     87  C   UNL A   1      45.491  32.540  29.322  1.00  0.00     0.064 A 
ATOM     88  C   UNL A   1      45.305  33.613  28.442  1.00  0.00     0.173 A 
ATOM     89  C   UNL A   1      45.958  32.814  30.615  1.00  0.00     0.173 A 
ATOM     90  F   UNL A   1      44.876  33.393  27.190  1.00  0.00    -0.203 F 
ATOM     91  C   UNL A   1      45.588  34.918  28.839  1.00  0.00     0.198 A 
ATOM     92  C   UNL A   1      46.226  34.121  31.013  1.00  0.00     0.198 A 
ATOM     93  F   UNL A   1      46.151  31.816  31.490  1.00  0.00    -0.203 F 
ATOM     94  F   UNL A   1      45.431  35.928  27.973  1.00  0.00    -0.200 F 
ATOM     95  C   UNL A   1      46.043  35.170  30.125  1.00  0.00     0.200 A 
ATOM     96  F   UNL A   1      46.663  34.364  32.257  1.00  0.00    -0.200 F 
ATOM     97  F   UNL A   1      46.315  36.426  30.506  1.00  0.00    -0.200 F 
ENDBRANCH  64  87
ENDBRANCH  38  39
ENDBRANCH  30  33
ENDBRANCH  28  29
ENDBRANCH  27  28
ENDBRANCH  26  27
ENDBRANCH  25  26
ENDBRANCH  24  25
ENDBRANCH   1  24
TORSDOF 19
ENDMDL
MODEL 3
REMARK VINA RESULT:     -10.7      1.497      2.794
REMARK SMILES CCCCCN(C)S(=O)(=O)c1cc(Cl)cc(C(=O)NCCCCCCNC(=O)c2ccc(-c3c4nc(c(-c5c(F)c(F)c(F)c(F)c5F)c5ccc([nH]5)c(-c5c(F)c(F)c(F)c(F)c5F)c5nc(c(-c6c(F)c(F)c(F)c(F)c6F)c6ccc3[nH]6)C=C5)C=C4)cc2)c1F
REMARK SMILES IDX 20 1 19 2 17 3 18 4 16 6 11 7 12 8 92 9 13 10 93 11 14 12
REMARK SMILES IDX 15 13 8 14 9 15 10 16 6 17 7 18 5 19 4 20 3 21 2 22 1 23
REMARK SMILES IDX 21 24 22 25 23 26 24 27 25 28 26 29 27 30 28 32 29 33 30 34
REMARK SMILES IDX 91 35 31 36 90 37 32 38 33 39 34 40 84 41 35 42 89 43 83 44
REMARK SMILES IDX 85 45 36 46 88 47 82 48 81 49 37 51 69 52 49 53 68 54 50 55
REMARK SMILES IDX 53 56 67 57 86 58 51 59 52 60 66 62 87 63 54 64 38 65 39 66
REMARK SMILES IDX 47 67 40 68 41 69 45 70 48 71 42 72 43 73 46 74 44 75 70 76
REMARK SMILES IDX 71 77 79 78 72 79 73 80 77 81 80 82 74 83 75 84 78 85 76 86
REMARK SMILES IDX 55 87 56 88 64 89 57 90 58 91 62 92 65 93 59 94 60 95 63 96
REMARK SMILES IDX 61 97
REMARK H PARENT 19 5 26 31 85 50 53 61
REMARK Flexibility Score: inf
ROOT
ATOM      1  C   UNL A   1      34.783  21.672  25.547  1.00  0.00     0.116 C 
ENDROOT
BRANCH   1   2
ATOM      2  N   UNL A   1      33.837  21.020  24.659  1.00  0.00    -0.352 N 
ATOM      3  C   UNL A   1      32.822  21.486  23.870  1.00  0.00     0.254 C 
ATOM      4  O   UNL A   1      32.151  20.648  23.264  1.00  0.00    -0.269 OA
ATOM      5  H   UNL A   1      33.948  20.043  24.617  1.00  0.00     0.163 HD
BRANCH   3   6
ATOM      6  C   UNL A   1      32.519  22.918  23.631  1.00  0.00     0.078 A 
ATOM      7  C   UNL A   1      31.688  25.118  24.186  1.00  0.00     0.120 A 
ATOM      8  C   UNL A   1      31.983  25.581  22.897  1.00  0.00     0.045 A 
ATOM      9  C   UNL A   1      31.924  23.792  24.545  1.00  0.00     0.156 A 
ATOM     10  C   UNL A   1      32.537  24.706  21.975  1.00  0.00     0.043 A 
ATOM     11  F   UNL A   1      31.533  23.357  25.746  1.00  0.00    -0.205 F 
ATOM     12  Cl  UNL A   1      32.905  25.258  20.390  1.00  0.00    -0.084 Cl
ATOM     13  C   UNL A   1      32.812  23.390  22.336  1.00  0.00     0.037 A 
BRANCH   7  14
ATOM     14  S   UNL A   1      31.138  26.312  25.361  1.00  0.00     0.245 S 
ATOM     15  O   UNL A   1      32.073  26.286  26.464  1.00  0.00    -0.207 OA
ATOM     16  O   UNL A   1      29.738  26.004  25.570  1.00  0.00    -0.207 OA
BRANCH  14  17
ATOM     17  N   UNL A   1      31.269  27.864  24.651  1.00  0.00    -0.201 NA
ATOM     18  C   UNL A   1      31.839  28.892  25.563  1.00  0.00     0.124 C 
BRANCH  17  19
ATOM     19  C   UNL A   1      29.983  28.359  24.047  1.00  0.00     0.102 C 
BRANCH  19  20
ATOM     20  C   UNL A   1      30.152  28.768  22.582  1.00  0.00     0.017 C 
BRANCH  20  21
ATOM     21  C   UNL A   1      29.216  29.862  22.053  1.00  0.00     0.001 C 
BRANCH  21  22
ATOM     22  C   UNL A   1      27.852  29.983  22.743  1.00  0.00    -0.003 C 
ATOM     23  C   UNL A   1      27.657  31.288  23.497  1.00  0.00     0.004 C 
ENDBRANCH  21  22
ENDBRANCH  20  21
ENDBRANCH  19  20
ENDBRANCH  17  19
ENDBRANCH  14  17
ENDBRANCH   7  14
ENDBRANCH   3   6
ENDBRANCH   1   2
BRANCH   1  24
ATOM     24  C   UNL A   1      35.805  22.468  24.729  1.00  0.00     0.021 C 
BRANCH  24  25
ATOM     25  C   UNL A   1      37.170  21.774  24.607  1.00  0.00     0.002 C 
BRANCH  25  26
ATOM     26  C   UNL A   1      37.165  20.276  24.931  1.00  0.00     0.002 C 
BRANCH  26  27
ATOM     27  C   UNL A   1      38.529  19.579  24.857  1.00  0.00     0.021 C 
BRANCH  27  28
ATOM     28  C   UNL A   1      39.370  19.652  26.130  1.00  0.00     0.116 C 
BRANCH  28  29
ATOM     29  N   UNL A   1      40.566  18.828  26.050  1.00  0.00    -0.352 N 
ATOM     30  C   UNL A   1      41.886  19.207  26.077  1.00  0.00     0.251 C 
ATOM     31  H   UNL A   1      40.406  17.861  25.964  1.00  0.00     0.163 HD
ATOM     32  O   UNL A   1      42.769  18.393  25.830  1.00  0.00    -0.269 OA
BRANCH  30  33
ATOM     33  C   UNL A   1      42.250  20.606  26.387  1.00  0.00     0.039 A 
ATOM     34  C   UNL A   1      42.449  20.970  27.722  1.00  0.00     0.014 A 
ATOM     35  C   UNL A   1      42.365  21.561  25.372  1.00  0.00     0.014 A 
ATOM     36  C   UNL A   1      42.827  22.278  28.038  1.00  0.00     0.010 A 
ATOM     37  C   UNL A   1      42.774  22.857  25.684  1.00  0.00     0.010 A 
ATOM     38  C   UNL A   1      43.015  23.223  27.018  1.00  0.00    -0.014 A 
BRANCH  38  39
ATOM     39  C   UNL A   1      43.484  24.597  27.320  1.00  0.00     0.031 A 
ATOM     40  C   UNL A   1      42.533  25.617  27.873  1.00  0.00     0.074 A 
ATOM     41  C   UNL A   1      44.751  24.944  27.027  1.00  0.00     0.049 A 
ATOM     42  N   UNL A   1      42.725  26.895  28.089  1.00  0.00    -0.248 NA
ATOM     43  C   UNL A   1      41.184  25.144  28.210  1.00  0.00     0.031 C 
ATOM     44  C   UNL A   1      45.764  24.051  26.463  1.00  0.00     0.029 A 
ATOM     45  N   UNL A   1      45.396  26.150  27.145  1.00  0.00    -0.354 N 
ATOM     46  C   UNL A   1      41.517  27.382  28.565  1.00  0.00     0.074 A 
ATOM     47  C   UNL A   1      40.592  26.268  28.592  1.00  0.00     0.031 C 
ATOM     48  C   UNL A   1      46.904  24.739  26.284  1.00  0.00     0.029 A 
ATOM     49  C   UNL A   1      46.692  26.124  26.695  1.00  0.00     0.049 A 
ATOM     50  H   UNL A   1      44.971  26.955  27.518  1.00  0.00     0.167 HD
ATOM     51  C   UNL A   1      41.212  28.643  28.951  1.00  0.00     0.037 A 
ATOM     52  C   UNL A   1      47.603  27.111  26.607  1.00  0.00     0.037 A 
ATOM     53  C   UNL A   1      42.136  29.745  28.958  1.00  0.00     0.049 A 
ATOM     54  C   UNL A   1      47.239  28.499  27.051  1.00  0.00     0.074 A 
ATOM     55  C   UNL A   1      41.931  31.043  29.393  1.00  0.00     0.029 A 
ATOM     56  N   UNL A   1      43.446  29.675  28.511  1.00  0.00    -0.354 N 
ATOM     57  N   UNL A   1      46.103  28.942  27.526  1.00  0.00    -0.248 NA
ATOM     58  C   UNL A   1      48.287  29.525  26.940  1.00  0.00     0.031 C 
ATOM     59  C   UNL A   1      43.112  31.766  29.188  1.00  0.00     0.029 A 
ATOM     60  C   UNL A   1      44.057  30.911  28.646  1.00  0.00     0.049 A 
ATOM     61  H   UNL A   1      43.878  28.867  28.151  1.00  0.00     0.167 HD
ATOM     62  C   UNL A   1      46.297  30.291  27.782  1.00  0.00     0.074 A 
ATOM     63  C   UNL A   1      47.665  30.595  27.418  1.00  0.00     0.031 C 
ATOM     64  C   UNL A   1      45.418  31.197  28.273  1.00  0.00     0.037 A 
BRANCH  51  65
ATOM     65  C   UNL A   1      39.806  28.902  29.397  1.00  0.00     0.064 A 
ATOM     66  C   UNL A   1      38.822  29.334  28.498  1.00  0.00     0.173 A 
ATOM     67  C   UNL A   1      39.434  28.682  30.731  1.00  0.00     0.173 A 
ATOM     68  F   UNL A   1      39.138  29.570  27.215  1.00  0.00    -0.203 F 
ATOM     69  C   UNL A   1      37.514  29.551  28.921  1.00  0.00     0.198 A 
ATOM     70  C   UNL A   1      38.120  28.884  31.147  1.00  0.00     0.198 A 
ATOM     71  F   UNL A   1      40.341  28.269  31.627  1.00  0.00    -0.203 F 
ATOM     72  F   UNL A   1      36.594  29.992  28.052  1.00  0.00    -0.200 F 
ATOM     73  C   UNL A   1      37.163  29.321  30.244  1.00  0.00     0.200 A 
ATOM     74  F   UNL A   1      37.782  28.659  32.424  1.00  0.00    -0.200 F 
ATOM     75  F   UNL A   1      35.903  29.529  30.650  1.00  0.00    -0.200 F 
ENDBRANCH  51  65
BRANCH  52  76
ATOM     76  C   UNL A   1      48.955  26.816  26.076  1.00  0.00     0.064 A 
ATOM     77  C   UNL A   1      49.965  26.336  26.920  1.00  0.00     0.173 A 
ATOM     78  C   UNL A   1      49.259  26.996  24.720  1.00  0.00     0.173 A 
ATOM     79  F   UNL A   1      49.721  26.170  28.228  1.00  0.00    -0.203 F 
ATOM     80  C   UNL A   1      51.236  26.053  26.427  1.00  0.00     0.198 A 
ATOM     81  C   UNL A   1      50.525  26.696  24.225  1.00  0.00     0.198 A 
ATOM     82  F   UNL A   1      48.322  27.453  23.877  1.00  0.00    -0.203 F 
ATOM     83  F   UNL A   1      52.193  25.619  27.258  1.00  0.00    -0.200 F 
ATOM     84  C   UNL A   1      51.513  26.228  25.079  1.00  0.00     0.200 A 
ATOM     85  F   UNL A   1      50.789  26.863  22.922  1.00  0.00    -0.200 F 
ATOM     86  F   UNL A   1      52.736  25.953  24.604  1.00  0.00    -0.200 F 
ENDBRANCH  52  76
BRANCH  64  87
ATOM     87  C   UNL A   1      45.913  32.598  28.451  1.00  0.00     0.064 A 
ATOM     88  C   UNL A   1      45.762  33.554  27.438  1.00  0.00     0.173 A 
ATOM     89  C   UNL A   1      46.512  32.995  29.655  1.00  0.00     0.173 A 
ATOM     90  F   UNL A   1      45.209  33.212  26.264  1.00  0.00    -0.203 F 
ATOM     91  C   UNL A   1      46.206  34.861  27.620  1.00  0.00     0.198 A 
ATOM     92  C   UNL A   1      46.941  34.306  29.839  1.00  0.00     0.198 A 
ATOM     93  F   UNL A   1      46.677  32.112  30.651  1.00  0.00    -0.203 F 
ATOM     94  F   UNL A   1      46.079  35.754  26.629  1.00  0.00    -0.200 F 
ATOM     95  C   UNL A   1      46.791  35.236  28.821  1.00  0.00     0.200 A 
ATOM     96  F   UNL A   1      47.504  34.669  31.000  1.00  0.00    -0.200 F 
ATOM     97  F   UNL A   1      47.217  36.495  28.995  1.00  0.00    -0.200 F 
ENDBRANCH  64  87
ENDBRANCH  38  39
ENDBRANCH  30  33
ENDBRANCH  28  29
ENDBRANCH  27  28
ENDBRANCH  26  27
ENDBRANCH  25  26
ENDBRANCH  24  25
ENDBRANCH   1  24
TORSDOF 19
ENDMDL
