MODEL 1
REMARK VINA RESULT:     -10.4      0.000      0.000
REMARK SMILES CCC[C@@H]([NH2+]Cc1cc(Cl)cs1)C(=O)NCCCCCCNC(=O)c1ccc(-c2c3nc(c(-c4c(F)c(F)c(F)c(F)c4F)c4ccc([nH]4)c(-c4c(F)c(F)c(F)c(F)c4F)c4nc(c(-c5c(F)c(F)c(F)c(F)c5F)c5ccc2[nH]5)C=C4)C=C3)cc1
REMARK SMILES IDX 18 1 17 2 16 3 15 4 13 5 14 6 4 8 3 9 2 10 1 11 5 12 6 15
REMARK SMILES IDX 7 16 8 17 12 18 9 19 11 20 10 21 19 22 20 23 21 24 22 25
REMARK SMILES IDX 23 26 24 28 25 29 26 30 87 31 27 32 86 33 28 34 29 35 30 36
REMARK SMILES IDX 80 37 31 38 85 39 79 40 81 41 32 42 84 43 78 44 77 45 33 47
REMARK SMILES IDX 65 48 45 49 64 50 46 51 49 52 63 53 82 54 47 55 48 56 62 58
REMARK SMILES IDX 83 59 50 60 34 61 35 62 43 63 36 64 37 65 41 66 44 67 38 68
REMARK SMILES IDX 39 69 42 70 40 71 66 72 67 73 75 74 68 75 69 76 73 77 76 78
REMARK SMILES IDX 70 79 71 80 74 81 72 82 51 83 52 84 60 85 53 86 54 87 58 88
REMARK SMILES IDX 61 89 55 90 56 91 59 92 57 93
REMARK H PARENT 15 7 5 13 5 14 22 27 81 46 49 57
REMARK Flexibility Score: inf
ROOT
ATOM      1  C   UNL A   1      32.823  30.218  26.579  1.00  0.00     0.002 C 
ENDROOT
BRANCH   1   2
ATOM      2  C   UNL A   1      32.748  28.785  27.121  1.00  0.00     0.021 C 
BRANCH   2   3
ATOM      3  C   UNL A   1      33.287  27.729  26.155  1.00  0.00     0.116 C 
BRANCH   3   4
ATOM      4  N   UNL A   1      33.823  28.360  24.964  1.00  0.00    -0.351 N 
ATOM      5  C   UNL A   1      33.700  28.005  23.655  1.00  0.00     0.278 C 
ATOM      6  O   UNL A   1      34.297  28.692  22.820  1.00  0.00    -0.268 OA
ATOM      7  H   UNL A   1      34.358  29.170  25.127  1.00  0.00     0.163 HD
BRANCH   5   8
ATOM      8  C   UNL A   1      32.818  26.815  23.213  1.00  0.00     0.272 C 
BRANCH   8   9
ATOM      9  C   UNL A   1      31.595  27.305  22.405  1.00  0.00     0.075 C 
BRANCH   9  10
ATOM     10  C   UNL A   1      30.376  27.741  23.227  1.00  0.00     0.003 C 
ATOM     11  C   UNL A   1      30.072  26.823  24.397  1.00  0.00     0.004 C 
ENDBRANCH   9  10
ENDBRANCH   8   9
BRANCH   8  12
ATOM     12  N   UNL A   1      33.617  25.796  22.485  1.00  0.00    -0.332 N 
ATOM     13  H   UNL A   1      34.367  25.477  23.098  1.00  0.00     0.347 HD
ATOM     14  H   UNL A   1      33.968  26.243  21.638  1.00  0.00     0.347 HD
BRANCH  12  15
ATOM     15  C   UNL A   1      32.837  24.622  22.059  1.00  0.00     0.309 C 
BRANCH  15  16
ATOM     16  C   UNL A   1      33.058  23.396  22.899  1.00  0.00     0.060 A 
ATOM     17  C   UNL A   1      32.482  22.149  22.741  1.00  0.00     0.041 A 
ATOM     18  S   UNL A   1      34.097  23.430  24.268  1.00  0.00    -0.141 S 
ATOM     19  C   UNL A   1      32.953  21.208  23.699  1.00  0.00     0.052 A 
ATOM     20  C   UNL A   1      33.868  21.761  24.562  1.00  0.00     0.085 A 
ATOM     21  Cl  UNL A   1      32.429  19.583  23.737  1.00  0.00    -0.083 Cl
ENDBRANCH  15  16
ENDBRANCH  12  15
ENDBRANCH   8  12
ENDBRANCH   5   8
ENDBRANCH   3   4
ENDBRANCH   2   3
ENDBRANCH   1   2
BRANCH   1  22
ATOM     22  C   UNL A   1      31.468  30.855  26.250  1.00  0.00     0.002 C 
BRANCH  22  23
ATOM     23  C   UNL A   1      31.352  32.338  26.604  1.00  0.00     0.021 C 
BRANCH  23  24
ATOM     24  C   UNL A   1      32.595  32.928  27.259  1.00  0.00     0.116 C 
BRANCH  24  25
ATOM     25  N   UNL A   1      32.399  34.312  27.659  1.00  0.00    -0.352 N 
ATOM     26  C   UNL A   1      33.003  35.013  28.669  1.00  0.00     0.251 C 
ATOM     27  H   UNL A   1      31.739  34.816  27.130  1.00  0.00     0.163 HD
ATOM     28  O   UNL A   1      32.580  36.121  28.998  1.00  0.00    -0.269 OA
BRANCH  26  29
ATOM     29  C   UNL A   1      34.159  34.429  29.379  1.00  0.00     0.039 A 
ATOM     30  C   UNL A   1      33.940  33.712  30.557  1.00  0.00     0.014 A 
ATOM     31  C   UNL A   1      35.457  34.599  28.887  1.00  0.00     0.014 A 
ATOM     32  C   UNL A   1      35.019  33.125  31.219  1.00  0.00     0.010 A 
ATOM     33  C   UNL A   1      36.521  33.954  29.508  1.00  0.00     0.010 A 
ATOM     34  C   UNL A   1      36.315  33.221  30.687  1.00  0.00    -0.014 A 
BRANCH  34  35
ATOM     35  C   UNL A   1      37.474  32.585  31.362  1.00  0.00     0.031 A 
ATOM     36  C   UNL A   1      38.196  31.448  30.696  1.00  0.00     0.074 A 
ATOM     37  C   UNL A   1      37.836  32.990  32.593  1.00  0.00     0.049 A 
ATOM     38  N   UNL A   1      39.183  30.713  31.146  1.00  0.00    -0.248 NA
ATOM     39  C   UNL A   1      37.730  31.066  29.354  1.00  0.00     0.031 C 
ATOM     40  C   UNL A   1      37.189  34.055  33.358  1.00  0.00     0.029 A 
ATOM     41  N   UNL A   1      38.836  32.545  33.422  1.00  0.00    -0.354 N 
ATOM     42  C   UNL A   1      39.441  29.778  30.153  1.00  0.00     0.074 A 
ATOM     43  C   UNL A   1      38.472  29.998  29.102  1.00  0.00     0.031 C 
ATOM     44  C   UNL A   1      37.821  34.199  34.534  1.00  0.00     0.029 A 
ATOM     45  C   UNL A   1      38.893  33.212  34.621  1.00  0.00     0.049 A 
ATOM     46  H   UNL A   1      39.453  31.818  33.180  1.00  0.00     0.167 HD
ATOM     47  C   UNL A   1      40.414  28.837  30.109  1.00  0.00     0.037 A 
ATOM     48  C   UNL A   1      39.717  33.042  35.673  1.00  0.00     0.037 A 
ATOM     49  C   UNL A   1      41.390  28.638  31.148  1.00  0.00     0.049 A 
ATOM     50  C   UNL A   1      40.785  31.983  35.604  1.00  0.00     0.074 A 
ATOM     51  C   UNL A   1      42.446  27.744  31.182  1.00  0.00     0.029 A 
ATOM     52  N   UNL A   1      41.429  29.345  32.341  1.00  0.00    -0.354 N 
ATOM     53  N   UNL A   1      41.058  31.143  34.635  1.00  0.00    -0.248 NA
ATOM     54  C   UNL A   1      41.665  31.856  36.774  1.00  0.00     0.031 C 
ATOM     55  C   UNL A   1      43.096  27.880  32.413  1.00  0.00     0.029 A 
ATOM     56  C   UNL A   1      42.479  28.896  33.124  1.00  0.00     0.049 A 
ATOM     57  H   UNL A   1      40.801  30.061  32.594  1.00  0.00     0.167 HD
ATOM     58  C   UNL A   1      42.161  30.415  35.061  1.00  0.00     0.074 A 
ATOM     59  C   UNL A   1      42.512  30.918  36.373  1.00  0.00     0.031 C 
ATOM     60  C   UNL A   1      42.824  29.420  34.422  1.00  0.00     0.037 A 
BRANCH  47  61
ATOM     61  C   UNL A   1      40.470  27.955  28.896  1.00  0.00     0.064 A 
ATOM     62  C   UNL A   1      41.242  28.295  27.773  1.00  0.00     0.173 A 
ATOM     63  C   UNL A   1      39.761  26.746  28.860  1.00  0.00     0.173 A 
ATOM     64  F   UNL A   1      41.929  29.447  27.749  1.00  0.00    -0.203 F 
ATOM     65  C   UNL A   1      41.272  27.476  26.648  1.00  0.00     0.198 A 
ATOM     66  C   UNL A   1      39.821  25.911  27.746  1.00  0.00     0.198 A 
ATOM     67  F   UNL A   1      39.012  26.368  29.907  1.00  0.00    -0.203 F 
ATOM     68  F   UNL A   1      41.970  27.850  25.566  1.00  0.00    -0.200 F 
ATOM     69  C   UNL A   1      40.568  26.282  26.638  1.00  0.00     0.200 A 
ATOM     70  F   UNL A   1      39.150  24.750  27.742  1.00  0.00    -0.200 F 
ATOM     71  F   UNL A   1      40.602  25.491  25.555  1.00  0.00    -0.200 F 
ENDBRANCH  47  61
BRANCH  48  72
ATOM     72  C   UNL A   1      39.587  33.917  36.867  1.00  0.00     0.064 A 
ATOM     73  C   UNL A   1      38.807  33.522  37.963  1.00  0.00     0.173 A 
ATOM     74  C   UNL A   1      40.231  35.160  36.938  1.00  0.00     0.173 A 
ATOM     75  F   UNL A   1      38.156  32.350  37.934  1.00  0.00    -0.203 F 
ATOM     76  C   UNL A   1      38.659  34.347  39.076  1.00  0.00     0.198 A 
ATOM     77  C   UNL A   1      40.105  35.972  38.064  1.00  0.00     0.198 A 
ATOM     78  F   UNL A   1      40.993  35.582  35.918  1.00  0.00    -0.203 F 
ATOM     79  F   UNL A   1      37.871  33.964  40.090  1.00  0.00    -0.200 F 
ATOM     80  C   UNL A   1      39.313  35.569  39.128  1.00  0.00     0.200 A 
ATOM     81  F   UNL A   1      40.750  37.146  38.117  1.00  0.00    -0.200 F 
ATOM     82  F   UNL A   1      39.174  36.360  40.200  1.00  0.00    -0.200 F 
ENDBRANCH  48  72
BRANCH  60  83
ATOM     83  C   UNL A   1      44.029  28.844  35.108  1.00  0.00     0.064 A 
ATOM     84  C   UNL A   1      45.309  29.393  34.940  1.00  0.00     0.173 A 
ATOM     85  C   UNL A   1      43.892  27.750  35.975  1.00  0.00     0.173 A 
ATOM     86  F   UNL A   1      45.496  30.430  34.110  1.00  0.00    -0.203 F 
ATOM     87  C   UNL A   1      46.411  28.848  35.595  1.00  0.00     0.198 A 
ATOM     88  C   UNL A   1      44.990  27.228  36.653  1.00  0.00     0.198 A 
ATOM     89  F   UNL A   1      42.688  27.192  36.176  1.00  0.00    -0.203 F 
ATOM     90  F   UNL A   1      47.633  29.357  35.381  1.00  0.00    -0.200 F 
ATOM     91  C   UNL A   1      46.250  27.773  36.456  1.00  0.00     0.200 A 
ATOM     92  F   UNL A   1      44.830  26.199  37.495  1.00  0.00    -0.200 F 
ATOM     93  F   UNL A   1      47.311  27.256  37.090  1.00  0.00    -0.200 F 
ENDBRANCH  60  83
ENDBRANCH  34  35
ENDBRANCH  26  29
ENDBRANCH  24  25
ENDBRANCH  23  24
ENDBRANCH  22  23
ENDBRANCH   1  22
TORSDOF 18
ENDMDL
MODEL 2
REMARK VINA RESULT:     -10.4      5.877     11.150
REMARK SMILES CCC[C@@H]([NH2+]Cc1cc(Cl)cs1)C(=O)NCCCCCCNC(=O)c1ccc(-c2c3nc(c(-c4c(F)c(F)c(F)c(F)c4F)c4ccc([nH]4)c(-c4c(F)c(F)c(F)c(F)c4F)c4nc(c(-c5c(F)c(F)c(F)c(F)c5F)c5ccc2[nH]5)C=C4)C=C3)cc1
REMARK SMILES IDX 18 1 17 2 16 3 15 4 13 5 14 6 4 8 3 9 2 10 1 11 5 12 6 15
REMARK SMILES IDX 7 16 8 17 12 18 9 19 11 20 10 21 19 22 20 23 21 24 22 25
REMARK SMILES IDX 23 26 24 28 25 29 26 30 87 31 27 32 86 33 28 34 29 35 30 36
REMARK SMILES IDX 80 37 31 38 85 39 79 40 81 41 32 42 84 43 78 44 77 45 33 47
REMARK SMILES IDX 65 48 45 49 64 50 46 51 49 52 63 53 82 54 47 55 48 56 62 58
REMARK SMILES IDX 83 59 50 60 34 61 35 62 43 63 36 64 37 65 41 66 44 67 38 68
REMARK SMILES IDX 39 69 42 70 40 71 66 72 67 73 75 74 68 75 69 76 73 77 76 78
REMARK SMILES IDX 70 79 71 80 74 81 72 82 51 83 52 84 60 85 53 86 54 87 58 88
REMARK SMILES IDX 61 89 55 90 56 91 59 92 57 93
REMARK H PARENT 15 7 5 13 5 14 22 27 81 46 49 57
REMARK Flexibility Score: inf
ROOT
ATOM      1  C   UNL A   1      37.768  21.970  25.010  1.00  0.00     0.002 C 
ENDROOT
BRANCH   1   2
ATOM      2  C   UNL A   1      36.856  23.113  24.545  1.00  0.00     0.021 C 
BRANCH   2   3
ATOM      3  C   UNL A   1      36.122  23.821  25.685  1.00  0.00     0.116 C 
BRANCH   3   4
ATOM      4  N   UNL A   1      35.575  22.851  26.614  1.00  0.00    -0.351 N 
ATOM      5  C   UNL A   1      34.358  22.240  26.626  1.00  0.00     0.278 C 
ATOM      6  O   UNL A   1      34.114  21.474  27.564  1.00  0.00    -0.268 OA
ATOM      7  H   UNL A   1      36.177  22.593  27.349  1.00  0.00     0.163 HD
BRANCH   5   8
ATOM      8  C   UNL A   1      33.327  22.458  25.495  1.00  0.00     0.272 C 
BRANCH   8   9
ATOM      9  C   UNL A   1      33.527  21.427  24.361  1.00  0.00     0.075 C 
BRANCH   9  10
ATOM     10  C   UNL A   1      32.532  20.261  24.326  1.00  0.00     0.003 C 
ATOM     11  C   UNL A   1      33.191  18.897  24.428  1.00  0.00     0.004 C 
ENDBRANCH   9  10
ENDBRANCH   8   9
BRANCH   8  12
ATOM     12  N   UNL A   1      31.940  22.465  26.027  1.00  0.00    -0.332 N 
ATOM     13  H   UNL A   1      31.796  21.611  26.565  1.00  0.00     0.347 HD
ATOM     14  H   UNL A   1      31.315  22.533  25.224  1.00  0.00     0.347 HD
BRANCH  12  15
ATOM     15  C   UNL A   1      31.644  23.615  26.899  1.00  0.00     0.309 C 
BRANCH  15  16
ATOM     16  C   UNL A   1      31.728  24.948  26.210  1.00  0.00     0.060 A 
ATOM     17  C   UNL A   1      32.846  25.747  26.050  1.00  0.00     0.041 A 
ATOM     18  S   UNL A   1      30.333  25.691  25.535  1.00  0.00    -0.141 S 
ATOM     19  C   UNL A   1      32.566  26.929  25.309  1.00  0.00     0.052 A 
ATOM     20  C   UNL A   1      31.247  27.003  24.930  1.00  0.00     0.085 A 
ATOM     21  Cl  UNL A   1      33.757  28.096  24.942  1.00  0.00    -0.083 Cl
ENDBRANCH  15  16
ENDBRANCH  12  15
ENDBRANCH   8  12
ENDBRANCH   5   8
ENDBRANCH   3   4
ENDBRANCH   2   3
ENDBRANCH   1   2
BRANCH   1  22
ATOM     22  C   UNL A   1      37.292  20.566  24.621  1.00  0.00     0.002 C 
BRANCH  22  23
ATOM     23  C   UNL A   1      38.276  19.440  24.944  1.00  0.00     0.021 C 
BRANCH  23  24
ATOM     24  C   UNL A   1      39.291  19.784  26.027  1.00  0.00     0.116 C 
BRANCH  24  25
ATOM     25  N   UNL A   1      40.453  18.911  25.984  1.00  0.00    -0.352 N 
ATOM     26  C   UNL A   1      41.782  19.241  26.029  1.00  0.00     0.251 C 
ATOM     27  H   UNL A   1      40.258  17.950  25.913  1.00  0.00     0.163 HD
ATOM     28  O   UNL A   1      42.642  18.394  25.785  1.00  0.00    -0.269 OA
BRANCH  26  29
ATOM     29  C   UNL A   1      42.186  20.623  26.356  1.00  0.00     0.039 A 
ATOM     30  C   UNL A   1      42.409  20.967  27.692  1.00  0.00     0.014 A 
ATOM     31  C   UNL A   1      42.334  21.580  25.347  1.00  0.00     0.014 A 
ATOM     32  C   UNL A   1      42.825  22.259  28.012  1.00  0.00     0.010 A 
ATOM     33  C   UNL A   1      42.819  22.845  25.661  1.00  0.00     0.010 A 
ATOM     34  C   UNL A   1      43.056  23.202  26.997  1.00  0.00    -0.014 A 
BRANCH  34  35
ATOM     35  C   UNL A   1      43.522  24.575  27.313  1.00  0.00     0.031 A 
ATOM     36  C   UNL A   1      42.552  25.590  27.851  1.00  0.00     0.074 A 
ATOM     37  C   UNL A   1      44.798  24.924  27.063  1.00  0.00     0.049 A 
ATOM     38  N   UNL A   1      42.741  26.857  28.122  1.00  0.00    -0.248 NA
ATOM     39  C   UNL A   1      41.176  25.125  28.088  1.00  0.00     0.031 C 
ATOM     40  C   UNL A   1      45.823  24.041  26.507  1.00  0.00     0.029 A 
ATOM     41  N   UNL A   1      45.448  26.120  27.238  1.00  0.00    -0.354 N 
ATOM     42  C   UNL A   1      41.510  27.340  28.545  1.00  0.00     0.074 A 
ATOM     43  C   UNL A   1      40.567  26.247  28.440  1.00  0.00     0.031 C 
ATOM     44  C   UNL A   1      46.979  24.716  26.407  1.00  0.00     0.029 A 
ATOM     45  C   UNL A   1      46.767  26.089  26.857  1.00  0.00     0.049 A 
ATOM     46  H   UNL A   1      45.011  26.923  27.601  1.00  0.00     0.167 HD
ATOM     47  C   UNL A   1      41.199  28.575  29.005  1.00  0.00     0.037 A 
ATOM     48  C   UNL A   1      47.699  27.061  26.867  1.00  0.00     0.037 A 
ATOM     49  C   UNL A   1      42.145  29.652  29.130  1.00  0.00     0.049 A 
ATOM     50  C   UNL A   1      47.326  28.429  27.374  1.00  0.00     0.074 A 
ATOM     51  C   UNL A   1      41.943  30.927  29.627  1.00  0.00     0.029 A 
ATOM     52  N   UNL A   1      43.478  29.578  28.752  1.00  0.00    -0.354 N 
ATOM     53  N   UNL A   1      46.173  28.859  27.827  1.00  0.00    -0.248 NA
ATOM     54  C   UNL A   1      48.388  29.445  27.377  1.00  0.00     0.031 C 
ATOM     55  C   UNL A   1      43.142  31.639  29.509  1.00  0.00     0.029 A 
ATOM     56  C   UNL A   1      44.106  30.790  28.988  1.00  0.00     0.049 A 
ATOM     57  H   UNL A   1      43.914  28.781  28.370  1.00  0.00     0.167 HD
ATOM     58  C   UNL A   1      46.380  30.179  28.204  1.00  0.00     0.074 A 
ATOM     59  C   UNL A   1      47.771  30.478  27.934  1.00  0.00     0.031 C 
ATOM     60  C   UNL A   1      45.497  31.064  28.729  1.00  0.00     0.037 A 
BRANCH  47  61
ATOM     61  C   UNL A   1      39.774  28.824  29.409  1.00  0.00     0.064 A 
ATOM     62  C   UNL A   1      38.830  29.333  28.502  1.00  0.00     0.173 A 
ATOM     63  C   UNL A   1      39.340  28.534  30.710  1.00  0.00     0.173 A 
ATOM     64  F   UNL A   1      39.195  29.640  27.248  1.00  0.00    -0.203 F 
ATOM     65  C   UNL A   1      37.515  29.574  28.894  1.00  0.00     0.198 A 
ATOM     66  C   UNL A   1      38.016  28.744  31.090  1.00  0.00     0.198 A 
ATOM     67  F   UNL A   1      40.198  28.041  31.616  1.00  0.00    -0.203 F 
ATOM     68  F   UNL A   1      36.648  30.114  28.027  1.00  0.00    -0.200 F 
ATOM     69  C   UNL A   1      37.109  29.273  30.185  1.00  0.00     0.200 A 
ATOM     70  F   UNL A   1      37.620  28.441  32.334  1.00  0.00    -0.200 F 
ATOM     71  F   UNL A   1      35.842  29.502  30.560  1.00  0.00    -0.200 F 
ENDBRANCH  47  61
BRANCH  48  72
ATOM     72  C   UNL A   1      49.083  26.768  26.414  1.00  0.00     0.064 A 
ATOM     73  C   UNL A   1      49.462  26.984  25.082  1.00  0.00     0.173 A 
ATOM     74  C   UNL A   1      50.052  26.266  27.295  1.00  0.00     0.173 A 
ATOM     75  F   UNL A   1      48.566  27.444  24.197  1.00  0.00    -0.203 F 
ATOM     76  C   UNL A   1      50.750  26.688  24.642  1.00  0.00     0.198 A 
ATOM     77  C   UNL A   1      51.348  25.997  26.860  1.00  0.00     0.198 A 
ATOM     78  F   UNL A   1      49.742  26.047  28.581  1.00  0.00    -0.203 F 
ATOM     79  F   UNL A   1      51.073  26.861  23.353  1.00  0.00    -0.200 F 
ATOM     80  C   UNL A   1      51.694  26.200  25.533  1.00  0.00     0.200 A 
ATOM     81  F   UNL A   1      52.262  25.540  27.728  1.00  0.00    -0.200 F 
ATOM     82  F   UNL A   1      52.935  25.920  25.112  1.00  0.00    -0.200 F 
ENDBRANCH  48  72
BRANCH  60  83
ATOM     83  C   UNL A   1      46.019  32.424  29.095  1.00  0.00     0.064 A 
ATOM     84  C   UNL A   1      45.979  33.498  28.195  1.00  0.00     0.173 A 
ATOM     85  C   UNL A   1      46.531  32.661  30.379  1.00  0.00     0.173 A 
ATOM     86  F   UNL A   1      45.514  33.320  26.950  1.00  0.00    -0.203 F 
ATOM     87  C   UNL A   1      46.459  34.754  28.560  1.00  0.00     0.198 A 
ATOM     88  C   UNL A   1      46.980  33.925  30.752  1.00  0.00     0.198 A 
ATOM     89  F   UNL A   1      46.584  31.668  31.281  1.00  0.00    -0.203 F 
ATOM     90  F   UNL A   1      46.458  35.755  27.667  1.00  0.00    -0.200 F 
ATOM     91  C   UNL A   1      46.951  34.968  29.838  1.00  0.00     0.200 A 
ATOM     92  F   UNL A   1      47.441  34.133  31.992  1.00  0.00    -0.200 F 
ATOM     93  F   UNL A   1      47.405  36.179  30.190  1.00  0.00    -0.200 F 
ENDBRANCH  60  83
ENDBRANCH  34  35
ENDBRANCH  26  29
ENDBRANCH  24  25
ENDBRANCH  23  24
ENDBRANCH  22  23
ENDBRANCH   1  22
TORSDOF 18
ENDMDL
MODEL 3
REMARK VINA RESULT:     -10.4      4.763     10.736
REMARK SMILES CCC[C@@H]([NH2+]Cc1cc(Cl)cs1)C(=O)NCCCCCCNC(=O)c1ccc(-c2c3nc(c(-c4c(F)c(F)c(F)c(F)c4F)c4ccc([nH]4)c(-c4c(F)c(F)c(F)c(F)c4F)c4nc(c(-c5c(F)c(F)c(F)c(F)c5F)c5ccc2[nH]5)C=C4)C=C3)cc1
REMARK SMILES IDX 18 1 17 2 16 3 15 4 13 5 14 6 4 8 3 9 2 10 1 11 5 12 6 15
REMARK SMILES IDX 7 16 8 17 12 18 9 19 11 20 10 21 19 22 20 23 21 24 22 25
REMARK SMILES IDX 23 26 24 28 25 29 26 30 87 31 27 32 86 33 28 34 29 35 30 36
REMARK SMILES IDX 80 37 31 38 85 39 79 40 81 41 32 42 84 43 78 44 77 45 33 47
REMARK SMILES IDX 65 48 45 49 64 50 46 51 49 52 63 53 82 54 47 55 48 56 62 58
REMARK SMILES IDX 83 59 50 60 34 61 35 62 43 63 36 64 37 65 41 66 44 67 38 68
REMARK SMILES IDX 39 69 42 70 40 71 66 72 67 73 75 74 68 75 69 76 73 77 76 78
REMARK SMILES IDX 70 79 71 80 74 81 72 82 51 83 52 84 60 85 53 86 54 87 58 88
REMARK SMILES IDX 61 89 55 90 56 91 59 92 57 93
REMARK H PARENT 15 7 5 13 5 14 22 27 81 46 49 57
REMARK Flexibility Score: inf
ROOT
ATOM      1  C   UNL A   1      37.141  33.145  28.896  1.00  0.00     0.002 C 
ENDROOT
BRANCH   1   2
ATOM      2  C   UNL A   1      38.043  34.114  29.671  1.00  0.00     0.021 C 
BRANCH   2   3
ATOM      3  C   UNL A   1      37.831  34.079  31.186  1.00  0.00     0.116 C 
BRANCH   3   4
ATOM      4  N   UNL A   1      37.239  32.817  31.584  1.00  0.00    -0.351 N 
ATOM      5  C   UNL A   1      36.960  32.334  32.827  1.00  0.00     0.278 C 
ATOM      6  O   UNL A   1      36.489  31.195  32.904  1.00  0.00    -0.268 OA
ATOM      7  H   UNL A   1      36.999  32.216  30.842  1.00  0.00     0.163 HD
BRANCH   5   8
ATOM      8  C   UNL A   1      37.185  33.183  34.099  1.00  0.00     0.272 C 
BRANCH   8   9
ATOM      9  C   UNL A   1      38.693  33.358  34.387  1.00  0.00     0.075 C 
BRANCH   9  10
ATOM     10  C   UNL A   1      39.197  34.802  34.487  1.00  0.00     0.003 C 
ATOM     11  C   UNL A   1      39.478  35.250  35.910  1.00  0.00     0.004 C 
ENDBRANCH   9  10
ENDBRANCH   8   9
BRANCH   8  12
ATOM     12  N   UNL A   1      36.462  34.478  34.014  1.00  0.00    -0.332 N 
ATOM     13  H   UNL A   1      36.778  34.969  33.179  1.00  0.00     0.347 HD
ATOM     14  H   UNL A   1      36.668  34.990  34.872  1.00  0.00     0.347 HD
BRANCH  12  15
ATOM     15  C   UNL A   1      34.998  34.337  33.942  1.00  0.00     0.309 C 
BRANCH  15  16
ATOM     16  C   UNL A   1      34.339  35.249  32.945  1.00  0.00     0.060 A 
ATOM     17  C   UNL A   1      34.032  34.976  31.625  1.00  0.00     0.041 A 
ATOM     18  S   UNL A   1      33.903  36.858  33.363  1.00  0.00    -0.141 S 
ATOM     19  C   UNL A   1      33.373  36.063  30.985  1.00  0.00     0.052 A 
ATOM     20  C   UNL A   1      33.200  37.134  31.829  1.00  0.00     0.085 A 
ATOM     21  Cl  UNL A   1      32.859  36.007  29.357  1.00  0.00    -0.083 Cl
ENDBRANCH  15  16
ENDBRANCH  12  15
ENDBRANCH   8  12
ENDBRANCH   5   8
ENDBRANCH   3   4
ENDBRANCH   2   3
ENDBRANCH   1   2
BRANCH   1  22
ATOM     22  C   UNL A   1      36.232  33.805  27.853  1.00  0.00     0.002 C 
BRANCH  22  23
ATOM     23  C   UNL A   1      34.740  33.513  28.023  1.00  0.00     0.021 C 
BRANCH  23  24
ATOM     24  C   UNL A   1      34.428  32.375  28.987  1.00  0.00     0.116 C 
BRANCH  24  25
ATOM     25  N   UNL A   1      33.854  31.224  28.308  1.00  0.00    -0.352 N 
ATOM     26  C   UNL A   1      34.475  30.088  27.862  1.00  0.00     0.251 C 
ATOM     27  H   UNL A   1      32.885  31.268  28.146  1.00  0.00     0.163 HD
ATOM     28  O   UNL A   1      33.877  29.297  27.132  1.00  0.00    -0.269 OA
BRANCH  26  29
ATOM     29  C   UNL A   1      35.876  29.817  28.244  1.00  0.00     0.039 A 
ATOM     30  C   UNL A   1      36.153  29.385  29.543  1.00  0.00     0.014 A 
ATOM     31  C   UNL A   1      36.913  30.000  27.324  1.00  0.00     0.014 A 
ATOM     32  C   UNL A   1      37.467  29.091  29.907  1.00  0.00     0.010 A 
ATOM     33  C   UNL A   1      38.211  29.638  27.666  1.00  0.00     0.010 A 
ATOM     34  C   UNL A   1      38.504  29.192  28.965  1.00  0.00    -0.014 A 
BRANCH  34  35
ATOM     35  C   UNL A   1      39.906  28.862  29.324  1.00  0.00     0.031 A 
ATOM     36  C   UNL A   1      40.706  29.814  30.168  1.00  0.00     0.074 A 
ATOM     37  C   UNL A   1      40.473  27.740  28.844  1.00  0.00     0.049 A 
ATOM     38  N   UNL A   1      41.963  29.746  30.532  1.00  0.00    -0.248 NA
ATOM     39  C   UNL A   1      40.009  31.019  30.644  1.00  0.00     0.031 C 
ATOM     40  C   UNL A   1      39.812  26.759  27.984  1.00  0.00     0.029 A 
ATOM     41  N   UNL A   1      41.741  27.240  29.006  1.00  0.00    -0.354 N 
ATOM     42  C   UNL A   1      42.207  30.901  31.262  1.00  0.00     0.074 A 
ATOM     43  C   UNL A   1      40.989  31.681  31.242  1.00  0.00     0.031 C 
ATOM     44  C   UNL A   1      40.671  25.762  27.712  1.00  0.00     0.029 A 
ATOM     45  C   UNL A   1      41.953  26.054  28.347  1.00  0.00     0.049 A 
ATOM     46  H   UNL A   1      42.433  27.690  29.543  1.00  0.00     0.167 HD
ATOM     47  C   UNL A   1      43.337  31.267  31.913  1.00  0.00     0.037 A 
ATOM     48  C   UNL A   1      43.059  25.290  28.264  1.00  0.00     0.037 A 
ATOM     49  C   UNL A   1      44.539  30.477  31.950  1.00  0.00     0.049 A 
ATOM     50  C   UNL A   1      44.305  25.723  28.989  1.00  0.00     0.074 A 
ATOM     51  C   UNL A   1      45.723  30.734  32.618  1.00  0.00     0.029 A 
ATOM     52  N   UNL A   1      44.710  29.270  31.286  1.00  0.00    -0.354 N 
ATOM     53  N   UNL A   1      44.508  26.788  29.726  1.00  0.00    -0.248 NA
ATOM     54  C   UNL A   1      45.475  24.841  28.876  1.00  0.00     0.031 C 
ATOM     55  C   UNL A   1      46.625  29.706  32.323  1.00  0.00     0.029 A 
ATOM     56  C   UNL A   1      45.985  28.780  31.515  1.00  0.00     0.049 A 
ATOM     57  H   UNL A   1      44.026  28.827  30.733  1.00  0.00     0.167 HD
ATOM     58  C   UNL A   1      45.811  26.686  30.194  1.00  0.00     0.074 A 
ATOM     59  C   UNL A   1      46.349  25.451  29.665  1.00  0.00     0.031 C 
ATOM     60  C   UNL A   1      46.499  27.539  30.993  1.00  0.00     0.037 A 
BRANCH  47  61
ATOM     61  C   UNL A   1      43.322  32.580  32.641  1.00  0.00     0.064 A 
ATOM     62  C   UNL A   1      42.923  32.674  33.984  1.00  0.00     0.173 A 
ATOM     63  C   UNL A   1      43.729  33.758  31.997  1.00  0.00     0.173 A 
ATOM     64  F   UNL A   1      42.512  31.580  34.644  1.00  0.00    -0.203 F 
ATOM     65  C   UNL A   1      42.899  33.900  34.643  1.00  0.00     0.198 A 
ATOM     66  C   UNL A   1      43.736  34.978  32.668  1.00  0.00     0.198 A 
ATOM     67  F   UNL A   1      44.125  33.727  30.715  1.00  0.00    -0.203 F 
ATOM     68  F   UNL A   1      42.459  33.972  35.907  1.00  0.00    -0.200 F 
ATOM     69  C   UNL A   1      43.311  35.049  33.987  1.00  0.00     0.200 A 
ATOM     70  F   UNL A   1      44.148  36.087  32.038  1.00  0.00    -0.200 F 
ATOM     71  F   UNL A   1      43.292  36.230  34.623  1.00  0.00    -0.200 F 
ENDBRANCH  47  61
BRANCH  48  72
ATOM     72  C   UNL A   1      43.028  24.021  27.493  1.00  0.00     0.064 A 
ATOM     73  C   UNL A   1      43.418  23.990  26.147  1.00  0.00     0.173 A 
ATOM     74  C   UNL A   1      42.607  22.818  28.077  1.00  0.00     0.173 A 
ATOM     75  F   UNL A   1      43.810  25.120  25.537  1.00  0.00    -0.203 F 
ATOM     76  C   UNL A   1      43.369  22.811  25.408  1.00  0.00     0.198 A 
ATOM     77  C   UNL A   1      42.585  21.632  27.345  1.00  0.00     0.198 A 
ATOM     78  F   UNL A   1      42.229  22.792  29.364  1.00  0.00    -0.203 F 
ATOM     79  F   UNL A   1      43.704  22.819  24.111  1.00  0.00    -0.200 F 
ATOM     80  C   UNL A   1      42.958  21.631  26.010  1.00  0.00     0.200 A 
ATOM     81  F   UNL A   1      42.202  20.491  27.935  1.00  0.00    -0.200 F 
ATOM     82  F   UNL A   1      42.914  20.494  25.302  1.00  0.00    -0.200 F 
ENDBRANCH  48  72
BRANCH  60  83
ATOM     83  C   UNL A   1      47.893  27.142  31.386  1.00  0.00     0.064 A 
ATOM     84  C   UNL A   1      49.017  27.586  30.676  1.00  0.00     0.173 A 
ATOM     85  C   UNL A   1      48.104  26.335  32.514  1.00  0.00     0.173 A 
ATOM     86  F   UNL A   1      48.868  28.346  29.582  1.00  0.00    -0.203 F 
ATOM     87  C   UNL A   1      50.301  27.213  31.066  1.00  0.00     0.198 A 
ATOM     88  C   UNL A   1      49.390  25.990  32.920  1.00  0.00     0.198 A 
ATOM     89  F   UNL A   1      47.062  25.889  33.233  1.00  0.00    -0.203 F 
ATOM     90  F   UNL A   1      51.360  27.608  30.343  1.00  0.00    -0.200 F 
ATOM     91  C   UNL A   1      50.487  26.424  32.191  1.00  0.00     0.200 A 
ATOM     92  F   UNL A   1      49.568  25.240  34.015  1.00  0.00    -0.200 F 
ATOM     93  F   UNL A   1      51.724  26.072  32.568  1.00  0.00    -0.200 F 
ENDBRANCH  60  83
ENDBRANCH  34  35
ENDBRANCH  26  29
ENDBRANCH  24  25
ENDBRANCH  23  24
ENDBRANCH  22  23
ENDBRANCH   1  22
TORSDOF 18
ENDMDL
