MODEL 1
REMARK VINA RESULT:     -12.4      0.000      0.000
REMARK SMILES O=C(NCCCCCCNC(=O)[C@@H]1C[N@H+](Cc2ccco2)CC12CCOCC2)c1ccc(-c2c3nc(c(-c4c(F)c(F)c(F)c(F)c4F)c4ccc([nH]4)c(-c4c(F)c(F)c(F)c(F)c4F)c4nc(c(-c5c(F)c(F)c(F)c(F)c5F)c5ccc2[nH]5)C=C4)C=C3)cc1
REMARK SMILES IDX 6 1 5 2 4 3 3 4 1 5 2 6 29 8 30 9 91 10 31 11 90 12 32 13
REMARK SMILES IDX 33 14 34 15 84 16 35 17 89 18 83 19 85 20 36 21 88 22 82 23
REMARK SMILES IDX 81 24 37 26 69 27 49 28 68 29 50 30 53 31 67 32 86 33 51 34
REMARK SMILES IDX 52 35 66 37 87 38 54 39 38 40 39 41 47 42 40 43 41 44 45 45
REMARK SMILES IDX 48 46 42 47 43 48 46 49 44 50 70 51 71 52 79 53 72 54 73 55
REMARK SMILES IDX 77 56 80 57 74 58 75 59 78 60 76 61 55 62 56 63 64 64 57 65
REMARK SMILES IDX 58 66 62 67 65 68 59 69 60 70 63 71 61 72 7 73 8 74 9 75
REMARK SMILES IDX 10 76 11 77 12 79 13 80 14 81 23 82 15 83 22 84 24 85 28 86
REMARK SMILES IDX 25 88 27 89 26 90 16 91 17 92 18 93 21 94 19 95 20 96
REMARK H PARENT 3 7 85 25 53 36 10 78 15 87
REMARK Flexibility Score: inf
ROOT
ATOM      1  C   UNL A   1      31.797  30.377  25.959  1.00  0.00     0.002 C 
ENDROOT
BRANCH   1   2
ATOM      2  C   UNL A   1      31.547  31.645  26.765  1.00  0.00     0.021 C 
BRANCH   2   3
ATOM      3  C   UNL A   1      32.789  32.466  27.061  1.00  0.00     0.116 C 
BRANCH   3   4
ATOM      4  N   UNL A   1      32.493  33.833  27.457  1.00  0.00    -0.352 N 
ATOM      5  O   UNL A   1      32.657  35.688  28.745  1.00  0.00    -0.269 OA
ATOM      6  C   UNL A   1      33.089  34.580  28.444  1.00  0.00     0.251 C 
ATOM      7  H   UNL A   1      31.774  34.280  26.954  1.00  0.00     0.163 HD
BRANCH   6   8
ATOM      8  C   UNL A   1      34.245  34.012  29.170  1.00  0.00     0.039 A 
ATOM      9  C   UNL A   1      35.546  34.354  28.796  1.00  0.00     0.014 A 
ATOM     10  C   UNL A   1      34.023  33.091  30.197  1.00  0.00     0.014 A 
ATOM     11  C   UNL A   1      36.620  33.658  29.334  1.00  0.00     0.010 A 
ATOM     12  C   UNL A   1      35.111  32.466  30.810  1.00  0.00     0.010 A 
ATOM     13  C   UNL A   1      36.417  32.720  30.360  1.00  0.00    -0.014 A 
BRANCH  13  14
ATOM     14  C   UNL A   1      37.596  32.071  30.985  1.00  0.00     0.031 A 
ATOM     15  C   UNL A   1      38.039  32.422  32.378  1.00  0.00     0.074 A 
ATOM     16  C   UNL A   1      38.252  31.127  30.282  1.00  0.00     0.049 A 
ATOM     17  N   UNL A   1      39.032  31.929  33.075  1.00  0.00    -0.248 NA
ATOM     18  C   UNL A   1      37.274  33.464  33.079  1.00  0.00     0.031 C 
ATOM     19  C   UNL A   1      37.917  30.714  28.918  1.00  0.00     0.029 A 
ATOM     20  N   UNL A   1      39.315  30.331  30.619  1.00  0.00    -0.354 N 
ATOM     21  C   UNL A   1      39.028  32.614  34.283  1.00  0.00     0.074 A 
ATOM     22  C   UNL A   1      37.947  33.575  34.217  1.00  0.00     0.031 C 
ATOM     23  C   UNL A   1      38.718  29.703  28.555  1.00  0.00     0.029 A 
ATOM     24  C   UNL A   1      39.669  29.446  29.629  1.00  0.00     0.049 A 
ATOM     25  H   UNL A   1      39.780  30.388  31.485  1.00  0.00     0.167 HD
ATOM     26  C   UNL A   1      39.848  32.448  35.350  1.00  0.00     0.037 A 
ATOM     27  C   UNL A   1      40.660  28.539  29.584  1.00  0.00     0.037 A 
ATOM     28  C   UNL A   1      40.913  31.477  35.411  1.00  0.00     0.049 A 
ATOM     29  C   UNL A   1      41.569  28.400  30.769  1.00  0.00     0.074 A 
ATOM     30  C   UNL A   1      41.775  31.204  36.460  1.00  0.00     0.029 A 
ATOM     31  N   UNL A   1      41.267  30.625  34.374  1.00  0.00    -0.354 N 
ATOM     32  N   UNL A   1      41.531  29.026  31.920  1.00  0.00    -0.248 NA
ATOM     33  C   UNL A   1      42.665  27.430  30.646  1.00  0.00     0.031 C 
ATOM     34  C   UNL A   1      42.682  30.225  36.040  1.00  0.00     0.029 A 
ATOM     35  C   UNL A   1      42.351  29.845  34.749  1.00  0.00     0.049 A 
ATOM     36  H   UNL A   1      40.815  30.580  33.500  1.00  0.00     0.167 HD
ATOM     37  C   UNL A   1      42.582  28.513  32.667  1.00  0.00     0.074 A 
ATOM     38  C   UNL A   1      43.224  27.508  31.846  1.00  0.00     0.031 C 
ATOM     39  C   UNL A   1      42.979  28.847  33.919  1.00  0.00     0.037 A 
BRANCH  26  40
ATOM     40  C   UNL A   1      39.646  33.352  36.535  1.00  0.00     0.064 A 
ATOM     41  C   UNL A   1      40.293  34.592  36.640  1.00  0.00     0.173 A 
ATOM     42  C   UNL A   1      38.758  32.989  37.559  1.00  0.00     0.173 A 
ATOM     43  F   UNL A   1      41.159  34.985  35.694  1.00  0.00    -0.203 F 
ATOM     44  C   UNL A   1      40.082  35.421  37.740  1.00  0.00     0.198 A 
ATOM     45  C   UNL A   1      38.526  33.834  38.642  1.00  0.00     0.198 A 
ATOM     46  F   UNL A   1      38.105  31.819  37.505  1.00  0.00    -0.203 F 
ATOM     47  F   UNL A   1      40.748  36.580  37.842  1.00  0.00    -0.200 F 
ATOM     48  C   UNL A   1      39.194  35.045  38.737  1.00  0.00     0.200 A 
ATOM     49  F   UNL A   1      37.655  33.475  39.596  1.00  0.00    -0.200 F 
ATOM     50  F   UNL A   1      38.986  35.846  39.790  1.00  0.00    -0.200 F 
ENDBRANCH  26  40
BRANCH  27  51
ATOM     51  C   UNL A   1      40.833  27.695  28.375  1.00  0.00     0.064 A 
ATOM     52  C   UNL A   1      41.634  28.123  27.308  1.00  0.00     0.173 A 
ATOM     53  C   UNL A   1      40.216  26.440  28.266  1.00  0.00     0.173 A 
ATOM     54  F   UNL A   1      42.232  29.323  27.358  1.00  0.00    -0.203 F 
ATOM     55  C   UNL A   1      41.798  27.334  26.171  1.00  0.00     0.198 A 
ATOM     56  C   UNL A   1      40.407  25.638  27.144  1.00  0.00     0.198 A 
ATOM     57  F   UNL A   1      39.445  25.982  29.265  1.00  0.00    -0.203 F 
ATOM     58  F   UNL A   1      42.536  27.785  25.148  1.00  0.00    -0.200 F 
ATOM     59  C   UNL A   1      41.191  26.089  26.094  1.00  0.00     0.200 A 
ATOM     60  F   UNL A   1      39.835  24.428  27.083  1.00  0.00    -0.200 F 
ATOM     61  F   UNL A   1      41.358  25.327  25.005  1.00  0.00    -0.200 F 
ENDBRANCH  27  51
BRANCH  39  62
ATOM     62  C   UNL A   1      44.142  28.088  34.487  1.00  0.00     0.064 A 
ATOM     63  C   UNL A   1      43.970  26.875  35.170  1.00  0.00     0.173 A 
ATOM     64  C   UNL A   1      45.449  28.578  34.336  1.00  0.00     0.173 A 
ATOM     65  F   UNL A   1      42.740  26.376  35.358  1.00  0.00    -0.203 F 
ATOM     66  C   UNL A   1      45.060  26.197  35.709  1.00  0.00     0.198 A 
ATOM     67  C   UNL A   1      46.539  27.880  34.848  1.00  0.00     0.198 A 
ATOM     68  F   UNL A   1      45.669  29.731  33.687  1.00  0.00    -0.203 F 
ATOM     69  F   UNL A   1      44.865  25.071  36.409  1.00  0.00    -0.200 F 
ATOM     70  C   UNL A   1      46.343  26.696  35.543  1.00  0.00     0.200 A 
ATOM     71  F   UNL A   1      47.780  28.357  34.675  1.00  0.00    -0.200 F 
ATOM     72  F   UNL A   1      47.391  26.042  36.062  1.00  0.00    -0.200 F 
ENDBRANCH  39  62
ENDBRANCH  13  14
ENDBRANCH   6   8
ENDBRANCH   3   4
ENDBRANCH   2   3
ENDBRANCH   1   2
BRANCH   1  73
ATOM     73  C   UNL A   1      31.785  29.067  26.754  1.00  0.00     0.002 C 
BRANCH  73  74
ATOM     74  C   UNL A   1      32.105  27.778  25.983  1.00  0.00     0.021 C 
BRANCH  74  75
ATOM     75  C   UNL A   1      30.983  26.746  25.880  1.00  0.00     0.116 C 
BRANCH  75  76
ATOM     76  N   UNL A   1      31.119  25.676  26.843  1.00  0.00    -0.356 N 
ATOM     77  C   UNL A   1      31.419  24.363  26.648  1.00  0.00     0.229 C 
ATOM     78  H   UNL A   1      30.973  25.936  27.780  1.00  0.00     0.163 HD
ATOM     79  O   UNL A   1      31.892  23.787  27.623  1.00  0.00    -0.275 OA
BRANCH  77  80
ATOM     80  C   UNL A   1      31.150  23.731  25.285  1.00  0.00     0.145 C 
ATOM     81  C   UNL A   1      30.793  22.248  25.465  1.00  0.00     0.276 C 
ATOM     82  C   UNL A   1      32.259  23.775  24.186  1.00  0.00     0.041 C 
ATOM     83  N   UNL A   1      31.799  21.451  24.780  1.00  0.00    -0.327 N 
ATOM     84  C   UNL A   1      32.432  22.293  23.773  1.00  0.00     0.270 C 
ATOM     85  C   UNL A   1      31.751  24.619  22.984  1.00  0.00     0.042 C 
ATOM     86  C   UNL A   1      33.610  24.400  24.598  1.00  0.00     0.042 C 
ATOM     87  H   UNL A   1      31.328  20.678  24.310  1.00  0.00     0.348 HD
ATOM     88  C   UNL A   1      32.803  24.777  21.890  1.00  0.00     0.161 C 
ATOM     89  C   UNL A   1      34.581  24.538  23.432  1.00  0.00     0.161 C 
ATOM     90  O   UNL A   1      34.006  25.339  22.404  1.00  0.00    -0.381 OA
BRANCH  83  91
ATOM     91  C   UNL A   1      32.701  20.660  25.627  1.00  0.00     0.338 C 
BRANCH  91  92
ATOM     92  C   UNL A   1      33.096  19.312  25.132  1.00  0.00     0.157 A 
ATOM     93  C   UNL A   1      34.273  18.793  24.628  1.00  0.00     0.052 A 
ATOM     94  O   UNL A   1      32.154  18.325  25.205  1.00  0.00    -0.463 OA
ATOM     95  C   UNL A   1      34.012  17.441  24.303  1.00  0.00     0.042 A 
ATOM     96  C   UNL A   1      32.714  17.201  24.684  1.00  0.00     0.195 A 
ENDBRANCH  91  92
ENDBRANCH  83  91
ENDBRANCH  77  80
ENDBRANCH  75  76
ENDBRANCH  74  75
ENDBRANCH  73  74
ENDBRANCH   1  73
TORSDOF 15
ENDMDL
MODEL 2
REMARK VINA RESULT:     -12.4      1.163      2.222
REMARK SMILES O=C(NCCCCCCNC(=O)[C@@H]1C[N@H+](Cc2ccco2)CC12CCOCC2)c1ccc(-c2c3nc(c(-c4c(F)c(F)c(F)c(F)c4F)c4ccc([nH]4)c(-c4c(F)c(F)c(F)c(F)c4F)c4nc(c(-c5c(F)c(F)c(F)c(F)c5F)c5ccc2[nH]5)C=C4)C=C3)cc1
REMARK SMILES IDX 6 1 5 2 4 3 3 4 1 5 2 6 29 8 30 9 91 10 31 11 90 12 32 13
REMARK SMILES IDX 33 14 34 15 84 16 35 17 89 18 83 19 85 20 36 21 88 22 82 23
REMARK SMILES IDX 81 24 37 26 69 27 49 28 68 29 50 30 53 31 67 32 86 33 51 34
REMARK SMILES IDX 52 35 66 37 87 38 54 39 38 40 39 41 47 42 40 43 41 44 45 45
REMARK SMILES IDX 48 46 42 47 43 48 46 49 44 50 70 51 71 52 79 53 72 54 73 55
REMARK SMILES IDX 77 56 80 57 74 58 75 59 78 60 76 61 55 62 56 63 64 64 57 65
REMARK SMILES IDX 58 66 62 67 65 68 59 69 60 70 63 71 61 72 7 73 8 74 9 75
REMARK SMILES IDX 10 76 11 77 12 79 13 80 14 81 23 82 15 83 22 84 24 85 28 86
REMARK SMILES IDX 25 88 27 89 26 90 16 91 17 92 18 93 21 94 19 95 20 96
REMARK H PARENT 3 7 85 25 53 36 10 78 15 87
REMARK Flexibility Score: inf
ROOT
ATOM      1  C   UNL A   1      31.737  30.410  26.078  1.00  0.00     0.002 C 
ENDROOT
BRANCH   1   2
ATOM      2  C   UNL A   1      31.450  31.826  26.559  1.00  0.00     0.021 C 
BRANCH   2   3
ATOM      3  C   UNL A   1      32.625  32.522  27.224  1.00  0.00     0.116 C 
BRANCH   3   4
ATOM      4  N   UNL A   1      32.358  33.913  27.550  1.00  0.00    -0.352 N 
ATOM      5  O   UNL A   1      32.586  35.836  28.723  1.00  0.00    -0.269 OA
ATOM      6  C   UNL A   1      32.995  34.707  28.473  1.00  0.00     0.251 C 
ATOM      7  H   UNL A   1      31.630  34.341  27.045  1.00  0.00     0.163 HD
BRANCH   6   8
ATOM      8  C   UNL A   1      34.166  34.164  29.194  1.00  0.00     0.039 A 
ATOM      9  C   UNL A   1      35.458  34.443  28.744  1.00  0.00     0.014 A 
ATOM     10  C   UNL A   1      33.966  33.330  30.296  1.00  0.00     0.014 A 
ATOM     11  C   UNL A   1      36.537  33.762  29.290  1.00  0.00     0.010 A 
ATOM     12  C   UNL A   1      35.064  32.724  30.911  1.00  0.00     0.010 A 
ATOM     13  C   UNL A   1      36.355  32.909  30.392  1.00  0.00    -0.014 A 
BRANCH  13  14
ATOM     14  C   UNL A   1      37.544  32.278  31.018  1.00  0.00     0.031 A 
ATOM     15  C   UNL A   1      37.987  32.643  32.407  1.00  0.00     0.074 A 
ATOM     16  C   UNL A   1      38.209  31.337  30.319  1.00  0.00     0.049 A 
ATOM     17  N   UNL A   1      38.988  32.167  33.104  1.00  0.00    -0.248 NA
ATOM     18  C   UNL A   1      37.212  33.681  33.103  1.00  0.00     0.031 C 
ATOM     19  C   UNL A   1      37.874  30.911  28.959  1.00  0.00     0.029 A 
ATOM     20  N   UNL A   1      39.282  30.556  30.658  1.00  0.00    -0.354 N 
ATOM     21  C   UNL A   1      38.980  32.860  34.307  1.00  0.00     0.074 A 
ATOM     22  C   UNL A   1      37.888  33.808  34.238  1.00  0.00     0.031 C 
ATOM     23  C   UNL A   1      38.686  29.907  28.600  1.00  0.00     0.029 A 
ATOM     24  C   UNL A   1      39.643  29.668  29.673  1.00  0.00     0.049 A 
ATOM     25  H   UNL A   1      39.749  30.624  31.522  1.00  0.00     0.167 HD
ATOM     26  C   UNL A   1      39.806  32.711  35.373  1.00  0.00     0.037 A 
ATOM     27  C   UNL A   1      40.644  28.772  29.631  1.00  0.00     0.037 A 
ATOM     28  C   UNL A   1      40.882  31.753  35.436  1.00  0.00     0.049 A 
ATOM     29  C   UNL A   1      41.559  28.652  30.814  1.00  0.00     0.074 A 
ATOM     30  C   UNL A   1      41.750  31.497  36.485  1.00  0.00     0.029 A 
ATOM     31  N   UNL A   1      41.242  30.898  34.404  1.00  0.00    -0.354 N 
ATOM     32  N   UNL A   1      41.517  29.286  31.961  1.00  0.00    -0.248 NA
ATOM     33  C   UNL A   1      42.665  27.694  30.694  1.00  0.00     0.031 C 
ATOM     34  C   UNL A   1      42.667  30.526  36.068  1.00  0.00     0.029 A 
ATOM     35  C   UNL A   1      42.336  30.133  34.781  1.00  0.00     0.049 A 
ATOM     36  H   UNL A   1      40.788  30.842  33.533  1.00  0.00     0.167 HD
ATOM     37  C   UNL A   1      42.576  28.790  32.707  1.00  0.00     0.074 A 
ATOM     38  C   UNL A   1      43.227  27.787  31.891  1.00  0.00     0.031 C 
ATOM     39  C   UNL A   1      42.973  29.137  33.956  1.00  0.00     0.037 A 
BRANCH  26  40
ATOM     40  C   UNL A   1      39.597  33.621  36.552  1.00  0.00     0.064 A 
ATOM     41  C   UNL A   1      38.815  33.239  37.653  1.00  0.00     0.173 A 
ATOM     42  C   UNL A   1      40.223  34.876  36.598  1.00  0.00     0.173 A 
ATOM     43  F   UNL A   1      38.187  32.054  37.657  1.00  0.00    -0.203 F 
ATOM     44  C   UNL A   1      38.644  34.091  38.742  1.00  0.00     0.198 A 
ATOM     45  C   UNL A   1      40.075  35.713  37.702  1.00  0.00     0.198 A 
ATOM     46  F   UNL A   1      40.989  35.288  35.578  1.00  0.00    -0.203 F 
ATOM     47  F   UNL A   1      37.855  33.724  39.761  1.00  0.00    -0.200 F 
ATOM     48  C   UNL A   1      39.279  35.324  38.769  1.00  0.00     0.200 A 
ATOM     49  F   UNL A   1      40.702  36.897  37.733  1.00  0.00    -0.200 F 
ATOM     50  F   UNL A   1      39.120  36.139  39.820  1.00  0.00    -0.200 F 
ENDBRANCH  26  40
BRANCH  27  51
ATOM     51  C   UNL A   1      40.823  27.922  28.426  1.00  0.00     0.064 A 
ATOM     52  C   UNL A   1      40.230  26.655  28.347  1.00  0.00     0.173 A 
ATOM     53  C   UNL A   1      41.574  28.363  27.327  1.00  0.00     0.173 A 
ATOM     54  F   UNL A   1      39.516  26.183  29.380  1.00  0.00    -0.203 F 
ATOM     55  C   UNL A   1      40.396  25.855  27.218  1.00  0.00     0.198 A 
ATOM     56  C   UNL A   1      41.712  27.577  26.187  1.00  0.00     0.198 A 
ATOM     57  F   UNL A   1      42.155  29.573  27.352  1.00  0.00    -0.203 F 
ATOM     58  F   UNL A   1      39.854  24.630  27.184  1.00  0.00    -0.200 F 
ATOM     59  C   UNL A   1      41.130  26.319  26.136  1.00  0.00     0.200 A 
ATOM     60  F   UNL A   1      42.404  28.038  25.137  1.00  0.00    -0.200 F 
ATOM     61  F   UNL A   1      41.280  25.553  25.048  1.00  0.00    -0.200 F 
ENDBRANCH  27  51
BRANCH  39  62
ATOM     62  C   UNL A   1      44.148  28.395  34.525  1.00  0.00     0.064 A 
ATOM     63  C   UNL A   1      43.991  27.187  35.221  1.00  0.00     0.173 A 
ATOM     64  C   UNL A   1      45.448  28.897  34.363  1.00  0.00     0.173 A 
ATOM     65  F   UNL A   1      42.767  26.678  35.420  1.00  0.00    -0.203 F 
ATOM     66  C   UNL A   1      45.090  26.526  35.761  1.00  0.00     0.198 A 
ATOM     67  C   UNL A   1      46.548  28.215  34.876  1.00  0.00     0.198 A 
ATOM     68  F   UNL A   1      45.653  30.046  33.701  1.00  0.00    -0.203 F 
ATOM     69  F   UNL A   1      44.911  25.405  36.473  1.00  0.00    -0.200 F 
ATOM     70  C   UNL A   1      46.368  27.036  35.583  1.00  0.00     0.200 A 
ATOM     71  F   UNL A   1      47.783  28.704  34.691  1.00  0.00    -0.200 F 
ATOM     72  F   UNL A   1      47.425  26.398  36.103  1.00  0.00    -0.200 F 
ENDBRANCH  39  62
ENDBRANCH  13  14
ENDBRANCH   6   8
ENDBRANCH   3   4
ENDBRANCH   2   3
ENDBRANCH   1   2
BRANCH   1  73
ATOM     73  C   UNL A   1      32.684  29.584  26.955  1.00  0.00     0.002 C 
BRANCH  73  74
ATOM     74  C   UNL A   1      32.093  28.351  27.653  1.00  0.00     0.021 C 
BRANCH  74  75
ATOM     75  C   UNL A   1      31.149  27.482  26.823  1.00  0.00     0.116 C 
BRANCH  75  76
ATOM     76  N   UNL A   1      31.555  26.095  26.785  1.00  0.00    -0.356 N 
ATOM     77  C   UNL A   1      31.839  25.301  25.718  1.00  0.00     0.229 C 
ATOM     78  H   UNL A   1      31.638  25.660  27.663  1.00  0.00     0.163 HD
ATOM     79  O   UNL A   1      32.558  24.337  25.962  1.00  0.00    -0.275 OA
BRANCH  77  80
ATOM     80  C   UNL A   1      31.260  25.653  24.350  1.00  0.00     0.145 C 
ATOM     81  C   UNL A   1      31.057  24.371  23.529  1.00  0.00     0.276 C 
ATOM     82  C   UNL A   1      32.035  26.640  23.420  1.00  0.00     0.041 C 
ATOM     83  N   UNL A   1      31.894  24.453  22.342  1.00  0.00    -0.327 N 
ATOM     84  C   UNL A   1      32.186  25.858  22.092  1.00  0.00     0.270 C 
ATOM     85  C   UNL A   1      31.175  27.917  23.205  1.00  0.00     0.042 C 
ATOM     86  C   UNL A   1      33.404  27.136  23.932  1.00  0.00     0.042 C 
ATOM     87  H   UNL A   1      31.366  24.083  21.553  1.00  0.00     0.348 HD
ATOM     88  C   UNL A   1      31.890  28.972  22.364  1.00  0.00     0.161 C 
ATOM     89  C   UNL A   1      34.023  28.204  23.039  1.00  0.00     0.161 C 
ATOM     90  O   UNL A   1      33.147  29.323  22.931  1.00  0.00    -0.381 OA
BRANCH  83  91
ATOM     91  C   UNL A   1      33.037  23.531  22.278  1.00  0.00     0.338 C 
BRANCH  91  92
ATOM     92  C   UNL A   1      32.883  22.206  22.941  1.00  0.00     0.157 A 
ATOM     93  C   UNL A   1      32.114  21.091  22.666  1.00  0.00     0.052 A 
ATOM     94  O   UNL A   1      33.672  21.962  24.029  1.00  0.00    -0.463 OA
ATOM     95  C   UNL A   1      32.390  20.149  23.686  1.00  0.00     0.042 A 
ATOM     96  C   UNL A   1      33.352  20.721  24.482  1.00  0.00     0.195 A 
ENDBRANCH  91  92
ENDBRANCH  83  91
ENDBRANCH  77  80
ENDBRANCH  75  76
ENDBRANCH  74  75
ENDBRANCH  73  74
ENDBRANCH   1  73
TORSDOF 15
ENDMDL
MODEL 3
REMARK VINA RESULT:     -12.2      1.190      7.330
REMARK SMILES O=C(NCCCCCCNC(=O)[C@@H]1C[N@H+](Cc2ccco2)CC12CCOCC2)c1ccc(-c2c3nc(c(-c4c(F)c(F)c(F)c(F)c4F)c4ccc([nH]4)c(-c4c(F)c(F)c(F)c(F)c4F)c4nc(c(-c5c(F)c(F)c(F)c(F)c5F)c5ccc2[nH]5)C=C4)C=C3)cc1
REMARK SMILES IDX 6 1 5 2 4 3 3 4 1 5 2 6 29 8 30 9 91 10 31 11 90 12 32 13
REMARK SMILES IDX 33 14 34 15 84 16 35 17 89 18 83 19 85 20 36 21 88 22 82 23
REMARK SMILES IDX 81 24 37 26 69 27 49 28 68 29 50 30 53 31 67 32 86 33 51 34
REMARK SMILES IDX 52 35 66 37 87 38 54 39 38 40 39 41 47 42 40 43 41 44 45 45
REMARK SMILES IDX 48 46 42 47 43 48 46 49 44 50 70 51 71 52 79 53 72 54 73 55
REMARK SMILES IDX 77 56 80 57 74 58 75 59 78 60 76 61 55 62 56 63 64 64 57 65
REMARK SMILES IDX 58 66 62 67 65 68 59 69 60 70 63 71 61 72 7 73 8 74 9 75
REMARK SMILES IDX 10 76 11 77 12 79 13 80 14 81 23 82 15 83 22 84 24 85 28 86
REMARK SMILES IDX 25 88 27 89 26 90 16 91 17 92 18 93 21 94 19 95 20 96
REMARK H PARENT 3 7 85 25 53 36 10 78 15 87
REMARK Flexibility Score: inf
ROOT
ATOM      1  C   UNL A   1      31.564  30.520  26.131  1.00  0.00     0.002 C 
ENDROOT
BRANCH   1   2
ATOM      2  C   UNL A   1      31.386  31.990  26.486  1.00  0.00     0.021 C 
BRANCH   2   3
ATOM      3  C   UNL A   1      32.557  32.612  27.227  1.00  0.00     0.116 C 
BRANCH   3   4
ATOM      4  N   UNL A   1      32.356  34.016  27.542  1.00  0.00    -0.352 N 
ATOM      5  O   UNL A   1      32.670  35.934  28.703  1.00  0.00    -0.269 OA
ATOM      6  C   UNL A   1      33.026  34.785  28.463  1.00  0.00     0.251 C 
ATOM      7  H   UNL A   1      31.650  34.475  27.030  1.00  0.00     0.163 HD
BRANCH   6   8
ATOM      8  C   UNL A   1      34.166  34.193  29.193  1.00  0.00     0.039 A 
ATOM      9  C   UNL A   1      35.471  34.387  28.734  1.00  0.00     0.014 A 
ATOM     10  C   UNL A   1      33.922  33.395  30.313  1.00  0.00     0.014 A 
ATOM     11  C   UNL A   1      36.511  33.657  29.292  1.00  0.00     0.010 A 
ATOM     12  C   UNL A   1      34.986  32.741  30.939  1.00  0.00     0.010 A 
ATOM     13  C   UNL A   1      36.284  32.840  30.413  1.00  0.00    -0.014 A 
BRANCH  13  14
ATOM     14  C   UNL A   1      37.437  32.156  31.050  1.00  0.00     0.031 A 
ATOM     15  C   UNL A   1      38.235  31.114  30.317  1.00  0.00     0.074 A 
ATOM     16  C   UNL A   1      37.779  32.516  32.302  1.00  0.00     0.049 A 
ATOM     17  N   UNL A   1      39.283  30.443  30.723  1.00  0.00    -0.248 NA
ATOM     18  C   UNL A   1      37.797  30.775  28.955  1.00  0.00     0.031 C 
ATOM     19  C   UNL A   1      37.070  33.509  33.112  1.00  0.00     0.029 A 
ATOM     20  N   UNL A   1      38.814  32.110  33.104  1.00  0.00    -0.354 N 
ATOM     21  C   UNL A   1      39.617  29.587  29.682  1.00  0.00     0.074 A 
ATOM     22  C   UNL A   1      38.645  29.806  28.631  1.00  0.00     0.031 C 
ATOM     23  C   UNL A   1      37.722  33.678  34.271  1.00  0.00     0.029 A 
ATOM     24  C   UNL A   1      38.850  32.756  34.316  1.00  0.00     0.049 A 
ATOM     25  H   UNL A   1      39.467  31.424  32.838  1.00  0.00     0.167 HD
ATOM     26  C   UNL A   1      40.645  28.706  29.610  1.00  0.00     0.037 A 
ATOM     27  C   UNL A   1      39.688  32.610  35.357  1.00  0.00     0.037 A 
ATOM     28  C   UNL A   1      41.616  28.506  30.657  1.00  0.00     0.049 A 
ATOM     29  C   UNL A   1      40.798  31.606  35.258  1.00  0.00     0.074 A 
ATOM     30  C   UNL A   1      42.718  27.666  30.666  1.00  0.00     0.029 A 
ATOM     31  N   UNL A   1      41.598  29.150  31.887  1.00  0.00    -0.354 N 
ATOM     32  N   UNL A   1      41.126  30.830  34.253  1.00  0.00    -0.248 NA
ATOM     33  C   UNL A   1      41.653  31.452  36.442  1.00  0.00     0.031 C 
ATOM     34  C   UNL A   1      43.334  27.763  31.919  1.00  0.00     0.029 A 
ATOM     35  C   UNL A   1      42.652  28.706  32.671  1.00  0.00     0.049 A 
ATOM     36  H   UNL A   1      40.934  29.823  32.162  1.00  0.00     0.167 HD
ATOM     37  C   UNL A   1      42.236  30.112  34.674  1.00  0.00     0.074 A 
ATOM     38  C   UNL A   1      42.538  30.562  36.017  1.00  0.00     0.031 C 
ATOM     39  C   UNL A   1      42.940  29.165  34.008  1.00  0.00     0.037 A 
BRANCH  26  40
ATOM     40  C   UNL A   1      40.763  27.869  28.366  1.00  0.00     0.064 A 
ATOM     41  C   UNL A   1      41.512  28.290  27.257  1.00  0.00     0.173 A 
ATOM     42  C   UNL A   1      40.150  26.608  28.300  1.00  0.00     0.173 A 
ATOM     43  F   UNL A   1      42.111  29.490  27.264  1.00  0.00    -0.203 F 
ATOM     44  C   UNL A   1      41.620  27.494  26.119  1.00  0.00     0.198 A 
ATOM     45  C   UNL A   1      40.285  25.801  27.173  1.00  0.00     0.198 A 
ATOM     46  F   UNL A   1      39.429  26.151  29.335  1.00  0.00    -0.203 F 
ATOM     47  F   UNL A   1      42.303  27.938  25.055  1.00  0.00    -0.200 F 
ATOM     48  C   UNL A   1      41.012  26.248  26.080  1.00  0.00     0.200 A 
ATOM     49  F   UNL A   1      39.709  24.591  27.143  1.00  0.00    -0.200 F 
ATOM     50  F   UNL A   1      41.123  25.480  24.988  1.00  0.00    -0.200 F 
ENDBRANCH  26  40
BRANCH  27  51
ATOM     51  C   UNL A   1      39.505  33.442  36.574  1.00  0.00     0.064 A 
ATOM     52  C   UNL A   1      40.179  34.661  36.719  1.00  0.00     0.173 A 
ATOM     53  C   UNL A   1      38.642  33.044  37.606  1.00  0.00     0.173 A 
ATOM     54  F   UNL A   1      41.028  35.076  35.766  1.00  0.00    -0.203 F 
ATOM     55  C   UNL A   1      40.010  35.444  37.859  1.00  0.00     0.198 A 
ATOM     56  C   UNL A   1      38.449  33.842  38.730  1.00  0.00     0.198 A 
ATOM     57  F   UNL A   1      37.968  31.888  37.510  1.00  0.00    -0.203 F 
ATOM     58  F   UNL A   1      40.698  36.585  37.993  1.00  0.00    -0.200 F 
ATOM     59  C   UNL A   1      39.139  35.038  38.860  1.00  0.00     0.200 A 
ATOM     60  F   UNL A   1      37.591  33.456  39.684  1.00  0.00    -0.200 F 
ATOM     61  F   UNL A   1      38.968  35.796  39.951  1.00  0.00    -0.200 F 
ENDBRANCH  27  51
BRANCH  39  62
ATOM     62  C   UNL A   1      44.128  28.579  34.714  1.00  0.00     0.064 A 
ATOM     63  C   UNL A   1      44.041  27.376  35.430  1.00  0.00     0.173 A 
ATOM     64  C   UNL A   1      45.372  29.228  34.665  1.00  0.00     0.173 A 
ATOM     65  F   UNL A   1      42.870  26.729  35.523  1.00  0.00    -0.203 F 
ATOM     66  C   UNL A   1      45.149  26.861  36.098  1.00  0.00     0.198 A 
ATOM     67  C   UNL A   1      46.484  28.692  35.306  1.00  0.00     0.198 A 
ATOM     68  F   UNL A   1      45.509  30.379  33.990  1.00  0.00    -0.203 F 
ATOM     69  F   UNL A   1      45.029  25.741  36.824  1.00  0.00    -0.200 F 
ATOM     70  C   UNL A   1      46.370  27.515  36.030  1.00  0.00     0.200 A 
ATOM     71  F   UNL A   1      47.667  29.319  35.230  1.00  0.00    -0.200 F 
ATOM     72  F   UNL A   1      47.435  27.017  36.673  1.00  0.00    -0.200 F 
ENDBRANCH  39  62
ENDBRANCH  13  14
ENDBRANCH   6   8
ENDBRANCH   3   4
ENDBRANCH   2   3
ENDBRANCH   1   2
BRANCH   1  73
ATOM     73  C   UNL A   1      32.756  29.813  26.785  1.00  0.00     0.002 C 
BRANCH  73  74
ATOM     74  C   UNL A   1      32.467  28.507  27.540  1.00  0.00     0.021 C 
BRANCH  74  75
ATOM     75  C   UNL A   1      31.401  27.593  26.939  1.00  0.00     0.116 C 
BRANCH  75  76
ATOM     76  N   UNL A   1      31.812  26.207  26.900  1.00  0.00    -0.356 N 
ATOM     77  C   UNL A   1      31.973  25.377  25.834  1.00  0.00     0.229 C 
ATOM     78  H   UNL A   1      32.004  25.803  27.776  1.00  0.00     0.163 HD
ATOM     79  O   UNL A   1      32.725  24.426  26.023  1.00  0.00    -0.275 OA
BRANCH  77  80
ATOM     80  C   UNL A   1      31.231  25.679  24.534  1.00  0.00     0.145 C 
ATOM     81  C   UNL A   1      30.990  24.373  23.762  1.00  0.00     0.276 C 
ATOM     82  C   UNL A   1      31.856  26.676  23.507  1.00  0.00     0.041 C 
ATOM     83  N   UNL A   1      31.685  24.463  22.488  1.00  0.00    -0.327 N 
ATOM     84  C   UNL A   1      31.889  25.873  22.183  1.00  0.00     0.270 C 
ATOM     85  C   UNL A   1      30.928  27.914  23.370  1.00  0.00     0.042 C 
ATOM     86  C   UNL A   1      33.253  27.234  23.854  1.00  0.00     0.042 C 
ATOM     87  H   UNL A   1      31.087  24.057  21.769  1.00  0.00     0.348 HD
ATOM     88  C   UNL A   1      31.500  28.978  22.436  1.00  0.00     0.161 C 
ATOM     89  C   UNL A   1      33.725  28.306  22.879  1.00  0.00     0.161 C 
ATOM     90  O   UNL A   1      32.798  29.388  22.853  1.00  0.00    -0.381 OA
BRANCH  83  91
ATOM     91  C   UNL A   1      32.849  23.584  22.310  1.00  0.00     0.338 C 
BRANCH  91  92
ATOM     92  C   UNL A   1      32.804  22.249  22.971  1.00  0.00     0.157 A 
ATOM     93  C   UNL A   1      32.082  21.096  22.731  1.00  0.00     0.052 A 
ATOM     94  O   UNL A   1      33.665  22.044  24.011  1.00  0.00    -0.463 OA
ATOM     95  C   UNL A   1      32.465  20.166  23.727  1.00  0.00     0.042 A 
ATOM     96  C   UNL A   1      33.439  20.786  24.472  1.00  0.00     0.195 A 
ENDBRANCH  91  92
ENDBRANCH  83  91
ENDBRANCH  77  80
ENDBRANCH  75  76
ENDBRANCH  74  75
ENDBRANCH  73  74
ENDBRANCH   1  73
TORSDOF 15
ENDMDL
