MODEL 1
REMARK VINA RESULT:     -11.7      0.000      0.000
REMARK SMILES Cc1nc(C)c(C(=O)N[C@@H](CCS(C)(=O)=O)C(=O)NCCCCCCNC(=O)c2ccc(-c3c4nc(c(-c5c(F)c(F)c(F)c(F)c5F)c5ccc([nH]5)c(-c5c(F)c(F)c(F)c(F)c5F)c5nc(c(-c6c(F)c(F)c(F)c(F)c6F)c6ccc3[nH]6)C=C5)C=C4)cc2)s1
REMARK SMILES IDX 22 1 21 2 20 3 19 4 17 5 18 6 10 8 9 9 7 10 8 11 6 13 1 14
REMARK SMILES IDX 2 15 3 16 92 17 4 18 5 19 11 20 12 21 13 22 14 23 15 24
REMARK SMILES IDX 16 25 23 26 24 27 25 28 26 29 27 30 28 32 29 33 30 34 91 35
REMARK SMILES IDX 31 36 90 37 32 38 33 39 34 40 84 41 35 42 89 43 83 44 85 45
REMARK SMILES IDX 36 46 88 47 82 48 81 49 37 51 69 52 49 53 68 54 50 55 53 56
REMARK SMILES IDX 67 57 86 58 51 59 52 60 66 62 87 63 54 64 38 65 39 66 47 67
REMARK SMILES IDX 40 68 41 69 45 70 48 71 42 72 43 73 46 74 44 75 70 76 71 77
REMARK SMILES IDX 79 78 72 79 73 80 77 81 80 82 74 83 75 84 78 85 76 86 55 87
REMARK SMILES IDX 56 88 64 89 57 90 58 91 62 92 65 93 59 94 60 95 63 96 61 97
REMARK H PARENT 19 7 9 12 26 31 85 50 53 61
REMARK Flexibility Score: inf
ROOT
ATOM      1  C   UNL A   1      32.343  29.868  26.989  1.00  0.00     0.002 C 
ENDROOT
BRANCH   1   2
ATOM      2  C   UNL A   1      33.484  29.101  26.308  1.00  0.00     0.021 C 
BRANCH   2   3
ATOM      3  C   UNL A   1      33.353  27.580  26.293  1.00  0.00     0.116 C 
BRANCH   3   4
ATOM      4  N   UNL A   1      32.042  27.113  26.692  1.00  0.00    -0.354 N 
ATOM      5  C   UNL A   1      30.978  26.687  25.959  1.00  0.00     0.242 C 
ATOM      6  O   UNL A   1      30.112  26.023  26.541  1.00  0.00    -0.273 OA
ATOM      7  H   UNL A   1      31.893  27.102  27.665  1.00  0.00     0.163 HD
BRANCH   5   8
ATOM      8  C   UNL A   1      30.849  26.906  24.441  1.00  0.00     0.172 C 
BRANCH   8   9
ATOM      9  N   UNL A   1      30.365  25.727  23.721  1.00  0.00    -0.339 N 
ATOM     10  C   UNL A   1      30.954  24.517  23.401  1.00  0.00     0.263 C 
ATOM     11  O   UNL A   1      30.119  23.638  23.154  1.00  0.00    -0.268 OA
ATOM     12  H   UNL A   1      29.439  25.812  23.400  1.00  0.00     0.164 HD
BRANCH  10  13
ATOM     13  C   UNL A   1      32.392  24.260  23.295  1.00  0.00     0.115 A 
ATOM     14  C   UNL A   1      36.011  22.943  23.978  1.00  0.00     0.079 C 
ATOM     15  C   UNL A   1      34.737  23.583  23.550  1.00  0.00     0.091 A 
ATOM     16  N   UNL A   1      34.651  24.540  22.660  1.00  0.00    -0.246 NA
ATOM     17  S   UNL A   1      33.259  23.135  24.260  1.00  0.00    -0.113 S 
ATOM     18  C   UNL A   1      33.328  24.953  22.518  1.00  0.00     0.061 A 
ATOM     19  C   UNL A   1      33.121  26.107  21.596  1.00  0.00     0.068 C 
ENDBRANCH  10  13
ENDBRANCH   8   9
BRANCH   8  20
ATOM     20  C   UNL A   1      30.225  28.222  23.932  1.00  0.00     0.051 C 
BRANCH  20  21
ATOM     21  C   UNL A   1      29.321  28.256  22.709  1.00  0.00     0.139 C 
BRANCH  21  22
ATOM     22  S   UNL A   1      28.193  29.642  22.563  1.00  0.00     0.147 S 
ATOM     23  C   UNL A   1      28.921  30.985  23.465  1.00  0.00     0.158 C 
ATOM     24  O   UNL A   1      28.169  30.014  21.163  1.00  0.00    -0.229 OA
ATOM     25  O   UNL A   1      26.955  29.319  23.239  1.00  0.00    -0.229 OA
ENDBRANCH  21  22
ENDBRANCH  20  21
ENDBRANCH   8  20
ENDBRANCH   5   8
ENDBRANCH   3   4
ENDBRANCH   2   3
ENDBRANCH   1   2
BRANCH   1  26
ATOM     26  C   UNL A   1      31.547  30.850  26.126  1.00  0.00     0.002 C 
BRANCH  26  27
ATOM     27  C   UNL A   1      31.351  32.255  26.688  1.00  0.00     0.021 C 
BRANCH  27  28
ATOM     28  C   UNL A   1      32.626  32.939  27.151  1.00  0.00     0.116 C 
BRANCH  28  29
ATOM     29  N   UNL A   1      32.397  34.275  27.676  1.00  0.00    -0.352 N 
ATOM     30  C   UNL A   1      33.037  34.927  28.698  1.00  0.00     0.251 C 
ATOM     31  H   UNL A   1      31.678  34.784  27.235  1.00  0.00     0.163 HD
ATOM     32  O   UNL A   1      32.628  36.012  29.097  1.00  0.00    -0.269 OA
BRANCH  30  33
ATOM     33  C   UNL A   1      34.210  34.300  29.343  1.00  0.00     0.039 A 
ATOM     34  C   UNL A   1      33.997  33.386  30.377  1.00  0.00     0.014 A 
ATOM     35  C   UNL A   1      35.510  34.606  28.931  1.00  0.00     0.014 A 
ATOM     36  C   UNL A   1      35.087  32.745  30.966  1.00  0.00     0.010 A 
ATOM     37  C   UNL A   1      36.587  33.897  29.453  1.00  0.00     0.010 A 
ATOM     38  C   UNL A   1      36.388  32.973  30.489  1.00  0.00    -0.014 A 
BRANCH  38  39
ATOM     39  C   UNL A   1      37.554  32.272  31.082  1.00  0.00     0.031 A 
ATOM     40  C   UNL A   1      38.043  32.654  32.452  1.00  0.00     0.074 A 
ATOM     41  C   UNL A   1      38.198  31.327  30.369  1.00  0.00     0.049 A 
ATOM     42  N   UNL A   1      39.064  32.189  33.127  1.00  0.00    -0.248 NA
ATOM     43  C   UNL A   1      37.302  33.719  33.148  1.00  0.00     0.031 C 
ATOM     44  C   UNL A   1      37.847  30.908  29.012  1.00  0.00     0.029 A 
ATOM     45  N   UNL A   1      39.284  30.552  30.688  1.00  0.00    -0.354 N 
ATOM     46  C   UNL A   1      39.093  32.911  34.313  1.00  0.00     0.074 A 
ATOM     47  C   UNL A   1      38.032  33.889  34.240  1.00  0.00     0.031 C 
ATOM     48  C   UNL A   1      38.681  29.928  28.626  1.00  0.00     0.029 A 
ATOM     49  C   UNL A   1      39.648  29.681  29.690  1.00  0.00     0.049 A 
ATOM     50  H   UNL A   1      39.756  30.612  31.549  1.00  0.00     0.167 HD
ATOM     51  C   UNL A   1      39.912  32.753  35.380  1.00  0.00     0.037 A 
ATOM     52  C   UNL A   1      40.654  28.787  29.640  1.00  0.00     0.037 A 
ATOM     53  C   UNL A   1      40.955  31.762  35.453  1.00  0.00     0.049 A 
ATOM     54  C   UNL A   1      41.558  28.639  30.835  1.00  0.00     0.074 A 
ATOM     55  C   UNL A   1      41.809  31.485  36.506  1.00  0.00     0.029 A 
ATOM     56  N   UNL A   1      41.288  30.890  34.427  1.00  0.00    -0.354 N 
ATOM     57  N   UNL A   1      41.533  29.279  31.979  1.00  0.00    -0.248 NA
ATOM     58  C   UNL A   1      42.626  27.634  30.735  1.00  0.00     0.031 C 
ATOM     59  C   UNL A   1      42.695  30.484  36.096  1.00  0.00     0.029 A 
ATOM     60  C   UNL A   1      42.350  30.090  34.814  1.00  0.00     0.049 A 
ATOM     61  H   UNL A   1      40.836  30.846  33.554  1.00  0.00     0.167 HD
ATOM     62  C   UNL A   1      42.552  28.731  32.747  1.00  0.00     0.074 A 
ATOM     63  C   UNL A   1      43.167  27.696  31.943  1.00  0.00     0.031 C 
ATOM     64  C   UNL A   1      42.944  29.055  34.004  1.00  0.00     0.037 A 
BRANCH  51  65
ATOM     65  C   UNL A   1      39.713  33.669  36.553  1.00  0.00     0.064 A 
ATOM     66  C   UNL A   1      40.338  34.924  36.626  1.00  0.00     0.173 A 
ATOM     67  C   UNL A   1      38.860  33.303  37.605  1.00  0.00     0.173 A 
ATOM     68  F   UNL A   1      41.173  35.320  35.654  1.00  0.00    -0.203 F 
ATOM     69  C   UNL A   1      40.142  35.762  37.721  1.00  0.00     0.198 A 
ATOM     70  C   UNL A   1      38.637  34.159  38.682  1.00  0.00     0.198 A 
ATOM     71  F   UNL A   1      38.232  32.117  37.587  1.00  0.00    -0.203 F 
ATOM     72  F   UNL A   1      40.794  36.932  37.794  1.00  0.00    -0.200 F 
ATOM     73  C   UNL A   1      39.286  35.383  38.743  1.00  0.00     0.200 A 
ATOM     74  F   UNL A   1      37.798  33.797  39.662  1.00  0.00    -0.200 F 
ATOM     75  F   UNL A   1      39.090  36.194  39.792  1.00  0.00    -0.200 F 
ENDBRANCH  51  65
BRANCH  52  76
ATOM     76  C   UNL A   1      40.845  27.945  28.429  1.00  0.00     0.064 A 
ATOM     77  C   UNL A   1      41.623  28.395  27.351  1.00  0.00     0.173 A 
ATOM     78  C   UNL A   1      40.244  26.683  28.315  1.00  0.00     0.173 A 
ATOM     79  F   UNL A   1      42.203  29.604  27.403  1.00  0.00    -0.203 F 
ATOM     80  C   UNL A   1      41.766  27.629  26.197  1.00  0.00     0.198 A 
ATOM     81  C   UNL A   1      40.417  25.903  27.173  1.00  0.00     0.198 A 
ATOM     82  F   UNL A   1      39.496  26.202  29.318  1.00  0.00    -0.203 F 
ATOM     83  F   UNL A   1      42.467  28.109  25.160  1.00  0.00    -0.200 F 
ATOM     84  C   UNL A   1      41.169  26.381  26.110  1.00  0.00     0.200 A 
ATOM     85  F   UNL A   1      39.851  24.691  27.101  1.00  0.00    -0.200 F 
ATOM     86  F   UNL A   1      41.307  25.644  25.001  1.00  0.00    -0.200 F 
ENDBRANCH  52  76
BRANCH  64  87
ATOM     87  C   UNL A   1      44.056  28.245  34.609  1.00  0.00     0.064 A 
ATOM     88  C   UNL A   1      45.397  28.646  34.522  1.00  0.00     0.173 A 
ATOM     89  C   UNL A   1      43.768  27.064  35.309  1.00  0.00     0.173 A 
ATOM     90  F   UNL A   1      45.729  29.760  33.853  1.00  0.00    -0.203 F 
ATOM     91  C   UNL A   1      46.413  27.873  35.083  1.00  0.00     0.198 A 
ATOM     92  C   UNL A   1      44.782  26.314  35.900  1.00  0.00     0.198 A 
ATOM     93  F   UNL A   1      42.502  26.639  35.430  1.00  0.00    -0.203 F 
ATOM     94  F   UNL A   1      47.692  28.243  34.933  1.00  0.00    -0.200 F 
ATOM     95  C   UNL A   1      46.103  26.714  35.777  1.00  0.00     0.200 A 
ATOM     96  F   UNL A   1      44.478  25.204  36.586  1.00  0.00    -0.200 F 
ATOM     97  F   UNL A   1      47.081  25.975  36.319  1.00  0.00    -0.200 F 
ENDBRANCH  64  87
ENDBRANCH  38  39
ENDBRANCH  30  33
ENDBRANCH  28  29
ENDBRANCH  27  28
ENDBRANCH  26  27
ENDBRANCH   1  26
TORSDOF 18
ENDMDL
MODEL 2
REMARK VINA RESULT:     -11.6      5.442     10.009
REMARK SMILES Cc1nc(C)c(C(=O)N[C@@H](CCS(C)(=O)=O)C(=O)NCCCCCCNC(=O)c2ccc(-c3c4nc(c(-c5c(F)c(F)c(F)c(F)c5F)c5ccc([nH]5)c(-c5c(F)c(F)c(F)c(F)c5F)c5nc(c(-c6c(F)c(F)c(F)c(F)c6F)c6ccc3[nH]6)C=C5)C=C4)cc2)s1
REMARK SMILES IDX 22 1 21 2 20 3 19 4 17 5 18 6 10 8 9 9 7 10 8 11 6 13 1 14
REMARK SMILES IDX 2 15 3 16 92 17 4 18 5 19 11 20 12 21 13 22 14 23 15 24
REMARK SMILES IDX 16 25 23 26 24 27 25 28 26 29 27 30 28 32 29 33 30 34 91 35
REMARK SMILES IDX 31 36 90 37 32 38 33 39 34 40 84 41 35 42 89 43 83 44 85 45
REMARK SMILES IDX 36 46 88 47 82 48 81 49 37 51 69 52 49 53 68 54 50 55 53 56
REMARK SMILES IDX 67 57 86 58 51 59 52 60 66 62 87 63 54 64 38 65 39 66 47 67
REMARK SMILES IDX 40 68 41 69 45 70 48 71 42 72 43 73 46 74 44 75 70 76 71 77
REMARK SMILES IDX 79 78 72 79 73 80 77 81 80 82 74 83 75 84 78 85 76 86 55 87
REMARK SMILES IDX 56 88 64 89 57 90 58 91 62 92 65 93 59 94 60 95 63 96 61 97
REMARK H PARENT 19 7 9 12 26 31 85 50 53 61
REMARK Flexibility Score: inf
ROOT
ATOM      1  C   UNL A   1      37.457  22.139  24.996  1.00  0.00     0.002 C 
ENDROOT
BRANCH   1   2
ATOM      2  C   UNL A   1      36.653  23.048  25.935  1.00  0.00     0.021 C 
BRANCH   2   3
ATOM      3  C   UNL A   1      35.739  24.068  25.260  1.00  0.00     0.116 C 
BRANCH   3   4
ATOM      4  N   UNL A   1      35.446  23.748  23.879  1.00  0.00    -0.354 N 
ATOM      5  C   UNL A   1      34.358  23.170  23.301  1.00  0.00     0.242 C 
ATOM      6  O   UNL A   1      34.208  23.324  22.083  1.00  0.00    -0.273 OA
ATOM      7  H   UNL A   1      36.159  23.991  23.245  1.00  0.00     0.163 HD
BRANCH   5   8
ATOM      8  C   UNL A   1      33.268  22.428  24.094  1.00  0.00     0.172 C 
BRANCH   8   9
ATOM      9  N   UNL A   1      31.908  22.849  23.753  1.00  0.00    -0.339 N 
ATOM     10  C   UNL A   1      31.277  24.080  23.766  1.00  0.00     0.263 C 
ATOM     11  O   UNL A   1      30.277  24.103  23.038  1.00  0.00    -0.268 OA
ATOM     12  H   UNL A   1      31.328  22.111  23.457  1.00  0.00     0.164 HD
BRANCH  10  13
ATOM     13  C   UNL A   1      31.668  25.239  24.571  1.00  0.00     0.115 A 
ATOM     14  C   UNL A   1      31.821  27.947  27.389  1.00  0.00     0.079 C 
ATOM     15  C   UNL A   1      31.925  27.055  26.203  1.00  0.00     0.091 A 
ATOM     16  N   UNL A   1      32.639  27.318  25.138  1.00  0.00    -0.246 NA
ATOM     17  S   UNL A   1      31.040  25.605  26.128  1.00  0.00    -0.113 S 
ATOM     18  C   UNL A   1      32.488  26.307  24.190  1.00  0.00     0.061 A 
ATOM     19  C   UNL A   1      33.184  26.547  22.893  1.00  0.00     0.068 C 
ENDBRANCH  10  13
ENDBRANCH   8   9
BRANCH   8  20
ATOM     20  C   UNL A   1      33.398  20.901  24.281  1.00  0.00     0.051 C 
BRANCH  20  21
ATOM     21  C   UNL A   1      32.394  19.935  23.671  1.00  0.00     0.139 C 
BRANCH  21  22
ATOM     22  S   UNL A   1      32.745  18.183  23.828  1.00  0.00     0.147 S 
ATOM     23  C   UNL A   1      34.463  18.047  24.252  1.00  0.00     0.158 C 
ATOM     24  O   UNL A   1      31.974  17.703  24.956  1.00  0.00    -0.229 OA
ATOM     25  O   UNL A   1      32.592  17.551  22.535  1.00  0.00    -0.229 OA
ENDBRANCH  21  22
ENDBRANCH  20  21
ENDBRANCH   8  20
ENDBRANCH   5   8
ENDBRANCH   3   4
ENDBRANCH   2   3
ENDBRANCH   1   2
BRANCH   1  26
ATOM     26  C   UNL A   1      37.043  20.667  24.923  1.00  0.00     0.002 C 
BRANCH  26  27
ATOM     27  C   UNL A   1      38.163  19.634  25.007  1.00  0.00     0.021 C 
BRANCH  27  28
ATOM     28  C   UNL A   1      39.294  19.996  25.955  1.00  0.00     0.116 C 
BRANCH  28  29
ATOM     29  N   UNL A   1      40.358  19.006  25.976  1.00  0.00    -0.352 N 
ATOM     30  C   UNL A   1      41.710  19.190  26.105  1.00  0.00     0.251 C 
ATOM     31  H   UNL A   1      40.065  18.070  25.883  1.00  0.00     0.163 HD
ATOM     32  O   UNL A   1      42.481  18.245  25.974  1.00  0.00    -0.269 OA
BRANCH  30  33
ATOM     33  C   UNL A   1      42.242  20.542  26.373  1.00  0.00     0.039 A 
ATOM     34  C   UNL A   1      42.621  21.340  25.291  1.00  0.00     0.014 A 
ATOM     35  C   UNL A   1      42.364  21.024  27.679  1.00  0.00     0.014 A 
ATOM     36  C   UNL A   1      43.078  22.638  25.518  1.00  0.00     0.010 A 
ATOM     37  C   UNL A   1      42.730  22.348  27.898  1.00  0.00     0.010 A 
ATOM     38  C   UNL A   1      43.107  23.163  26.820  1.00  0.00    -0.014 A 
BRANCH  38  39
ATOM     39  C   UNL A   1      43.559  24.553  27.074  1.00  0.00     0.031 A 
ATOM     40  C   UNL A   1      42.590  25.574  27.605  1.00  0.00     0.074 A 
ATOM     41  C   UNL A   1      44.827  24.906  26.784  1.00  0.00     0.049 A 
ATOM     42  N   UNL A   1      42.780  26.844  27.856  1.00  0.00    -0.248 NA
ATOM     43  C   UNL A   1      41.216  25.112  27.863  1.00  0.00     0.031 C 
ATOM     44  C   UNL A   1      45.843  24.017  26.219  1.00  0.00     0.029 A 
ATOM     45  N   UNL A   1      45.475  26.108  26.923  1.00  0.00    -0.354 N 
ATOM     46  C   UNL A   1      41.552  27.331  28.287  1.00  0.00     0.074 A 
ATOM     47  C   UNL A   1      40.609  26.239  28.201  1.00  0.00     0.031 C 
ATOM     48  C   UNL A   1      46.995  24.694  26.089  1.00  0.00     0.029 A 
ATOM     49  C   UNL A   1      46.788  26.073  26.522  1.00  0.00     0.049 A 
ATOM     50  H   UNL A   1      45.041  26.917  27.276  1.00  0.00     0.167 HD
ATOM     51  C   UNL A   1      41.246  28.570  28.742  1.00  0.00     0.037 A 
ATOM     52  C   UNL A   1      47.717  27.046  26.502  1.00  0.00     0.037 A 
ATOM     53  C   UNL A   1      42.196  29.646  28.845  1.00  0.00     0.049 A 
ATOM     54  C   UNL A   1      47.348  28.418  27.003  1.00  0.00     0.074 A 
ATOM     55  C   UNL A   1      42.002  30.925  29.338  1.00  0.00     0.029 A 
ATOM     56  N   UNL A   1      43.521  29.571  28.439  1.00  0.00    -0.354 N 
ATOM     57  N   UNL A   1      46.203  28.849  27.474  1.00  0.00    -0.248 NA
ATOM     58  C   UNL A   1      48.407  29.437  26.979  1.00  0.00     0.031 C 
ATOM     59  C   UNL A   1      43.193  31.639  29.179  1.00  0.00     0.029 A 
ATOM     60  C   UNL A   1      44.149  30.787  28.650  1.00  0.00     0.049 A 
ATOM     61  H   UNL A   1      43.951  28.771  28.059  1.00  0.00     0.167 HD
ATOM     62  C   UNL A   1      46.411  30.172  27.836  1.00  0.00     0.074 A 
ATOM     63  C   UNL A   1      47.798  30.469  27.544  1.00  0.00     0.031 C 
ATOM     64  C   UNL A   1      45.535  31.063  28.363  1.00  0.00     0.037 A 
BRANCH  51  65
ATOM     65  C   UNL A   1      39.827  28.825  29.165  1.00  0.00     0.064 A 
ATOM     66  C   UNL A   1      39.407  28.643  30.493  1.00  0.00     0.173 A 
ATOM     67  C   UNL A   1      38.880  29.287  28.239  1.00  0.00     0.173 A 
ATOM     68  F   UNL A   1      40.267  28.192  31.418  1.00  0.00    -0.203 F 
ATOM     69  C   UNL A   1      38.088  28.884  30.869  1.00  0.00     0.198 A 
ATOM     70  C   UNL A   1      37.570  29.562  28.626  1.00  0.00     0.198 A 
ATOM     71  F   UNL A   1      39.226  29.482  26.957  1.00  0.00    -0.203 F 
ATOM     72  F   UNL A   1      37.699  28.650  32.131  1.00  0.00    -0.200 F 
ATOM     73  C   UNL A   1      37.174  29.351  29.938  1.00  0.00     0.200 A 
ATOM     74  F   UNL A   1      36.691  30.027  27.728  1.00  0.00    -0.200 F 
ATOM     75  F   UNL A   1      35.907  29.592  30.302  1.00  0.00    -0.200 F 
ENDBRANCH  51  65
BRANCH  52  76
ATOM     76  C   UNL A   1      49.093  26.756  26.016  1.00  0.00     0.064 A 
ATOM     77  C   UNL A   1      50.079  26.270  26.888  1.00  0.00     0.173 A 
ATOM     78  C   UNL A   1      49.456  26.971  24.679  1.00  0.00     0.173 A 
ATOM     79  F   UNL A   1      49.788  26.067  28.181  1.00  0.00    -0.203 F 
ATOM     80  C   UNL A   1      51.381  26.041  26.447  1.00  0.00     0.198 A 
ATOM     81  C   UNL A   1      50.749  26.708  24.232  1.00  0.00     0.198 A 
ATOM     82  F   UNL A   1      48.550  27.428  23.802  1.00  0.00    -0.203 F 
ATOM     83  F   UNL A   1      52.317  25.633  27.315  1.00  0.00    -0.200 F 
ATOM     84  C   UNL A   1      51.714  26.254  25.118  1.00  0.00     0.200 A 
ATOM     85  F   UNL A   1      51.062  26.900  22.943  1.00  0.00    -0.200 F 
ATOM     86  F   UNL A   1      52.965  26.033  24.694  1.00  0.00    -0.200 F 
ENDBRANCH  52  76
BRANCH  64  87
ATOM     87  C   UNL A   1      46.063  32.427  28.709  1.00  0.00     0.064 A 
ATOM     88  C   UNL A   1      46.632  32.706  29.961  1.00  0.00     0.173 A 
ATOM     89  C   UNL A   1      46.024  33.460  27.762  1.00  0.00     0.173 A 
ATOM     90  F   UNL A   1      46.683  31.757  30.908  1.00  0.00    -0.203 F 
ATOM     91  C   UNL A   1      47.107  33.981  30.262  1.00  0.00     0.198 A 
ATOM     92  C   UNL A   1      46.534  34.722  28.053  1.00  0.00     0.198 A 
ATOM     93  F   UNL A   1      45.499  33.245  26.546  1.00  0.00    -0.203 F 
ATOM     94  F   UNL A   1      47.589  34.241  31.486  1.00  0.00    -0.200 F 
ATOM     95  C   UNL A   1      47.065  34.984  29.307  1.00  0.00     0.200 A 
ATOM     96  F   UNL A   1      46.508  35.685  27.122  1.00  0.00    -0.200 F 
ATOM     97  F   UNL A   1      47.527  36.208  29.597  1.00  0.00    -0.200 F 
ENDBRANCH  64  87
ENDBRANCH  38  39
ENDBRANCH  30  33
ENDBRANCH  28  29
ENDBRANCH  27  28
ENDBRANCH  26  27
ENDBRANCH   1  26
TORSDOF 18
ENDMDL
MODEL 3
REMARK VINA RESULT:     -11.5      5.265     10.962
REMARK SMILES Cc1nc(C)c(C(=O)N[C@@H](CCS(C)(=O)=O)C(=O)NCCCCCCNC(=O)c2ccc(-c3c4nc(c(-c5c(F)c(F)c(F)c(F)c5F)c5ccc([nH]5)c(-c5c(F)c(F)c(F)c(F)c5F)c5nc(c(-c6c(F)c(F)c(F)c(F)c6F)c6ccc3[nH]6)C=C5)C=C4)cc2)s1
REMARK SMILES IDX 22 1 21 2 20 3 19 4 17 5 18 6 10 8 9 9 7 10 8 11 6 13 1 14
REMARK SMILES IDX 2 15 3 16 92 17 4 18 5 19 11 20 12 21 13 22 14 23 15 24
REMARK SMILES IDX 16 25 23 26 24 27 25 28 26 29 27 30 28 32 29 33 30 34 91 35
REMARK SMILES IDX 31 36 90 37 32 38 33 39 34 40 84 41 35 42 89 43 83 44 85 45
REMARK SMILES IDX 36 46 88 47 82 48 81 49 37 51 69 52 49 53 68 54 50 55 53 56
REMARK SMILES IDX 67 57 86 58 51 59 52 60 66 62 87 63 54 64 38 65 39 66 47 67
REMARK SMILES IDX 40 68 41 69 45 70 48 71 42 72 43 73 46 74 44 75 70 76 71 77
REMARK SMILES IDX 79 78 72 79 73 80 77 81 80 82 74 83 75 84 78 85 76 86 55 87
REMARK SMILES IDX 56 88 64 89 57 90 58 91 62 92 65 93 59 94 60 95 63 96 61 97
REMARK H PARENT 19 7 9 12 26 31 85 50 53 61
REMARK Flexibility Score: inf
ROOT
ATOM      1  C   UNL A   1      37.531  22.097  25.000  1.00  0.00     0.002 C 
ENDROOT
BRANCH   1   2
ATOM      2  C   UNL A   1      36.702  22.964  25.956  1.00  0.00     0.021 C 
BRANCH   2   3
ATOM      3  C   UNL A   1      35.815  24.021  25.302  1.00  0.00     0.116 C 
BRANCH   3   4
ATOM      4  N   UNL A   1      35.483  23.719  23.926  1.00  0.00    -0.354 N 
ATOM      5  C   UNL A   1      34.381  23.146  23.371  1.00  0.00     0.242 C 
ATOM      6  O   UNL A   1      34.197  23.316  22.160  1.00  0.00    -0.273 OA
ATOM      7  H   UNL A   1      36.177  23.973  23.275  1.00  0.00     0.163 HD
BRANCH   5   8
ATOM      8  C   UNL A   1      33.316  22.388  24.184  1.00  0.00     0.172 C 
BRANCH   8   9
ATOM      9  N   UNL A   1      31.946  22.804  23.882  1.00  0.00    -0.339 N 
ATOM     10  C   UNL A   1      31.327  24.041  23.851  1.00  0.00     0.263 C 
ATOM     11  O   UNL A   1      30.294  24.032  23.170  1.00  0.00    -0.268 OA
ATOM     12  H   UNL A   1      31.347  22.057  23.657  1.00  0.00     0.164 HD
BRANCH  10  13
ATOM     13  C   UNL A   1      31.764  25.241  24.568  1.00  0.00     0.115 A 
ATOM     14  C   UNL A   1      32.173  28.029  27.280  1.00  0.00     0.079 C 
ATOM     15  C   UNL A   1      32.153  27.111  26.109  1.00  0.00     0.091 A 
ATOM     16  N   UNL A   1      32.688  27.383  24.945  1.00  0.00    -0.246 NA
ATOM     17  S   UNL A   1      31.351  25.614  26.193  1.00  0.00    -0.113 S 
ATOM     18  C   UNL A   1      32.457  26.341  24.050  1.00  0.00     0.061 A 
ATOM     19  C   UNL A   1      32.941  26.582  22.660  1.00  0.00     0.068 C 
ENDBRANCH  10  13
ENDBRANCH   8   9
BRANCH   8  20
ATOM     20  C   UNL A   1      33.460  20.861  24.353  1.00  0.00     0.051 C 
BRANCH  20  21
ATOM     21  C   UNL A   1      32.400  19.899  23.841  1.00  0.00     0.139 C 
BRANCH  21  22
ATOM     22  S   UNL A   1      32.780  18.148  23.915  1.00  0.00     0.147 S 
ATOM     23  C   UNL A   1      34.502  18.020  24.323  1.00  0.00     0.158 C 
ATOM     24  O   UNL A   1      32.024  17.604  25.025  1.00  0.00    -0.229 OA
ATOM     25  O   UNL A   1      32.628  17.573  22.596  1.00  0.00    -0.229 OA
ENDBRANCH  21  22
ENDBRANCH  20  21
ENDBRANCH   8  20
ENDBRANCH   5   8
ENDBRANCH   3   4
ENDBRANCH   2   3
ENDBRANCH   1   2
BRANCH   1  26
ATOM     26  C   UNL A   1      37.115  20.632  24.844  1.00  0.00     0.002 C 
BRANCH  26  27
ATOM     27  C   UNL A   1      38.224  19.588  24.946  1.00  0.00     0.021 C 
BRANCH  27  28
ATOM     28  C   UNL A   1      39.268  19.871  26.014  1.00  0.00     0.116 C 
BRANCH  28  29
ATOM     29  N   UNL A   1      40.397  18.957  25.962  1.00  0.00    -0.352 N 
ATOM     30  C   UNL A   1      41.737  19.227  26.072  1.00  0.00     0.251 C 
ATOM     31  H   UNL A   1      40.167  18.009  25.827  1.00  0.00     0.163 HD
ATOM     32  O   UNL A   1      42.567  18.346  25.877  1.00  0.00    -0.269 OA
BRANCH  30  33
ATOM     33  C   UNL A   1      42.182  20.598  26.399  1.00  0.00     0.039 A 
ATOM     34  C   UNL A   1      42.465  21.478  25.352  1.00  0.00     0.014 A 
ATOM     35  C   UNL A   1      42.316  21.017  27.726  1.00  0.00     0.014 A 
ATOM     36  C   UNL A   1      42.837  22.792  25.637  1.00  0.00     0.010 A 
ATOM     37  C   UNL A   1      42.595  22.350  28.006  1.00  0.00     0.010 A 
ATOM     38  C   UNL A   1      42.876  23.247  26.965  1.00  0.00    -0.014 A 
BRANCH  38  39
ATOM     39  C   UNL A   1      43.237  24.651  27.282  1.00  0.00     0.031 A 
ATOM     40  C   UNL A   1      44.637  25.141  27.033  1.00  0.00     0.074 A 
ATOM     41  C   UNL A   1      42.319  25.467  27.835  1.00  0.00     0.049 A 
ATOM     42  N   UNL A   1      45.159  26.317  27.277  1.00  0.00    -0.248 NA
ATOM     43  C   UNL A   1      45.586  24.174  26.458  1.00  0.00     0.031 C 
ATOM     44  C   UNL A   1      40.945  25.090  28.168  1.00  0.00     0.029 A 
ATOM     45  N   UNL A   1      42.405  26.782  28.216  1.00  0.00    -0.354 N 
ATOM     46  C   UNL A   1      46.492  26.225  26.899  1.00  0.00     0.074 A 
ATOM     47  C   UNL A   1      46.718  24.862  26.471  1.00  0.00     0.031 C 
ATOM     48  C   UNL A   1      40.307  26.158  28.674  1.00  0.00     0.029 A 
ATOM     49  C   UNL A   1      41.237  27.280  28.739  1.00  0.00     0.049 A 
ATOM     50  H   UNL A   1      43.225  27.318  28.123  1.00  0.00     0.167 HD
ATOM     51  C   UNL A   1      47.436  27.196  26.880  1.00  0.00     0.037 A 
ATOM     52  C   UNL A   1      40.952  28.505  29.220  1.00  0.00     0.037 A 
ATOM     53  C   UNL A   1      47.197  28.556  27.288  1.00  0.00     0.049 A 
ATOM     54  C   UNL A   1      42.022  29.564  29.199  1.00  0.00     0.074 A 
ATOM     55  C   UNL A   1      48.069  29.630  27.263  1.00  0.00     0.029 A 
ATOM     56  N   UNL A   1      45.997  29.027  27.802  1.00  0.00    -0.354 N 
ATOM     57  N   UNL A   1      43.260  29.485  28.774  1.00  0.00    -0.248 NA
ATOM     58  C   UNL A   1      41.651  30.889  29.717  1.00  0.00     0.031 C 
ATOM     59  C   UNL A   1      47.415  30.736  27.814  1.00  0.00     0.029 A 
ATOM     60  C   UNL A   1      46.114  30.371  28.119  1.00  0.00     0.049 A 
ATOM     61  H   UNL A   1      45.183  28.487  27.923  1.00  0.00     0.167 HD
ATOM     62  C   UNL A   1      43.803  30.753  28.936  1.00  0.00     0.074 A 
ATOM     63  C   UNL A   1      42.753  31.586  29.486  1.00  0.00     0.031 C 
ATOM     64  C   UNL A   1      45.056  31.189  28.656  1.00  0.00     0.037 A 
BRANCH  51  65
ATOM     65  C   UNL A   1      48.809  26.823  26.402  1.00  0.00     0.064 A 
ATOM     66  C   UNL A   1      49.198  26.991  25.063  1.00  0.00     0.173 A 
ATOM     67  C   UNL A   1      49.764  26.320  27.299  1.00  0.00     0.173 A 
ATOM     68  F   UNL A   1      48.323  27.457  24.160  1.00  0.00    -0.203 F 
ATOM     69  C   UNL A   1      50.476  26.640  24.636  1.00  0.00     0.198 A 
ATOM     70  C   UNL A   1      51.053  26.004  26.877  1.00  0.00     0.198 A 
ATOM     71  F   UNL A   1      49.450  26.142  28.592  1.00  0.00    -0.203 F 
ATOM     72  F   UNL A   1      50.804  26.758  23.341  1.00  0.00    -0.200 F 
ATOM     73  C   UNL A   1      51.404  26.156  25.544  1.00  0.00     0.200 A 
ATOM     74  F   UNL A   1      51.954  25.550  27.759  1.00  0.00    -0.200 F 
ATOM     75  F   UNL A   1      52.638  25.827  25.134  1.00  0.00    -0.200 F 
ENDBRANCH  51  65
BRANCH  52  76
ATOM     76  C   UNL A   1      39.590  28.805  29.738  1.00  0.00     0.064 A 
ATOM     77  C   UNL A   1      38.609  29.366  28.908  1.00  0.00     0.173 A 
ATOM     78  C   UNL A   1      39.246  28.555  31.074  1.00  0.00     0.173 A 
ATOM     79  F   UNL A   1      38.895  29.644  27.627  1.00  0.00    -0.203 F 
ATOM     80  C   UNL A   1      37.348  29.692  29.401  1.00  0.00     0.198 A 
ATOM     81  C   UNL A   1      37.972  28.848  31.557  1.00  0.00     0.198 A 
ATOM     82  F   UNL A   1      40.144  28.013  31.910  1.00  0.00    -0.203 F 
ATOM     83  F   UNL A   1      36.449  30.280  28.600  1.00  0.00    -0.200 F 
ATOM     84  C   UNL A   1      37.027  29.427  30.724  1.00  0.00     0.200 A 
ATOM     85  F   UNL A   1      37.663  28.576  32.833  1.00  0.00    -0.200 F 
ATOM     86  F   UNL A   1      35.814  29.739  31.198  1.00  0.00    -0.200 F 
ENDBRANCH  52  76
BRANCH  64  87
ATOM     87  C   UNL A   1      45.346  32.645  28.888  1.00  0.00     0.064 A 
ATOM     88  C   UNL A   1      45.057  33.621  27.923  1.00  0.00     0.173 A 
ATOM     89  C   UNL A   1      45.895  33.070  30.107  1.00  0.00     0.173 A 
ATOM     90  F   UNL A   1      44.543  33.268  26.735  1.00  0.00    -0.203 F 
ATOM     91  C   UNL A   1      45.344  34.965  28.157  1.00  0.00     0.198 A 
ATOM     92  C   UNL A   1      46.145  34.417  30.352  1.00  0.00     0.198 A 
ATOM     93  F   UNL A   1      46.182  32.179  31.068  1.00  0.00    -0.203 F 
ATOM     94  F   UNL A   1      45.118  35.872  27.196  1.00  0.00    -0.200 F 
ATOM     95  C   UNL A   1      45.879  35.362  29.372  1.00  0.00     0.200 A 
ATOM     96  F   UNL A   1      46.645  34.800  31.534  1.00  0.00    -0.200 F 
ATOM     97  F   UNL A   1      46.149  36.655  29.597  1.00  0.00    -0.200 F 
ENDBRANCH  64  87
ENDBRANCH  38  39
ENDBRANCH  30  33
ENDBRANCH  28  29
ENDBRANCH  27  28
ENDBRANCH  26  27
ENDBRANCH   1  26
TORSDOF 18
ENDMDL
