MODEL 1
REMARK VINA RESULT:     -11.7      0.000      0.000
REMARK SMILES C[C@@H]1CCC[C@@H](N(C)C(=O)N2CCC(CC(=O)NCCCCCCNC(=O)c3ccc(-c4c5nc(c(-c6c(F)c(F)c(F)c(F)c6F)c6ccc([nH]6)c(-c6c(F)c(F)c(F)c(F)c6F)c6nc(c(-c7c(F)c(F)c(F)c(F)c7F)c7ccc4[nH]7)C=C6)C=C5)cc3)CC2)C1
REMARK SMILES IDX 21 1 20 2 19 3 18 4 16 5 17 6 15 8 14 9 9 10 10 11 11 12
REMARK SMILES IDX 12 13 92 14 13 15 91 16 7 17 8 18 6 19 1 20 2 21 3 22 93 23
REMARK SMILES IDX 4 24 5 25 22 26 23 27 24 28 25 29 26 30 27 32 28 33 29 34
REMARK SMILES IDX 90 35 30 36 89 37 31 38 32 39 33 40 83 41 34 42 88 43 82 44
REMARK SMILES IDX 84 45 35 46 87 47 81 48 80 49 36 51 68 52 48 53 67 54 49 55
REMARK SMILES IDX 52 56 66 57 85 58 50 59 51 60 65 62 86 63 53 64 37 65 38 66
REMARK SMILES IDX 46 67 39 68 40 69 44 70 47 71 41 72 42 73 45 74 43 75 69 76
REMARK SMILES IDX 70 77 78 78 71 79 72 80 76 81 79 82 73 83 74 84 77 85 75 86
REMARK SMILES IDX 54 87 55 88 63 89 56 90 57 91 61 92 64 93 58 94 59 95 62 96
REMARK SMILES IDX 60 97
REMARK H PARENT 18 7 25 31 84 50 52 61
REMARK Flexibility Score: inf
ROOT
ATOM      1  C   UNL A   1      34.514  32.333  29.176  1.00  0.00     0.002 C 
ENDROOT
BRANCH   1   2
ATOM      2  C   UNL A   1      35.217  31.468  28.133  1.00  0.00     0.021 C 
BRANCH   2   3
ATOM      3  C   UNL A   1      34.328  30.411  27.465  1.00  0.00     0.116 C 
BRANCH   3   4
ATOM      4  N   UNL A   1      32.994  30.937  27.233  1.00  0.00    -0.356 N 
ATOM      5  C   UNL A   1      32.090  30.668  26.249  1.00  0.00     0.220 C 
ATOM      6  O   UNL A   1      31.068  31.355  26.197  1.00  0.00    -0.275 OA
ATOM      7  H   UNL A   1      32.693  31.599  27.898  1.00  0.00     0.163 HD
BRANCH   5   8
ATOM      8  C   UNL A   1      32.321  29.544  25.249  1.00  0.00     0.103 C 
BRANCH   8   9
ATOM      9  C   UNL A   1      31.752  28.178  25.685  1.00  0.00     0.002 C 
ATOM     10  C   UNL A   1      32.180  24.435  24.318  1.00  0.00     0.319 C 
ATOM     11  O   UNL A   1      32.325  24.763  23.143  1.00  0.00    -0.248 OA
ATOM     12  N   UNL A   1      31.615  25.301  25.238  1.00  0.00    -0.325 N 
ATOM     13  C   UNL A   1      30.496  26.119  24.842  1.00  0.00     0.121 C 
ATOM     14  C   UNL A   1      32.385  25.796  26.372  1.00  0.00     0.121 C 
ATOM     15  C   UNL A   1      30.931  27.542  24.560  1.00  0.00     0.026 C 
ATOM     16  C   UNL A   1      32.886  27.224  26.110  1.00  0.00     0.026 C 
BRANCH  10  17
ATOM     17  N   UNL A   1      32.514  23.185  24.823  1.00  0.00    -0.325 N 
ATOM     18  C   UNL A   1      31.530  22.335  25.485  1.00  0.00     0.149 C 
BRANCH  17  19
ATOM     19  C   UNL A   1      33.857  22.612  24.654  1.00  0.00     0.086 C 
ATOM     20  C   UNL A   1      36.653  22.952  23.193  1.00  0.00     0.008 C 
ATOM     21  C   UNL A   1      36.385  22.946  24.701  1.00  0.00    -0.012 C 
ATOM     22  C   UNL A   1      36.528  21.536  25.301  1.00  0.00     0.003 C 
ATOM     23  C   UNL A   1      35.011  23.553  25.039  1.00  0.00     0.028 C 
ATOM     24  C   UNL A   1      35.344  20.615  25.001  1.00  0.00     0.002 C 
ATOM     25  C   UNL A   1      34.006  21.261  25.361  1.00  0.00     0.025 C 
ENDBRANCH  17  19
ENDBRANCH  10  17
ENDBRANCH   8   9
ENDBRANCH   5   8
ENDBRANCH   3   4
ENDBRANCH   2   3
ENDBRANCH   1   2
BRANCH   1  26
ATOM     26  C   UNL A   1      34.666  33.840  28.973  1.00  0.00     0.002 C 
BRANCH  26  27
ATOM     27  C   UNL A   1      33.356  34.634  28.931  1.00  0.00     0.021 C 
BRANCH  27  28
ATOM     28  C   UNL A   1      33.452  36.067  29.448  1.00  0.00     0.116 C 
BRANCH  28  29
ATOM     29  N   UNL A   1      32.528  36.316  30.544  1.00  0.00    -0.352 N 
ATOM     30  C   UNL A   1      32.529  35.808  31.819  1.00  0.00     0.251 C 
ATOM     31  H   UNL A   1      31.794  36.940  30.341  1.00  0.00     0.163 HD
ATOM     32  O   UNL A   1      31.551  35.944  32.543  1.00  0.00    -0.269 OA
BRANCH  30  33
ATOM     33  C   UNL A   1      33.717  35.085  32.315  1.00  0.00     0.039 A 
ATOM     34  C   UNL A   1      33.565  33.789  32.814  1.00  0.00     0.014 A 
ATOM     35  C   UNL A   1      34.976  35.690  32.296  1.00  0.00     0.014 A 
ATOM     36  C   UNL A   1      34.689  33.076  33.236  1.00  0.00     0.010 A 
ATOM     37  C   UNL A   1      36.102  34.955  32.652  1.00  0.00     0.010 A 
ATOM     38  C   UNL A   1      35.969  33.641  33.128  1.00  0.00    -0.014 A 
BRANCH  38  39
ATOM     39  C   UNL A   1      37.185  32.879  33.505  1.00  0.00     0.031 A 
ATOM     40  C   UNL A   1      37.891  33.179  34.797  1.00  0.00     0.074 A 
ATOM     41  C   UNL A   1      37.693  31.970  32.651  1.00  0.00     0.049 A 
ATOM     42  N   UNL A   1      39.014  32.690  35.262  1.00  0.00    -0.248 NA
ATOM     43  C   UNL A   1      37.267  34.184  35.671  1.00  0.00     0.031 C 
ATOM     44  C   UNL A   1      37.121  31.622  31.349  1.00  0.00     0.029 A 
ATOM     45  N   UNL A   1      38.815  31.184  32.741  1.00  0.00    -0.354 N 
ATOM     46  C   UNL A   1      39.236  33.338  36.470  1.00  0.00     0.074 A 
ATOM     47  C   UNL A   1      38.161  34.291  36.643  1.00  0.00     0.031 C 
ATOM     48  C   UNL A   1      37.886  30.682  30.770  1.00  0.00     0.029 A 
ATOM     49  C   UNL A   1      39.022  30.392  31.638  1.00  0.00     0.049 A 
ATOM     50  H   UNL A   1      39.414  31.188  33.523  1.00  0.00     0.167 HD
ATOM     51  C   UNL A   1      40.234  33.139  37.364  1.00  0.00     0.037 A 
ATOM     52  C   UNL A   1      40.025  29.538  31.355  1.00  0.00     0.037 A 
ATOM     53  C   UNL A   1      41.288  32.173  37.195  1.00  0.00     0.049 A 
ATOM     54  C   UNL A   1      41.131  29.347  32.358  1.00  0.00     0.074 A 
ATOM     55  C   UNL A   1      42.313  31.854  38.067  1.00  0.00     0.029 A 
ATOM     56  N   UNL A   1      41.455  31.375  36.072  1.00  0.00    -0.354 N 
ATOM     57  N   UNL A   1      41.294  29.913  33.529  1.00  0.00    -0.248 NA
ATOM     58  C   UNL A   1      42.190  28.392  32.002  1.00  0.00     0.031 C 
ATOM     59  C   UNL A   1      43.129  30.899  37.452  1.00  0.00     0.029 A 
ATOM     60  C   UNL A   1      42.581  30.580  36.220  1.00  0.00     0.049 A 
ATOM     61  H   UNL A   1      40.861  31.374  35.286  1.00  0.00     0.167 HD
ATOM     62  C   UNL A   1      42.451  29.363  34.063  1.00  0.00     0.074 A 
ATOM     63  C   UNL A   1      42.945  28.408  33.092  1.00  0.00     0.031 C 
ATOM     64  C   UNL A   1      43.050  29.625  35.250  1.00  0.00     0.037 A 
BRANCH  51  65
ATOM     65  C   UNL A   1      40.234  33.981  38.606  1.00  0.00     0.064 A 
ATOM     66  C   UNL A   1      40.950  35.186  38.680  1.00  0.00     0.173 A 
ATOM     67  C   UNL A   1      39.478  33.599  39.725  1.00  0.00     0.173 A 
ATOM     68  F   UNL A   1      41.697  35.593  37.642  1.00  0.00    -0.203 F 
ATOM     69  C   UNL A   1      40.934  35.961  39.837  1.00  0.00     0.198 A 
ATOM     70  C   UNL A   1      39.438  34.393  40.869  1.00  0.00     0.198 A 
ATOM     71  F   UNL A   1      38.768  32.462  39.708  1.00  0.00    -0.203 F 
ATOM     72  F   UNL A   1      41.666  37.081  39.902  1.00  0.00    -0.200 F 
ATOM     73  C   UNL A   1      40.172  35.568  40.928  1.00  0.00     0.200 A 
ATOM     74  F   UNL A   1      38.689  34.020  41.916  1.00  0.00    -0.200 F 
ATOM     75  F   UNL A   1      40.150  36.319  42.037  1.00  0.00    -0.200 F 
ENDBRANCH  51  65
BRANCH  52  76
ATOM     76  C   UNL A   1      40.019  28.784  30.074  1.00  0.00     0.064 A 
ATOM     77  C   UNL A   1      39.422  27.519  29.987  1.00  0.00     0.173 A 
ATOM     78  C   UNL A   1      40.610  29.306  28.915  1.00  0.00     0.173 A 
ATOM     79  F   UNL A   1      38.860  26.967  31.073  1.00  0.00    -0.203 F 
ATOM     80  C   UNL A   1      39.435  26.795  28.796  1.00  0.00     0.198 A 
ATOM     81  C   UNL A   1      40.597  28.596  27.716  1.00  0.00     0.198 A 
ATOM     82  F   UNL A   1      41.191  30.515  28.943  1.00  0.00    -0.203 F 
ATOM     83  F   UNL A   1      38.900  25.569  28.754  1.00  0.00    -0.200 F 
ATOM     84  C   UNL A   1      40.018  27.337  27.660  1.00  0.00     0.200 A 
ATOM     85  F   UNL A   1      41.148  29.128  26.617  1.00  0.00    -0.200 F 
ATOM     86  F   UNL A   1      40.028  26.642  26.514  1.00  0.00    -0.200 F 
ENDBRANCH  52  76
BRANCH  64  87
ATOM     87  C   UNL A   1      44.282  28.837  35.590  1.00  0.00     0.064 A 
ATOM     88  C   UNL A   1      45.567  29.292  35.256  1.00  0.00     0.173 A 
ATOM     89  C   UNL A   1      44.177  27.634  36.306  1.00  0.00     0.173 A 
ATOM     90  F   UNL A   1      45.720  30.428  34.559  1.00  0.00    -0.203 F 
ATOM     91  C   UNL A   1      46.698  28.560  35.607  1.00  0.00     0.198 A 
ATOM     92  C   UNL A   1      45.311  26.922  36.683  1.00  0.00     0.198 A 
ATOM     93  F   UNL A   1      42.972  27.159  36.656  1.00  0.00    -0.203 F 
ATOM     94  F   UNL A   1      47.912  28.991  35.239  1.00  0.00    -0.200 F 
ATOM     95  C   UNL A   1      46.570  27.382  36.328  1.00  0.00     0.200 A 
ATOM     96  F   UNL A   1      45.187  25.792  37.393  1.00  0.00    -0.200 F 
ATOM     97  F   UNL A   1      47.662  26.686  36.675  1.00  0.00    -0.200 F 
ENDBRANCH  64  87
ENDBRANCH  38  39
ENDBRANCH  30  33
ENDBRANCH  28  29
ENDBRANCH  27  28
ENDBRANCH  26  27
ENDBRANCH   1  26
TORSDOF 16
ENDMDL
MODEL 2
REMARK VINA RESULT:     -11.4      1.748      7.673
REMARK SMILES C[C@@H]1CCC[C@@H](N(C)C(=O)N2CCC(CC(=O)NCCCCCCNC(=O)c3ccc(-c4c5nc(c(-c6c(F)c(F)c(F)c(F)c6F)c6ccc([nH]6)c(-c6c(F)c(F)c(F)c(F)c6F)c6nc(c(-c7c(F)c(F)c(F)c(F)c7F)c7ccc4[nH]7)C=C6)C=C5)cc3)CC2)C1
REMARK SMILES IDX 21 1 20 2 19 3 18 4 16 5 17 6 15 8 14 9 9 10 10 11 11 12
REMARK SMILES IDX 12 13 92 14 13 15 91 16 7 17 8 18 6 19 1 20 2 21 3 22 93 23
REMARK SMILES IDX 4 24 5 25 22 26 23 27 24 28 25 29 26 30 27 32 28 33 29 34
REMARK SMILES IDX 90 35 30 36 89 37 31 38 32 39 33 40 83 41 34 42 88 43 82 44
REMARK SMILES IDX 84 45 35 46 87 47 81 48 80 49 36 51 68 52 48 53 67 54 49 55
REMARK SMILES IDX 52 56 66 57 85 58 50 59 51 60 65 62 86 63 53 64 37 65 38 66
REMARK SMILES IDX 46 67 39 68 40 69 44 70 47 71 41 72 42 73 45 74 43 75 69 76
REMARK SMILES IDX 70 77 78 78 71 79 72 80 76 81 79 82 73 83 74 84 77 85 75 86
REMARK SMILES IDX 54 87 55 88 63 89 56 90 57 91 61 92 64 93 58 94 59 95 62 96
REMARK SMILES IDX 60 97
REMARK H PARENT 18 7 25 31 84 50 52 61
REMARK Flexibility Score: inf
ROOT
ATOM      1  C   UNL A   1      32.144  29.844  27.182  1.00  0.00     0.002 C 
ENDROOT
BRANCH   1   2
ATOM      2  C   UNL A   1      32.235  28.375  26.776  1.00  0.00     0.021 C 
BRANCH   2   3
ATOM      3  C   UNL A   1      31.586  28.036  25.428  1.00  0.00     0.116 C 
BRANCH   3   4
ATOM      4  N   UNL A   1      32.602  27.754  24.428  1.00  0.00    -0.356 N 
ATOM      5  C   UNL A   1      32.594  26.896  23.369  1.00  0.00     0.220 C 
ATOM      6  O   UNL A   1      33.644  26.739  22.742  1.00  0.00    -0.275 OA
ATOM      7  H   UNL A   1      33.436  28.268  24.534  1.00  0.00     0.163 HD
BRANCH   5   8
ATOM      8  C   UNL A   1      31.327  26.160  22.956  1.00  0.00     0.103 C 
BRANCH   8   9
ATOM      9  C   UNL A   1      31.379  24.634  23.175  1.00  0.00     0.002 C 
ATOM     10  C   UNL A   1      34.330  22.048  23.988  1.00  0.00     0.319 C 
ATOM     11  O   UNL A   1      35.194  22.673  23.378  1.00  0.00    -0.248 OA
ATOM     12  N   UNL A   1      32.984  22.271  23.751  1.00  0.00    -0.325 N 
ATOM     13  C   UNL A   1      32.534  22.491  22.399  1.00  0.00     0.121 C 
ATOM     14  C   UNL A   1      32.117  22.798  24.796  1.00  0.00     0.121 C 
ATOM     15  C   UNL A   1      32.284  23.962  22.139  1.00  0.00     0.026 C 
ATOM     16  C   UNL A   1      31.872  24.301  24.597  1.00  0.00     0.026 C 
BRANCH  10  17
ATOM     17  N   UNL A   1      34.601  21.051  24.916  1.00  0.00    -0.325 N 
ATOM     18  C   UNL A   1      35.346  21.323  26.140  1.00  0.00     0.149 C 
BRANCH  17  19
ATOM     19  C   UNL A   1      34.088  19.683  24.759  1.00  0.00     0.086 C 
ATOM     20  C   UNL A   1      34.094  17.113  22.898  1.00  0.00     0.008 C 
ATOM     21  C   UNL A   1      34.572  17.212  24.349  1.00  0.00    -0.012 C 
ATOM     22  C   UNL A   1      33.453  16.861  25.345  1.00  0.00     0.003 C 
ATOM     23  C   UNL A   1      35.172  18.597  24.658  1.00  0.00     0.028 C 
ATOM     24  C   UNL A   1      32.415  17.970  25.523  1.00  0.00     0.002 C 
ATOM     25  C   UNL A   1      33.060  19.319  25.835  1.00  0.00     0.025 C 
ENDBRANCH  17  19
ENDBRANCH  10  17
ENDBRANCH   8   9
ENDBRANCH   5   8
ENDBRANCH   3   4
ENDBRANCH   2   3
ENDBRANCH   1   2
BRANCH   1  26
ATOM     26  C   UNL A   1      31.540  30.769  26.127  1.00  0.00     0.002 C 
BRANCH  26  27
ATOM     27  C   UNL A   1      31.386  32.234  26.547  1.00  0.00     0.021 C 
BRANCH  27  28
ATOM     28  C   UNL A   1      32.589  32.827  27.277  1.00  0.00     0.116 C 
BRANCH  28  29
ATOM     29  N   UNL A   1      32.389  34.230  27.608  1.00  0.00    -0.352 N 
ATOM     30  C   UNL A   1      32.977  34.988  28.590  1.00  0.00     0.251 C 
ATOM     31  H   UNL A   1      31.737  34.706  27.043  1.00  0.00     0.163 HD
ATOM     32  O   UNL A   1      32.528  36.091  28.876  1.00  0.00    -0.269 OA
BRANCH  30  33
ATOM     33  C   UNL A   1      34.152  34.462  29.312  1.00  0.00     0.039 A 
ATOM     34  C   UNL A   1      33.972  33.864  30.561  1.00  0.00     0.014 A 
ATOM     35  C   UNL A   1      35.431  34.567  28.758  1.00  0.00     0.014 A 
ATOM     36  C   UNL A   1      35.069  33.316  31.229  1.00  0.00     0.010 A 
ATOM     37  C   UNL A   1      36.511  33.960  29.392  1.00  0.00     0.010 A 
ATOM     38  C   UNL A   1      36.340  33.331  30.634  1.00  0.00    -0.014 A 
BRANCH  38  39
ATOM     39  C   UNL A   1      37.509  32.694  31.292  1.00  0.00     0.031 A 
ATOM     40  C   UNL A   1      38.221  31.554  30.621  1.00  0.00     0.074 A 
ATOM     41  C   UNL A   1      37.880  33.094  32.523  1.00  0.00     0.049 A 
ATOM     42  N   UNL A   1      39.201  30.809  31.070  1.00  0.00    -0.248 NA
ATOM     43  C   UNL A   1      37.752  31.183  29.277  1.00  0.00     0.031 C 
ATOM     44  C   UNL A   1      37.239  34.161  33.294  1.00  0.00     0.029 A 
ATOM     45  N   UNL A   1      38.876  32.639  33.351  1.00  0.00    -0.354 N 
ATOM     46  C   UNL A   1      39.452  29.876  30.073  1.00  0.00     0.074 A 
ATOM     47  C   UNL A   1      38.490  30.114  29.018  1.00  0.00     0.031 C 
ATOM     48  C   UNL A   1      37.867  34.290  34.473  1.00  0.00     0.029 A 
ATOM     49  C   UNL A   1      38.925  33.289  34.561  1.00  0.00     0.049 A 
ATOM     50  H   UNL A   1      39.495  31.916  33.101  1.00  0.00     0.167 HD
ATOM     51  C   UNL A   1      40.412  28.921  30.032  1.00  0.00     0.037 A 
ATOM     52  C   UNL A   1      39.726  33.088  35.625  1.00  0.00     0.037 A 
ATOM     53  C   UNL A   1      41.379  28.704  31.076  1.00  0.00     0.049 A 
ATOM     54  C   UNL A   1      40.775  32.010  35.561  1.00  0.00     0.074 A 
ATOM     55  C   UNL A   1      42.428  27.803  31.107  1.00  0.00     0.029 A 
ATOM     56  N   UNL A   1      41.410  29.395  32.280  1.00  0.00    -0.354 N 
ATOM     57  N   UNL A   1      41.050  31.179  34.585  1.00  0.00    -0.248 NA
ATOM     58  C   UNL A   1      41.629  31.847  36.745  1.00  0.00     0.031 C 
ATOM     59  C   UNL A   1      43.062  27.912  32.348  1.00  0.00     0.029 A 
ATOM     60  C   UNL A   1      42.446  28.922  33.069  1.00  0.00     0.049 A 
ATOM     61  H   UNL A   1      40.787  30.114  32.535  1.00  0.00     0.167 HD
ATOM     62  C   UNL A   1      42.125  30.418  35.022  1.00  0.00     0.074 A 
ATOM     63  C   UNL A   1      42.461  30.894  36.348  1.00  0.00     0.031 C 
ATOM     64  C   UNL A   1      42.776  29.416  34.382  1.00  0.00     0.037 A 
BRANCH  51  65
ATOM     65  C   UNL A   1      40.465  28.039  28.819  1.00  0.00     0.064 A 
ATOM     66  C   UNL A   1      41.230  28.381  27.692  1.00  0.00     0.173 A 
ATOM     67  C   UNL A   1      39.775  26.818  28.795  1.00  0.00     0.173 A 
ATOM     68  F   UNL A   1      41.901  29.542  27.658  1.00  0.00    -0.203 F 
ATOM     69  C   UNL A   1      41.276  27.549  26.577  1.00  0.00     0.198 A 
ATOM     70  C   UNL A   1      39.850  25.973  27.691  1.00  0.00     0.198 A 
ATOM     71  F   UNL A   1      39.035  26.437  29.847  1.00  0.00    -0.203 F 
ATOM     72  F   UNL A   1      41.971  27.921  25.493  1.00  0.00    -0.200 F 
ATOM     73  C   UNL A   1      40.592  26.342  26.579  1.00  0.00     0.200 A 
ATOM     74  F   UNL A   1      39.201  24.800  27.701  1.00  0.00    -0.200 F 
ATOM     75  F   UNL A   1      40.645  25.538  25.509  1.00  0.00    -0.200 F 
ENDBRANCH  51  65
BRANCH  52  76
ATOM     76  C   UNL A   1      39.580  33.939  36.835  1.00  0.00     0.064 A 
ATOM     77  C   UNL A   1      40.222  35.183  36.920  1.00  0.00     0.173 A 
ATOM     78  C   UNL A   1      38.806  33.530  37.929  1.00  0.00     0.173 A 
ATOM     79  F   UNL A   1      40.991  35.611  35.908  1.00  0.00    -0.203 F 
ATOM     80  C   UNL A   1      40.111  35.975  38.062  1.00  0.00     0.198 A 
ATOM     81  C   UNL A   1      38.671  34.335  39.058  1.00  0.00     0.198 A 
ATOM     82  F   UNL A   1      38.167  32.351  37.897  1.00  0.00    -0.203 F 
ATOM     83  F   UNL A   1      40.774  37.136  38.135  1.00  0.00    -0.200 F 
ATOM     84  C   UNL A   1      39.331  35.552  39.127  1.00  0.00     0.200 A 
ATOM     85  F   UNL A   1      37.904  33.931  40.081  1.00  0.00    -0.200 F 
ATOM     86  F   UNL A   1      39.223  36.315  40.224  1.00  0.00    -0.200 F 
ENDBRANCH  52  76
BRANCH  64  87
ATOM     87  C   UNL A   1      43.947  28.794  35.084  1.00  0.00     0.064 A 
ATOM     88  C   UNL A   1      45.242  29.323  34.976  1.00  0.00     0.173 A 
ATOM     89  C   UNL A   1      43.761  27.680  35.919  1.00  0.00     0.173 A 
ATOM     90  F   UNL A   1      45.474  30.377  34.178  1.00  0.00    -0.203 F 
ATOM     91  C   UNL A   1      46.310  28.748  35.659  1.00  0.00     0.198 A 
ATOM     92  C   UNL A   1      44.825  27.129  36.626  1.00  0.00     0.198 A 
ATOM     93  F   UNL A   1      42.542  27.140  36.064  1.00  0.00    -0.203 F 
ATOM     94  F   UNL A   1      47.545  29.244  35.505  1.00  0.00    -0.200 F 
ATOM     95  C   UNL A   1      46.099  27.658  36.491  1.00  0.00     0.200 A 
ATOM     96  F   UNL A   1      44.616  26.085  37.441  1.00  0.00    -0.200 F 
ATOM     97  F   UNL A   1      47.126  27.114  37.157  1.00  0.00    -0.200 F 
ENDBRANCH  64  87
ENDBRANCH  38  39
ENDBRANCH  30  33
ENDBRANCH  28  29
ENDBRANCH  27  28
ENDBRANCH  26  27
ENDBRANCH   1  26
TORSDOF 16
ENDMDL
MODEL 3
REMARK VINA RESULT:     -11.3      6.680     12.493
REMARK SMILES C[C@@H]1CCC[C@@H](N(C)C(=O)N2CCC(CC(=O)NCCCCCCNC(=O)c3ccc(-c4c5nc(c(-c6c(F)c(F)c(F)c(F)c6F)c6ccc([nH]6)c(-c6c(F)c(F)c(F)c(F)c6F)c6nc(c(-c7c(F)c(F)c(F)c(F)c7F)c7ccc4[nH]7)C=C6)C=C5)cc3)CC2)C1
REMARK SMILES IDX 21 1 20 2 19 3 18 4 16 5 17 6 15 8 14 9 9 10 10 11 11 12
REMARK SMILES IDX 12 13 92 14 13 15 91 16 7 17 8 18 6 19 1 20 2 21 3 22 93 23
REMARK SMILES IDX 4 24 5 25 22 26 23 27 24 28 25 29 26 30 27 32 28 33 29 34
REMARK SMILES IDX 90 35 30 36 89 37 31 38 32 39 33 40 83 41 34 42 88 43 82 44
REMARK SMILES IDX 84 45 35 46 87 47 81 48 80 49 36 51 68 52 48 53 67 54 49 55
REMARK SMILES IDX 52 56 66 57 85 58 50 59 51 60 65 62 86 63 53 64 37 65 38 66
REMARK SMILES IDX 46 67 39 68 40 69 44 70 47 71 41 72 42 73 45 74 43 75 69 76
REMARK SMILES IDX 70 77 78 78 71 79 72 80 76 81 79 82 73 83 74 84 77 85 75 86
REMARK SMILES IDX 54 87 55 88 63 89 56 90 57 91 61 92 64 93 58 94 59 95 62 96
REMARK SMILES IDX 60 97
REMARK H PARENT 18 7 25 31 84 50 52 61
REMARK Flexibility Score: inf
ROOT
ATOM      1  C   UNL A   1      40.482  21.660  27.244  1.00  0.00     0.002 C 
ENDROOT
BRANCH   1   2
ATOM      2  C   UNL A   1      39.943  23.046  26.901  1.00  0.00     0.021 C 
BRANCH   2   3
ATOM      3  C   UNL A   1      38.597  23.054  26.165  1.00  0.00     0.116 C 
BRANCH   3   4
ATOM      4  N   UNL A   1      38.449  21.854  25.360  1.00  0.00    -0.356 N 
ATOM      5  C   UNL A   1      37.372  21.042  25.161  1.00  0.00     0.220 C 
ATOM      6  O   UNL A   1      37.541  19.997  24.531  1.00  0.00    -0.275 OA
ATOM      7  H   UNL A   1      39.263  21.581  24.876  1.00  0.00     0.163 HD
BRANCH   5   8
ATOM      8  C   UNL A   1      35.993  21.415  25.687  1.00  0.00     0.103 C 
BRANCH   8   9
ATOM      9  C   UNL A   1      35.097  22.144  24.664  1.00  0.00     0.002 C 
ATOM     10  C   UNL A   1      31.651  24.170  24.944  1.00  0.00     0.319 C 
ATOM     11  O   UNL A   1      31.208  23.503  25.876  1.00  0.00    -0.248 OA
ATOM     12  N   UNL A   1      32.684  23.695  24.154  1.00  0.00    -0.325 N 
ATOM     13  C   UNL A   1      32.705  22.302  23.782  1.00  0.00     0.121 C 
ATOM     14  C   UNL A   1      33.972  24.375  24.117  1.00  0.00     0.121 C 
ATOM     15  C   UNL A   1      33.697  21.527  24.624  1.00  0.00     0.026 C 
ATOM     16  C   UNL A   1      34.999  23.647  24.995  1.00  0.00     0.026 C 
BRANCH  10  17
ATOM     17  N   UNL A   1      31.150  25.409  24.567  1.00  0.00    -0.325 N 
ATOM     18  C   UNL A   1      30.031  25.535  23.639  1.00  0.00     0.149 C 
BRANCH  17  19
ATOM     19  C   UNL A   1      31.666  26.662  25.136  1.00  0.00     0.086 C 
ATOM     20  C   UNL A   1      33.204  29.360  24.489  1.00  0.00     0.008 C 
ATOM     21  C   UNL A   1      31.784  29.208  25.041  1.00  0.00    -0.012 C 
ATOM     22  C   UNL A   1      31.763  29.234  26.580  1.00  0.00     0.003 C 
ATOM     23  C   UNL A   1      31.095  27.940  24.501  1.00  0.00     0.028 C 
ATOM     24  C   UNL A   1      32.244  27.933  27.225  1.00  0.00     0.002 C 
ATOM     25  C   UNL A   1      31.525  26.708  26.661  1.00  0.00     0.025 C 
ENDBRANCH  17  19
ENDBRANCH  10  17
ENDBRANCH   8   9
ENDBRANCH   5   8
ENDBRANCH   3   4
ENDBRANCH   2   3
ENDBRANCH   1   2
BRANCH   1  26
ATOM     26  C   UNL A   1      41.772  21.271  26.523  1.00  0.00     0.002 C 
BRANCH  26  27
ATOM     27  C   UNL A   1      41.817  19.839  25.981  1.00  0.00     0.021 C 
BRANCH  27  28
ATOM     28  C   UNL A   1      43.082  19.057  26.325  1.00  0.00     0.116 C 
BRANCH  28  29
ATOM     29  N   UNL A   1      43.848  18.708  25.139  1.00  0.00    -0.352 N 
ATOM     30  C   UNL A   1      44.558  19.519  24.288  1.00  0.00     0.251 C 
ATOM     31  H   UNL A   1      43.859  17.750  24.913  1.00  0.00     0.163 HD
ATOM     32  O   UNL A   1      44.955  19.093  23.211  1.00  0.00    -0.269 OA
BRANCH  30  33
ATOM     33  C   UNL A   1      44.834  20.917  24.674  1.00  0.00     0.039 A 
ATOM     34  C   UNL A   1      44.440  21.949  23.819  1.00  0.00     0.014 A 
ATOM     35  C   UNL A   1      45.490  21.206  25.873  1.00  0.00     0.014 A 
ATOM     36  C   UNL A   1      44.649  23.277  24.198  1.00  0.00     0.010 A 
ATOM     37  C   UNL A   1      45.635  22.528  26.281  1.00  0.00     0.010 A 
ATOM     38  C   UNL A   1      45.218  23.576  25.446  1.00  0.00    -0.014 A 
BRANCH  38  39
ATOM     39  C   UNL A   1      45.387  24.979  25.901  1.00  0.00     0.031 A 
ATOM     40  C   UNL A   1      46.742  25.627  25.855  1.00  0.00     0.074 A 
ATOM     41  C   UNL A   1      44.337  25.640  26.424  1.00  0.00     0.049 A 
ATOM     42  N   UNL A   1      47.112  26.806  26.289  1.00  0.00    -0.248 NA
ATOM     43  C   UNL A   1      47.832  24.835  25.266  1.00  0.00     0.031 C 
ATOM     44  C   UNL A   1      42.983  25.102  26.562  1.00  0.00     0.029 A 
ATOM     45  N   UNL A   1      44.247  26.904  26.953  1.00  0.00    -0.354 N 
ATOM     46  C   UNL A   1      48.476  26.888  26.041  1.00  0.00     0.074 A 
ATOM     47  C   UNL A   1      48.879  25.622  25.466  1.00  0.00     0.031 C 
ATOM     48  C   UNL A   1      42.195  26.033  27.122  1.00  0.00     0.029 A 
ATOM     49  C   UNL A   1      42.994  27.216  27.422  1.00  0.00     0.049 A 
ATOM     50  H   UNL A   1      45.009  27.527  26.993  1.00  0.00     0.167 HD
ATOM     51  C   UNL A   1      49.312  27.932  26.253  1.00  0.00     0.037 A 
ATOM     52  C   UNL A   1      42.546  28.328  28.036  1.00  0.00     0.037 A 
ATOM     53  C   UNL A   1      48.900  29.196  26.806  1.00  0.00     0.049 A 
ATOM     54  C   UNL A   1      43.499  29.469  28.275  1.00  0.00     0.074 A 
ATOM     55  C   UNL A   1      49.656  30.337  27.007  1.00  0.00     0.029 A 
ATOM     56  N   UNL A   1      47.617  29.483  27.252  1.00  0.00    -0.354 N 
ATOM     57  N   UNL A   1      44.771  29.562  27.973  1.00  0.00    -0.248 NA
ATOM     58  C   UNL A   1      42.951  30.662  28.935  1.00  0.00     0.031 C 
ATOM     59  C   UNL A   1      48.845  31.296  27.621  1.00  0.00     0.029 A 
ATOM     60  C   UNL A   1      47.568  30.775  27.749  1.00  0.00     0.049 A 
ATOM     61  H   UNL A   1      46.856  28.859  27.219  1.00  0.00     0.167 HD
ATOM     62  C   UNL A   1      45.168  30.830  28.375  1.00  0.00     0.074 A 
ATOM     63  C   UNL A   1      43.998  31.476  28.933  1.00  0.00     0.031 C 
ATOM     64  C   UNL A   1      46.391  31.407  28.289  1.00  0.00     0.037 A 
BRANCH  51  65
ATOM     65  C   UNL A   1      50.757  27.753  25.886  1.00  0.00     0.064 A 
ATOM     66  C   UNL A   1      51.213  27.945  24.572  1.00  0.00     0.173 A 
ATOM     67  C   UNL A   1      51.705  27.423  26.866  1.00  0.00     0.173 A 
ATOM     68  F   UNL A   1      50.346  28.252  23.595  1.00  0.00    -0.203 F 
ATOM     69  C   UNL A   1      52.557  27.783  24.249  1.00  0.00     0.198 A 
ATOM     70  C   UNL A   1      53.054  27.294  26.545  1.00  0.00     0.198 A 
ATOM     71  F   UNL A   1      51.327  27.235  28.139  1.00  0.00    -0.203 F 
ATOM     72  F   UNL A   1      52.960  27.922  22.978  1.00  0.00    -0.200 F 
ATOM     73  C   UNL A   1      53.478  27.465  25.235  1.00  0.00     0.200 A 
ATOM     74  F   UNL A   1      53.945  27.002  27.503  1.00  0.00    -0.200 F 
ATOM     75  F   UNL A   1      54.772  27.319  24.924  1.00  0.00    -0.200 F 
ENDBRANCH  51  65
BRANCH  52  76
ATOM     76  C   UNL A   1      41.122  28.425  28.451  1.00  0.00     0.064 A 
ATOM     77  C   UNL A   1      40.153  28.942  27.579  1.00  0.00     0.173 A 
ATOM     78  C   UNL A   1      40.699  28.010  29.721  1.00  0.00     0.173 A 
ATOM     79  F   UNL A   1      40.510  29.372  26.360  1.00  0.00    -0.203 F 
ATOM     80  C   UNL A   1      38.820  29.060  27.971  1.00  0.00     0.198 A 
ATOM     81  C   UNL A   1      39.362  28.100  30.102  1.00  0.00     0.198 A 
ATOM     82  F   UNL A   1      41.586  27.503  30.591  1.00  0.00    -0.203 F 
ATOM     83  F   UNL A   1      37.925  29.602  27.135  1.00  0.00    -0.200 F 
ATOM     84  C   UNL A   1      38.426  28.634  29.229  1.00  0.00     0.200 A 
ATOM     85  F   UNL A   1      38.981  27.674  31.314  1.00  0.00    -0.200 F 
ATOM     86  F   UNL A   1      37.144  28.745  29.604  1.00  0.00    -0.200 F 
ENDBRANCH  52  76
BRANCH  64  87
ATOM     87  C   UNL A   1      46.522  32.824  28.767  1.00  0.00     0.064 A 
ATOM     88  C   UNL A   1      46.890  33.129  30.086  1.00  0.00     0.173 A 
ATOM     89  C   UNL A   1      46.324  33.892  27.877  1.00  0.00     0.173 A 
ATOM     90  F   UNL A   1      47.074  32.144  30.979  1.00  0.00    -0.203 F 
ATOM     91  C   UNL A   1      47.033  34.450  30.502  1.00  0.00     0.198 A 
ATOM     92  C   UNL A   1      46.500  35.209  28.288  1.00  0.00     0.198 A 
ATOM     93  F   UNL A   1      45.979  33.655  26.603  1.00  0.00    -0.203 F 
ATOM     94  F   UNL A   1      47.341  34.718  31.778  1.00  0.00    -0.200 F 
ATOM     95  C   UNL A   1      46.848  35.488  29.600  1.00  0.00     0.200 A 
ATOM     96  F   UNL A   1      46.336  36.210  27.412  1.00  0.00    -0.200 F 
ATOM     97  F   UNL A   1      46.999  36.758  30.000  1.00  0.00    -0.200 F 
ENDBRANCH  64  87
ENDBRANCH  38  39
ENDBRANCH  30  33
ENDBRANCH  28  29
ENDBRANCH  27  28
ENDBRANCH  26  27
ENDBRANCH   1  26
TORSDOF 16
ENDMDL
