MODEL 1
REMARK VINA RESULT:     -11.7      0.000      0.000
REMARK SMILES O=C(NCCCCCCNC(=O)[C@]1(O)C[C@@H]2C=C[C@H]1C2)c1ccc(-c2c3nc(c(-c4c(F)c(F)c(F)c(F)c4F)c4ccc([nH]4)c(-c4c(F)c(F)c(F)c(F)c4F)c4nc(c(-c5c(F)c(F)c(F)c(F)c5F)c5ccc2[nH]5)C=C4)C=C3)cc1
REMARK SMILES IDX 6 1 5 2 4 3 3 4 1 5 2 6 21 8 22 9 83 10 23 11 82 12 24 13
REMARK SMILES IDX 25 14 26 15 76 16 27 17 81 18 75 19 77 20 28 21 80 22 74 23
REMARK SMILES IDX 73 24 29 26 61 27 41 28 60 29 42 30 45 31 59 32 78 33 43 34
REMARK SMILES IDX 44 35 58 37 79 38 46 39 30 40 31 41 39 42 32 43 33 44 37 45
REMARK SMILES IDX 40 46 34 47 35 48 38 49 36 50 62 51 63 52 71 53 64 54 65 55
REMARK SMILES IDX 69 56 72 57 66 58 67 59 70 60 68 61 47 62 48 63 56 64 49 65
REMARK SMILES IDX 50 66 54 67 57 68 51 69 52 70 55 71 53 72 7 73 8 74 9 75
REMARK SMILES IDX 10 76 11 77 12 79 13 80 15 81 19 82 16 83 18 84 20 85 17 86
REMARK SMILES IDX 14 87
REMARK H PARENT 3 7 77 25 45 36 10 78 14 88
REMARK Flexibility Score: inf
ROOT
ATOM      1  C   UNL A   1      37.133  20.980  24.529  1.00  0.00     0.002 C 
ENDROOT
BRANCH   1   2
ATOM      2  C   UNL A   1      37.992  19.808  25.001  1.00  0.00     0.021 C 
BRANCH   2   3
ATOM      3  C   UNL A   1      39.111  20.208  25.950  1.00  0.00     0.116 C 
BRANCH   3   4
ATOM      4  N   UNL A   1      40.155  19.197  26.019  1.00  0.00    -0.352 N 
ATOM      5  O   UNL A   1      42.283  18.435  25.970  1.00  0.00    -0.269 OA
ATOM      6  C   UNL A   1      41.510  19.377  26.124  1.00  0.00     0.251 C 
ATOM      7  H   UNL A   1      39.848  18.263  25.985  1.00  0.00     0.163 HD
BRANCH   6   8
ATOM      8  C   UNL A   1      42.036  20.725  26.418  1.00  0.00     0.039 A 
ATOM      9  C   UNL A   1      42.277  21.625  25.376  1.00  0.00     0.014 A 
ATOM     10  C   UNL A   1      42.279  21.096  27.743  1.00  0.00     0.014 A 
ATOM     11  C   UNL A   1      42.864  22.853  25.647  1.00  0.00     0.010 A 
ATOM     12  C   UNL A   1      42.785  22.367  28.022  1.00  0.00     0.010 A 
ATOM     13  C   UNL A   1      43.087  23.252  26.975  1.00  0.00    -0.014 A 
BRANCH  13  14
ATOM     14  C   UNL A   1      43.502  24.651  27.240  1.00  0.00     0.031 A 
ATOM     15  C   UNL A   1      42.545  25.666  27.792  1.00  0.00     0.074 A 
ATOM     16  C   UNL A   1      44.779  24.988  26.970  1.00  0.00     0.049 A 
ATOM     17  N   UNL A   1      42.759  26.928  28.068  1.00  0.00    -0.248 NA
ATOM     18  C   UNL A   1      41.172  25.216  28.065  1.00  0.00     0.031 C 
ATOM     19  C   UNL A   1      45.786  24.080  26.412  1.00  0.00     0.029 A 
ATOM     20  N   UNL A   1      45.455  26.168  27.134  1.00  0.00    -0.354 N 
ATOM     21  C   UNL A   1      41.548  27.428  28.529  1.00  0.00     0.074 A 
ATOM     22  C   UNL A   1      40.597  26.338  28.483  1.00  0.00     0.031 C 
ATOM     23  C   UNL A   1      46.956  24.725  26.311  1.00  0.00     0.029 A 
ATOM     24  C   UNL A   1      46.765  26.108  26.725  1.00  0.00     0.049 A 
ATOM     25  H   UNL A   1      45.042  26.979  27.507  1.00  0.00     0.167 HD
ATOM     26  C   UNL A   1      41.269  28.684  28.952  1.00  0.00     0.037 A 
ATOM     27  C   UNL A   1      47.703  27.070  26.657  1.00  0.00     0.037 A 
ATOM     28  C   UNL A   1      42.233  29.754  29.007  1.00  0.00     0.049 A 
ATOM     29  C   UNL A   1      47.346  28.458  27.104  1.00  0.00     0.074 A 
ATOM     30  C   UNL A   1      42.062  31.043  29.484  1.00  0.00     0.029 A 
ATOM     31  N   UNL A   1      43.544  29.665  28.562  1.00  0.00    -0.354 N 
ATOM     32  N   UNL A   1      46.216  28.900  27.602  1.00  0.00    -0.248 NA
ATOM     33  C   UNL A   1      48.389  29.482  26.975  1.00  0.00     0.031 C 
ATOM     34  C   UNL A   1      43.249  31.751  29.267  1.00  0.00     0.029 A 
ATOM     35  C   UNL A   1      44.179  30.888  28.713  1.00  0.00     0.049 A 
ATOM     36  H   UNL A   1      43.962  28.854  28.192  1.00  0.00     0.167 HD
ATOM     37  C   UNL A   1      46.416  30.248  27.857  1.00  0.00     0.074 A 
ATOM     38  C   UNL A   1      47.787  30.543  27.491  1.00  0.00     0.031 C 
ATOM     39  C   UNL A   1      45.543  31.164  28.340  1.00  0.00     0.037 A 
BRANCH  26  40
ATOM     40  C   UNL A   1      39.864  28.997  29.377  1.00  0.00     0.064 A 
ATOM     41  C   UNL A   1      38.897  29.440  28.464  1.00  0.00     0.173 A 
ATOM     42  C   UNL A   1      39.454  28.745  30.696  1.00  0.00     0.173 A 
ATOM     43  F   UNL A   1      39.237  29.703  27.193  1.00  0.00    -0.203 F 
ATOM     44  C   UNL A   1      37.572  29.623  28.856  1.00  0.00     0.198 A 
ATOM     45  C   UNL A   1      38.124  28.905  31.079  1.00  0.00     0.198 A 
ATOM     46  F   UNL A   1      40.337  28.313  31.608  1.00  0.00    -0.203 F 
ATOM     47  F   UNL A   1      36.668  30.065  27.971  1.00  0.00    -0.200 F 
ATOM     48  C   UNL A   1      37.185  29.343  30.159  1.00  0.00     0.200 A 
ATOM     49  F   UNL A   1      37.750  28.618  32.333  1.00  0.00    -0.200 F 
ATOM     50  F   UNL A   1      35.905  29.496  30.527  1.00  0.00    -0.200 F 
ENDBRANCH  26  40
BRANCH  27  51
ATOM     51  C   UNL A   1      49.049  26.762  26.107  1.00  0.00     0.064 A 
ATOM     52  C   UNL A   1      50.075  26.275  26.929  1.00  0.00     0.173 A 
ATOM     53  C   UNL A   1      49.345  26.971  24.752  1.00  0.00     0.173 A 
ATOM     54  F   UNL A   1      49.847  26.073  28.235  1.00  0.00    -0.203 F 
ATOM     55  C   UNL A   1      51.352  26.042  26.424  1.00  0.00     0.198 A 
ATOM     56  C   UNL A   1      50.611  26.702  24.240  1.00  0.00     0.198 A 
ATOM     57  F   UNL A   1      48.398  27.430  23.920  1.00  0.00    -0.203 F 
ATOM     58  F   UNL A   1      52.330  25.638  27.245  1.00  0.00    -0.200 F 
ATOM     59  C   UNL A   1      51.617  26.251  25.078  1.00  0.00     0.200 A 
ATOM     60  F   UNL A   1      50.856  26.887  22.935  1.00  0.00    -0.200 F 
ATOM     61  F   UNL A   1      52.846  26.029  24.594  1.00  0.00    -0.200 F 
ENDBRANCH  27  51
BRANCH  39  62
ATOM     62  C   UNL A   1      46.055  32.563  28.517  1.00  0.00     0.064 A 
ATOM     63  C   UNL A   1      45.926  33.525  27.504  1.00  0.00     0.173 A 
ATOM     64  C   UNL A   1      46.662  32.953  29.720  1.00  0.00     0.173 A 
ATOM     65  F   UNL A   1      45.370  33.196  26.328  1.00  0.00    -0.203 F 
ATOM     66  C   UNL A   1      46.415  34.816  27.677  1.00  0.00     0.198 A 
ATOM     67  C   UNL A   1      47.118  34.255  29.903  1.00  0.00     0.198 A 
ATOM     68  F   UNL A   1      46.805  32.072  30.723  1.00  0.00    -0.203 F 
ATOM     69  F   UNL A   1      46.334  35.701  26.675  1.00  0.00    -0.200 F 
ATOM     70  C   UNL A   1      47.003  35.182  28.879  1.00  0.00     0.200 A 
ATOM     71  F   UNL A   1      47.674  34.610  31.070  1.00  0.00    -0.200 F 
ATOM     72  F   UNL A   1      47.468  36.428  29.047  1.00  0.00    -0.200 F 
ENDBRANCH  39  62
ENDBRANCH  13  14
ENDBRANCH   6   8
ENDBRANCH   3   4
ENDBRANCH   2   3
ENDBRANCH   1   2
BRANCH   1  73
ATOM     73  C   UNL A   1      36.923  22.081  25.574  1.00  0.00     0.002 C 
BRANCH  73  74
ATOM     74  C   UNL A   1      35.457  22.481  25.814  1.00  0.00     0.021 C 
BRANCH  74  75
ATOM     75  C   UNL A   1      34.543  21.296  26.133  1.00  0.00     0.116 C 
BRANCH  75  76
ATOM     76  N   UNL A   1      33.488  21.197  25.147  1.00  0.00    -0.354 N 
ATOM     77  C   UNL A   1      33.000  20.092  24.510  1.00  0.00     0.252 C 
ATOM     78  H   UNL A   1      33.062  22.049  24.900  1.00  0.00     0.163 HD
ATOM     79  O   UNL A   1      32.351  20.285  23.480  1.00  0.00    -0.272 OA
BRANCH  77  80
ATOM     80  C   UNL A   1      33.188  18.685  25.144  1.00  0.00     0.149 C 
ATOM     81  C   UNL A   1      34.633  18.113  24.964  1.00  0.00     0.053 C 
ATOM     82  C   UNL A   1      32.328  17.634  24.356  1.00  0.00     0.053 C 
ATOM     83  C   UNL A   1      34.401  16.838  24.121  1.00  0.00     0.015 C 
ATOM     84  C   UNL A   1      32.667  17.702  22.882  1.00  0.00    -0.024 C 
ATOM     85  C   UNL A   1      33.072  16.333  24.688  1.00  0.00     0.019 C 
ATOM     86  C   UNL A   1      33.924  17.251  22.750  1.00  0.00    -0.027 C 
BRANCH  80  87
ATOM     87  O   UNL A   1      32.902  18.657  26.546  1.00  0.00    -0.379 OA
ATOM     88  H   UNL A   1      33.624  18.206  27.013  1.00  0.00     0.212 HD
ENDBRANCH  80  87
ENDBRANCH  77  80
ENDBRANCH  75  76
ENDBRANCH  74  75
ENDBRANCH  73  74
ENDBRANCH   1  73
TORSDOF 14
ENDMDL
MODEL 2
REMARK VINA RESULT:     -11.6      7.112     12.509
REMARK SMILES O=C(NCCCCCCNC(=O)[C@]1(O)C[C@@H]2C=C[C@H]1C2)c1ccc(-c2c3nc(c(-c4c(F)c(F)c(F)c(F)c4F)c4ccc([nH]4)c(-c4c(F)c(F)c(F)c(F)c4F)c4nc(c(-c5c(F)c(F)c(F)c(F)c5F)c5ccc2[nH]5)C=C4)C=C3)cc1
REMARK SMILES IDX 6 1 5 2 4 3 3 4 1 5 2 6 21 8 22 9 83 10 23 11 82 12 24 13
REMARK SMILES IDX 25 14 26 15 76 16 27 17 81 18 75 19 77 20 28 21 80 22 74 23
REMARK SMILES IDX 73 24 29 26 61 27 41 28 60 29 42 30 45 31 59 32 78 33 43 34
REMARK SMILES IDX 44 35 58 37 79 38 46 39 30 40 31 41 39 42 32 43 33 44 37 45
REMARK SMILES IDX 40 46 34 47 35 48 38 49 36 50 62 51 63 52 71 53 64 54 65 55
REMARK SMILES IDX 69 56 72 57 66 58 67 59 70 60 68 61 47 62 48 63 56 64 49 65
REMARK SMILES IDX 50 66 54 67 57 68 51 69 52 70 55 71 53 72 7 73 8 74 9 75
REMARK SMILES IDX 10 76 11 77 12 79 13 80 15 81 19 82 16 83 18 84 20 85 17 86
REMARK SMILES IDX 14 87
REMARK H PARENT 3 7 77 25 45 36 10 78 14 88
REMARK Flexibility Score: inf
ROOT
ATOM      1  C   UNL A   1      34.434  34.118  28.689  1.00  0.00     0.002 C 
ENDROOT
BRANCH   1   2
ATOM      2  C   UNL A   1      33.119  34.872  28.880  1.00  0.00     0.021 C 
BRANCH   2   3
ATOM      3  C   UNL A   1      33.288  36.263  29.474  1.00  0.00     0.116 C 
BRANCH   3   4
ATOM      4  N   UNL A   1      32.469  36.452  30.661  1.00  0.00    -0.352 N 
ATOM      5  O   UNL A   1      31.711  35.961  32.733  1.00  0.00    -0.269 OA
ATOM      6  C   UNL A   1      32.595  35.854  31.888  1.00  0.00     0.251 C 
ATOM      7  H   UNL A   1      31.726  37.092  30.570  1.00  0.00     0.163 HD
BRANCH   6   8
ATOM      8  C   UNL A   1      33.810  35.069  32.184  1.00  0.00     0.039 A 
ATOM      9  C   UNL A   1      35.070  35.665  32.087  1.00  0.00     0.014 A 
ATOM     10  C   UNL A   1      33.688  33.732  32.572  1.00  0.00     0.014 A 
ATOM     11  C   UNL A   1      36.212  34.897  32.267  1.00  0.00     0.010 A 
ATOM     12  C   UNL A   1      34.836  32.984  32.842  1.00  0.00     0.010 A 
ATOM     13  C   UNL A   1      36.107  33.561  32.686  1.00  0.00    -0.014 A 
BRANCH  13  14
ATOM     14  C   UNL A   1      37.338  32.839  33.087  1.00  0.00     0.031 A 
ATOM     15  C   UNL A   1      37.956  31.788  32.214  1.00  0.00     0.074 A 
ATOM     16  C   UNL A   1      37.896  33.161  34.271  1.00  0.00     0.049 A 
ATOM     17  N   UNL A   1      39.026  31.065  32.433  1.00  0.00    -0.248 NA
ATOM     18  C   UNL A   1      37.290  31.500  30.934  1.00  0.00     0.031 C 
ATOM     19  C   UNL A   1      37.362  34.157  35.206  1.00  0.00     0.029 A 
ATOM     20  N   UNL A   1      39.028  32.702  34.890  1.00  0.00    -0.354 N 
ATOM     21  C   UNL A   1      39.153  30.227  31.332  1.00  0.00     0.074 A 
ATOM     22  C   UNL A   1      38.042  30.519  30.451  1.00  0.00     0.031 C 
ATOM     23  C   UNL A   1      38.183  34.258  36.262  1.00  0.00     0.029 A 
ATOM     24  C   UNL A   1      39.256  33.284  36.114  1.00  0.00     0.049 A 
ATOM     25  H   UNL A   1      39.621  32.022  34.497  1.00  0.00     0.167 HD
ATOM     26  C   UNL A   1      40.115  29.305  31.090  1.00  0.00     0.037 A 
ATOM     27  C   UNL A   1      40.205  33.036  37.035  1.00  0.00     0.037 A 
ATOM     28  C   UNL A   1      41.224  29.040  31.972  1.00  0.00     0.049 A 
ATOM     29  C   UNL A   1      41.234  31.983  36.744  1.00  0.00     0.074 A 
ATOM     30  C   UNL A   1      42.286  28.171  31.781  1.00  0.00     0.029 A 
ATOM     31  N   UNL A   1      41.409  29.629  33.214  1.00  0.00    -0.354 N 
ATOM     32  N   UNL A   1      41.381  31.247  35.670  1.00  0.00    -0.248 NA
ATOM     33  C   UNL A   1      42.226  31.721  37.794  1.00  0.00     0.031 C 
ATOM     34  C   UNL A   1      43.077  28.188  32.935  1.00  0.00     0.029 A 
ATOM     35  C   UNL A   1      42.544  29.111  33.819  1.00  0.00     0.049 A 
ATOM     36  H   UNL A   1      40.821  30.313  33.609  1.00  0.00     0.167 HD
ATOM     37  C   UNL A   1      42.487  30.445  35.909  1.00  0.00     0.074 A 
ATOM     38  C   UNL A   1      42.993  30.810  37.216  1.00  0.00     0.031 C 
ATOM     39  C   UNL A   1      43.031  29.485  35.122  1.00  0.00     0.037 A 
BRANCH  26  40
ATOM     40  C   UNL A   1      40.021  28.490  29.833  1.00  0.00     0.064 A 
ATOM     41  C   UNL A   1      40.647  28.890  28.645  1.00  0.00     0.173 A 
ATOM     42  C   UNL A   1      39.387  27.237  29.852  1.00  0.00     0.173 A 
ATOM     43  F   UNL A   1      41.261  30.081  28.571  1.00  0.00    -0.203 F 
ATOM     44  C   UNL A   1      40.638  28.069  27.519  1.00  0.00     0.198 A 
ATOM     45  C   UNL A   1      39.401  26.408  28.732  1.00  0.00     0.198 A 
ATOM     46  F   UNL A   1      38.779  26.803  30.966  1.00  0.00    -0.203 F 
ATOM     47  F   UNL A   1      41.227  28.480  26.387  1.00  0.00    -0.200 F 
ATOM     48  C   UNL A   1      40.026  26.825  27.568  1.00  0.00     0.200 A 
ATOM     49  F   UNL A   1      38.824  25.201  28.788  1.00  0.00    -0.200 F 
ATOM     50  F   UNL A   1      40.041  26.026  26.491  1.00  0.00    -0.200 F 
ENDBRANCH  26  40
BRANCH  27  51
ATOM     51  C   UNL A   1      40.197  33.767  38.329  1.00  0.00     0.064 A 
ATOM     52  C   UNL A   1      41.041  34.864  38.549  1.00  0.00     0.173 A 
ATOM     53  C   UNL A   1      39.361  33.368  39.383  1.00  0.00     0.173 A 
ATOM     54  F   UNL A   1      41.870  35.275  37.578  1.00  0.00    -0.203 F 
ATOM     55  C   UNL A   1      41.074  35.512  39.782  1.00  0.00     0.198 A 
ATOM     56  C   UNL A   1      39.366  34.040  40.602  1.00  0.00     0.198 A 
ATOM     57  F   UNL A   1      38.528  32.328  39.225  1.00  0.00    -0.203 F 
ATOM     58  F   UNL A   1      41.936  36.516  39.985  1.00  0.00    -0.200 F 
ATOM     59  C   UNL A   1      40.232  35.102  40.806  1.00  0.00     0.200 A 
ATOM     60  F   UNL A   1      38.538  33.652  41.582  1.00  0.00    -0.200 F 
ATOM     61  F   UNL A   1      40.266  35.723  41.992  1.00  0.00    -0.200 F 
ENDBRANCH  27  51
BRANCH  39  62
ATOM     62  C   UNL A   1      44.244  28.779  35.652  1.00  0.00     0.064 A 
ATOM     63  C   UNL A   1      44.136  27.614  36.425  1.00  0.00     0.173 A 
ATOM     64  C   UNL A   1      45.530  29.263  35.367  1.00  0.00     0.173 A 
ATOM     65  F   UNL A   1      42.928  27.123  36.741  1.00  0.00    -0.203 F 
ATOM     66  C   UNL A   1      45.270  26.976  36.919  1.00  0.00     0.198 A 
ATOM     67  C   UNL A   1      46.663  28.602  35.834  1.00  0.00     0.198 A 
ATOM     68  F   UNL A   1      45.688  30.372  34.629  1.00  0.00    -0.203 F 
ATOM     69  F   UNL A   1      45.141  25.897  37.704  1.00  0.00    -0.200 F 
ATOM     70  C   UNL A   1      46.532  27.466  36.617  1.00  0.00     0.200 A 
ATOM     71  F   UNL A   1      47.881  29.070  35.529  1.00  0.00    -0.200 F 
ATOM     72  F   UNL A   1      47.623  26.847  37.088  1.00  0.00    -0.200 F 
ENDBRANCH  39  62
ENDBRANCH  13  14
ENDBRANCH   6   8
ENDBRANCH   3   4
ENDBRANCH   2   3
ENDBRANCH   1   2
BRANCH   1  73
ATOM     73  C   UNL A   1      34.400  32.651  29.134  1.00  0.00     0.002 C 
BRANCH  73  74
ATOM     74  C   UNL A   1      34.626  31.625  28.011  1.00  0.00     0.021 C 
BRANCH  74  75
ATOM     75  C   UNL A   1      33.351  31.262  27.247  1.00  0.00     0.116 C 
BRANCH  75  76
ATOM     76  N   UNL A   1      32.899  29.940  27.626  1.00  0.00    -0.354 N 
ATOM     77  C   UNL A   1      32.075  29.082  26.954  1.00  0.00     0.252 C 
ATOM     78  H   UNL A   1      33.233  29.613  28.492  1.00  0.00     0.163 HD
ATOM     79  O   UNL A   1      31.564  28.173  27.612  1.00  0.00    -0.272 OA
BRANCH  77  80
ATOM     80  C   UNL A   1      31.901  29.218  25.415  1.00  0.00     0.149 C 
ATOM     81  C   UNL A   1      31.042  28.072  24.787  1.00  0.00     0.053 C 
ATOM     82  C   UNL A   1      33.286  29.005  24.708  1.00  0.00     0.053 C 
ATOM     83  C   UNL A   1      32.034  27.381  23.823  1.00  0.00     0.015 C 
ATOM     84  C   UNL A   1      33.886  27.686  25.152  1.00  0.00    -0.024 C 
ATOM     85  C   UNL A   1      32.839  28.575  23.304  1.00  0.00     0.019 C 
ATOM     86  C   UNL A   1      33.113  26.716  24.643  1.00  0.00    -0.027 C 
BRANCH  80  87
ATOM     87  O   UNL A   1      31.293  30.453  25.025  1.00  0.00    -0.379 OA
ATOM     88  H   UNL A   1      30.385  30.286  24.728  1.00  0.00     0.212 HD
ENDBRANCH  80  87
ENDBRANCH  77  80
ENDBRANCH  75  76
ENDBRANCH  74  75
ENDBRANCH  73  74
ENDBRANCH   1  73
TORSDOF 14
ENDMDL
MODEL 3
REMARK VINA RESULT:     -11.5      5.474     10.360
REMARK SMILES O=C(NCCCCCCNC(=O)[C@]1(O)C[C@@H]2C=C[C@H]1C2)c1ccc(-c2c3nc(c(-c4c(F)c(F)c(F)c(F)c4F)c4ccc([nH]4)c(-c4c(F)c(F)c(F)c(F)c4F)c4nc(c(-c5c(F)c(F)c(F)c(F)c5F)c5ccc2[nH]5)C=C4)C=C3)cc1
REMARK SMILES IDX 6 1 5 2 4 3 3 4 1 5 2 6 21 8 22 9 83 10 23 11 82 12 24 13
REMARK SMILES IDX 25 14 26 15 76 16 27 17 81 18 75 19 77 20 28 21 80 22 74 23
REMARK SMILES IDX 73 24 29 26 61 27 41 28 60 29 42 30 45 31 59 32 78 33 43 34
REMARK SMILES IDX 44 35 58 37 79 38 46 39 30 40 31 41 39 42 32 43 33 44 37 45
REMARK SMILES IDX 40 46 34 47 35 48 38 49 36 50 62 51 63 52 71 53 64 54 65 55
REMARK SMILES IDX 69 56 72 57 66 58 67 59 70 60 68 61 47 62 48 63 56 64 49 65
REMARK SMILES IDX 50 66 54 67 57 68 51 69 52 70 55 71 53 72 7 73 8 74 9 75
REMARK SMILES IDX 10 76 11 77 12 79 13 80 15 81 19 82 16 83 18 84 20 85 17 86
REMARK SMILES IDX 14 87
REMARK H PARENT 3 7 77 25 45 36 10 78 14 88
REMARK Flexibility Score: inf
ROOT
ATOM      1  C   UNL A   1      36.542  33.667  28.386  1.00  0.00     0.002 C 
ENDROOT
BRANCH   1   2
ATOM      2  C   UNL A   1      35.194  33.624  29.104  1.00  0.00     0.021 C 
BRANCH   2   3
ATOM      3  C   UNL A   1      34.863  32.270  29.712  1.00  0.00     0.116 C 
BRANCH   3   4
ATOM      4  N   UNL A   1      34.223  31.382  28.753  1.00  0.00    -0.352 N 
ATOM      5  O   UNL A   1      34.170  29.847  27.094  1.00  0.00    -0.269 OA
ATOM      6  C   UNL A   1      34.791  30.380  28.009  1.00  0.00     0.251 C 
ATOM      7  H   UNL A   1      33.258  31.520  28.620  1.00  0.00     0.163 HD
BRANCH   6   8
ATOM      8  C   UNL A   1      36.170  29.950  28.315  1.00  0.00     0.039 A 
ATOM      9  C   UNL A   1      37.184  30.119  27.368  1.00  0.00     0.014 A 
ATOM     10  C   UNL A   1      36.455  29.385  29.562  1.00  0.00     0.014 A 
ATOM     11  C   UNL A   1      38.455  29.624  27.622  1.00  0.00     0.010 A 
ATOM     12  C   UNL A   1      37.756  28.969  29.850  1.00  0.00     0.010 A 
ATOM     13  C   UNL A   1      38.764  29.080  28.879  1.00  0.00    -0.014 A 
BRANCH  13  14
ATOM     14  C   UNL A   1      40.179  28.770  29.195  1.00  0.00     0.031 A 
ATOM     15  C   UNL A   1      41.039  29.719  29.975  1.00  0.00     0.074 A 
ATOM     16  C   UNL A   1      40.675  27.595  28.758  1.00  0.00     0.049 A 
ATOM     17  N   UNL A   1      42.295  29.591  30.322  1.00  0.00    -0.248 NA
ATOM     18  C   UNL A   1      40.419  30.976  30.422  1.00  0.00     0.031 C 
ATOM     19  C   UNL A   1      39.928  26.609  27.972  1.00  0.00     0.029 A 
ATOM     20  N   UNL A   1      41.910  27.024  28.914  1.00  0.00    -0.354 N 
ATOM     21  C   UNL A   1      42.623  30.753  31.008  1.00  0.00     0.074 A 
ATOM     22  C   UNL A   1      41.438  31.584  31.019  1.00  0.00     0.031 C 
ATOM     23  C   UNL A   1      40.706  25.542  27.744  1.00  0.00     0.029 A 
ATOM     24  C   UNL A   1      42.028  25.800  28.301  1.00  0.00     0.049 A 
ATOM     25  H   UNL A   1      42.643  27.448  29.416  1.00  0.00     0.167 HD
ATOM     26  C   UNL A   1      43.808  31.083  31.576  1.00  0.00     0.037 A 
ATOM     27  C   UNL A   1      43.092  24.987  28.169  1.00  0.00     0.037 A 
ATOM     28  C   UNL A   1      44.973  30.235  31.571  1.00  0.00     0.049 A 
ATOM     29  C   UNL A   1      44.396  25.404  28.784  1.00  0.00     0.074 A 
ATOM     30  C   UNL A   1      46.199  30.454  32.178  1.00  0.00     0.029 A 
ATOM     31  N   UNL A   1      45.064  29.014  30.919  1.00  0.00    -0.354 N 
ATOM     32  N   UNL A   1      44.673  26.474  29.489  1.00  0.00    -0.248 NA
ATOM     33  C   UNL A   1      45.538  24.504  28.582  1.00  0.00     0.031 C 
ATOM     34  C   UNL A   1      47.050  29.396  31.838  1.00  0.00     0.029 A 
ATOM     35  C   UNL A   1      46.337  28.488  31.073  1.00  0.00     0.049 A 
ATOM     36  H   UNL A   1      44.332  28.583  30.420  1.00  0.00     0.167 HD
ATOM     37  C   UNL A   1      46.014  26.370  29.824  1.00  0.00     0.074 A 
ATOM     38  C   UNL A   1      46.486  25.116  29.275  1.00  0.00     0.031 C 
ATOM     39  C   UNL A   1      46.790  27.239  30.516  1.00  0.00     0.037 A 
BRANCH  26  40
ATOM     40  C   UNL A   1      43.930  32.422  32.242  1.00  0.00     0.064 A 
ATOM     41  C   UNL A   1      44.345  33.561  31.540  1.00  0.00     0.173 A 
ATOM     42  C   UNL A   1      43.519  32.587  33.575  1.00  0.00     0.173 A 
ATOM     43  F   UNL A   1      44.754  33.459  30.266  1.00  0.00    -0.203 F 
ATOM     44  C   UNL A   1      44.351  34.816  32.147  1.00  0.00     0.198 A 
ATOM     45  C   UNL A   1      43.502  33.846  34.172  1.00  0.00     0.198 A 
ATOM     46  F   UNL A   1      43.105  31.531  34.290  1.00  0.00    -0.203 F 
ATOM     47  F   UNL A   1      44.770  35.889  31.462  1.00  0.00    -0.200 F 
ATOM     48  C   UNL A   1      43.917  34.958  33.457  1.00  0.00     0.200 A 
ATOM     49  F   UNL A   1      43.068  33.982  35.431  1.00  0.00    -0.200 F 
ATOM     50  F   UNL A   1      43.899  36.170  34.031  1.00  0.00    -0.200 F 
ENDBRANCH  26  40
BRANCH  27  51
ATOM     51  C   UNL A   1      42.976  23.727  27.391  1.00  0.00     0.064 A 
ATOM     52  C   UNL A   1      42.523  22.543  27.989  1.00  0.00     0.173 A 
ATOM     53  C   UNL A   1      43.340  23.674  26.036  1.00  0.00     0.173 A 
ATOM     54  F   UNL A   1      42.178  22.538  29.285  1.00  0.00    -0.203 F 
ATOM     55  C   UNL A   1      42.471  21.349  27.273  1.00  0.00     0.198 A 
ATOM     56  C   UNL A   1      43.251  22.490  25.311  1.00  0.00     0.198 A 
ATOM     57  F   UNL A   1      43.774  24.780  25.413  1.00  0.00    -0.203 F 
ATOM     58  F   UNL A   1      42.095  20.219  27.886  1.00  0.00    -0.200 F 
ATOM     59  C   UNL A   1      42.829  21.325  25.933  1.00  0.00     0.200 A 
ATOM     60  F   UNL A   1      43.581  22.476  24.012  1.00  0.00    -0.200 F 
ATOM     61  F   UNL A   1      42.781  20.177  25.245  1.00  0.00    -0.200 F 
ENDBRANCH  27  51
BRANCH  39  62
ATOM     62  C   UNL A   1      48.223  26.849  30.730  1.00  0.00     0.064 A 
ATOM     63  C   UNL A   1      48.607  26.022  31.796  1.00  0.00     0.173 A 
ATOM     64  C   UNL A   1      49.221  27.289  29.847  1.00  0.00     0.173 A 
ATOM     65  F   UNL A   1      47.693  25.590  32.678  1.00  0.00    -0.203 F 
ATOM     66  C   UNL A   1      49.941  25.676  31.988  1.00  0.00     0.198 A 
ATOM     67  C   UNL A   1      50.549  26.912  30.021  1.00  0.00     0.198 A 
ATOM     68  F   UNL A   1      48.905  28.078  28.808  1.00  0.00    -0.203 F 
ATOM     69  F   UNL A   1      50.293  24.933  33.046  1.00  0.00    -0.200 F 
ATOM     70  C   UNL A   1      50.909  26.115  31.097  1.00  0.00     0.200 A 
ATOM     71  F   UNL A   1      51.480  27.326  29.151  1.00  0.00    -0.200 F 
ATOM     72  F   UNL A   1      52.193  25.776  31.280  1.00  0.00    -0.200 F 
ENDBRANCH  39  62
ENDBRANCH  13  14
ENDBRANCH   6   8
ENDBRANCH   3   4
ENDBRANCH   2   3
ENDBRANCH   1   2
BRANCH   1  73
ATOM     73  C   UNL A   1      37.725  33.158  29.218  1.00  0.00     0.002 C 
BRANCH  73  74
ATOM     74  C   UNL A   1      38.786  34.219  29.556  1.00  0.00     0.021 C 
BRANCH  74  75
ATOM     75  C   UNL A   1      38.979  34.436  31.059  1.00  0.00     0.116 C 
BRANCH  75  76
ATOM     76  N   UNL A   1      37.815  35.082  31.626  1.00  0.00    -0.354 N 
ATOM     77  C   UNL A   1      37.106  34.757  32.748  1.00  0.00     0.252 C 
ATOM     78  H   UNL A   1      37.486  35.867  31.131  1.00  0.00     0.163 HD
ATOM     79  O   UNL A   1      35.971  35.230  32.845  1.00  0.00    -0.272 OA
BRANCH  77  80
ATOM     80  C   UNL A   1      37.775  33.916  33.872  1.00  0.00     0.149 C 
ATOM     81  C   UNL A   1      39.022  33.110  33.381  1.00  0.00     0.053 C 
ATOM     82  C   UNL A   1      36.804  32.765  34.315  1.00  0.00     0.053 C 
ATOM     83  C   UNL A   1      38.602  31.641  33.614  1.00  0.00     0.015 C 
ATOM     84  C   UNL A   1      36.382  31.960  33.104  1.00  0.00    -0.024 C 
ATOM     85  C   UNL A   1      37.795  31.755  34.910  1.00  0.00     0.019 C 
ATOM     86  C   UNL A   1      37.472  31.311  32.669  1.00  0.00    -0.027 C 
BRANCH  80  87
ATOM     87  O   UNL A   1      38.203  34.706  34.986  1.00  0.00    -0.379 OA
ATOM     88  H   UNL A   1      38.445  34.121  35.721  1.00  0.00     0.212 HD
ENDBRANCH  80  87
ENDBRANCH  77  80
ENDBRANCH  75  76
ENDBRANCH  74  75
ENDBRANCH  73  74
ENDBRANCH   1  73
TORSDOF 14
ENDMDL
