MODEL 1
REMARK VINA RESULT:     -11.8      0.000      0.000
REMARK SMILES COCc1c(C(=O)NCCCCCCNC(=O)c2ccc(-c3c4nc(c(-c5c(F)c(F)c(F)c(F)c5F)c5ccc([nH]5)c(-c5c(F)c(F)c(F)c(F)c5F)c5nc(c(-c6c(F)c(F)c(F)c(F)c6F)c6ccc3[nH]6)C=C5)C=C4)cc2)sc2ccccc12
REMARK SMILES IDX 11 1 10 2 9 3 8 4 6 5 7 6 5 8 4 9 87 10 81 11 82 12 86 13
REMARK SMILES IDX 83 14 85 15 84 16 3 17 2 18 1 19 12 20 13 21 14 22 15 23
REMARK SMILES IDX 16 24 17 26 18 27 19 28 80 29 20 30 79 31 21 32 22 33 23 34
REMARK SMILES IDX 73 35 24 36 78 37 72 38 74 39 25 40 77 41 71 42 70 43 26 45
REMARK SMILES IDX 58 46 38 47 57 48 39 49 42 50 56 51 75 52 40 53 41 54 55 56
REMARK SMILES IDX 76 57 43 58 27 59 28 60 36 61 29 62 30 63 34 64 37 65 31 66
REMARK SMILES IDX 32 67 35 68 33 69 59 70 60 71 68 72 61 73 62 74 66 75 69 76
REMARK SMILES IDX 63 77 64 78 67 79 65 80 44 81 45 82 53 83 46 84 47 85 51 86
REMARK SMILES IDX 54 87 48 88 49 89 52 90 50 91
REMARK H PARENT 8 7 15 25 74 44 42 55
REMARK Flexibility Score: inf
ROOT
ATOM      1  C   UNL A   1      31.889  29.286  27.247  1.00  0.00     0.002 C 
ENDROOT
BRANCH   1   2
ATOM      2  C   UNL A   1      32.936  28.177  27.122  1.00  0.00     0.021 C 
BRANCH   2   3
ATOM      3  C   UNL A   1      33.929  28.324  25.973  1.00  0.00     0.116 C 
BRANCH   3   4
ATOM      4  N   UNL A   1      33.902  27.208  25.050  1.00  0.00    -0.351 N 
ATOM      5  C   UNL A   1      33.038  26.807  24.059  1.00  0.00     0.261 C 
ATOM      6  O   UNL A   1      33.406  25.786  23.467  1.00  0.00    -0.268 OA
ATOM      7  H   UNL A   1      34.671  26.603  25.157  1.00  0.00     0.163 HD
BRANCH   5   8
ATOM      8  C   UNL A   1      31.778  27.475  23.731  1.00  0.00     0.099 A 
ATOM      9  C   UNL A   1      30.491  27.018  24.034  1.00  0.00     0.009 A 
ATOM     10  C   UNL A   1      29.458  27.898  23.500  1.00  0.00    -0.001 A 
ATOM     11  S   UNL A   1      31.706  28.867  22.751  1.00  0.00    -0.130 S 
ATOM     12  C   UNL A   1      30.008  28.988  22.830  1.00  0.00     0.035 A 
ATOM     13  C   UNL A   1      28.041  27.817  23.545  1.00  0.00     0.010 A 
ATOM     14  C   UNL A   1      29.214  30.009  22.271  1.00  0.00     0.019 A 
ATOM     15  C   UNL A   1      27.242  28.804  22.955  1.00  0.00     0.001 A 
ATOM     16  C   UNL A   1      27.826  29.899  22.338  1.00  0.00     0.001 A 
BRANCH   9  17
ATOM     17  C   UNL A   1      30.174  25.753  24.796  1.00  0.00     0.197 C 
BRANCH  17  18
ATOM     18  O   UNL A   1      30.543  25.822  26.176  1.00  0.00    -0.380 OA
ATOM     19  C   UNL A   1      31.396  24.759  26.580  1.00  0.00     0.195 C 
ENDBRANCH  17  18
ENDBRANCH   9  17
ENDBRANCH   5   8
ENDBRANCH   3   4
ENDBRANCH   2   3
ENDBRANCH   1   2
BRANCH   1  20
ATOM     20  C   UNL A   1      31.966  30.407  26.205  1.00  0.00     0.002 C 
BRANCH  20  21
ATOM     21  C   UNL A   1      31.632  31.813  26.707  1.00  0.00     0.021 C 
BRANCH  21  22
ATOM     22  C   UNL A   1      32.797  32.569  27.332  1.00  0.00     0.116 C 
BRANCH  22  23
ATOM     23  N   UNL A   1      32.476  33.965  27.587  1.00  0.00    -0.352 N 
ATOM     24  C   UNL A   1      33.006  34.822  28.519  1.00  0.00     0.251 C 
ATOM     25  H   UNL A   1      31.778  34.350  27.008  1.00  0.00     0.163 HD
ATOM     26  O   UNL A   1      32.487  35.914  28.729  1.00  0.00    -0.269 OA
BRANCH  24  27
ATOM     27  C   UNL A   1      34.196  34.411  29.294  1.00  0.00     0.039 A 
ATOM     28  C   UNL A   1      34.018  33.816  30.545  1.00  0.00     0.014 A 
ATOM     29  C   UNL A   1      35.481  34.593  28.776  1.00  0.00     0.014 A 
ATOM     30  C   UNL A   1      35.125  33.323  31.239  1.00  0.00     0.010 A 
ATOM     31  C   UNL A   1      36.575  34.041  29.435  1.00  0.00     0.010 A 
ATOM     32  C   UNL A   1      36.405  33.389  30.667  1.00  0.00    -0.014 A 
BRANCH  32  33
ATOM     33  C   UNL A   1      37.578  32.750  31.314  1.00  0.00     0.031 A 
ATOM     34  C   UNL A   1      38.278  31.601  30.647  1.00  0.00     0.074 A 
ATOM     35  C   UNL A   1      37.956  33.150  32.543  1.00  0.00     0.049 A 
ATOM     36  N   UNL A   1      39.242  30.841  31.101  1.00  0.00    -0.248 NA
ATOM     37  C   UNL A   1      37.813  31.242  29.298  1.00  0.00     0.031 C 
ATOM     38  C   UNL A   1      37.337  34.235  33.305  1.00  0.00     0.029 A 
ATOM     39  N   UNL A   1      38.940  32.679  33.377  1.00  0.00    -0.354 N 
ATOM     40  C   UNL A   1      39.494  29.913  30.100  1.00  0.00     0.074 A 
ATOM     41  C   UNL A   1      38.546  30.170  29.037  1.00  0.00     0.031 C 
ATOM     42  C   UNL A   1      37.965  34.358  34.485  1.00  0.00     0.029 A 
ATOM     43  C   UNL A   1      38.996  33.330  34.584  1.00  0.00     0.049 A 
ATOM     44  H   UNL A   1      39.548  31.945  33.131  1.00  0.00     0.167 HD
ATOM     45  C   UNL A   1      40.445  28.948  30.064  1.00  0.00     0.037 A 
ATOM     46  C   UNL A   1      39.777  33.110  35.659  1.00  0.00     0.037 A 
ATOM     47  C   UNL A   1      41.389  28.703  31.124  1.00  0.00     0.049 A 
ATOM     48  C   UNL A   1      40.784  31.992  35.619  1.00  0.00     0.074 A 
ATOM     49  C   UNL A   1      42.424  27.785  31.162  1.00  0.00     0.029 A 
ATOM     50  N   UNL A   1      41.404  29.374  32.338  1.00  0.00    -0.354 N 
ATOM     51  N   UNL A   1      41.058  31.161  34.643  1.00  0.00    -0.248 NA
ATOM     52  C   UNL A   1      41.586  31.778  36.831  1.00  0.00     0.031 C 
ATOM     53  C   UNL A   1      43.028  27.861  32.421  1.00  0.00     0.029 A 
ATOM     54  C   UNL A   1      42.408  28.864  33.148  1.00  0.00     0.049 A 
ATOM     55  H   UNL A   1      40.794  30.104  32.589  1.00  0.00     0.167 HD
ATOM     56  C   UNL A   1      42.078  30.344  35.111  1.00  0.00     0.074 A 
ATOM     57  C   UNL A   1      42.384  30.789  36.455  1.00  0.00     0.031 C 
ATOM     58  C   UNL A   1      42.702  29.317  34.484  1.00  0.00     0.037 A 
BRANCH  45  59
ATOM     59  C   UNL A   1      40.505  28.081  28.840  1.00  0.00     0.064 A 
ATOM     60  C   UNL A   1      39.800  26.870  28.759  1.00  0.00     0.173 A 
ATOM     61  C   UNL A   1      41.254  28.477  27.721  1.00  0.00     0.173 A 
ATOM     62  F   UNL A   1      39.075  26.439  29.803  1.00  0.00    -0.203 F 
ATOM     63  C   UNL A   1      39.871  26.072  27.619  1.00  0.00     0.198 A 
ATOM     64  C   UNL A   1      41.296  27.693  26.571  1.00  0.00     0.198 A 
ATOM     65  F   UNL A   1      41.941  29.629  27.741  1.00  0.00    -0.203 F 
ATOM     66  F   UNL A   1      39.233  24.894  27.589  1.00  0.00    -0.200 F 
ATOM     67  C   UNL A   1      40.613  26.487  26.524  1.00  0.00     0.200 A 
ATOM     68  F   UNL A   1      42.002  28.103  25.508  1.00  0.00    -0.200 F 
ATOM     69  F   UNL A   1      40.677  25.721  25.427  1.00  0.00    -0.200 F 
ENDBRANCH  45  59
BRANCH  46  70
ATOM     70  C   UNL A   1      39.643  33.972  36.863  1.00  0.00     0.064 A 
ATOM     71  C   UNL A   1      40.322  35.196  36.948  1.00  0.00     0.173 A 
ATOM     72  C   UNL A   1      38.838  33.596  37.949  1.00  0.00     0.173 A 
ATOM     73  F   UNL A   1      41.120  35.588  35.945  1.00  0.00    -0.203 F 
ATOM     74  C   UNL A   1      40.211  36.003  38.078  1.00  0.00     0.198 A 
ATOM     75  C   UNL A   1      38.706  34.418  39.066  1.00  0.00     0.198 A 
ATOM     76  F   UNL A   1      38.165  32.436  37.918  1.00  0.00    -0.203 F 
ATOM     77  F   UNL A   1      40.904  37.148  38.150  1.00  0.00    -0.200 F 
ATOM     78  C   UNL A   1      39.398  35.618  39.132  1.00  0.00     0.200 A 
ATOM     79  F   UNL A   1      37.907  34.048  40.076  1.00  0.00    -0.200 F 
ATOM     80  F   UNL A   1      39.287  36.398  40.216  1.00  0.00    -0.200 F 
ENDBRANCH  46  70
BRANCH  58  81
ATOM     81  C   UNL A   1      43.797  28.615  35.232  1.00  0.00     0.064 A 
ATOM     82  C   UNL A   1      43.538  27.490  36.029  1.00  0.00     0.173 A 
ATOM     83  C   UNL A   1      45.130  29.035  35.105  1.00  0.00     0.173 A 
ATOM     84  F   UNL A   1      42.278  27.058  36.198  1.00  0.00    -0.203 F 
ATOM     85  C   UNL A   1      44.570  26.822  36.682  1.00  0.00     0.198 A 
ATOM     86  C   UNL A   1      46.163  28.347  35.734  1.00  0.00     0.198 A 
ATOM     87  F   UNL A   1      45.433  30.103  34.350  1.00  0.00    -0.203 F 
ATOM     88  F   UNL A   1      44.294  25.774  37.471  1.00  0.00    -0.200 F 
ATOM     89  C   UNL A   1      45.882  27.244  36.526  1.00  0.00     0.200 A 
ATOM     90  F   UNL A   1      47.431  28.747  35.569  1.00  0.00    -0.200 F 
ATOM     91  F   UNL A   1      46.875  26.590  37.143  1.00  0.00    -0.200 F 
ENDBRANCH  58  81
ENDBRANCH  32  33
ENDBRANCH  24  27
ENDBRANCH  22  23
ENDBRANCH  21  22
ENDBRANCH  20  21
ENDBRANCH   1  20
TORSDOF 15
ENDMDL
MODEL 2
REMARK VINA RESULT:     -11.7      0.545      7.589
REMARK SMILES COCc1c(C(=O)NCCCCCCNC(=O)c2ccc(-c3c4nc(c(-c5c(F)c(F)c(F)c(F)c5F)c5ccc([nH]5)c(-c5c(F)c(F)c(F)c(F)c5F)c5nc(c(-c6c(F)c(F)c(F)c(F)c6F)c6ccc3[nH]6)C=C5)C=C4)cc2)sc2ccccc12
REMARK SMILES IDX 11 1 10 2 9 3 8 4 6 5 7 6 5 8 4 9 87 10 81 11 82 12 86 13
REMARK SMILES IDX 83 14 85 15 84 16 3 17 2 18 1 19 12 20 13 21 14 22 15 23
REMARK SMILES IDX 16 24 17 26 18 27 19 28 80 29 20 30 79 31 21 32 22 33 23 34
REMARK SMILES IDX 73 35 24 36 78 37 72 38 74 39 25 40 77 41 71 42 70 43 26 45
REMARK SMILES IDX 58 46 38 47 57 48 39 49 42 50 56 51 75 52 40 53 41 54 55 56
REMARK SMILES IDX 76 57 43 58 27 59 28 60 36 61 29 62 30 63 34 64 37 65 31 66
REMARK SMILES IDX 32 67 35 68 33 69 59 70 60 71 68 72 61 73 62 74 66 75 69 76
REMARK SMILES IDX 63 77 64 78 67 79 65 80 44 81 45 82 53 83 46 84 47 85 51 86
REMARK SMILES IDX 54 87 48 88 49 89 52 90 50 91
REMARK H PARENT 8 7 15 25 74 44 42 55
REMARK Flexibility Score: inf
ROOT
ATOM      1  C   UNL A   1      31.777  29.536  27.116  1.00  0.00     0.002 C 
ENDROOT
BRANCH   1   2
ATOM      2  C   UNL A   1      33.159  28.900  27.281  1.00  0.00     0.021 C 
BRANCH   2   3
ATOM      3  C   UNL A   1      34.040  28.884  26.036  1.00  0.00     0.116 C 
BRANCH   3   4
ATOM      4  N   UNL A   1      34.003  27.622  25.327  1.00  0.00    -0.351 N 
ATOM      5  C   UNL A   1      33.171  27.084  24.374  1.00  0.00     0.261 C 
ATOM      6  O   UNL A   1      33.517  25.958  23.996  1.00  0.00    -0.268 OA
ATOM      7  H   UNL A   1      34.735  27.016  25.584  1.00  0.00     0.163 HD
BRANCH   5   8
ATOM      8  C   UNL A   1      31.964  27.731  23.859  1.00  0.00     0.099 A 
ATOM      9  C   UNL A   1      30.642  27.368  24.137  1.00  0.00     0.009 A 
ATOM     10  C   UNL A   1      29.684  28.186  23.402  1.00  0.00    -0.001 A 
ATOM     11  S   UNL A   1      32.015  28.955  22.675  1.00  0.00    -0.130 S 
ATOM     12  C   UNL A   1      30.322  29.141  22.613  1.00  0.00     0.035 A 
ATOM     13  C   UNL A   1      28.265  28.158  23.359  1.00  0.00     0.010 A 
ATOM     14  C   UNL A   1      29.610  30.086  21.849  1.00  0.00     0.019 A 
ATOM     15  C   UNL A   1      27.549  29.066  22.569  1.00  0.00     0.001 A 
ATOM     16  C   UNL A   1      28.217  30.032  21.834  1.00  0.00     0.001 A 
BRANCH   9  17
ATOM     17  C   UNL A   1      30.223  26.248  25.060  1.00  0.00     0.197 C 
BRANCH  17  18
ATOM     18  O   UNL A   1      30.323  24.956  24.455  1.00  0.00    -0.380 OA
ATOM     19  C   UNL A   1      30.874  23.974  25.322  1.00  0.00     0.195 C 
ENDBRANCH  17  18
ENDBRANCH   9  17
ENDBRANCH   5   8
ENDBRANCH   3   4
ENDBRANCH   2   3
ENDBRANCH   1   2
BRANCH   1  20
ATOM     20  C   UNL A   1      31.686  30.702  26.127  1.00  0.00     0.002 C 
BRANCH  20  21
ATOM     21  C   UNL A   1      31.462  32.086  26.741  1.00  0.00     0.021 C 
BRANCH  21  22
ATOM     22  C   UNL A   1      32.725  32.797  27.209  1.00  0.00     0.116 C 
BRANCH  22  23
ATOM     23  N   UNL A   1      32.473  34.180  27.583  1.00  0.00    -0.352 N 
ATOM     24  C   UNL A   1      33.021  34.916  28.605  1.00  0.00     0.251 C 
ATOM     25  H   UNL A   1      31.816  34.655  27.025  1.00  0.00     0.163 HD
ATOM     26  O   UNL A   1      32.556  36.012  28.901  1.00  0.00    -0.269 OA
BRANCH  24  27
ATOM     27  C   UNL A   1      34.161  34.369  29.368  1.00  0.00     0.039 A 
ATOM     28  C   UNL A   1      33.912  33.673  30.554  1.00  0.00     0.014 A 
ATOM     29  C   UNL A   1      35.470  34.523  28.903  1.00  0.00     0.014 A 
ATOM     30  C   UNL A   1      34.968  33.057  31.228  1.00  0.00     0.010 A 
ATOM     31  C   UNL A   1      36.511  33.852  29.536  1.00  0.00     0.010 A 
ATOM     32  C   UNL A   1      36.267  33.101  30.698  1.00  0.00    -0.014 A 
BRANCH  32  33
ATOM     33  C   UNL A   1      37.383  32.339  31.313  1.00  0.00     0.031 A 
ATOM     34  C   UNL A   1      37.908  32.725  32.665  1.00  0.00     0.074 A 
ATOM     35  C   UNL A   1      37.978  31.355  30.611  1.00  0.00     0.049 A 
ATOM     36  N   UNL A   1      38.943  32.258  33.316  1.00  0.00    -0.248 NA
ATOM     37  C   UNL A   1      37.187  33.797  33.368  1.00  0.00     0.031 C 
ATOM     38  C   UNL A   1      37.577  30.908  29.277  1.00  0.00     0.029 A 
ATOM     39  N   UNL A   1      39.059  30.565  30.915  1.00  0.00    -0.354 N 
ATOM     40  C   UNL A   1      39.002  32.982  34.499  1.00  0.00     0.074 A 
ATOM     41  C   UNL A   1      37.932  33.955  34.453  1.00  0.00     0.031 C 
ATOM     42  C   UNL A   1      38.389  29.913  28.884  1.00  0.00     0.029 A 
ATOM     43  C   UNL A   1      39.397  29.687  29.915  1.00  0.00     0.049 A 
ATOM     44  H   UNL A   1      39.545  30.622  31.770  1.00  0.00     0.167 HD
ATOM     45  C   UNL A   1      39.859  32.833  35.538  1.00  0.00     0.037 A 
ATOM     46  C   UNL A   1      40.416  28.811  29.829  1.00  0.00     0.037 A 
ATOM     47  C   UNL A   1      40.919  31.858  35.579  1.00  0.00     0.049 A 
ATOM     48  C   UNL A   1      41.392  28.707  30.970  1.00  0.00     0.074 A 
ATOM     49  C   UNL A   1      41.807  31.592  36.606  1.00  0.00     0.029 A 
ATOM     50  N   UNL A   1      41.238  30.996  34.540  1.00  0.00    -0.354 N 
ATOM     51  N   UNL A   1      41.401  29.351  32.112  1.00  0.00    -0.248 NA
ATOM     52  C   UNL A   1      42.502  27.759  30.808  1.00  0.00     0.031 C 
ATOM     53  C   UNL A   1      42.700  30.610  36.167  1.00  0.00     0.029 A 
ATOM     54  C   UNL A   1      42.335  30.222  34.887  1.00  0.00     0.049 A 
ATOM     55  H   UNL A   1      40.759  30.941  33.683  1.00  0.00     0.167 HD
ATOM     56  C   UNL A   1      42.498  28.871  32.814  1.00  0.00     0.074 A 
ATOM     57  C   UNL A   1      43.124  27.869  31.975  1.00  0.00     0.031 C 
ATOM     58  C   UNL A   1      42.947  29.228  34.042  1.00  0.00     0.037 A 
BRANCH  45  59
ATOM     59  C   UNL A   1      39.689  33.752  36.713  1.00  0.00     0.064 A 
ATOM     60  C   UNL A   1      40.310  35.010  36.761  1.00  0.00     0.173 A 
ATOM     61  C   UNL A   1      38.873  33.384  37.794  1.00  0.00     0.173 A 
ATOM     62  F   UNL A   1      41.109  35.408  35.758  1.00  0.00    -0.203 F 
ATOM     63  C   UNL A   1      40.150  35.849  37.861  1.00  0.00     0.198 A 
ATOM     64  C   UNL A   1      38.688  34.240  38.877  1.00  0.00     0.198 A 
ATOM     65  F   UNL A   1      38.250  32.197  37.797  1.00  0.00    -0.203 F 
ATOM     66  F   UNL A   1      40.798  37.021  37.907  1.00  0.00    -0.200 F 
ATOM     67  C   UNL A   1      39.334  35.466  38.915  1.00  0.00     0.200 A 
ATOM     68  F   UNL A   1      37.888  33.874  39.888  1.00  0.00    -0.200 F 
ATOM     69  F   UNL A   1      39.177  36.276  39.971  1.00  0.00    -0.200 F 
ENDBRANCH  45  59
BRANCH  46  70
ATOM     70  C   UNL A   1      40.563  27.957  28.621  1.00  0.00     0.064 A 
ATOM     71  C   UNL A   1      39.946  26.700  28.553  1.00  0.00     0.173 A 
ATOM     72  C   UNL A   1      41.316  28.376  27.514  1.00  0.00     0.173 A 
ATOM     73  F   UNL A   1      39.234  26.248  29.595  1.00  0.00    -0.203 F 
ATOM     74  C   UNL A   1      40.088  25.889  27.430  1.00  0.00     0.198 A 
ATOM     75  C   UNL A   1      41.433  27.575  26.380  1.00  0.00     0.198 A 
ATOM     76  F   UNL A   1      41.925  29.571  27.527  1.00  0.00    -0.203 F 
ATOM     77  F   UNL A   1      39.522  24.675  27.408  1.00  0.00    -0.200 F 
ATOM     78  C   UNL A   1      40.825  26.329  26.341  1.00  0.00     0.200 A 
ATOM     79  F   UNL A   1      42.134  28.011  25.324  1.00  0.00    -0.200 F 
ATOM     80  F   UNL A   1      40.956  25.551  25.258  1.00  0.00    -0.200 F 
ENDBRANCH  46  70
BRANCH  58  81
ATOM     81  C   UNL A   1      44.160  28.518  34.567  1.00  0.00     0.064 A 
ATOM     82  C   UNL A   1      45.450  29.045  34.398  1.00  0.00     0.173 A 
ATOM     83  C   UNL A   1      44.028  27.328  35.300  1.00  0.00     0.173 A 
ATOM     84  F   UNL A   1      45.632  30.170  33.690  1.00  0.00    -0.203 F 
ATOM     85  C   UNL A   1      46.562  28.397  34.929  1.00  0.00     0.198 A 
ATOM     86  C   UNL A   1      45.138  26.701  35.855  1.00  0.00     0.198 A 
ATOM     87  F   UNL A   1      42.817  26.786  35.495  1.00  0.00    -0.203 F 
ATOM     88  F   UNL A   1      47.789  28.896  34.721  1.00  0.00    -0.200 F 
ATOM     89  C   UNL A   1      46.405  27.232  35.665  1.00  0.00     0.200 A 
ATOM     90  F   UNL A   1      44.983  25.584  36.580  1.00  0.00    -0.200 F 
ATOM     91  F   UNL A   1      47.476  26.619  36.189  1.00  0.00    -0.200 F 
ENDBRANCH  58  81
ENDBRANCH  32  33
ENDBRANCH  24  27
ENDBRANCH  22  23
ENDBRANCH  21  22
ENDBRANCH  20  21
ENDBRANCH   1  20
TORSDOF 15
ENDMDL
MODEL 3
REMARK VINA RESULT:     -11.6      0.318      1.646
REMARK SMILES COCc1c(C(=O)NCCCCCCNC(=O)c2ccc(-c3c4nc(c(-c5c(F)c(F)c(F)c(F)c5F)c5ccc([nH]5)c(-c5c(F)c(F)c(F)c(F)c5F)c5nc(c(-c6c(F)c(F)c(F)c(F)c6F)c6ccc3[nH]6)C=C5)C=C4)cc2)sc2ccccc12
REMARK SMILES IDX 11 1 10 2 9 3 8 4 6 5 7 6 5 8 4 9 87 10 81 11 82 12 86 13
REMARK SMILES IDX 83 14 85 15 84 16 3 17 2 18 1 19 12 20 13 21 14 22 15 23
REMARK SMILES IDX 16 24 17 26 18 27 19 28 80 29 20 30 79 31 21 32 22 33 23 34
REMARK SMILES IDX 73 35 24 36 78 37 72 38 74 39 25 40 77 41 71 42 70 43 26 45
REMARK SMILES IDX 58 46 38 47 57 48 39 49 42 50 56 51 75 52 40 53 41 54 55 56
REMARK SMILES IDX 76 57 43 58 27 59 28 60 36 61 29 62 30 63 34 64 37 65 31 66
REMARK SMILES IDX 32 67 35 68 33 69 59 70 60 71 68 72 61 73 62 74 66 75 69 76
REMARK SMILES IDX 63 77 64 78 67 79 65 80 44 81 45 82 53 83 46 84 47 85 51 86
REMARK SMILES IDX 54 87 48 88 49 89 52 90 50 91
REMARK H PARENT 8 7 15 25 74 44 42 55
REMARK Flexibility Score: inf
ROOT
ATOM      1  C   UNL A   1      33.110  29.587  27.126  1.00  0.00     0.002 C 
ENDROOT
BRANCH   1   2
ATOM      2  C   UNL A   1      34.008  28.634  26.333  1.00  0.00     0.021 C 
BRANCH   2   3
ATOM      3  C   UNL A   1      33.508  27.199  26.201  1.00  0.00     0.116 C 
BRANCH   3   4
ATOM      4  N   UNL A   1      33.712  26.643  24.880  1.00  0.00    -0.351 N 
ATOM      5  C   UNL A   1      33.022  26.716  23.693  1.00  0.00     0.261 C 
ATOM      6  O   UNL A   1      33.567  26.105  22.767  1.00  0.00    -0.268 OA
ATOM      7  H   UNL A   1      34.525  26.090  24.818  1.00  0.00     0.163 HD
BRANCH   5   8
ATOM      8  C   UNL A   1      31.746  27.408  23.513  1.00  0.00     0.099 A 
ATOM      9  C   UNL A   1      30.472  26.883  23.761  1.00  0.00     0.009 A 
ATOM     10  C   UNL A   1      29.415  27.824  23.409  1.00  0.00    -0.001 A 
ATOM     11  S   UNL A   1      31.630  28.946  22.790  1.00  0.00    -0.130 S 
ATOM     12  C   UNL A   1      29.933  29.022  22.925  1.00  0.00     0.035 A 
ATOM     13  C   UNL A   1      28.000  27.710  23.471  1.00  0.00     0.010 A 
ATOM     14  C   UNL A   1      29.112  30.110  22.568  1.00  0.00     0.019 A 
ATOM     15  C   UNL A   1      27.174  28.770  23.077  1.00  0.00     0.001 A 
ATOM     16  C   UNL A   1      27.728  29.965  22.645  1.00  0.00     0.001 A 
BRANCH   9  17
ATOM     17  C   UNL A   1      30.192  25.500  24.300  1.00  0.00     0.197 C 
BRANCH  17  18
ATOM     18  O   UNL A   1      30.273  25.428  25.726  1.00  0.00    -0.380 OA
ATOM     19  C   UNL A   1      31.113  24.375  26.184  1.00  0.00     0.195 C 
ENDBRANCH  17  18
ENDBRANCH   9  17
ENDBRANCH   5   8
ENDBRANCH   3   4
ENDBRANCH   2   3
ENDBRANCH   1   2
BRANCH   1  20
ATOM     20  C   UNL A   1      31.931  30.196  26.359  1.00  0.00     0.002 C 
BRANCH  20  21
ATOM     21  C   UNL A   1      31.676  31.686  26.597  1.00  0.00     0.021 C 
BRANCH  21  22
ATOM     22  C   UNL A   1      32.795  32.426  27.319  1.00  0.00     0.116 C 
BRANCH  22  23
ATOM     23  N   UNL A   1      32.460  33.818  27.573  1.00  0.00    -0.352 N 
ATOM     24  C   UNL A   1      32.992  34.684  28.498  1.00  0.00     0.251 C 
ATOM     25  H   UNL A   1      31.752  34.193  27.002  1.00  0.00     0.163 HD
ATOM     26  O   UNL A   1      32.463  35.770  28.710  1.00  0.00    -0.269 OA
BRANCH  24  27
ATOM     27  C   UNL A   1      34.195  34.289  29.259  1.00  0.00     0.039 A 
ATOM     28  C   UNL A   1      34.038  33.666  30.500  1.00  0.00     0.014 A 
ATOM     29  C   UNL A   1      35.472  34.514  28.739  1.00  0.00     0.014 A 
ATOM     30  C   UNL A   1      35.160  33.188  31.180  1.00  0.00     0.010 A 
ATOM     31  C   UNL A   1      36.583  33.977  29.384  1.00  0.00     0.010 A 
ATOM     32  C   UNL A   1      36.435  33.298  30.604  1.00  0.00    -0.014 A 
BRANCH  32  33
ATOM     33  C   UNL A   1      37.627  32.676  31.234  1.00  0.00     0.031 A 
ATOM     34  C   UNL A   1      38.330  31.533  30.560  1.00  0.00     0.074 A 
ATOM     35  C   UNL A   1      38.020  33.086  32.455  1.00  0.00     0.049 A 
ATOM     36  N   UNL A   1      39.312  30.788  31.000  1.00  0.00    -0.248 NA
ATOM     37  C   UNL A   1      37.848  31.163  29.221  1.00  0.00     0.031 C 
ATOM     38  C   UNL A   1      37.399  34.167  33.223  1.00  0.00     0.029 A 
ATOM     39  N   UNL A   1      39.024  32.631  33.274  1.00  0.00    -0.354 N 
ATOM     40  C   UNL A   1      39.559  29.859  29.999  1.00  0.00     0.074 A 
ATOM     41  C   UNL A   1      38.590  30.099  28.952  1.00  0.00     0.031 C 
ATOM     42  C   UNL A   1      38.045  34.302  34.392  1.00  0.00     0.029 A 
ATOM     43  C   UNL A   1      39.091  33.288  34.478  1.00  0.00     0.049 A 
ATOM     44  H   UNL A   1      39.637  31.904  33.021  1.00  0.00     0.167 HD
ATOM     45  C   UNL A   1      40.522  28.907  29.952  1.00  0.00     0.037 A 
ATOM     46  C   UNL A   1      39.892  33.083  35.541  1.00  0.00     0.037 A 
ATOM     47  C   UNL A   1      41.486  28.678  30.997  1.00  0.00     0.049 A 
ATOM     48  C   UNL A   1      40.912  31.978  35.488  1.00  0.00     0.074 A 
ATOM     49  C   UNL A   1      42.533  27.773  31.021  1.00  0.00     0.029 A 
ATOM     50  N   UNL A   1      41.513  29.354  32.208  1.00  0.00    -0.354 N 
ATOM     51  N   UNL A   1      41.181  31.146  34.511  1.00  0.00    -0.248 NA
ATOM     52  C   UNL A   1      41.737  31.780  36.687  1.00  0.00     0.031 C 
ATOM     53  C   UNL A   1      43.157  27.862  32.270  1.00  0.00     0.029 A 
ATOM     54  C   UNL A   1      42.536  28.861  33.003  1.00  0.00     0.049 A 
ATOM     55  H   UNL A   1      40.897  30.077  32.465  1.00  0.00     0.167 HD
ATOM     56  C   UNL A   1      42.219  30.344  34.965  1.00  0.00     0.074 A 
ATOM     57  C   UNL A   1      42.542  30.799  36.303  1.00  0.00     0.031 C 
ATOM     58  C   UNL A   1      42.847  29.323  34.332  1.00  0.00     0.037 A 
BRANCH  45  59
ATOM     59  C   UNL A   1      40.573  28.036  28.730  1.00  0.00     0.064 A 
ATOM     60  C   UNL A   1      41.337  28.386  27.606  1.00  0.00     0.173 A 
ATOM     61  C   UNL A   1      39.872  26.820  28.691  1.00  0.00     0.173 A 
ATOM     62  F   UNL A   1      42.019  29.542  27.587  1.00  0.00    -0.203 F 
ATOM     63  C   UNL A   1      41.369  27.572  26.476  1.00  0.00     0.198 A 
ATOM     64  C   UNL A   1      39.933  25.992  27.572  1.00  0.00     0.198 A 
ATOM     65  F   UNL A   1      39.133  26.431  29.740  1.00  0.00    -0.203 F 
ATOM     66  F   UNL A   1      42.061  27.957  25.396  1.00  0.00    -0.200 F 
ATOM     67  C   UNL A   1      40.673  26.373  26.463  1.00  0.00     0.200 A 
ATOM     68  F   UNL A   1      39.272  24.826  27.567  1.00  0.00    -0.200 F 
ATOM     69  F   UNL A   1      40.708  25.589  25.377  1.00  0.00    -0.200 F 
ENDBRANCH  45  59
BRANCH  46  70
ATOM     70  C   UNL A   1      39.767  33.948  36.743  1.00  0.00     0.064 A 
ATOM     71  C   UNL A   1      38.971  33.555  37.828  1.00  0.00     0.173 A 
ATOM     72  C   UNL A   1      40.438  35.176  36.836  1.00  0.00     0.173 A 
ATOM     73  F   UNL A   1      38.293  32.400  37.777  1.00  0.00    -0.203 F 
ATOM     74  C   UNL A   1      38.839  34.366  38.954  1.00  0.00     0.198 A 
ATOM     75  C   UNL A   1      40.328  35.972  37.975  1.00  0.00     0.198 A 
ATOM     76  F   UNL A   1      41.215  35.597  35.827  1.00  0.00    -0.203 F 
ATOM     77  F   UNL A   1      38.038  33.986  39.959  1.00  0.00    -0.200 F 
ATOM     78  C   UNL A   1      39.523  35.569  39.030  1.00  0.00     0.200 A 
ATOM     79  F   UNL A   1      41.003  37.127  38.050  1.00  0.00    -0.200 F 
ATOM     80  F   UNL A   1      39.401  36.345  40.116  1.00  0.00    -0.200 F 
ENDBRANCH  46  70
BRANCH  58  81
ATOM     81  C   UNL A   1      43.963  28.638  35.065  1.00  0.00     0.064 A 
ATOM     82  C   UNL A   1      43.732  27.508  35.863  1.00  0.00     0.173 A 
ATOM     83  C   UNL A   1      45.287  29.081  34.920  1.00  0.00     0.173 A 
ATOM     84  F   UNL A   1      42.482  27.055  36.048  1.00  0.00    -0.203 F 
ATOM     85  C   UNL A   1      44.784  26.857  36.502  1.00  0.00     0.198 A 
ATOM     86  C   UNL A   1      46.339  28.409  35.535  1.00  0.00     0.198 A 
ATOM     87  F   UNL A   1      45.562  30.154  34.164  1.00  0.00    -0.203 F 
ATOM     88  F   UNL A   1      44.536  25.803  37.292  1.00  0.00    -0.200 F 
ATOM     89  C   UNL A   1      46.087  27.301  36.330  1.00  0.00     0.200 A 
ATOM     90  F   UNL A   1      47.598  28.830  35.355  1.00  0.00    -0.200 F 
ATOM     91  F   UNL A   1      47.099  26.662  36.933  1.00  0.00    -0.200 F 
ENDBRANCH  58  81
ENDBRANCH  32  33
ENDBRANCH  24  27
ENDBRANCH  22  23
ENDBRANCH  21  22
ENDBRANCH  20  21
ENDBRANCH   1  20
TORSDOF 15
ENDMDL
