MODEL 1
REMARK VINA RESULT:     -12.4      0.000      0.000
REMARK SMILES COc1ccc(C(=O)N[C@H](C(=O)NCCCCCCNC(=O)c2ccc(-c3c4nc(c(-c5c(F)c(F)c(F)c(F)c5F)c5ccc([nH]5)c(-c5c(F)c(F)c(F)c(F)c5F)c5nc(c(-c6c(F)c(F)c(F)c(F)c6F)c6ccc3[nH]6)C=C5)C=C4)cc2)C2=C(C)N=N[C@H]2C)c(F)c1F
REMARK SMILES IDX 16 1 15 2 14 3 13 4 11 5 12 6 10 8 9 9 7 10 8 11 6 13 3 14
REMARK SMILES IDX 4 15 95 16 5 17 93 18 96 19 94 20 2 21 1 22 86 23 87 24
REMARK SMILES IDX 91 25 88 26 89 27 90 28 92 29 17 30 18 31 19 32 20 33 21 34
REMARK SMILES IDX 22 36 23 37 24 38 85 39 25 40 84 41 26 42 27 43 28 44 78 45
REMARK SMILES IDX 29 46 83 47 77 48 79 49 30 50 82 51 76 52 75 53 31 55 63 56
REMARK SMILES IDX 43 57 62 58 44 59 47 60 61 61 80 62 45 63 46 64 60 66 81 67
REMARK SMILES IDX 48 68 32 69 33 70 41 71 34 72 35 73 39 74 42 75 36 76 37 77
REMARK SMILES IDX 40 78 38 79 64 80 65 81 73 82 66 83 67 84 71 85 74 86 68 87
REMARK SMILES IDX 69 88 72 89 70 90 49 91 50 92 58 93 51 94 52 95 56 96 59 97
REMARK SMILES IDX 53 98 54 99 57 100 55 101
REMARK H PARENT 13 7 9 12 20 35 79 54 47 65
REMARK Flexibility Score: inf
ROOT
ATOM      1  C   UNL A   1      35.341  20.647  24.969  1.00  0.00     0.002 C 
ENDROOT
BRANCH   1   2
ATOM      2  C   UNL A   1      34.598  21.526  25.977  1.00  0.00     0.021 C 
BRANCH   2   3
ATOM      3  C   UNL A   1      33.088  21.585  25.792  1.00  0.00     0.116 C 
BRANCH   3   4
ATOM      4  N   UNL A   1      32.682  21.207  24.460  1.00  0.00    -0.354 N 
ATOM      5  C   UNL A   1      32.061  21.921  23.486  1.00  0.00     0.247 C 
ATOM      6  O   UNL A   1      31.897  21.333  22.407  1.00  0.00    -0.272 OA
ATOM      7  H   UNL A   1      32.889  20.277  24.217  1.00  0.00     0.163 HD
BRANCH   5   8
ATOM      8  C   UNL A   1      31.642  23.419  23.625  1.00  0.00     0.202 C 
BRANCH   8   9
ATOM      9  N   UNL A   1      30.845  23.873  24.800  1.00  0.00    -0.336 N 
ATOM     10  C   UNL A   1      30.306  24.984  25.398  1.00  0.00     0.255 C 
ATOM     11  O   UNL A   1      29.941  24.843  26.569  1.00  0.00    -0.269 OA
ATOM     12  H   UNL A   1      30.626  23.087  25.350  1.00  0.00     0.165 HD
BRANCH  10  13
ATOM     13  C   UNL A   1      30.066  26.302  24.780  1.00  0.00     0.078 A 
ATOM     14  C   UNL A   1      29.760  28.699  23.338  1.00  0.00     0.157 A 
ATOM     15  C   UNL A   1      28.758  27.729  23.298  1.00  0.00     0.050 A 
ATOM     16  C   UNL A   1      30.869  28.481  24.142  1.00  0.00     0.201 A 
ATOM     17  C   UNL A   1      28.921  26.522  23.996  1.00  0.00     0.021 A 
ATOM     18  C   UNL A   1      30.930  27.354  24.943  1.00  0.00     0.175 A 
ATOM     19  F   UNL A   1      31.879  29.362  24.187  1.00  0.00    -0.200 F 
ATOM     20  F   UNL A   1      31.701  27.382  26.025  1.00  0.00    -0.203 F 
BRANCH  14  21
ATOM     21  O   UNL A   1      29.574  29.813  22.573  1.00  0.00    -0.494 OA
ATOM     22  C   UNL A   1      28.337  29.849  21.860  1.00  0.00     0.278 C 
ENDBRANCH  14  21
ENDBRANCH  10  13
ENDBRANCH   8   9
BRANCH   8  23
ATOM     23  C   UNL A   1      32.656  24.378  23.068  1.00  0.00     0.011 C 
ATOM     24  C   UNL A   1      32.605  25.404  22.195  1.00  0.00     0.064 C 
ATOM     25  C   UNL A   1      34.024  24.499  23.664  1.00  0.00     0.156 C 
ATOM     26  C   UNL A   1      31.461  26.009  21.443  1.00  0.00     0.069 C 
ATOM     27  N   UNL A   1      33.841  25.967  21.982  1.00  0.00    -0.160 NA
ATOM     28  N   UNL A   1      34.702  25.429  22.725  1.00  0.00    -0.181 NA
ATOM     29  C   UNL A   1      34.007  25.202  25.026  1.00  0.00     0.040 C 
ENDBRANCH   8  23
ENDBRANCH   5   8
ENDBRANCH   3   4
ENDBRANCH   2   3
ENDBRANCH   1   2
BRANCH   1  30
ATOM     30  C   UNL A   1      36.805  21.020  24.714  1.00  0.00     0.002 C 
BRANCH  30  31
ATOM     31  C   UNL A   1      37.825  19.910  24.968  1.00  0.00     0.021 C 
BRANCH  31  32
ATOM     32  C   UNL A   1      39.015  20.305  25.835  1.00  0.00     0.116 C 
BRANCH  32  33
ATOM     33  N   UNL A   1      40.030  19.269  25.899  1.00  0.00    -0.352 N 
ATOM     34  C   UNL A   1      41.385  19.393  26.090  1.00  0.00     0.251 C 
ATOM     35  H   UNL A   1      39.702  18.348  25.790  1.00  0.00     0.163 HD
ATOM     36  O   UNL A   1      42.119  18.424  25.970  1.00  0.00    -0.269 OA
BRANCH  34  37
ATOM     37  C   UNL A   1      41.957  20.718  26.417  1.00  0.00     0.039 A 
ATOM     38  C   UNL A   1      42.205  21.613  25.375  1.00  0.00     0.014 A 
ATOM     39  C   UNL A   1      42.244  21.074  27.737  1.00  0.00     0.014 A 
ATOM     40  C   UNL A   1      42.692  22.889  25.663  1.00  0.00     0.010 A 
ATOM     41  C   UNL A   1      42.653  22.371  28.030  1.00  0.00     0.010 A 
ATOM     42  C   UNL A   1      42.890  23.288  26.994  1.00  0.00    -0.014 A 
BRANCH  42  43
ATOM     43  C   UNL A   1      43.345  24.662  27.322  1.00  0.00     0.031 A 
ATOM     44  C   UNL A   1      42.384  25.657  27.908  1.00  0.00     0.074 A 
ATOM     45  C   UNL A   1      44.609  25.028  27.038  1.00  0.00     0.049 A 
ATOM     46  N   UNL A   1      42.581  26.915  28.213  1.00  0.00    -0.248 NA
ATOM     47  C   UNL A   1      41.015  25.187  28.163  1.00  0.00     0.031 C 
ATOM     48  C   UNL A   1      45.617  24.163  26.425  1.00  0.00     0.029 A 
ATOM     49  N   UNL A   1      45.261  26.222  27.220  1.00  0.00    -0.354 N 
ATOM     50  C   UNL A   1      41.361  27.385  28.679  1.00  0.00     0.074 A 
ATOM     51  C   UNL A   1      40.416  26.297  28.564  1.00  0.00     0.031 C 
ATOM     52  C   UNL A   1      46.767  24.844  26.307  1.00  0.00     0.029 A 
ATOM     53  C   UNL A   1      46.567  26.206  26.797  1.00  0.00     0.049 A 
ATOM     54  H   UNL A   1      44.832  27.015  27.617  1.00  0.00     0.167 HD
ATOM     55  C   UNL A   1      41.066  28.607  29.180  1.00  0.00     0.037 A 
ATOM     56  C   UNL A   1      47.499  27.179  26.796  1.00  0.00     0.037 A 
ATOM     57  C   UNL A   1      42.022  29.674  29.317  1.00  0.00     0.049 A 
ATOM     58  C   UNL A   1      47.148  28.531  27.353  1.00  0.00     0.074 A 
ATOM     59  C   UNL A   1      41.840  30.925  29.882  1.00  0.00     0.029 A 
ATOM     60  N   UNL A   1      43.338  29.620  28.879  1.00  0.00    -0.354 N 
ATOM     61  N   UNL A   1      46.010  28.943  27.858  1.00  0.00    -0.248 NA
ATOM     62  C   UNL A   1      48.205  29.550  27.345  1.00  0.00     0.031 C 
ATOM     63  C   UNL A   1      43.025  31.649  29.728  1.00  0.00     0.029 A 
ATOM     64  C   UNL A   1      43.968  30.828  29.128  1.00  0.00     0.049 A 
ATOM     65  H   UNL A   1      43.760  28.839  28.454  1.00  0.00     0.167 HD
ATOM     66  C   UNL A   1      46.217  30.261  28.243  1.00  0.00     0.074 A 
ATOM     67  C   UNL A   1      47.596  30.575  27.928  1.00  0.00     0.031 C 
ATOM     68  C   UNL A   1      45.341  31.130  28.805  1.00  0.00     0.037 A 
BRANCH  55  69
ATOM     69  C   UNL A   1      39.654  28.861  29.626  1.00  0.00     0.064 A 
ATOM     70  C   UNL A   1      38.722  29.430  28.744  1.00  0.00     0.173 A 
ATOM     71  C   UNL A   1      39.235  28.599  30.939  1.00  0.00     0.173 A 
ATOM     72  F   UNL A   1      39.069  29.706  27.477  1.00  0.00    -0.203 F 
ATOM     73  C   UNL A   1      37.429  29.734  29.162  1.00  0.00     0.198 A 
ATOM     74  C   UNL A   1      37.931  28.873  31.344  1.00  0.00     0.198 A 
ATOM     75  F   UNL A   1      40.081  28.048  31.821  1.00  0.00    -0.203 F 
ATOM     76  F   UNL A   1      36.568  30.307  28.309  1.00  0.00    -0.200 F 
ATOM     77  C   UNL A   1      37.032  29.449  30.459  1.00  0.00     0.200 A 
ATOM     78  F   UNL A   1      37.542  28.571  32.591  1.00  0.00    -0.200 F 
ATOM     79  F   UNL A   1      35.783  29.727  30.856  1.00  0.00    -0.200 F 
ENDBRANCH  55  69
BRANCH  56  80
ATOM     80  C   UNL A   1      48.859  26.879  26.281  1.00  0.00     0.064 A 
ATOM     81  C   UNL A   1      49.199  27.114  24.940  1.00  0.00     0.173 A 
ATOM     82  C   UNL A   1      49.825  26.284  27.102  1.00  0.00     0.173 A 
ATOM     83  F   UNL A   1      48.306  27.675  24.109  1.00  0.00    -0.203 F 
ATOM     84  C   UNL A   1      50.441  26.737  24.434  1.00  0.00     0.198 A 
ATOM     85  C   UNL A   1      51.077  25.931  26.602  1.00  0.00     0.198 A 
ATOM     86  F   UNL A   1      49.554  26.054  28.396  1.00  0.00    -0.203 F 
ATOM     87  F   UNL A   1      50.720  26.927  23.137  1.00  0.00    -0.200 F 
ATOM     88  C   UNL A   1      51.380  26.146  25.266  1.00  0.00     0.200 A 
ATOM     89  F   UNL A   1      51.989  25.379  27.414  1.00  0.00    -0.200 F 
ATOM     90  F   UNL A   1      52.574  25.781  24.779  1.00  0.00    -0.200 F 
ENDBRANCH  56  80
BRANCH  68  91
ATOM     91  C   UNL A   1      45.834  32.511  29.126  1.00  0.00     0.064 A 
ATOM     92  C   UNL A   1      46.378  32.797  30.390  1.00  0.00     0.173 A 
ATOM     93  C   UNL A   1      45.682  33.573  28.223  1.00  0.00     0.173 A 
ATOM     94  F   UNL A   1      46.535  31.819  31.294  1.00  0.00    -0.203 F 
ATOM     95  C   UNL A   1      46.726  34.097  30.743  1.00  0.00     0.198 A 
ATOM     96  C   UNL A   1      46.062  34.868  28.570  1.00  0.00     0.198 A 
ATOM     97  F   UNL A   1      45.180  33.351  26.999  1.00  0.00    -0.203 F 
ATOM     98  F   UNL A   1      47.198  34.352  31.972  1.00  0.00    -0.200 F 
ATOM     99  C   UNL A   1      46.571  35.130  29.832  1.00  0.00     0.200 A 
ATOM    100  F   UNL A   1      45.935  35.861  27.679  1.00  0.00    -0.200 F 
ATOM    101  F   UNL A   1      46.911  36.381  30.172  1.00  0.00    -0.200 F 
ENDBRANCH  68  91
ENDBRANCH  42  43
ENDBRANCH  34  37
ENDBRANCH  32  33
ENDBRANCH  31  32
ENDBRANCH  30  31
ENDBRANCH   1  30
TORSDOF 17
ENDMDL
MODEL 2
REMARK VINA RESULT:     -12.4      5.063     10.604
REMARK SMILES COc1ccc(C(=O)N[C@H](C(=O)NCCCCCCNC(=O)c2ccc(-c3c4nc(c(-c5c(F)c(F)c(F)c(F)c5F)c5ccc([nH]5)c(-c5c(F)c(F)c(F)c(F)c5F)c5nc(c(-c6c(F)c(F)c(F)c(F)c6F)c6ccc3[nH]6)C=C5)C=C4)cc2)C2=C(C)N=N[C@H]2C)c(F)c1F
REMARK SMILES IDX 16 1 15 2 14 3 13 4 11 5 12 6 10 8 9 9 7 10 8 11 6 13 3 14
REMARK SMILES IDX 4 15 95 16 5 17 93 18 96 19 94 20 2 21 1 22 86 23 87 24
REMARK SMILES IDX 91 25 88 26 89 27 90 28 92 29 17 30 18 31 19 32 20 33 21 34
REMARK SMILES IDX 22 36 23 37 24 38 85 39 25 40 84 41 26 42 27 43 28 44 78 45
REMARK SMILES IDX 29 46 83 47 77 48 79 49 30 50 82 51 76 52 75 53 31 55 63 56
REMARK SMILES IDX 43 57 62 58 44 59 47 60 61 61 80 62 45 63 46 64 60 66 81 67
REMARK SMILES IDX 48 68 32 69 33 70 41 71 34 72 35 73 39 74 42 75 36 76 37 77
REMARK SMILES IDX 40 78 38 79 64 80 65 81 73 82 66 83 67 84 71 85 74 86 68 87
REMARK SMILES IDX 69 88 72 89 70 90 49 91 50 92 58 93 51 94 52 95 56 96 59 97
REMARK SMILES IDX 53 98 54 99 57 100 55 101
REMARK H PARENT 13 7 9 12 20 35 79 54 47 65
REMARK Flexibility Score: inf
ROOT
ATOM      1  C   UNL A   1      31.141  29.622  25.005  1.00  0.00     0.002 C 
ENDROOT
BRANCH   1   2
ATOM      2  C   UNL A   1      32.146  29.214  23.926  1.00  0.00     0.021 C 
BRANCH   2   3
ATOM      3  C   UNL A   1      31.652  28.154  22.951  1.00  0.00     0.116 C 
BRANCH   3   4
ATOM      4  N   UNL A   1      30.309  27.718  23.247  1.00  0.00    -0.354 N 
ATOM      5  C   UNL A   1      29.825  26.492  23.574  1.00  0.00     0.247 C 
ATOM      6  O   UNL A   1      28.615  26.441  23.838  1.00  0.00    -0.272 OA
ATOM      7  H   UNL A   1      29.629  28.428  23.205  1.00  0.00     0.163 HD
BRANCH   5   8
ATOM      8  C   UNL A   1      30.706  25.210  23.718  1.00  0.00     0.202 C 
BRANCH   8   9
ATOM      9  N   UNL A   1      31.643  24.813  22.629  1.00  0.00    -0.336 N 
ATOM     10  C   UNL A   1      32.634  23.922  22.304  1.00  0.00     0.255 C 
ATOM     11  O   UNL A   1      33.311  24.205  21.311  1.00  0.00    -0.269 OA
ATOM     12  H   UNL A   1      31.498  25.411  21.861  1.00  0.00     0.165 HD
BRANCH  10  13
ATOM     13  C   UNL A   1      32.940  22.644  22.975  1.00  0.00     0.078 A 
ATOM     14  C   UNL A   1      33.297  20.289  24.474  1.00  0.00     0.157 A 
ATOM     15  C   UNL A   1      32.396  20.307  23.409  1.00  0.00     0.050 A 
ATOM     16  C   UNL A   1      34.046  21.428  24.735  1.00  0.00     0.201 A 
ATOM     17  C   UNL A   1      32.199  21.489  22.677  1.00  0.00     0.021 A 
ATOM     18  C   UNL A   1      33.946  22.526  23.899  1.00  0.00     0.175 A 
ATOM     19  F   UNL A   1      34.897  21.478  25.770  1.00  0.00    -0.200 F 
ATOM     20  F   UNL A   1      34.962  23.380  23.846  1.00  0.00    -0.203 F 
BRANCH  14  21
ATOM     21  O   UNL A   1      33.383  19.134  25.194  1.00  0.00    -0.494 OA
ATOM     22  C   UNL A   1      32.418  18.140  24.844  1.00  0.00     0.278 C 
ENDBRANCH  14  21
ENDBRANCH  10  13
ENDBRANCH   8   9
BRANCH   8  23
ATOM     23  C   UNL A   1      31.135  24.935  25.132  1.00  0.00     0.011 C 
ATOM     24  C   UNL A   1      31.085  23.858  25.940  1.00  0.00     0.064 C 
ATOM     25  C   UNL A   1      32.020  25.885  25.876  1.00  0.00     0.156 C 
ATOM     26  C   UNL A   1      30.581  22.468  25.710  1.00  0.00     0.069 C 
ATOM     27  N   UNL A   1      31.594  24.122  27.191  1.00  0.00    -0.160 NA
ATOM     28  N   UNL A   1      32.055  25.292  27.237  1.00  0.00    -0.181 NA
ATOM     29  C   UNL A   1      33.464  25.864  25.361  1.00  0.00     0.040 C 
ENDBRANCH   8  23
ENDBRANCH   5   8
ENDBRANCH   3   4
ENDBRANCH   2   3
ENDBRANCH   1   2
BRANCH   1  30
ATOM     30  C   UNL A   1      31.744  30.184  26.296  1.00  0.00     0.002 C 
BRANCH  30  31
ATOM     31  C   UNL A   1      31.536  31.682  26.526  1.00  0.00     0.021 C 
BRANCH  31  32
ATOM     32  C   UNL A   1      32.756  32.437  27.043  1.00  0.00     0.116 C 
BRANCH  32  33
ATOM     33  N   UNL A   1      32.442  33.793  27.453  1.00  0.00    -0.352 N 
ATOM     34  C   UNL A   1      33.006  34.551  28.451  1.00  0.00     0.251 C 
ATOM     35  H   UNL A   1      31.724  34.233  26.945  1.00  0.00     0.163 HD
ATOM     36  O   UNL A   1      32.523  35.628  28.761  1.00  0.00    -0.269 OA
BRANCH  34  37
ATOM     37  C   UNL A   1      34.194  34.039  29.170  1.00  0.00     0.039 A 
ATOM     38  C   UNL A   1      33.999  33.196  30.267  1.00  0.00     0.014 A 
ATOM     39  C   UNL A   1      35.486  34.385  28.768  1.00  0.00     0.014 A 
ATOM     40  C   UNL A   1      35.104  32.657  30.927  1.00  0.00     0.010 A 
ATOM     41  C   UNL A   1      36.585  33.785  29.376  1.00  0.00     0.010 A 
ATOM     42  C   UNL A   1      36.404  32.922  30.467  1.00  0.00    -0.014 A 
BRANCH  42  43
ATOM     43  C   UNL A   1      37.586  32.304  31.117  1.00  0.00     0.031 A 
ATOM     44  C   UNL A   1      38.335  31.198  30.431  1.00  0.00     0.074 A 
ATOM     45  C   UNL A   1      37.950  32.705  32.350  1.00  0.00     0.049 A 
ATOM     46  N   UNL A   1      39.357  30.502  30.859  1.00  0.00    -0.248 NA
ATOM     47  C   UNL A   1      37.857  30.801  29.098  1.00  0.00     0.031 C 
ATOM     48  C   UNL A   1      37.271  33.737  33.134  1.00  0.00     0.029 A 
ATOM     49  N   UNL A   1      38.975  32.288  33.163  1.00  0.00    -0.354 N 
ATOM     50  C   UNL A   1      39.632  29.580  29.858  1.00  0.00     0.074 A 
ATOM     51  C   UNL A   1      38.637  29.765  28.827  1.00  0.00     0.031 C 
ATOM     52  C   UNL A   1      37.913  33.894  34.302  1.00  0.00     0.029 A 
ATOM     53  C   UNL A   1      39.022  32.946  34.368  1.00  0.00     0.049 A 
ATOM     54  H   UNL A   1      39.614  31.586  32.907  1.00  0.00     0.167 HD
ATOM     55  C   UNL A   1      40.641  28.680  29.797  1.00  0.00     0.037 A 
ATOM     56  C   UNL A   1      39.859  32.797  35.413  1.00  0.00     0.037 A 
ATOM     57  C   UNL A   1      41.644  28.525  30.817  1.00  0.00     0.049 A 
ATOM     58  C   UNL A   1      40.969  31.787  35.326  1.00  0.00     0.074 A 
ATOM     59  C   UNL A   1      42.750  27.692  30.815  1.00  0.00     0.029 A 
ATOM     60  N   UNL A   1      41.662  29.210  32.024  1.00  0.00    -0.354 N 
ATOM     61  N   UNL A   1      41.264  30.971  34.344  1.00  0.00    -0.248 NA
ATOM     62  C   UNL A   1      41.864  31.679  36.486  1.00  0.00     0.031 C 
ATOM     63  C   UNL A   1      43.399  27.827  32.045  1.00  0.00     0.029 A 
ATOM     64  C   UNL A   1      42.738  28.792  32.789  1.00  0.00     0.049 A 
ATOM     65  H   UNL A   1      41.004  29.891  32.296  1.00  0.00     0.167 HD
ATOM     66  C   UNL A   1      42.386  30.264  34.757  1.00  0.00     0.074 A 
ATOM     67  C   UNL A   1      42.729  30.761  36.074  1.00  0.00     0.031 C 
ATOM     68  C   UNL A   1      43.066  29.291  34.102  1.00  0.00     0.037 A 
BRANCH  55  69
ATOM     69  C   UNL A   1      40.719  27.794  28.587  1.00  0.00     0.064 A 
ATOM     70  C   UNL A   1      41.463  28.188  27.464  1.00  0.00     0.173 A 
ATOM     71  C   UNL A   1      40.013  26.583  28.511  1.00  0.00     0.173 A 
ATOM     72  F   UNL A   1      42.153  29.339  27.479  1.00  0.00    -0.203 F 
ATOM     73  C   UNL A   1      41.489  27.410  26.310  1.00  0.00     0.198 A 
ATOM     74  C   UNL A   1      40.069  25.791  27.367  1.00  0.00     0.198 A 
ATOM     75  F   UNL A   1      39.293  26.154  29.558  1.00  0.00    -0.203 F 
ATOM     76  F   UNL A   1      42.180  27.825  25.239  1.00  0.00    -0.200 F 
ATOM     77  C   UNL A   1      40.798  26.209  26.264  1.00  0.00     0.200 A 
ATOM     78  F   UNL A   1      39.422  24.617  27.337  1.00  0.00    -0.200 F 
ATOM     79  F   UNL A   1      40.837  25.453  25.159  1.00  0.00    -0.200 F 
ENDBRANCH  55  69
BRANCH  56  80
ATOM     80  C   UNL A   1      39.686  33.663  36.608  1.00  0.00     0.064 A 
ATOM     81  C   UNL A   1      38.862  33.276  37.676  1.00  0.00     0.173 A 
ATOM     82  C   UNL A   1      40.285  34.927  36.674  1.00  0.00     0.173 A 
ATOM     83  F   UNL A   1      38.258  32.078  37.658  1.00  0.00    -0.203 F 
ATOM     84  C   UNL A   1      38.620  34.133  38.747  1.00  0.00     0.198 A 
ATOM     85  C   UNL A   1      40.064  35.774  37.759  1.00  0.00     0.198 A 
ATOM     86  F   UNL A   1      41.095  35.336  35.686  1.00  0.00    -0.203 F 
ATOM     87  F   UNL A   1      37.788  33.758  39.729  1.00  0.00    -0.200 F 
ATOM     88  C   UNL A   1      39.222  35.381  38.789  1.00  0.00     0.200 A 
ATOM     89  F   UNL A   1      40.665  36.971  37.805  1.00  0.00    -0.200 F 
ATOM     90  F   UNL A   1      38.987  36.207  39.817  1.00  0.00    -0.200 F 
ENDBRANCH  56  80
BRANCH  68  91
ATOM     91  C   UNL A   1      44.259  28.690  34.787  1.00  0.00     0.064 A 
ATOM     92  C   UNL A   1      45.533  29.261  34.630  1.00  0.00     0.173 A 
ATOM     93  C   UNL A   1      44.162  27.497  35.516  1.00  0.00     0.173 A 
ATOM     94  F   UNL A   1      45.683  30.397  33.932  1.00  0.00    -0.203 F 
ATOM     95  C   UNL A   1      46.665  28.646  35.157  1.00  0.00     0.198 A 
ATOM     96  C   UNL A   1      45.293  26.902  36.071  1.00  0.00     0.198 A 
ATOM     97  F   UNL A   1      42.967  26.918  35.706  1.00  0.00    -0.203 F 
ATOM     98  F   UNL A   1      47.875  29.186  34.953  1.00  0.00    -0.200 F 
ATOM     99  C   UNL A   1      46.543  27.469  35.879  1.00  0.00     0.200 A 
ATOM    100  F   UNL A   1      45.171  25.778  36.789  1.00  0.00    -0.200 F 
ATOM    101  F   UNL A   1      47.633  26.881  36.391  1.00  0.00    -0.200 F 
ENDBRANCH  68  91
ENDBRANCH  42  43
ENDBRANCH  34  37
ENDBRANCH  32  33
ENDBRANCH  31  32
ENDBRANCH  30  31
ENDBRANCH   1  30
TORSDOF 17
ENDMDL
MODEL 3
REMARK VINA RESULT:     -12.4      5.249     10.774
REMARK SMILES COc1ccc(C(=O)N[C@H](C(=O)NCCCCCCNC(=O)c2ccc(-c3c4nc(c(-c5c(F)c(F)c(F)c(F)c5F)c5ccc([nH]5)c(-c5c(F)c(F)c(F)c(F)c5F)c5nc(c(-c6c(F)c(F)c(F)c(F)c6F)c6ccc3[nH]6)C=C5)C=C4)cc2)C2=C(C)N=N[C@H]2C)c(F)c1F
REMARK SMILES IDX 16 1 15 2 14 3 13 4 11 5 12 6 10 8 9 9 7 10 8 11 6 13 3 14
REMARK SMILES IDX 4 15 95 16 5 17 93 18 96 19 94 20 2 21 1 22 86 23 87 24
REMARK SMILES IDX 91 25 88 26 89 27 90 28 92 29 17 30 18 31 19 32 20 33 21 34
REMARK SMILES IDX 22 36 23 37 24 38 85 39 25 40 84 41 26 42 27 43 28 44 78 45
REMARK SMILES IDX 29 46 83 47 77 48 79 49 30 50 82 51 76 52 75 53 31 55 63 56
REMARK SMILES IDX 43 57 62 58 44 59 47 60 61 61 80 62 45 63 46 64 60 66 81 67
REMARK SMILES IDX 48 68 32 69 33 70 41 71 34 72 35 73 39 74 42 75 36 76 37 77
REMARK SMILES IDX 40 78 38 79 64 80 65 81 73 82 66 83 67 84 71 85 74 86 68 87
REMARK SMILES IDX 69 88 72 89 70 90 49 91 50 92 58 93 51 94 52 95 56 96 59 97
REMARK SMILES IDX 53 98 54 99 57 100 55 101
REMARK H PARENT 13 7 9 12 20 35 79 54 47 65
REMARK Flexibility Score: inf
ROOT
ATOM      1  C   UNL A   1      31.030  30.005  24.846  1.00  0.00     0.002 C 
ENDROOT
BRANCH   1   2
ATOM      2  C   UNL A   1      31.954  29.164  23.963  1.00  0.00     0.021 C 
BRANCH   2   3
ATOM      3  C   UNL A   1      31.266  28.437  22.816  1.00  0.00     0.116 C 
BRANCH   3   4
ATOM      4  N   UNL A   1      29.975  27.913  23.193  1.00  0.00    -0.354 N 
ATOM      5  C   UNL A   1      29.605  26.667  23.587  1.00  0.00     0.247 C 
ATOM      6  O   UNL A   1      28.415  26.535  23.911  1.00  0.00    -0.272 OA
ATOM      7  H   UNL A   1      29.242  28.567  23.159  1.00  0.00     0.163 HD
BRANCH   5   8
ATOM      8  C   UNL A   1      30.588  25.463  23.734  1.00  0.00     0.202 C 
BRANCH   8   9
ATOM      9  N   UNL A   1      31.562  25.148  22.650  1.00  0.00    -0.336 N 
ATOM     10  C   UNL A   1      32.582  24.300  22.304  1.00  0.00     0.255 C 
ATOM     11  O   UNL A   1      33.278  24.654  21.347  1.00  0.00    -0.269 OA
ATOM     12  H   UNL A   1      31.423  25.786  21.913  1.00  0.00     0.165 HD
BRANCH  10  13
ATOM     13  C   UNL A   1      32.901  22.993  22.911  1.00  0.00     0.078 A 
ATOM     14  C   UNL A   1      33.283  20.572  24.292  1.00  0.00     0.157 A 
ATOM     15  C   UNL A   1      32.377  20.634  23.234  1.00  0.00     0.050 A 
ATOM     16  C   UNL A   1      34.025  21.702  24.605  1.00  0.00     0.201 A 
ATOM     17  C   UNL A   1      32.167  21.848  22.560  1.00  0.00     0.021 A 
ATOM     18  C   UNL A   1      33.912  22.839  23.823  1.00  0.00     0.175 A 
ATOM     19  F   UNL A   1      34.880  21.709  25.637  1.00  0.00    -0.200 F 
ATOM     20  F   UNL A   1      34.922  23.702  23.807  1.00  0.00    -0.203 F 
BRANCH  14  21
ATOM     21  O   UNL A   1      33.381  19.383  24.955  1.00  0.00    -0.494 OA
ATOM     22  C   UNL A   1      33.007  18.239  24.187  1.00  0.00     0.278 C 
ENDBRANCH  14  21
ENDBRANCH  10  13
ENDBRANCH   8   9
BRANCH   8  23
ATOM     23  C   UNL A   1      31.028  25.220  25.149  1.00  0.00     0.011 C 
ATOM     24  C   UNL A   1      31.026  24.149  25.968  1.00  0.00     0.064 C 
ATOM     25  C   UNL A   1      31.871  26.215  25.885  1.00  0.00     0.156 C 
ATOM     26  C   UNL A   1      30.583  22.735  25.750  1.00  0.00     0.069 C 
ATOM     27  N   UNL A   1      31.522  24.446  27.216  1.00  0.00    -0.160 NA
ATOM     28  N   UNL A   1      31.932  25.635  27.251  1.00  0.00    -0.181 NA
ATOM     29  C   UNL A   1      33.314  26.252  25.370  1.00  0.00     0.040 C 
ENDBRANCH   8  23
ENDBRANCH   5   8
ENDBRANCH   3   4
ENDBRANCH   2   3
ENDBRANCH   1   2
BRANCH   1  30
ATOM     30  C   UNL A   1      31.625  30.470  26.179  1.00  0.00     0.002 C 
BRANCH  30  31
ATOM     31  C   UNL A   1      31.448  31.953  26.501  1.00  0.00     0.021 C 
BRANCH  31  32
ATOM     32  C   UNL A   1      32.610  32.602  27.245  1.00  0.00     0.116 C 
BRANCH  32  33
ATOM     33  N   UNL A   1      32.363  33.996  27.565  1.00  0.00    -0.352 N 
ATOM     34  C   UNL A   1      32.960  34.788  28.515  1.00  0.00     0.251 C 
ATOM     35  H   UNL A   1      31.668  34.437  27.025  1.00  0.00     0.163 HD
ATOM     36  O   UNL A   1      32.529  35.905  28.752  1.00  0.00    -0.269 OA
BRANCH  34  37
ATOM     37  C   UNL A   1      34.119  34.267  29.273  1.00  0.00     0.039 A 
ATOM     38  C   UNL A   1      33.883  33.585  30.469  1.00  0.00     0.014 A 
ATOM     39  C   UNL A   1      35.425  34.446  28.810  1.00  0.00     0.014 A 
ATOM     40  C   UNL A   1      34.955  33.037  31.174  1.00  0.00     0.010 A 
ATOM     41  C   UNL A   1      36.484  33.832  29.470  1.00  0.00     0.010 A 
ATOM     42  C   UNL A   1      36.260  33.128  30.663  1.00  0.00    -0.014 A 
BRANCH  42  43
ATOM     43  C   UNL A   1      37.403  32.494  31.366  1.00  0.00     0.031 A 
ATOM     44  C   UNL A   1      38.127  31.336  30.741  1.00  0.00     0.074 A 
ATOM     45  C   UNL A   1      37.752  32.928  32.592  1.00  0.00     0.049 A 
ATOM     46  N   UNL A   1      39.113  30.621  31.221  1.00  0.00    -0.248 NA
ATOM     47  C   UNL A   1      37.667  30.905  29.412  1.00  0.00     0.031 C 
ATOM     48  C   UNL A   1      37.093  34.013  33.319  1.00  0.00     0.029 A 
ATOM     49  N   UNL A   1      38.740  32.507  33.446  1.00  0.00    -0.354 N 
ATOM     50  C   UNL A   1      39.378  29.652  30.262  1.00  0.00     0.074 A 
ATOM     51  C   UNL A   1      38.414  29.833  29.199  1.00  0.00     0.031 C 
ATOM     52  C   UNL A   1      37.711  34.192  34.496  1.00  0.00     0.029 A 
ATOM     53  C   UNL A   1      38.783  33.208  34.626  1.00  0.00     0.049 A 
ATOM     54  H   UNL A   1      39.360  31.772  33.233  1.00  0.00     0.167 HD
ATOM     55  C   UNL A   1      40.354  28.715  30.260  1.00  0.00     0.037 A 
ATOM     56  C   UNL A   1      39.588  33.070  35.697  1.00  0.00     0.037 A 
ATOM     57  C   UNL A   1      41.326  28.563  31.311  1.00  0.00     0.049 A 
ATOM     58  C   UNL A   1      40.663  32.018  35.676  1.00  0.00     0.074 A 
ATOM     59  C   UNL A   1      42.400  27.692  31.368  1.00  0.00     0.029 A 
ATOM     60  N   UNL A   1      41.339  29.293  32.491  1.00  0.00    -0.354 N 
ATOM     61  N   UNL A   1      40.951  31.154  34.733  1.00  0.00    -0.248 NA
ATOM     62  C   UNL A   1      41.525  31.922  36.861  1.00  0.00     0.031 C 
ATOM     63  C   UNL A   1      43.024  27.851  32.608  1.00  0.00     0.029 A 
ATOM     64  C   UNL A   1      42.380  28.867  33.298  1.00  0.00     0.049 A 
ATOM     65  H   UNL A   1      40.701  30.007  32.720  1.00  0.00     0.167 HD
ATOM     66  C   UNL A   1      42.035  30.424  35.200  1.00  0.00     0.074 A 
ATOM     67  C   UNL A   1      42.365  30.958  36.506  1.00  0.00     0.031 C 
ATOM     68  C   UNL A   1      42.695  29.403  34.599  1.00  0.00     0.037 A 
BRANCH  55  69
ATOM     69  C   UNL A   1      40.428  27.781  29.086  1.00  0.00     0.064 A 
ATOM     70  C   UNL A   1      41.222  28.099  27.974  1.00  0.00     0.173 A 
ATOM     71  C   UNL A   1      39.671  26.600  29.032  1.00  0.00     0.173 A 
ATOM     72  F   UNL A   1      41.963  29.218  27.969  1.00  0.00    -0.203 F 
ATOM     73  C   UNL A   1      41.248  27.277  26.850  1.00  0.00     0.198 A 
ATOM     74  C   UNL A   1      39.726  25.763  27.921  1.00  0.00     0.198 A 
ATOM     75  F   UNL A   1      38.902  26.242  30.071  1.00  0.00    -0.203 F 
ATOM     76  F   UNL A   1      41.989  27.621  25.788  1.00  0.00    -0.200 F 
ATOM     77  C   UNL A   1      40.506  26.107  26.827  1.00  0.00     0.200 A 
ATOM     78  F   UNL A   1      39.029  24.618  27.913  1.00  0.00    -0.200 F 
ATOM     79  F   UNL A   1      40.544  25.308  25.752  1.00  0.00    -0.200 F 
ENDBRANCH  55  69
BRANCH  56  80
ATOM     80  C   UNL A   1      39.418  33.986  36.854  1.00  0.00     0.064 A 
ATOM     81  C   UNL A   1      40.064  35.232  36.898  1.00  0.00     0.173 A 
ATOM     82  C   UNL A   1      38.663  33.605  37.970  1.00  0.00     0.173 A 
ATOM     83  F   UNL A   1      40.806  35.640  35.857  1.00  0.00    -0.203 F 
ATOM     84  C   UNL A   1      39.986  36.044  38.027  1.00  0.00     0.198 A 
ATOM     85  C   UNL A   1      38.563  34.430  39.089  1.00  0.00     0.198 A 
ATOM     86  F   UNL A   1      38.013  32.432  37.968  1.00  0.00    -0.203 F 
ATOM     87  F   UNL A   1      40.655  37.205  38.062  1.00  0.00    -0.200 F 
ATOM     88  C   UNL A   1      39.235  35.643  39.121  1.00  0.00     0.200 A 
ATOM     89  F   UNL A   1      37.820  34.048  40.135  1.00  0.00    -0.200 F 
ATOM     90  F   UNL A   1      39.162  36.423  40.208  1.00  0.00    -0.200 F 
ENDBRANCH  56  80
BRANCH  68  91
ATOM     91  C   UNL A   1      43.849  28.786  35.336  1.00  0.00     0.064 A 
ATOM     92  C   UNL A   1      43.630  27.756  36.266  1.00  0.00     0.173 A 
ATOM     93  C   UNL A   1      45.154  29.277  35.197  1.00  0.00     0.173 A 
ATOM     94  F   UNL A   1      42.398  27.257  36.445  1.00  0.00    -0.203 F 
ATOM     95  C   UNL A   1      44.672  27.259  37.044  1.00  0.00     0.198 A 
ATOM     96  C   UNL A   1      46.201  28.755  35.954  1.00  0.00     0.198 A 
ATOM     97  F   UNL A   1      45.418  30.252  34.314  1.00  0.00    -0.203 F 
ATOM     98  F   UNL A   1      44.430  26.309  37.957  1.00  0.00    -0.200 F 
ATOM     99  C   UNL A   1      45.956  27.757  36.885  1.00  0.00     0.200 A 
ATOM    100  F   UNL A   1      47.445  29.219  35.783  1.00  0.00    -0.200 F 
ATOM    101  F   UNL A   1      46.960  27.274  37.631  1.00  0.00    -0.200 F 
ENDBRANCH  68  91
ENDBRANCH  42  43
ENDBRANCH  34  37
ENDBRANCH  32  33
ENDBRANCH  31  32
ENDBRANCH  30  31
ENDBRANCH   1  30
TORSDOF 17
ENDMDL
