MODEL 1
REMARK VINA RESULT:     -11.8      0.000      0.000
REMARK SMILES CC[C@](C)(NS(=O)(=O)c1ccc(C(=O)OC)cc1)C(=O)NCCCCCCNC(=O)c1ccc(-c2c3nc(c(-c4c(F)c(F)c(F)c(F)c4F)c4ccc([nH]4)c(-c4c(F)c(F)c(F)c(F)c4F)c4nc(c(-c5c(F)c(F)c(F)c(F)c5F)c5ccc2[nH]5)C=C4)C=C3)cc1
REMARK SMILES IDX 23 1 22 2 21 3 19 4 20 5 3 7 4 8 2 9 1 10 5 11 6 13 7 14
REMARK SMILES IDX 8 15 9 16 10 17 18 18 11 19 17 20 12 21 13 22 14 23 15 24
REMARK SMILES IDX 16 25 24 26 25 27 26 28 27 29 28 30 29 31 30 33 31 34 32 35
REMARK SMILES IDX 93 36 33 37 92 38 34 39 35 40 36 41 86 42 37 43 91 44 85 45
REMARK SMILES IDX 87 46 38 47 90 48 84 49 83 50 39 52 71 53 51 54 70 55 52 56
REMARK SMILES IDX 55 57 69 58 88 59 53 60 54 61 68 63 89 64 56 65 40 66 41 67
REMARK SMILES IDX 49 68 42 69 43 70 47 71 50 72 44 73 45 74 48 75 46 76 72 77
REMARK SMILES IDX 73 78 81 79 74 80 75 81 79 82 82 83 76 84 77 85 80 86 78 87
REMARK SMILES IDX 57 88 58 89 66 90 59 91 60 92 64 93 67 94 61 95 62 96 65 97
REMARK SMILES IDX 63 98
REMARK H PARENT 21 6 5 12 28 32 87 51 55 62
REMARK Flexibility Score: inf
ROOT
ATOM      1  C   UNL A   1      33.455  28.734  27.253  1.00  0.00     0.021 C 
ENDROOT
BRANCH   1   2
ATOM      2  C   UNL A   1      33.643  27.542  26.316  1.00  0.00     0.116 C 
BRANCH   2   3
ATOM      3  N   UNL A   1      33.766  27.852  24.898  1.00  0.00    -0.354 N 
ATOM      4  C   UNL A   1      33.003  27.693  23.783  1.00  0.00     0.241 C 
ATOM      5  O   UNL A   1      33.382  28.390  22.828  1.00  0.00    -0.273 OA
ATOM      6  H   UNL A   1      34.624  28.291  24.694  1.00  0.00     0.163 HD
BRANCH   4   7
ATOM      7  C   UNL A   1      31.813  26.716  23.594  1.00  0.00     0.108 C 
ATOM      8  C   UNL A   1      31.422  26.730  22.067  1.00  0.00     0.040 C 
BRANCH   7   9
ATOM      9  C   UNL A   1      30.559  27.201  24.369  1.00  0.00     0.030 C 
ATOM     10  C   UNL A   1      29.230  26.913  23.648  1.00  0.00     0.006 C 
ENDBRANCH   7   9
BRANCH   7  11
ATOM     11  N   UNL A   1      32.078  25.262  23.738  1.00  0.00    -0.196 NA
ATOM     12  H   UNL A   1      31.263  24.845  23.288  1.00  0.00     0.142 HD
BRANCH  11  13
ATOM     13  S   UNL A   1      33.288  24.229  23.314  1.00  0.00     0.241 S 
ATOM     14  O   UNL A   1      33.663  24.553  21.958  1.00  0.00    -0.207 OA
ATOM     15  O   UNL A   1      34.259  24.406  24.377  1.00  0.00    -0.207 OA
BRANCH  13  16
ATOM     16  C   UNL A   1      32.807  22.510  23.426  1.00  0.00     0.082 A 
ATOM     17  C   UNL A   1      33.027  21.849  24.645  1.00  0.00     0.022 A 
ATOM     18  C   UNL A   1      32.265  21.783  22.371  1.00  0.00     0.022 A 
ATOM     19  C   UNL A   1      32.837  20.458  24.752  1.00  0.00     0.017 A 
ATOM     20  C   UNL A   1      32.149  20.383  22.447  1.00  0.00     0.017 A 
ATOM     21  C   UNL A   1      32.467  19.706  23.629  1.00  0.00     0.060 A 
BRANCH  21  22
ATOM     22  C   UNL A   1      32.464  18.216  23.718  1.00  0.00     0.337 C 
ATOM     23  O   UNL A   1      32.821  17.482  22.805  1.00  0.00    -0.246 OA
BRANCH  22  24
ATOM     24  O   UNL A   1      31.949  17.810  24.906  1.00  0.00    -0.465 OA
ATOM     25  C   UNL A   1      32.777  16.904  25.646  1.00  0.00     0.282 C 
ENDBRANCH  22  24
ENDBRANCH  21  22
ENDBRANCH  13  16
ENDBRANCH  11  13
ENDBRANCH   7  11
ENDBRANCH   4   7
ENDBRANCH   2   3
ENDBRANCH   1   2
BRANCH   1  26
ATOM     26  C   UNL A   1      33.355  30.125  26.639  1.00  0.00     0.002 C 
BRANCH  26  27
ATOM     27  C   UNL A   1      31.944  30.625  26.358  1.00  0.00     0.002 C 
BRANCH  27  28
ATOM     28  C   UNL A   1      31.629  32.021  26.899  1.00  0.00     0.021 C 
BRANCH  28  29
ATOM     29  C   UNL A   1      32.835  32.810  27.399  1.00  0.00     0.116 C 
BRANCH  29  30
ATOM     30  N   UNL A   1      32.522  34.212  27.645  1.00  0.00    -0.352 N 
ATOM     31  C   UNL A   1      33.020  35.033  28.630  1.00  0.00     0.251 C 
ATOM     32  H   UNL A   1      31.874  34.621  27.029  1.00  0.00     0.163 HD
ATOM     33  O   UNL A   1      32.530  36.132  28.857  1.00  0.00    -0.269 OA
BRANCH  31  34
ATOM     34  C   UNL A   1      34.157  34.545  29.432  1.00  0.00     0.039 A 
ATOM     35  C   UNL A   1      33.921  33.961  30.675  1.00  0.00     0.014 A 
ATOM     36  C   UNL A   1      35.445  34.590  28.892  1.00  0.00     0.014 A 
ATOM     37  C   UNL A   1      34.980  33.358  31.356  1.00  0.00     0.010 A 
ATOM     38  C   UNL A   1      36.474  33.907  29.526  1.00  0.00     0.010 A 
ATOM     39  C   UNL A   1      36.256  33.295  30.771  1.00  0.00    -0.014 A 
BRANCH  39  40
ATOM     40  C   UNL A   1      37.384  32.624  31.464  1.00  0.00     0.031 A 
ATOM     41  C   UNL A   1      38.083  31.470  30.799  1.00  0.00     0.074 A 
ATOM     42  C   UNL A   1      37.752  33.023  32.697  1.00  0.00     0.049 A 
ATOM     43  N   UNL A   1      39.066  30.727  31.243  1.00  0.00    -0.248 NA
ATOM     44  C   UNL A   1      37.593  31.076  29.467  1.00  0.00     0.031 C 
ATOM     45  C   UNL A   1      37.115  34.091  33.468  1.00  0.00     0.029 A 
ATOM     46  N   UNL A   1      38.755  32.575  33.521  1.00  0.00    -0.354 N 
ATOM     47  C   UNL A   1      39.306  29.788  30.249  1.00  0.00     0.074 A 
ATOM     48  C   UNL A   1      38.314  29.995  29.219  1.00  0.00     0.031 C 
ATOM     49  C   UNL A   1      37.759  34.236  34.637  1.00  0.00     0.029 A 
ATOM     50  C   UNL A   1      38.832  33.248  34.716  1.00  0.00     0.049 A 
ATOM     51  H   UNL A   1      39.362  31.838  33.279  1.00  0.00     0.167 HD
ATOM     52  C   UNL A   1      40.292  28.864  30.177  1.00  0.00     0.037 A 
ATOM     53  C   UNL A   1      39.672  33.083  35.756  1.00  0.00     0.037 A 
ATOM     54  C   UNL A   1      41.286  28.669  31.200  1.00  0.00     0.049 A 
ATOM     55  C   UNL A   1      40.747  32.031  35.661  1.00  0.00     0.074 A 
ATOM     56  C   UNL A   1      42.342  27.777  31.219  1.00  0.00     0.029 A 
ATOM     57  N   UNL A   1      41.342  29.384  32.388  1.00  0.00    -0.354 N 
ATOM     58  N   UNL A   1      41.006  31.193  34.685  1.00  0.00    -0.248 NA
ATOM     59  C   UNL A   1      41.657  31.911  36.809  1.00  0.00     0.031 C 
ATOM     60  C   UNL A   1      43.008  27.918  32.441  1.00  0.00     0.029 A 
ATOM     61  C   UNL A   1      42.409  28.943  33.153  1.00  0.00     0.049 A 
ATOM     62  H   UNL A   1      40.717  30.099  32.648  1.00  0.00     0.167 HD
ATOM     63  C   UNL A   1      42.129  30.479  35.083  1.00  0.00     0.074 A 
ATOM     64  C   UNL A   1      42.511  30.993  36.380  1.00  0.00     0.031 C 
ATOM     65  C   UNL A   1      42.785  29.483  34.435  1.00  0.00     0.037 A 
BRANCH  52  66
ATOM     66  C   UNL A   1      40.351  28.009  28.944  1.00  0.00     0.064 A 
ATOM     67  C   UNL A   1      41.094  28.400  27.817  1.00  0.00     0.173 A 
ATOM     68  C   UNL A   1      39.683  26.778  28.891  1.00  0.00     0.173 A 
ATOM     69  F   UNL A   1      41.741  29.575  27.808  1.00  0.00    -0.203 F 
ATOM     70  C   UNL A   1      41.136  27.607  26.673  1.00  0.00     0.198 A 
ATOM     71  C   UNL A   1      39.757  25.970  27.759  1.00  0.00     0.198 A 
ATOM     72  F   UNL A   1      38.961  26.354  29.939  1.00  0.00    -0.203 F 
ATOM     73  F   UNL A   1      41.803  28.029  25.590  1.00  0.00    -0.200 F 
ATOM     74  C   UNL A   1      40.476  26.388  26.649  1.00  0.00     0.200 A 
ATOM     75  F   UNL A   1      39.130  24.785  27.742  1.00  0.00    -0.200 F 
ATOM     76  F   UNL A   1      40.524  25.619  25.552  1.00  0.00    -0.200 F 
ENDBRANCH  52  66
BRANCH  53  77
ATOM     77  C   UNL A   1      39.552  33.940  36.968  1.00  0.00     0.064 A 
ATOM     78  C   UNL A   1      38.794  33.530  38.075  1.00  0.00     0.173 A 
ATOM     79  C   UNL A   1      40.158  35.203  37.029  1.00  0.00     0.173 A 
ATOM     80  F   UNL A   1      38.181  32.338  38.062  1.00  0.00    -0.203 F 
ATOM     81  C   UNL A   1      38.614  34.365  39.176  1.00  0.00     0.198 A 
ATOM     82  C   UNL A   1      40.007  36.023  38.146  1.00  0.00     0.198 A 
ATOM     83  F   UNL A   1      40.900  35.643  36.003  1.00  0.00    -0.203 F 
ATOM     84  F   UNL A   1      37.828  33.974  40.189  1.00  0.00    -0.200 F 
ATOM     85  C   UNL A   1      39.223  35.609  39.212  1.00  0.00     0.200 A 
ATOM     86  F   UNL A   1      40.613  37.217  38.185  1.00  0.00    -0.200 F 
ATOM     87  F   UNL A   1      39.045  36.415  40.269  1.00  0.00    -0.200 F 
ENDBRANCH  53  77
BRANCH  65  88
ATOM     88  C   UNL A   1      44.017  28.929  35.091  1.00  0.00     0.064 A 
ATOM     89  C   UNL A   1      45.293  29.459  34.846  1.00  0.00     0.173 A 
ATOM     90  C   UNL A   1      43.913  27.868  36.004  1.00  0.00     0.173 A 
ATOM     91  F   UNL A   1      45.449  30.467  33.973  1.00  0.00    -0.203 F 
ATOM     92  C   UNL A   1      46.422  28.920  35.456  1.00  0.00     0.198 A 
ATOM     93  C   UNL A   1      45.039  27.357  36.643  1.00  0.00     0.198 A 
ATOM     94  F   UNL A   1      42.716  27.331  36.285  1.00  0.00    -0.203 F 
ATOM     95  F   UNL A   1      47.636  29.400  35.157  1.00  0.00    -0.200 F 
ATOM     96  C   UNL A   1      46.292  27.876  36.360  1.00  0.00     0.200 A 
ATOM     97  F   UNL A   1      44.910  26.361  37.530  1.00  0.00    -0.200 F 
ATOM     98  F   UNL A   1      47.380  27.361  36.951  1.00  0.00    -0.200 F 
ENDBRANCH  65  88
ENDBRANCH  39  40
ENDBRANCH  31  34
ENDBRANCH  29  30
ENDBRANCH  28  29
ENDBRANCH  27  28
ENDBRANCH  26  27
ENDBRANCH   1  26
TORSDOF 19
ENDMDL
MODEL 2
REMARK VINA RESULT:     -11.7      5.393      9.915
REMARK SMILES CC[C@](C)(NS(=O)(=O)c1ccc(C(=O)OC)cc1)C(=O)NCCCCCCNC(=O)c1ccc(-c2c3nc(c(-c4c(F)c(F)c(F)c(F)c4F)c4ccc([nH]4)c(-c4c(F)c(F)c(F)c(F)c4F)c4nc(c(-c5c(F)c(F)c(F)c(F)c5F)c5ccc2[nH]5)C=C4)C=C3)cc1
REMARK SMILES IDX 23 1 22 2 21 3 19 4 20 5 3 7 4 8 2 9 1 10 5 11 6 13 7 14
REMARK SMILES IDX 8 15 9 16 10 17 18 18 11 19 17 20 12 21 13 22 14 23 15 24
REMARK SMILES IDX 16 25 24 26 25 27 26 28 27 29 28 30 29 31 30 33 31 34 32 35
REMARK SMILES IDX 93 36 33 37 92 38 34 39 35 40 36 41 86 42 37 43 91 44 85 45
REMARK SMILES IDX 87 46 38 47 90 48 84 49 83 50 39 52 71 53 51 54 70 55 52 56
REMARK SMILES IDX 55 57 69 58 88 59 53 60 54 61 68 63 89 64 56 65 40 66 41 67
REMARK SMILES IDX 49 68 42 69 43 70 47 71 50 72 44 73 45 74 48 75 46 76 72 77
REMARK SMILES IDX 73 78 81 79 74 80 75 81 79 82 82 83 76 84 77 85 80 86 78 87
REMARK SMILES IDX 57 88 58 89 66 90 59 91 60 92 64 93 67 94 61 95 62 96 65 97
REMARK SMILES IDX 63 98
REMARK H PARENT 21 6 5 12 28 32 87 51 55 62
REMARK Flexibility Score: inf
ROOT
ATOM      1  C   UNL A   1      36.552  23.555  24.779  1.00  0.00     0.021 C 
ENDROOT
BRANCH   1   2
ATOM      2  C   UNL A   1      35.456  23.969  25.759  1.00  0.00     0.116 C 
BRANCH   2   3
ATOM      3  N   UNL A   1      34.882  22.903  26.570  1.00  0.00    -0.354 N 
ATOM      4  C   UNL A   1      33.904  21.969  26.424  1.00  0.00     0.241 C 
ATOM      5  O   UNL A   1      33.966  21.059  27.267  1.00  0.00    -0.273 OA
ATOM      6  H   UNL A   1      35.316  22.841  27.452  1.00  0.00     0.163 HD
BRANCH   4   7
ATOM      7  C   UNL A   1      32.741  21.984  25.398  1.00  0.00     0.108 C 
ATOM      8  C   UNL A   1      32.334  20.487  25.116  1.00  0.00     0.040 C 
BRANCH   7   9
ATOM      9  C   UNL A   1      33.198  22.575  24.039  1.00  0.00     0.030 C 
ATOM     10  C   UNL A   1      32.409  22.042  22.829  1.00  0.00     0.006 C 
ENDBRANCH   7   9
BRANCH   7  11
ATOM     11  N   UNL A   1      31.419  22.487  25.853  1.00  0.00    -0.196 NA
ATOM     12  H   UNL A   1      31.072  21.712  26.417  1.00  0.00     0.142 HD
BRANCH  11  13
ATOM     13  S   UNL A   1      30.870  23.804  26.675  1.00  0.00     0.241 S 
ATOM     14  O   UNL A   1      29.572  23.459  27.205  1.00  0.00    -0.207 OA
ATOM     15  O   UNL A   1      31.954  24.093  27.593  1.00  0.00    -0.207 OA
BRANCH  13  16
ATOM     16  C   UNL A   1      30.747  25.264  25.648  1.00  0.00     0.082 A 
ATOM     17  C   UNL A   1      30.382  25.087  24.304  1.00  0.00     0.022 A 
ATOM     18  C   UNL A   1      31.026  26.553  26.091  1.00  0.00     0.022 A 
ATOM     19  C   UNL A   1      30.436  26.163  23.398  1.00  0.00     0.017 A 
ATOM     20  C   UNL A   1      31.159  27.613  25.176  1.00  0.00     0.017 A 
ATOM     21  C   UNL A   1      30.897  27.418  23.816  1.00  0.00     0.060 A 
BRANCH  21  22
ATOM     22  C   UNL A   1      31.131  28.485  22.799  1.00  0.00     0.337 C 
ATOM     23  O   UNL A   1      30.313  28.794  21.942  1.00  0.00    -0.246 OA
BRANCH  22  24
ATOM     24  O   UNL A   1      32.382  28.995  22.921  1.00  0.00    -0.465 OA
ATOM     25  C   UNL A   1      33.426  28.173  22.385  1.00  0.00     0.282 C 
ENDBRANCH  22  24
ENDBRANCH  21  22
ENDBRANCH  13  16
ENDBRANCH  11  13
ENDBRANCH   7  11
ENDBRANCH   4   7
ENDBRANCH   2   3
ENDBRANCH   1   2
BRANCH   1  26
ATOM     26  C   UNL A   1      37.468  22.400  25.167  1.00  0.00     0.002 C 
BRANCH  26  27
ATOM     27  C   UNL A   1      37.142  21.055  24.532  1.00  0.00     0.002 C 
BRANCH  27  28
ATOM     28  C   UNL A   1      38.032  19.893  24.978  1.00  0.00     0.021 C 
BRANCH  28  29
ATOM     29  C   UNL A   1      39.243  20.290  25.817  1.00  0.00     0.116 C 
BRANCH  29  30
ATOM     30  N   UNL A   1      40.221  19.214  25.929  1.00  0.00    -0.352 N 
ATOM     31  C   UNL A   1      41.583  19.318  26.090  1.00  0.00     0.251 C 
ATOM     32  H   UNL A   1      39.860  18.300  25.885  1.00  0.00     0.163 HD
ATOM     33  O   UNL A   1      42.318  18.347  25.969  1.00  0.00    -0.269 OA
BRANCH  31  34
ATOM     34  C   UNL A   1      42.147  20.646  26.393  1.00  0.00     0.039 A 
ATOM     35  C   UNL A   1      42.434  21.524  25.349  1.00  0.00     0.014 A 
ATOM     36  C   UNL A   1      42.297  21.039  27.725  1.00  0.00     0.014 A 
ATOM     37  C   UNL A   1      42.816  22.833  25.648  1.00  0.00     0.010 A 
ATOM     38  C   UNL A   1      42.582  22.367  28.016  1.00  0.00     0.010 A 
ATOM     39  C   UNL A   1      42.858  23.275  26.982  1.00  0.00    -0.014 A 
BRANCH  39  40
ATOM     40  C   UNL A   1      43.224  24.675  27.315  1.00  0.00     0.031 A 
ATOM     41  C   UNL A   1      44.632  25.148  27.082  1.00  0.00     0.074 A 
ATOM     42  C   UNL A   1      42.309  25.501  27.856  1.00  0.00     0.049 A 
ATOM     43  N   UNL A   1      45.167  26.317  27.332  1.00  0.00    -0.248 NA
ATOM     44  C   UNL A   1      45.577  24.169  26.520  1.00  0.00     0.031 C 
ATOM     45  C   UNL A   1      40.927  25.141  28.182  1.00  0.00     0.029 A 
ATOM     46  N   UNL A   1      42.403  26.819  28.230  1.00  0.00    -0.354 N 
ATOM     47  C   UNL A   1      46.500  26.208  26.958  1.00  0.00     0.074 A 
ATOM     48  C   UNL A   1      46.717  24.840  26.549  1.00  0.00     0.031 C 
ATOM     49  C   UNL A   1      40.296  26.218  28.678  1.00  0.00     0.029 A 
ATOM     50  C   UNL A   1      41.235  27.334  28.740  1.00  0.00     0.049 A 
ATOM     51  H   UNL A   1      43.230  27.345  28.143  1.00  0.00     0.167 HD
ATOM     52  C   UNL A   1      47.449  27.172  26.918  1.00  0.00     0.037 A 
ATOM     53  C   UNL A   1      40.959  28.567  29.206  1.00  0.00     0.037 A 
ATOM     54  C   UNL A   1      47.225  28.537  27.316  1.00  0.00     0.049 A 
ATOM     55  C   UNL A   1      42.040  29.617  29.171  1.00  0.00     0.074 A 
ATOM     56  C   UNL A   1      48.111  29.598  27.294  1.00  0.00     0.029 A 
ATOM     57  N   UNL A   1      46.024  29.025  27.809  1.00  0.00    -0.354 N 
ATOM     58  N   UNL A   1      43.279  29.519  28.752  1.00  0.00    -0.248 NA
ATOM     59  C   UNL A   1      41.680  30.954  29.663  1.00  0.00     0.031 C 
ATOM     60  C   UNL A   1      47.459  30.719  27.820  1.00  0.00     0.029 A 
ATOM     61  C   UNL A   1      46.149  30.372  28.107  1.00  0.00     0.049 A 
ATOM     62  H   UNL A   1      45.204  28.493  27.928  1.00  0.00     0.167 HD
ATOM     63  C   UNL A   1      43.831  30.786  28.890  1.00  0.00     0.074 A 
ATOM     64  C   UNL A   1      42.786  31.639  29.415  1.00  0.00     0.031 C 
ATOM     65  C   UNL A   1      45.090  31.208  28.611  1.00  0.00     0.037 A 
BRANCH  52  66
ATOM     66  C   UNL A   1      48.807  26.784  26.408  1.00  0.00     0.064 A 
ATOM     67  C   UNL A   1      49.172  26.988  25.067  1.00  0.00     0.173 A 
ATOM     68  C   UNL A   1      49.764  26.227  27.268  1.00  0.00     0.173 A 
ATOM     69  F   UNL A   1      48.290  27.504  24.197  1.00  0.00    -0.203 F 
ATOM     70  C   UNL A   1      50.430  26.616  24.600  1.00  0.00     0.198 A 
ATOM     71  C   UNL A   1      51.034  25.890  26.806  1.00  0.00     0.198 A 
ATOM     72  F   UNL A   1      49.471  26.013  28.559  1.00  0.00    -0.203 F 
ATOM     73  F   UNL A   1      50.734  26.767  23.303  1.00  0.00    -0.200 F 
ATOM     74  C   UNL A   1      51.364  26.077  25.472  1.00  0.00     0.200 A 
ATOM     75  F   UNL A   1      51.941  25.383  27.653  1.00  0.00    -0.200 F 
ATOM     76  F   UNL A   1      52.578  25.729  25.024  1.00  0.00    -0.200 F 
ENDBRANCH  52  66
BRANCH  53  77
ATOM     77  C   UNL A   1      39.602  28.892  29.726  1.00  0.00     0.064 A 
ATOM     78  C   UNL A   1      39.259  28.647  31.064  1.00  0.00     0.173 A 
ATOM     79  C   UNL A   1      38.607  29.416  28.887  1.00  0.00     0.173 A 
ATOM     80  F   UNL A   1      40.168  28.132  31.904  1.00  0.00    -0.203 F 
ATOM     81  C   UNL A   1      37.966  28.874  31.532  1.00  0.00     0.198 A 
ATOM     82  C   UNL A   1      37.323  29.677  29.365  1.00  0.00     0.198 A 
ATOM     83  F   UNL A   1      38.880  29.677  27.601  1.00  0.00    -0.203 F 
ATOM     84  F   UNL A   1      37.650  28.564  32.797  1.00  0.00    -0.200 F 
ATOM     85  C   UNL A   1      37.000  29.391  30.683  1.00  0.00     0.200 A 
ATOM     86  F   UNL A   1      36.398  30.193  28.546  1.00  0.00    -0.200 F 
ATOM     87  F   UNL A   1      35.755  29.604  31.131  1.00  0.00    -0.200 F 
ENDBRANCH  53  77
BRANCH  65  88
ATOM     88  C   UNL A   1      45.387  32.668  28.809  1.00  0.00     0.064 A 
ATOM     89  C   UNL A   1      45.940  33.159  30.000  1.00  0.00     0.173 A 
ATOM     90  C   UNL A   1      45.138  33.584  27.775  1.00  0.00     0.173 A 
ATOM     91  F   UNL A   1      46.187  32.327  31.024  1.00  0.00    -0.203 F 
ATOM     92  C   UNL A   1      46.195  34.517  30.165  1.00  0.00     0.198 A 
ATOM     93  C   UNL A   1      45.430  34.936  27.928  1.00  0.00     0.198 A 
ATOM     94  F   UNL A   1      44.620  33.166  26.610  1.00  0.00    -0.203 F 
ATOM     95  F   UNL A   1      46.663  34.972  31.335  1.00  0.00    -0.200 F 
ATOM     96  C   UNL A   1      45.947  35.403  29.126  1.00  0.00     0.200 A 
ATOM     97  F   UNL A   1      45.209  35.786  26.917  1.00  0.00    -0.200 F 
ATOM     98  F   UNL A   1      46.198  36.710  29.285  1.00  0.00    -0.200 F 
ENDBRANCH  65  88
ENDBRANCH  39  40
ENDBRANCH  31  34
ENDBRANCH  29  30
ENDBRANCH  28  29
ENDBRANCH  27  28
ENDBRANCH  26  27
ENDBRANCH   1  26
TORSDOF 19
ENDMDL
MODEL 3
REMARK VINA RESULT:     -11.7      5.328     10.127
REMARK SMILES CC[C@](C)(NS(=O)(=O)c1ccc(C(=O)OC)cc1)C(=O)NCCCCCCNC(=O)c1ccc(-c2c3nc(c(-c4c(F)c(F)c(F)c(F)c4F)c4ccc([nH]4)c(-c4c(F)c(F)c(F)c(F)c4F)c4nc(c(-c5c(F)c(F)c(F)c(F)c5F)c5ccc2[nH]5)C=C4)C=C3)cc1
REMARK SMILES IDX 23 1 22 2 21 3 19 4 20 5 3 7 4 8 2 9 1 10 5 11 6 13 7 14
REMARK SMILES IDX 8 15 9 16 10 17 18 18 11 19 17 20 12 21 13 22 14 23 15 24
REMARK SMILES IDX 16 25 24 26 25 27 26 28 27 29 28 30 29 31 30 33 31 34 32 35
REMARK SMILES IDX 93 36 33 37 92 38 34 39 35 40 36 41 86 42 37 43 91 44 85 45
REMARK SMILES IDX 87 46 38 47 90 48 84 49 83 50 39 52 71 53 51 54 70 55 52 56
REMARK SMILES IDX 55 57 69 58 88 59 53 60 54 61 68 63 89 64 56 65 40 66 41 67
REMARK SMILES IDX 49 68 42 69 43 70 47 71 50 72 44 73 45 74 48 75 46 76 72 77
REMARK SMILES IDX 73 78 81 79 74 80 75 81 79 82 82 83 76 84 77 85 80 86 78 87
REMARK SMILES IDX 57 88 58 89 66 90 59 91 60 92 64 93 67 94 61 95 62 96 65 97
REMARK SMILES IDX 63 98
REMARK H PARENT 21 6 5 12 28 32 87 51 55 62
REMARK Flexibility Score: inf
ROOT
ATOM      1  C   UNL A   1      34.691  20.675  24.999  1.00  0.00     0.021 C 
ENDROOT
BRANCH   1   2
ATOM      2  C   UNL A   1      33.439  21.523  24.784  1.00  0.00     0.116 C 
BRANCH   2   3
ATOM      3  N   UNL A   1      33.256  22.071  23.447  1.00  0.00    -0.354 N 
ATOM      4  C   UNL A   1      33.137  23.310  22.896  1.00  0.00     0.241 C 
ATOM      5  O   UNL A   1      33.305  23.316  21.666  1.00  0.00    -0.273 OA
ATOM      6  H   UNL A   1      33.206  21.363  22.765  1.00  0.00     0.163 HD
BRANCH   4   7
ATOM      7  C   UNL A   1      32.759  24.626  23.624  1.00  0.00     0.108 C 
ATOM      8  C   UNL A   1      32.096  25.585  22.562  1.00  0.00     0.040 C 
BRANCH   7   9
ATOM      9  C   UNL A   1      34.021  25.362  24.146  1.00  0.00     0.030 C 
ATOM     10  C   UNL A   1      34.439  24.951  25.569  1.00  0.00     0.006 C 
ENDBRANCH   7   9
BRANCH   7  11
ATOM     11  N   UNL A   1      31.644  24.583  24.604  1.00  0.00    -0.196 NA
ATOM     12  H   UNL A   1      32.108  24.252  25.450  1.00  0.00     0.142 HD
BRANCH  11  13
ATOM     13  S   UNL A   1      30.544  25.656  25.197  1.00  0.00     0.241 S 
ATOM     14  O   UNL A   1      29.495  25.771  24.211  1.00  0.00    -0.207 OA
ATOM     15  O   UNL A   1      30.230  25.115  26.505  1.00  0.00    -0.207 OA
BRANCH  13  16
ATOM     16  C   UNL A   1      31.252  27.264  25.533  1.00  0.00     0.082 A 
ATOM     17  C   UNL A   1      31.860  27.461  26.783  1.00  0.00     0.022 A 
ATOM     18  C   UNL A   1      31.204  28.336  24.648  1.00  0.00     0.022 A 
ATOM     19  C   UNL A   1      32.279  28.743  27.183  1.00  0.00     0.017 A 
ATOM     20  C   UNL A   1      31.548  29.633  25.070  1.00  0.00     0.017 A 
ATOM     21  C   UNL A   1      32.057  29.851  26.355  1.00  0.00     0.060 A 
BRANCH  21  22
ATOM     22  C   UNL A   1      32.331  31.221  26.880  1.00  0.00     0.337 C 
ATOM     23  O   UNL A   1      31.503  32.124  26.883  1.00  0.00    -0.246 OA
BRANCH  22  24
ATOM     24  O   UNL A   1      33.623  31.331  27.277  1.00  0.00    -0.465 OA
ATOM     25  C   UNL A   1      33.875  32.359  28.244  1.00  0.00     0.282 C 
ENDBRANCH  22  24
ENDBRANCH  21  22
ENDBRANCH  13  16
ENDBRANCH  11  13
ENDBRANCH   7  11
ENDBRANCH   4   7
ENDBRANCH   2   3
ENDBRANCH   1   2
BRANCH   1  26
ATOM     26  C   UNL A   1      35.962  21.370  25.470  1.00  0.00     0.002 C 
BRANCH  26  27
ATOM     27  C   UNL A   1      37.197  21.149  24.607  1.00  0.00     0.002 C 
BRANCH  27  28
ATOM     28  C   UNL A   1      38.065  19.956  25.007  1.00  0.00     0.021 C 
BRANCH  28  29
ATOM     29  C   UNL A   1      39.206  20.277  25.968  1.00  0.00     0.116 C 
BRANCH  29  30
ATOM     30  N   UNL A   1      40.207  19.219  26.021  1.00  0.00    -0.352 N 
ATOM     31  C   UNL A   1      41.572  19.345  26.125  1.00  0.00     0.251 C 
ATOM     32  H   UNL A   1      39.861  18.299  25.978  1.00  0.00     0.163 HD
ATOM     33  O   UNL A   1      42.320  18.390  25.957  1.00  0.00    -0.269 OA
BRANCH  31  34
ATOM     34  C   UNL A   1      42.125  20.679  26.424  1.00  0.00     0.039 A 
ATOM     35  C   UNL A   1      42.395  21.561  25.378  1.00  0.00     0.014 A 
ATOM     36  C   UNL A   1      42.282  21.073  27.755  1.00  0.00     0.014 A 
ATOM     37  C   UNL A   1      42.766  22.874  25.675  1.00  0.00     0.010 A 
ATOM     38  C   UNL A   1      42.556  22.403  28.045  1.00  0.00     0.010 A 
ATOM     39  C   UNL A   1      42.814  23.315  27.009  1.00  0.00    -0.014 A 
BRANCH  39  40
ATOM     40  C   UNL A   1      43.168  24.718  27.339  1.00  0.00     0.031 A 
ATOM     41  C   UNL A   1      44.570  25.206  27.098  1.00  0.00     0.074 A 
ATOM     42  C   UNL A   1      42.248  25.536  27.885  1.00  0.00     0.049 A 
ATOM     43  N   UNL A   1      45.095  26.380  27.345  1.00  0.00    -0.248 NA
ATOM     44  C   UNL A   1      45.522  24.235  26.531  1.00  0.00     0.031 C 
ATOM     45  C   UNL A   1      40.872  25.163  28.219  1.00  0.00     0.029 A 
ATOM     46  N   UNL A   1      42.331  26.855  28.259  1.00  0.00    -0.354 N 
ATOM     47  C   UNL A   1      46.427  26.284  26.964  1.00  0.00     0.074 A 
ATOM     48  C   UNL A   1      46.655  24.918  26.553  1.00  0.00     0.031 C 
ATOM     49  C   UNL A   1      40.233  26.233  28.719  1.00  0.00     0.029 A 
ATOM     50  C   UNL A   1      41.161  27.359  28.776  1.00  0.00     0.049 A 
ATOM     51  H   UNL A   1      43.153  27.389  28.167  1.00  0.00     0.167 HD
ATOM     52  C   UNL A   1      47.366  27.257  26.918  1.00  0.00     0.037 A 
ATOM     53  C   UNL A   1      40.876  28.589  29.243  1.00  0.00     0.037 A 
ATOM     54  C   UNL A   1      47.132  28.619  27.317  1.00  0.00     0.049 A 
ATOM     55  C   UNL A   1      41.947  29.649  29.202  1.00  0.00     0.074 A 
ATOM     56  C   UNL A   1      48.006  29.690  27.290  1.00  0.00     0.029 A 
ATOM     57  N   UNL A   1      45.928  29.096  27.817  1.00  0.00    -0.354 N 
ATOM     58  N   UNL A   1      43.184  29.563  28.776  1.00  0.00    -0.248 NA
ATOM     59  C   UNL A   1      41.576  30.983  29.695  1.00  0.00     0.031 C 
ATOM     60  C   UNL A   1      47.347  30.804  27.820  1.00  0.00     0.029 A 
ATOM     61  C   UNL A   1      46.042  30.444  28.115  1.00  0.00     0.049 A 
ATOM     62  H   UNL A   1      45.114  28.556  27.941  1.00  0.00     0.167 HD
ATOM     63  C   UNL A   1      43.724  30.836  28.911  1.00  0.00     0.074 A 
ATOM     64  C   UNL A   1      42.675  31.678  29.442  1.00  0.00     0.031 C 
ATOM     65  C   UNL A   1      44.977  31.270  28.624  1.00  0.00     0.037 A 
BRANCH  52  66
ATOM     66  C   UNL A   1      48.725  26.882  26.400  1.00  0.00     0.064 A 
ATOM     67  C   UNL A   1      49.712  26.353  27.249  1.00  0.00     0.173 A 
ATOM     68  C   UNL A   1      49.042  27.027  25.043  1.00  0.00     0.173 A 
ATOM     69  F   UNL A   1      49.467  26.206  28.560  1.00  0.00    -0.203 F 
ATOM     70  C   UNL A   1      50.973  26.016  26.764  1.00  0.00     0.198 A 
ATOM     71  C   UNL A   1      50.292  26.655  24.553  1.00  0.00     0.198 A 
ATOM     72  F   UNL A   1      48.137  27.524  24.186  1.00  0.00    -0.203 F 
ATOM     73  F   UNL A   1      51.915  25.568  27.605  1.00  0.00    -0.200 F 
ATOM     74  C   UNL A   1      51.258  26.158  25.414  1.00  0.00     0.200 A 
ATOM     75  F   UNL A   1      50.561  26.779  23.246  1.00  0.00    -0.200 F 
ATOM     76  F   UNL A   1      52.469  25.825  24.946  1.00  0.00    -0.200 F 
ENDBRANCH  52  66
BRANCH  53  77
ATOM     77  C   UNL A   1      39.519  28.900  29.771  1.00  0.00     0.064 A 
ATOM     78  C   UNL A   1      38.515  29.416  28.937  1.00  0.00     0.173 A 
ATOM     79  C   UNL A   1      39.209  28.728  31.128  1.00  0.00     0.173 A 
ATOM     80  F   UNL A   1      38.764  29.615  27.635  1.00  0.00    -0.203 F 
ATOM     81  C   UNL A   1      37.272  29.785  29.446  1.00  0.00     0.198 A 
ATOM     82  C   UNL A   1      37.952  29.064  31.630  1.00  0.00     0.198 A 
ATOM     83  F   UNL A   1      40.127  28.232  31.970  1.00  0.00    -0.203 F 
ATOM     84  F   UNL A   1      36.358  30.340  28.639  1.00  0.00    -0.200 F 
ATOM     85  C   UNL A   1      36.990  29.606  30.792  1.00  0.00     0.200 A 
ATOM     86  F   UNL A   1      37.678  28.872  32.927  1.00  0.00    -0.200 F 
ATOM     87  F   UNL A   1      35.796  29.966  31.283  1.00  0.00    -0.200 F 
ENDBRANCH  53  77
BRANCH  65  88
ATOM     88  C   UNL A   1      45.262  32.732  28.821  1.00  0.00     0.064 A 
ATOM     89  C   UNL A   1      45.845  33.225  29.997  1.00  0.00     0.173 A 
ATOM     90  C   UNL A   1      44.969  33.651  27.800  1.00  0.00     0.173 A 
ATOM     91  F   UNL A   1      46.134  32.392  31.008  1.00  0.00    -0.203 F 
ATOM     92  C   UNL A   1      46.087  34.586  30.161  1.00  0.00     0.198 A 
ATOM     93  C   UNL A   1      45.248  35.005  27.950  1.00  0.00     0.198 A 
ATOM     94  F   UNL A   1      44.420  33.231  26.649  1.00  0.00    -0.203 F 
ATOM     95  F   UNL A   1      46.585  35.042  31.318  1.00  0.00    -0.200 F 
ATOM     96  C   UNL A   1      45.795  35.473  29.134  1.00  0.00     0.200 A 
ATOM     97  F   UNL A   1      44.984  35.857  26.951  1.00  0.00    -0.200 F 
ATOM     98  F   UNL A   1      46.033  36.783  29.292  1.00  0.00    -0.200 F 
ENDBRANCH  65  88
ENDBRANCH  39  40
ENDBRANCH  31  34
ENDBRANCH  29  30
ENDBRANCH  28  29
ENDBRANCH  27  28
ENDBRANCH  26  27
ENDBRANCH   1  26
TORSDOF 19
ENDMDL
