MODEL 1
REMARK VINA RESULT:     -11.1      0.000      0.000
REMARK SMILES C[C@@]([NH3+])(Cc1ccccc1Br)C(=O)NCCCCCCNC(=O)c1ccc(-c2c3nc(c(-c4c(F)c(F)c(F)c(F)c4F)c4ccc([nH]4)c(-c4c(F)c(F)c(F)c(F)c4F)c4nc(c(-c5c(F)c(F)c(F)c(F)c5F)c5ccc2[nH]5)C=C4)C=C3)cc1
REMARK SMILES IDX 17 1 16 2 15 3 14 4 12 5 13 6 2 8 1 9 3 10 4 14 5 15 6 16
REMARK SMILES IDX 10 17 7 18 9 19 11 20 8 21 18 22 19 23 20 24 21 25 22 26
REMARK SMILES IDX 23 28 24 29 25 30 86 31 26 32 85 33 27 34 28 35 29 36 79 37
REMARK SMILES IDX 30 38 84 39 78 40 80 41 31 42 83 43 77 44 76 45 32 47 64 48
REMARK SMILES IDX 44 49 63 50 45 51 48 52 62 53 81 54 46 55 47 56 61 58 82 59
REMARK SMILES IDX 49 60 33 61 34 62 42 63 35 64 36 65 40 66 43 67 37 68 38 69
REMARK SMILES IDX 41 70 39 71 65 72 66 73 74 74 67 75 68 76 72 77 75 78 69 79
REMARK SMILES IDX 70 80 73 81 71 82 50 83 51 84 59 85 52 86 53 87 57 88 60 89
REMARK SMILES IDX 54 90 55 91 58 92 56 93
REMARK H PARENT 14 7 3 11 3 12 3 13 21 27 80 46 48 57
REMARK Flexibility Score: inf
ROOT
ATOM      1  C   UNL A   1      32.762  30.011  25.924  1.00  0.00     0.002 C 
ENDROOT
BRANCH   1   2
ATOM      2  C   UNL A   1      32.717  29.298  24.568  1.00  0.00     0.021 C 
BRANCH   2   3
ATOM      3  C   UNL A   1      33.621  28.069  24.451  1.00  0.00     0.116 C 
BRANCH   3   4
ATOM      4  N   UNL A   1      33.634  27.519  23.107  1.00  0.00    -0.351 N 
ATOM      5  C   UNL A   1      33.563  26.246  22.618  1.00  0.00     0.281 C 
ATOM      6  O   UNL A   1      33.593  26.145  21.387  1.00  0.00    -0.268 OA
ATOM      7  H   UNL A   1      33.709  28.204  22.405  1.00  0.00     0.163 HD
BRANCH   5   8
ATOM      8  C   UNL A   1      33.407  24.997  23.543  1.00  0.00     0.175 C 
ATOM      9  C   UNL A   1      33.408  23.717  22.680  1.00  0.00     0.090 C 
BRANCH   8  10
ATOM     10  N   UNL A   1      32.045  25.043  24.159  1.00  0.00    -0.345 N 
ATOM     11  H   UNL A   1      31.359  24.682  23.497  1.00  0.00     0.345 HD
ATOM     12  H   UNL A   1      31.813  26.007  24.398  1.00  0.00     0.345 HD
ATOM     13  H   UNL A   1      32.035  24.472  25.005  1.00  0.00     0.345 HD
ENDBRANCH   8  10
BRANCH   8  14
ATOM     14  C   UNL A   1      34.500  24.901  24.645  1.00  0.00     0.115 C 
BRANCH  14  15
ATOM     15  C   UNL A   1      35.201  23.560  24.794  1.00  0.00    -0.027 A 
ATOM     16  C   UNL A   1      36.369  23.318  24.044  1.00  0.00     0.005 A 
ATOM     17  C   UNL A   1      34.754  22.539  25.652  1.00  0.00     0.021 A 
ATOM     18  C   UNL A   1      37.054  22.105  24.130  1.00  0.00     0.000 A 
ATOM     19  C   UNL A   1      35.448  21.323  25.740  1.00  0.00     0.016 A 
ATOM     20  Br  UNL A   1      33.207  22.703  26.745  1.00  0.00    -0.051 Br
ATOM     21  C   UNL A   1      36.594  21.106  24.978  1.00  0.00     0.001 A 
ENDBRANCH  14  15
ENDBRANCH   8  14
ENDBRANCH   5   8
ENDBRANCH   3   4
ENDBRANCH   2   3
ENDBRANCH   1   2
BRANCH   1  22
ATOM     22  C   UNL A   1      31.434  30.603  26.404  1.00  0.00     0.002 C 
BRANCH  22  23
ATOM     23  C   UNL A   1      31.389  32.130  26.517  1.00  0.00     0.021 C 
BRANCH  23  24
ATOM     24  C   UNL A   1      32.674  32.791  27.007  1.00  0.00     0.116 C 
BRANCH  24  25
ATOM     25  N   UNL A   1      32.441  34.103  27.585  1.00  0.00    -0.352 N 
ATOM     26  C   UNL A   1      33.067  34.725  28.634  1.00  0.00     0.251 C 
ATOM     27  H   UNL A   1      31.724  34.625  27.156  1.00  0.00     0.163 HD
ATOM     28  O   UNL A   1      32.617  35.783  29.070  1.00  0.00    -0.269 OA
BRANCH  26  29
ATOM     29  C   UNL A   1      34.264  34.128  29.268  1.00  0.00     0.039 A 
ATOM     30  C   UNL A   1      34.078  33.170  30.269  1.00  0.00     0.014 A 
ATOM     31  C   UNL A   1      35.558  34.530  28.921  1.00  0.00     0.014 A 
ATOM     32  C   UNL A   1      35.184  32.577  30.882  1.00  0.00     0.010 A 
ATOM     33  C   UNL A   1      36.663  33.896  29.492  1.00  0.00     0.010 A 
ATOM     34  C   UNL A   1      36.486  32.916  30.480  1.00  0.00    -0.014 A 
BRANCH  34  35
ATOM     35  C   UNL A   1      37.661  32.236  31.081  1.00  0.00     0.031 A 
ATOM     36  C   UNL A   1      38.147  32.611  32.453  1.00  0.00     0.074 A 
ATOM     37  C   UNL A   1      38.316  31.297  30.372  1.00  0.00     0.049 A 
ATOM     38  N   UNL A   1      39.151  32.122  33.138  1.00  0.00    -0.248 NA
ATOM     39  C   UNL A   1      37.428  33.696  33.136  1.00  0.00     0.031 C 
ATOM     40  C   UNL A   1      37.981  30.886  29.007  1.00  0.00     0.029 A 
ATOM     41  N   UNL A   1      39.400  30.522  30.696  1.00  0.00    -0.354 N 
ATOM     42  C   UNL A   1      39.189  32.842  34.324  1.00  0.00     0.074 A 
ATOM     43  C   UNL A   1      38.136  33.833  34.249  1.00  0.00     0.031 C 
ATOM     44  C   UNL A   1      38.827  29.917  28.621  1.00  0.00     0.029 A 
ATOM     45  C   UNL A   1      39.775  29.655  29.699  1.00  0.00     0.049 A 
ATOM     46  H   UNL A   1      39.866  30.582  31.561  1.00  0.00     0.167 HD
ATOM     47  C   UNL A   1      40.012  32.677  35.388  1.00  0.00     0.037 A 
ATOM     48  C   UNL A   1      40.767  28.745  29.662  1.00  0.00     0.037 A 
ATOM     49  C   UNL A   1      41.040  31.672  35.475  1.00  0.00     0.049 A 
ATOM     50  C   UNL A   1      41.643  28.559  30.870  1.00  0.00     0.074 A 
ATOM     51  C   UNL A   1      41.877  31.383  36.539  1.00  0.00     0.029 A 
ATOM     52  N   UNL A   1      41.372  30.793  34.456  1.00  0.00    -0.354 N 
ATOM     53  N   UNL A   1      41.616  29.193  32.017  1.00  0.00    -0.248 NA
ATOM     54  C   UNL A   1      42.678  27.521  30.781  1.00  0.00     0.031 C 
ATOM     55  C   UNL A   1      42.739  30.351  36.151  1.00  0.00     0.029 A 
ATOM     56  C   UNL A   1      42.413  29.971  34.859  1.00  0.00     0.049 A 
ATOM     57  H   UNL A   1      40.932  30.757  33.576  1.00  0.00     0.167 HD
ATOM     58  C   UNL A   1      42.616  28.621  32.791  1.00  0.00     0.074 A 
ATOM     59  C   UNL A   1      43.216  27.572  31.991  1.00  0.00     0.031 C 
ATOM     60  C   UNL A   1      43.003  28.937  34.050  1.00  0.00     0.037 A 
BRANCH  47  61
ATOM     61  C   UNL A   1      39.828  33.602  36.555  1.00  0.00     0.064 A 
ATOM     62  C   UNL A   1      40.490  34.837  36.624  1.00  0.00     0.173 A 
ATOM     63  C   UNL A   1      38.948  33.270  37.597  1.00  0.00     0.173 A 
ATOM     64  F   UNL A   1      41.349  35.196  35.658  1.00  0.00    -0.203 F 
ATOM     65  C   UNL A   1      40.296  35.695  37.703  1.00  0.00     0.198 A 
ATOM     66  C   UNL A   1      38.738  34.141  38.662  1.00  0.00     0.198 A 
ATOM     67  F   UNL A   1      38.286  32.103  37.577  1.00  0.00    -0.203 F 
ATOM     68  F   UNL A   1      40.971  36.851  37.767  1.00  0.00    -0.200 F 
ATOM     69  C   UNL A   1      39.416  35.350  38.718  1.00  0.00     0.200 A 
ATOM     70  F   UNL A   1      37.879  33.812  39.637  1.00  0.00    -0.200 F 
ATOM     71  F   UNL A   1      39.225  36.179  39.753  1.00  0.00    -0.200 F 
ENDBRANCH  47  61
BRANCH  48  72
ATOM     72  C   UNL A   1      40.958  27.911  28.449  1.00  0.00     0.064 A 
ATOM     73  C   UNL A   1      41.811  28.328  27.417  1.00  0.00     0.173 A 
ATOM     74  C   UNL A   1      40.297  26.685  28.296  1.00  0.00     0.173 A 
ATOM     75  F   UNL A   1      42.449  29.505  27.512  1.00  0.00    -0.203 F 
ATOM     76  C   UNL A   1      41.981  27.558  26.270  1.00  0.00     0.198 A 
ATOM     77  C   UNL A   1      40.487  25.904  27.159  1.00  0.00     0.198 A 
ATOM     78  F   UNL A   1      39.475  26.241  29.258  1.00  0.00    -0.203 F 
ATOM     79  F   UNL A   1      42.771  27.998  25.281  1.00  0.00    -0.200 F 
ATOM     80  C   UNL A   1      41.323  26.344  26.143  1.00  0.00     0.200 A 
ATOM     81  F   UNL A   1      39.860  24.725  27.046  1.00  0.00    -0.200 F 
ATOM     82  F   UNL A   1      41.490  25.601  25.040  1.00  0.00    -0.200 F 
ENDBRANCH  48  72
BRANCH  60  83
ATOM     83  C   UNL A   1      44.119  28.128  34.643  1.00  0.00     0.064 A 
ATOM     84  C   UNL A   1      43.868  26.932  35.333  1.00  0.00     0.173 A 
ATOM     85  C   UNL A   1      45.451  28.544  34.508  1.00  0.00     0.173 A 
ATOM     86  F   UNL A   1      42.608  26.502  35.503  1.00  0.00    -0.203 F 
ATOM     87  C   UNL A   1      44.910  26.198  35.893  1.00  0.00     0.198 A 
ATOM     88  C   UNL A   1      46.493  27.793  35.046  1.00  0.00     0.198 A 
ATOM     89  F   UNL A   1      45.742  29.677  33.854  1.00  0.00    -0.203 F 
ATOM     90  F   UNL A   1      44.644  25.086  36.592  1.00  0.00    -0.200 F 
ATOM     91  C   UNL A   1      46.221  26.626  35.745  1.00  0.00     0.200 A 
ATOM     92  F   UNL A   1      47.760  28.203  34.896  1.00  0.00    -0.200 F 
ATOM     93  F   UNL A   1      47.223  25.920  36.287  1.00  0.00    -0.200 F 
ENDBRANCH  60  83
ENDBRANCH  34  35
ENDBRANCH  26  29
ENDBRANCH  24  25
ENDBRANCH  23  24
ENDBRANCH  22  23
ENDBRANCH   1  22
TORSDOF 16
ENDMDL
MODEL 2
REMARK VINA RESULT:     -11.1      6.267     11.744
REMARK SMILES C[C@@]([NH3+])(Cc1ccccc1Br)C(=O)NCCCCCCNC(=O)c1ccc(-c2c3nc(c(-c4c(F)c(F)c(F)c(F)c4F)c4ccc([nH]4)c(-c4c(F)c(F)c(F)c(F)c4F)c4nc(c(-c5c(F)c(F)c(F)c(F)c5F)c5ccc2[nH]5)C=C4)C=C3)cc1
REMARK SMILES IDX 17 1 16 2 15 3 14 4 12 5 13 6 2 8 1 9 3 10 4 14 5 15 6 16
REMARK SMILES IDX 10 17 7 18 9 19 11 20 8 21 18 22 19 23 20 24 21 25 22 26
REMARK SMILES IDX 23 28 24 29 25 30 86 31 26 32 85 33 27 34 28 35 29 36 79 37
REMARK SMILES IDX 30 38 84 39 78 40 80 41 31 42 83 43 77 44 76 45 32 47 64 48
REMARK SMILES IDX 44 49 63 50 45 51 48 52 62 53 81 54 46 55 47 56 61 58 82 59
REMARK SMILES IDX 49 60 33 61 34 62 42 63 35 64 36 65 40 66 43 67 37 68 38 69
REMARK SMILES IDX 41 70 39 71 65 72 66 73 74 74 67 75 68 76 72 77 75 78 69 79
REMARK SMILES IDX 70 80 73 81 71 82 50 83 51 84 59 85 52 86 53 87 57 88 60 89
REMARK SMILES IDX 54 90 55 91 58 92 56 93
REMARK H PARENT 14 7 3 11 3 12 3 13 21 27 80 46 48 57
REMARK Flexibility Score: inf
ROOT
ATOM      1  C   UNL A   1      41.377  21.946  26.364  1.00  0.00     0.002 C 
ENDROOT
BRANCH   1   2
ATOM      2  C   UNL A   1      40.308  22.621  27.231  1.00  0.00     0.021 C 
BRANCH   2   3
ATOM      3  C   UNL A   1      39.004  22.959  26.507  1.00  0.00     0.116 C 
BRANCH   3   4
ATOM      4  N   UNL A   1      38.304  21.773  26.046  1.00  0.00    -0.351 N 
ATOM      5  C   UNL A   1      37.178  21.585  25.296  1.00  0.00     0.281 C 
ATOM      6  O   UNL A   1      36.870  20.408  25.083  1.00  0.00    -0.268 OA
ATOM      7  H   UNL A   1      38.728  20.933  26.332  1.00  0.00     0.163 HD
BRANCH   5   8
ATOM      8  C   UNL A   1      36.355  22.772  24.702  1.00  0.00     0.175 C 
ATOM      9  C   UNL A   1      35.126  22.217  23.950  1.00  0.00     0.090 C 
BRANCH   8  10
ATOM     10  N   UNL A   1      37.185  23.432  23.649  1.00  0.00    -0.345 N 
ATOM     11  H   UNL A   1      37.526  22.729  22.994  1.00  0.00     0.345 HD
ATOM     12  H   UNL A   1      37.977  23.903  24.086  1.00  0.00     0.345 HD
ATOM     13  H   UNL A   1      36.618  24.118  23.149  1.00  0.00     0.345 HD
ENDBRANCH   8  10
BRANCH   8  14
ATOM     14  C   UNL A   1      35.904  23.809  25.771  1.00  0.00     0.115 C 
BRANCH  14  15
ATOM     15  C   UNL A   1      34.459  23.724  26.235  1.00  0.00    -0.027 A 
ATOM     16  C   UNL A   1      34.095  22.706  27.138  1.00  0.00     0.005 A 
ATOM     17  C   UNL A   1      33.454  24.617  25.820  1.00  0.00     0.021 A 
ATOM     18  C   UNL A   1      32.783  22.570  27.595  1.00  0.00     0.000 A 
ATOM     19  C   UNL A   1      32.138  24.481  26.286  1.00  0.00     0.016 A 
ATOM     20  Br  UNL A   1      33.774  26.056  24.618  1.00  0.00    -0.051 Br
ATOM     21  C   UNL A   1      31.803  23.458  27.169  1.00  0.00     0.001 A 
ENDBRANCH  14  15
ENDBRANCH   8  14
ENDBRANCH   5   8
ENDBRANCH   3   4
ENDBRANCH   2   3
ENDBRANCH   1   2
BRANCH   1  22
ATOM     22  C   UNL A   1      41.934  20.627  26.907  1.00  0.00     0.002 C 
BRANCH  22  23
ATOM     23  C   UNL A   1      42.147  19.520  25.871  1.00  0.00     0.021 C 
BRANCH  23  24
ATOM     24  C   UNL A   1      43.449  18.734  26.006  1.00  0.00     0.116 C 
BRANCH  24  25
ATOM     25  N   UNL A   1      44.181  18.646  24.755  1.00  0.00    -0.352 N 
ATOM     26  C   UNL A   1      44.783  19.633  24.018  1.00  0.00     0.251 C 
ATOM     27  H   UNL A   1      44.256  17.739  24.379  1.00  0.00     0.163 HD
ATOM     28  O   UNL A   1      45.224  19.374  22.899  1.00  0.00    -0.269 OA
BRANCH  26  29
ATOM     29  C   UNL A   1      44.888  21.015  24.538  1.00  0.00     0.039 A 
ATOM     30  C   UNL A   1      45.506  21.213  25.777  1.00  0.00     0.014 A 
ATOM     31  C   UNL A   1      44.353  22.106  23.844  1.00  0.00     0.014 A 
ATOM     32  C   UNL A   1      45.633  22.504  26.294  1.00  0.00     0.010 A 
ATOM     33  C   UNL A   1      44.532  23.400  24.334  1.00  0.00     0.010 A 
ATOM     34  C   UNL A   1      45.171  23.612  25.565  1.00  0.00    -0.014 A 
BRANCH  34  35
ATOM     35  C   UNL A   1      45.370  24.989  26.081  1.00  0.00     0.031 A 
ATOM     36  C   UNL A   1      46.722  25.642  26.029  1.00  0.00     0.074 A 
ATOM     37  C   UNL A   1      44.331  25.643  26.635  1.00  0.00     0.049 A 
ATOM     38  N   UNL A   1      47.080  26.838  26.428  1.00  0.00    -0.248 NA
ATOM     39  C   UNL A   1      47.824  24.839  25.480  1.00  0.00     0.031 C 
ATOM     40  C   UNL A   1      42.982  25.097  26.801  1.00  0.00     0.029 A 
ATOM     41  N   UNL A   1      44.244  26.907  27.163  1.00  0.00    -0.354 N 
ATOM     42  C   UNL A   1      48.444  26.927  26.186  1.00  0.00     0.074 A 
ATOM     43  C   UNL A   1      48.861  25.648  25.649  1.00  0.00     0.031 C 
ATOM     44  C   UNL A   1      42.199  26.028  27.368  1.00  0.00     0.029 A 
ATOM     45  C   UNL A   1      42.992  27.226  27.624  1.00  0.00     0.049 A 
ATOM     46  H   UNL A   1      45.009  27.525  27.207  1.00  0.00     0.167 HD
ATOM     47  C   UNL A   1      49.270  27.984  26.375  1.00  0.00     0.037 A 
ATOM     48  C   UNL A   1      42.532  28.361  28.185  1.00  0.00     0.037 A 
ATOM     49  C   UNL A   1      48.850  29.265  26.882  1.00  0.00     0.049 A 
ATOM     50  C   UNL A   1      43.462  29.530  28.351  1.00  0.00     0.074 A 
ATOM     51  C   UNL A   1      49.599  30.418  27.043  1.00  0.00     0.029 A 
ATOM     52  N   UNL A   1      47.566  29.561  27.313  1.00  0.00    -0.354 N 
ATOM     53  N   UNL A   1      44.732  29.628  28.044  1.00  0.00    -0.248 NA
ATOM     54  C   UNL A   1      42.888  30.753  28.929  1.00  0.00     0.031 C 
ATOM     55  C   UNL A   1      48.776  31.401  27.604  1.00  0.00     0.029 A 
ATOM     56  C   UNL A   1      47.505  30.873  27.757  1.00  0.00     0.049 A 
ATOM     57  H   UNL A   1      46.809  28.931  27.305  1.00  0.00     0.167 HD
ATOM     58  C   UNL A   1      45.105  30.923  28.374  1.00  0.00     0.074 A 
ATOM     59  C   UNL A   1      43.920  31.583  28.884  1.00  0.00     0.031 C 
ATOM     60  C   UNL A   1      46.320  31.513  28.267  1.00  0.00     0.037 A 
BRANCH  47  61
ATOM     61  C   UNL A   1      50.717  27.805  26.020  1.00  0.00     0.064 A 
ATOM     62  C   UNL A   1      51.675  27.482  26.992  1.00  0.00     0.173 A 
ATOM     63  C   UNL A   1      51.143  27.916  24.688  1.00  0.00     0.173 A 
ATOM     64  F   UNL A   1      51.319  27.375  28.281  1.00  0.00    -0.203 F 
ATOM     65  C   UNL A   1      53.012  27.299  26.647  1.00  0.00     0.198 A 
ATOM     66  C   UNL A   1      52.477  27.708  24.343  1.00  0.00     0.198 A 
ATOM     67  F   UNL A   1      50.266  28.218  23.719  1.00  0.00    -0.203 F 
ATOM     68  F   UNL A   1      53.917  27.031  27.599  1.00  0.00    -0.200 F 
ATOM     69  C   UNL A   1      53.411  27.406  25.324  1.00  0.00     0.200 A 
ATOM     70  F   UNL A   1      52.859  27.801  23.062  1.00  0.00    -0.200 F 
ATOM     71  F   UNL A   1      54.696  27.224  24.992  1.00  0.00    -0.200 F 
ENDBRANCH  47  61
BRANCH  48  72
ATOM     72  C   UNL A   1      41.108  28.457  28.595  1.00  0.00     0.064 A 
ATOM     73  C   UNL A   1      40.134  28.926  27.703  1.00  0.00     0.173 A 
ATOM     74  C   UNL A   1      40.693  28.082  29.880  1.00  0.00     0.173 A 
ATOM     75  F   UNL A   1      40.489  29.315  26.469  1.00  0.00    -0.203 F 
ATOM     76  C   UNL A   1      38.800  29.034  28.087  1.00  0.00     0.198 A 
ATOM     77  C   UNL A   1      39.355  28.167  30.256  1.00  0.00     0.198 A 
ATOM     78  F   UNL A   1      41.588  27.622  30.767  1.00  0.00    -0.203 F 
ATOM     79  F   UNL A   1      37.895  29.523  27.229  1.00  0.00    -0.200 F 
ATOM     80  C   UNL A   1      38.410  28.650  29.362  1.00  0.00     0.200 A 
ATOM     81  F   UNL A   1      38.980  27.784  31.483  1.00  0.00    -0.200 F 
ATOM     82  F   UNL A   1      37.125  28.751  29.730  1.00  0.00    -0.200 F 
ENDBRANCH  48  72
BRANCH  60  83
ATOM     83  C   UNL A   1      46.422  32.947  28.696  1.00  0.00     0.064 A 
ATOM     84  C   UNL A   1      46.764  33.294  30.011  1.00  0.00     0.173 A 
ATOM     85  C   UNL A   1      46.189  33.983  27.781  1.00  0.00     0.173 A 
ATOM     86  F   UNL A   1      46.979  32.337  30.928  1.00  0.00    -0.203 F 
ATOM     87  C   UNL A   1      46.839  34.627  30.402  1.00  0.00     0.198 A 
ATOM     88  C   UNL A   1      46.292  35.316  28.169  1.00  0.00     0.198 A 
ATOM     89  F   UNL A   1      45.864  33.703  26.511  1.00  0.00    -0.203 F 
ATOM     90  F   UNL A   1      47.117  34.936  31.677  1.00  0.00    -0.200 F 
ATOM     91  C   UNL A   1      46.608  35.637  29.480  1.00  0.00     0.200 A 
ATOM     92  F   UNL A   1      46.077  36.291  27.275  1.00  0.00    -0.200 F 
ATOM     93  F   UNL A   1      46.678  36.921  29.859  1.00  0.00    -0.200 F 
ENDBRANCH  60  83
ENDBRANCH  34  35
ENDBRANCH  26  29
ENDBRANCH  24  25
ENDBRANCH  23  24
ENDBRANCH  22  23
ENDBRANCH   1  22
TORSDOF 16
ENDMDL
MODEL 3
REMARK VINA RESULT:     -11.1      3.585      5.210
REMARK SMILES C[C@@]([NH3+])(Cc1ccccc1Br)C(=O)NCCCCCCNC(=O)c1ccc(-c2c3nc(c(-c4c(F)c(F)c(F)c(F)c4F)c4ccc([nH]4)c(-c4c(F)c(F)c(F)c(F)c4F)c4nc(c(-c5c(F)c(F)c(F)c(F)c5F)c5ccc2[nH]5)C=C4)C=C3)cc1
REMARK SMILES IDX 17 1 16 2 15 3 14 4 12 5 13 6 2 8 1 9 3 10 4 14 5 15 6 16
REMARK SMILES IDX 10 17 7 18 9 19 11 20 8 21 18 22 19 23 20 24 21 25 22 26
REMARK SMILES IDX 23 28 24 29 25 30 86 31 26 32 85 33 27 34 28 35 29 36 79 37
REMARK SMILES IDX 30 38 84 39 78 40 80 41 31 42 83 43 77 44 76 45 32 47 64 48
REMARK SMILES IDX 44 49 63 50 45 51 48 52 62 53 81 54 46 55 47 56 61 58 82 59
REMARK SMILES IDX 49 60 33 61 34 62 42 63 35 64 36 65 40 66 43 67 37 68 38 69
REMARK SMILES IDX 41 70 39 71 65 72 66 73 74 74 67 75 68 76 72 77 75 78 69 79
REMARK SMILES IDX 70 80 73 81 71 82 50 83 51 84 59 85 52 86 53 87 57 88 60 89
REMARK SMILES IDX 54 90 55 91 58 92 56 93
REMARK H PARENT 14 7 3 11 3 12 3 13 21 27 80 46 48 57
REMARK Flexibility Score: inf
ROOT
ATOM      1  C   UNL A   1      31.441  28.954  24.343  1.00  0.00     0.002 C 
ENDROOT
BRANCH   1   2
ATOM      2  C   UNL A   1      31.537  28.701  22.834  1.00  0.00     0.021 C 
BRANCH   2   3
ATOM      3  C   UNL A   1      30.959  27.366  22.362  1.00  0.00     0.116 C 
BRANCH   3   4
ATOM      4  N   UNL A   1      31.830  26.691  21.417  1.00  0.00    -0.351 N 
ATOM      5  C   UNL A   1      32.513  25.509  21.456  1.00  0.00     0.281 C 
ATOM      6  O   UNL A   1      33.165  25.236  20.443  1.00  0.00    -0.268 OA
ATOM      7  H   UNL A   1      31.954  27.186  20.576  1.00  0.00     0.163 HD
BRANCH   5   8
ATOM      8  C   UNL A   1      32.442  24.536  22.677  1.00  0.00     0.175 C 
ATOM      9  C   UNL A   1      33.229  23.248  22.352  1.00  0.00     0.090 C 
BRANCH   8  10
ATOM     10  N   UNL A   1      31.024  24.090  22.833  1.00  0.00    -0.345 N 
ATOM     11  H   UNL A   1      30.629  23.883  21.917  1.00  0.00     0.345 HD
ATOM     12  H   UNL A   1      30.482  24.832  23.277  1.00  0.00     0.345 HD
ATOM     13  H   UNL A   1      30.993  23.252  23.415  1.00  0.00     0.345 HD
ENDBRANCH   8  10
BRANCH   8  14
ATOM     14  C   UNL A   1      32.965  25.164  24.000  1.00  0.00     0.115 C 
BRANCH  14  15
ATOM     15  C   UNL A   1      32.978  24.260  25.223  1.00  0.00    -0.027 A 
ATOM     16  C   UNL A   1      31.763  23.995  25.883  1.00  0.00     0.005 A 
ATOM     17  C   UNL A   1      34.143  23.660  25.735  1.00  0.00     0.021 A 
ATOM     18  C   UNL A   1      31.709  23.181  27.016  1.00  0.00     0.000 A 
ATOM     19  C   UNL A   1      34.084  22.837  26.870  1.00  0.00     0.016 A 
ATOM     20  Br  UNL A   1      35.863  23.899  24.960  1.00  0.00    -0.051 Br
ATOM     21  C   UNL A   1      32.871  22.601  27.510  1.00  0.00     0.001 A 
ENDBRANCH  14  15
ENDBRANCH   8  14
ENDBRANCH   5   8
ENDBRANCH   3   4
ENDBRANCH   2   3
ENDBRANCH   1   2
BRANCH   1  22
ATOM     22  C   UNL A   1      32.740  29.393  25.025  1.00  0.00     0.002 C 
BRANCH  22  23
ATOM     23  C   UNL A   1      33.583  28.268  25.633  1.00  0.00     0.021 C 
BRANCH  23  24
ATOM     24  C   UNL A   1      33.941  28.438  27.107  1.00  0.00     0.116 C 
BRANCH  24  25
ATOM     25  N   UNL A   1      33.799  29.811  27.561  1.00  0.00    -0.352 N 
ATOM     26  C   UNL A   1      34.677  30.602  28.256  1.00  0.00     0.251 C 
ATOM     27  H   UNL A   1      32.941  30.237  27.334  1.00  0.00     0.163 HD
ATOM     28  O   UNL A   1      34.307  31.694  28.681  1.00  0.00    -0.269 OA
BRANCH  26  29
ATOM     29  C   UNL A   1      36.062  30.149  28.524  1.00  0.00     0.039 A 
ATOM     30  C   UNL A   1      37.018  30.304  27.516  1.00  0.00     0.014 A 
ATOM     31  C   UNL A   1      36.416  29.541  29.732  1.00  0.00     0.014 A 
ATOM     32  C   UNL A   1      38.336  29.900  27.737  1.00  0.00     0.010 A 
ATOM     33  C   UNL A   1      37.745  29.190  29.974  1.00  0.00     0.010 A 
ATOM     34  C   UNL A   1      38.717  29.363  28.977  1.00  0.00    -0.014 A 
BRANCH  34  35
ATOM     35  C   UNL A   1      40.133  28.998  29.237  1.00  0.00     0.031 A 
ATOM     36  C   UNL A   1      41.038  29.924  29.999  1.00  0.00     0.074 A 
ATOM     37  C   UNL A   1      40.615  27.839  28.751  1.00  0.00     0.049 A 
ATOM     38  N   UNL A   1      42.297  29.769  30.324  1.00  0.00    -0.248 NA
ATOM     39  C   UNL A   1      40.461  31.205  30.433  1.00  0.00     0.031 C 
ATOM     40  C   UNL A   1      39.857  26.881  27.944  1.00  0.00     0.029 A 
ATOM     41  N   UNL A   1      41.859  27.269  28.861  1.00  0.00    -0.354 N 
ATOM     42  C   UNL A   1      42.664  30.931  30.990  1.00  0.00     0.074 A 
ATOM     43  C   UNL A   1      41.508  31.803  30.984  1.00  0.00     0.031 C 
ATOM     44  C   UNL A   1      40.642  25.833  27.653  1.00  0.00     0.029 A 
ATOM     45  C   UNL A   1      41.964  26.053  28.232  1.00  0.00     0.049 A 
ATOM     46  H   UNL A   1      42.605  27.692  29.344  1.00  0.00     0.167 HD
ATOM     47  C   UNL A   1      43.850  31.234  31.572  1.00  0.00     0.037 A 
ATOM     48  C   UNL A   1      43.007  25.207  28.140  1.00  0.00     0.037 A 
ATOM     49  C   UNL A   1      44.990  30.355  31.603  1.00  0.00     0.049 A 
ATOM     50  C   UNL A   1      44.300  25.552  28.824  1.00  0.00     0.074 A 
ATOM     51  C   UNL A   1      46.211  30.545  32.228  1.00  0.00     0.029 A 
ATOM     52  N   UNL A   1      45.051  29.118  30.979  1.00  0.00    -0.354 N 
ATOM     53  N   UNL A   1      44.609  26.619  29.520  1.00  0.00    -0.248 NA
ATOM     54  C   UNL A   1      45.386  24.567  28.722  1.00  0.00     0.031 C 
ATOM     55  C   UNL A   1      47.022  29.439  31.953  1.00  0.00     0.029 A 
ATOM     56  C   UNL A   1      46.294  28.542  31.190  1.00  0.00     0.049 A 
ATOM     57  H   UNL A   1      44.318  28.710  30.463  1.00  0.00     0.167 HD
ATOM     58  C   UNL A   1      45.914  26.428  29.952  1.00  0.00     0.074 A 
ATOM     59  C   UNL A   1      46.331  25.131  29.460  1.00  0.00     0.031 C 
ATOM     60  C   UNL A   1      46.696  27.254  30.688  1.00  0.00     0.037 A 
BRANCH  47  61
ATOM     61  C   UNL A   1      43.973  32.574  32.235  1.00  0.00     0.064 A 
ATOM     62  C   UNL A   1      44.405  33.706  31.528  1.00  0.00     0.173 A 
ATOM     63  C   UNL A   1      43.614  32.738  33.582  1.00  0.00     0.173 A 
ATOM     64  F   UNL A   1      44.769  33.598  30.241  1.00  0.00    -0.203 F 
ATOM     65  C   UNL A   1      44.496  34.948  32.150  1.00  0.00     0.198 A 
ATOM     66  C   UNL A   1      43.683  33.987  34.194  1.00  0.00     0.198 A 
ATOM     67  F   UNL A   1      43.189  31.689  34.302  1.00  0.00    -0.203 F 
ATOM     68  F   UNL A   1      44.951  36.006  31.465  1.00  0.00    -0.200 F 
ATOM     69  C   UNL A   1      44.130  35.089  33.480  1.00  0.00     0.200 A 
ATOM     70  F   UNL A   1      43.318  34.125  35.477  1.00  0.00    -0.200 F 
ATOM     71  F   UNL A   1      44.212  36.287  34.077  1.00  0.00    -0.200 F 
ENDBRANCH  47  61
BRANCH  48  72
ATOM     72  C   UNL A   1      42.857  23.928  27.399  1.00  0.00     0.064 A 
ATOM     73  C   UNL A   1      42.403  22.772  28.048  1.00  0.00     0.173 A 
ATOM     74  C   UNL A   1      43.161  23.837  26.034  1.00  0.00     0.173 A 
ATOM     75  F   UNL A   1      42.119  22.808  29.359  1.00  0.00    -0.203 F 
ATOM     76  C   UNL A   1      42.276  21.566  27.362  1.00  0.00     0.198 A 
ATOM     77  C   UNL A   1      43.010  22.637  25.344  1.00  0.00     0.198 A 
ATOM     78  F   UNL A   1      43.594  24.918  25.369  1.00  0.00    -0.203 F 
ATOM     79  F   UNL A   1      41.878  20.466  28.015  1.00  0.00    -0.200 F 
ATOM     80  C   UNL A   1      42.575  21.501  26.010  1.00  0.00     0.200 A 
ATOM     81  F   UNL A   1      43.288  22.580  24.035  1.00  0.00    -0.200 F 
ATOM     82  F   UNL A   1      42.449  20.341  25.349  1.00  0.00    -0.200 F 
ENDBRANCH  48  72
BRANCH  60  83
ATOM     83  C   UNL A   1      48.078  26.769  31.017  1.00  0.00     0.064 A 
ATOM     84  C   UNL A   1      49.177  27.091  30.207  1.00  0.00     0.173 A 
ATOM     85  C   UNL A   1      48.306  25.986  32.157  1.00  0.00     0.173 A 
ATOM     86  F   UNL A   1      49.006  27.823  29.095  1.00  0.00    -0.203 F 
ATOM     87  C   UNL A   1      50.451  26.623  30.513  1.00  0.00     0.198 A 
ATOM     88  C   UNL A   1      49.587  25.541  32.474  1.00  0.00     0.198 A 
ATOM     89  F   UNL A   1      47.289  25.655  32.965  1.00  0.00    -0.203 F 
ATOM     90  F   UNL A   1      51.479  26.899  29.698  1.00  0.00    -0.200 F 
ATOM     91  C   UNL A   1      50.656  25.852  31.648  1.00  0.00     0.200 A 
ATOM     92  F   UNL A   1      49.785  24.804  33.576  1.00  0.00    -0.200 F 
ATOM     93  F   UNL A   1      51.883  25.399  31.939  1.00  0.00    -0.200 F 
ENDBRANCH  60  83
ENDBRANCH  34  35
ENDBRANCH  26  29
ENDBRANCH  24  25
ENDBRANCH  23  24
ENDBRANCH  22  23
ENDBRANCH   1  22
TORSDOF 16
ENDMDL
