MODEL 1
REMARK VINA RESULT:     -13.5      0.000      0.000
REMARK SMILES Cc1ccccc1/C=C1\SC(=O)N(CC(=O)Nc2ccccc2C(=O)NCCCCCCNC(=O)c2ccc(-c3c4nc(c(-c5c(F)c(F)c(F)c(F)c5F)c5ccc([nH]5)c(-c5c(F)c(F)c(F)c(F)c5F)c5nc(c(-c6c(F)c(F)c(F)c(F)c6F)c6ccc3[nH]6)C=C5)C=C4)cc2)C1=O
REMARK SMILES IDX 28 1 27 2 26 3 24 4 25 5 23 7 18 8 19 9 20 10 22 11 21 12
REMARK SMILES IDX 17 13 15 14 16 15 14 17 13 18 8 19 9 20 10 21 99 22 11 23
REMARK SMILES IDX 100 24 12 25 7 26 1 27 2 28 3 29 4 30 6 31 5 32 29 33 30 34
REMARK SMILES IDX 31 35 32 36 33 37 34 38 35 40 36 41 37 42 98 43 38 44 97 45
REMARK SMILES IDX 39 46 40 47 41 48 91 49 42 50 96 51 90 52 92 53 43 54 95 55
REMARK SMILES IDX 89 56 88 57 44 59 76 60 56 61 75 62 57 63 60 64 74 65 93 66
REMARK SMILES IDX 58 67 59 68 73 70 94 71 61 72 45 73 46 74 54 75 47 76 48 77
REMARK SMILES IDX 52 78 55 79 49 80 50 81 53 82 51 83 77 84 78 85 86 86 79 87
REMARK SMILES IDX 80 88 84 89 87 90 81 91 82 92 85 93 83 94 62 95 63 96 71 97
REMARK SMILES IDX 64 98 65 99 69 100 72 101 66 102 67 103 70 104 68 105
REMARK H PARENT 26 6 17 16 33 39 92 58 60 69
REMARK Flexibility Score: inf
ROOT
ATOM      1  C   UNL A   1      34.041  27.672  25.976  1.00  0.00     0.021 C 
ENDROOT
BRANCH   1   2
ATOM      2  C   UNL A   1      33.989  26.256  25.403  1.00  0.00     0.116 C 
BRANCH   2   3
ATOM      3  N   UNL A   1      34.076  26.092  23.958  1.00  0.00    -0.352 N 
ATOM      4  C   UNL A   1      33.316  26.604  22.919  1.00  0.00     0.253 C 
ATOM      5  O   UNL A   1      33.741  26.486  21.772  1.00  0.00    -0.269 OA
ATOM      6  H   UNL A   1      34.814  25.508  23.665  1.00  0.00     0.163 HD
BRANCH   4   7
ATOM      7  C   UNL A   1      32.020  27.290  23.135  1.00  0.00     0.063 A 
ATOM      8  C   UNL A   1      30.781  26.629  23.286  1.00  0.00     0.054 A 
ATOM      9  C   UNL A   1      29.608  27.416  23.342  1.00  0.00     0.027 A 
ATOM     10  C   UNL A   1      29.640  28.808  23.267  1.00  0.00     0.002 A 
ATOM     11  C   UNL A   1      32.006  28.685  22.921  1.00  0.00     0.016 A 
ATOM     12  C   UNL A   1      30.843  29.445  23.035  1.00  0.00     0.001 A 
BRANCH   8  13
ATOM     13  N   UNL A   1      30.497  25.253  23.169  1.00  0.00    -0.324 N 
ATOM     14  C   UNL A   1      30.861  24.091  23.771  1.00  0.00     0.244 C 
ATOM     15  O   UNL A   1      30.455  23.051  23.233  1.00  0.00    -0.273 OA
ATOM     16  H   UNL A   1      29.851  25.087  22.445  1.00  0.00     0.170 HD
BRANCH  14  17
ATOM     17  C   UNL A   1      31.502  24.018  25.145  1.00  0.00     0.230 C 
BRANCH  17  18
ATOM     18  N   UNL A   1      32.617  23.127  25.335  1.00  0.00    -0.259 N 
ATOM     19  C   UNL A   1      35.808  21.949  24.404  1.00  0.00     0.029 C 
ATOM     20  C   UNL A   1      34.563  21.904  24.911  1.00  0.00     0.083 C 
ATOM     21  S   UNL A   1      34.030  21.304  26.420  1.00  0.00    -0.022 SA
ATOM     22  C   UNL A   1      33.441  22.699  24.311  1.00  0.00     0.268 C 
ATOM     23  C   UNL A   1      32.724  22.449  26.510  1.00  0.00     0.294 C 
ATOM     24  O   UNL A   1      33.310  22.901  23.118  1.00  0.00    -0.268 OA
ATOM     25  O   UNL A   1      32.014  22.561  27.507  1.00  0.00    -0.261 OA
BRANCH  19  26
ATOM     26  C   UNL A   1      37.113  21.616  25.036  1.00  0.00    -0.021 A 
ATOM     27  C   UNL A   1      37.680  23.908  26.069  1.00  0.00     0.045 C 
ATOM     28  C   UNL A   1      37.967  22.465  25.769  1.00  0.00    -0.044 A 
ATOM     29  C   UNL A   1      39.220  21.977  26.214  1.00  0.00     0.004 A 
ATOM     30  C   UNL A   1      39.610  20.658  25.994  1.00  0.00     0.000 A 
ATOM     31  C   UNL A   1      37.522  20.274  24.856  1.00  0.00     0.008 A 
ATOM     32  C   UNL A   1      38.750  19.799  25.330  1.00  0.00     0.001 A 
ENDBRANCH  19  26
ENDBRANCH  17  18
ENDBRANCH  14  17
ENDBRANCH   8  13
ENDBRANCH   4   7
ENDBRANCH   2   3
ENDBRANCH   1   2
BRANCH   1  33
ATOM     33  C   UNL A   1      33.050  28.155  27.040  1.00  0.00     0.002 C 
BRANCH  33  34
ATOM     34  C   UNL A   1      32.050  29.255  26.685  1.00  0.00     0.002 C 
BRANCH  34  35
ATOM     35  C   UNL A   1      32.364  30.660  27.182  1.00  0.00     0.021 C 
BRANCH  35  36
ATOM     36  C   UNL A   1      33.813  31.055  26.980  1.00  0.00     0.116 C 
BRANCH  36  37
ATOM     37  N   UNL A   1      34.442  31.830  28.041  1.00  0.00    -0.352 N 
ATOM     38  C   UNL A   1      35.372  31.415  28.988  1.00  0.00     0.251 C 
ATOM     39  H   UNL A   1      34.174  32.777  28.094  1.00  0.00     0.163 HD
ATOM     40  O   UNL A   1      35.697  32.167  29.902  1.00  0.00    -0.269 OA
BRANCH  38  41
ATOM     41  C   UNL A   1      36.118  30.137  28.787  1.00  0.00     0.039 A 
ATOM     42  C   UNL A   1      36.468  29.439  29.949  1.00  0.00     0.014 A 
ATOM     43  C   UNL A   1      36.848  29.942  27.628  1.00  0.00     0.014 A 
ATOM     44  C   UNL A   1      37.747  28.908  30.052  1.00  0.00     0.010 A 
ATOM     45  C   UNL A   1      38.172  29.616  27.778  1.00  0.00     0.010 A 
ATOM     46  C   UNL A   1      38.633  29.166  29.015  1.00  0.00    -0.014 A 
BRANCH  46  47
ATOM     47  C   UNL A   1      40.042  28.849  29.045  1.00  0.00     0.031 A 
ATOM     48  C   UNL A   1      40.389  27.477  28.652  1.00  0.00     0.074 A 
ATOM     49  C   UNL A   1      40.962  29.805  29.295  1.00  0.00     0.049 A 
ATOM     50  N   UNL A   1      41.480  26.885  28.971  1.00  0.00    -0.248 NA
ATOM     51  C   UNL A   1      39.460  26.620  27.920  1.00  0.00     0.031 C 
ATOM     52  C   UNL A   1      42.405  29.737  29.092  1.00  0.00     0.029 A 
ATOM     53  N   UNL A   1      40.768  31.027  29.960  1.00  0.00    -0.354 N 
ATOM     54  C   UNL A   1      41.526  25.699  28.272  1.00  0.00     0.074 A 
ATOM     55  C   UNL A   1      40.202  25.528  27.736  1.00  0.00     0.031 C 
ATOM     56  C   UNL A   1      42.996  30.671  29.857  1.00  0.00     0.029 A 
ATOM     57  C   UNL A   1      41.966  31.267  30.687  1.00  0.00     0.049 A 
ATOM     58  H   UNL A   1      39.968  31.599  29.929  1.00  0.00     0.167 HD
ATOM     59  C   UNL A   1      42.739  25.094  28.129  1.00  0.00     0.037 A 
ATOM     60  C   UNL A   1      41.948  31.252  32.057  1.00  0.00     0.037 A 
ATOM     61  C   UNL A   1      43.741  25.814  28.927  1.00  0.00     0.049 A 
ATOM     62  C   UNL A   1      42.658  30.056  32.652  1.00  0.00     0.074 A 
ATOM     63  C   UNL A   1      44.675  26.795  28.634  1.00  0.00     0.029 A 
ATOM     64  N   UNL A   1      43.583  25.847  30.303  1.00  0.00    -0.354 N 
ATOM     65  N   UNL A   1      43.213  29.102  31.954  1.00  0.00    -0.248 NA
ATOM     66  C   UNL A   1      42.696  29.793  34.088  1.00  0.00     0.031 C 
ATOM     67  C   UNL A   1      45.047  27.433  29.858  1.00  0.00     0.029 A 
ATOM     68  C   UNL A   1      44.375  26.812  30.897  1.00  0.00     0.049 A 
ATOM     69  H   UNL A   1      42.977  25.251  30.801  1.00  0.00     0.167 HD
ATOM     70  C   UNL A   1      43.655  28.115  32.792  1.00  0.00     0.074 A 
ATOM     71  C   UNL A   1      43.262  28.577  34.116  1.00  0.00     0.031 C 
ATOM     72  C   UNL A   1      44.291  26.990  32.342  1.00  0.00     0.037 A 
BRANCH  59  73
ATOM     73  C   UNL A   1      43.080  24.039  27.095  1.00  0.00     0.064 A 
ATOM     74  C   UNL A   1      42.722  22.692  27.329  1.00  0.00     0.173 A 
ATOM     75  C   UNL A   1      43.806  24.240  25.903  1.00  0.00     0.173 A 
ATOM     76  F   UNL A   1      41.957  22.346  28.373  1.00  0.00    -0.203 F 
ATOM     77  C   UNL A   1      43.140  21.643  26.503  1.00  0.00     0.198 A 
ATOM     78  C   UNL A   1      44.251  23.190  25.092  1.00  0.00     0.198 A 
ATOM     79  F   UNL A   1      44.081  25.456  25.429  1.00  0.00    -0.203 F 
ATOM     80  F   UNL A   1      42.782  20.386  26.796  1.00  0.00    -0.200 F 
ATOM     81  C   UNL A   1      43.927  21.889  25.398  1.00  0.00     0.200 A 
ATOM     82  F   UNL A   1      44.995  23.459  24.008  1.00  0.00    -0.200 F 
ATOM     83  F   UNL A   1      44.351  20.883  24.623  1.00  0.00    -0.200 F 
ENDBRANCH  59  73
BRANCH  60  84
ATOM     84  C   UNL A   1      40.689  31.862  32.591  1.00  0.00     0.064 A 
ATOM     85  C   UNL A   1      39.771  30.951  33.149  1.00  0.00     0.173 A 
ATOM     86  C   UNL A   1      40.719  33.159  33.113  1.00  0.00     0.173 A 
ATOM     87  F   UNL A   1      39.627  29.728  32.612  1.00  0.00    -0.203 F 
ATOM     88  C   UNL A   1      39.212  31.206  34.395  1.00  0.00     0.198 A 
ATOM     89  C   UNL A   1      40.082  33.436  34.319  1.00  0.00     0.198 A 
ATOM     90  F   UNL A   1      41.488  34.104  32.555  1.00  0.00    -0.203 F 
ATOM     91  F   UNL A   1      38.586  30.224  35.057  1.00  0.00    -0.200 F 
ATOM     92  C   UNL A   1      39.423  32.429  35.008  1.00  0.00     0.200 A 
ATOM     93  F   UNL A   1      40.209  34.652  34.867  1.00  0.00    -0.200 F 
ATOM     94  F   UNL A   1      39.038  32.609  36.277  1.00  0.00    -0.200 F 
ENDBRANCH  60  84
BRANCH  72  95
ATOM     95  C   UNL A   1      44.857  25.931  33.260  1.00  0.00     0.064 A 
ATOM     96  C   UNL A   1      44.050  25.147  34.101  1.00  0.00     0.173 A 
ATOM     97  C   UNL A   1      46.248  25.711  33.392  1.00  0.00     0.173 A 
ATOM     98  F   UNL A   1      42.739  25.395  34.231  1.00  0.00    -0.203 F 
ATOM     99  C   UNL A   1      44.573  24.107  34.870  1.00  0.00     0.198 A 
ATOM    100  C   UNL A   1      46.775  24.716  34.210  1.00  0.00     0.198 A 
ATOM    101  F   UNL A   1      47.156  26.440  32.732  1.00  0.00    -0.203 F 
ATOM    102  F   UNL A   1      43.745  23.322  35.572  1.00  0.00    -0.200 F 
ATOM    103  C   UNL A   1      45.936  23.885  34.917  1.00  0.00     0.200 A 
ATOM    104  F   UNL A   1      48.104  24.565  34.294  1.00  0.00    -0.200 F 
ATOM    105  F   UNL A   1      46.438  22.887  35.654  1.00  0.00    -0.200 F 
ENDBRANCH  72  95
ENDBRANCH  46  47
ENDBRANCH  38  41
ENDBRANCH  36  37
ENDBRANCH  35  36
ENDBRANCH  34  35
ENDBRANCH  33  34
ENDBRANCH   1  33
TORSDOF 17
ENDMDL
MODEL 2
REMARK VINA RESULT:     -13.4      1.908      2.772
REMARK SMILES Cc1ccccc1/C=C1\SC(=O)N(CC(=O)Nc2ccccc2C(=O)NCCCCCCNC(=O)c2ccc(-c3c4nc(c(-c5c(F)c(F)c(F)c(F)c5F)c5ccc([nH]5)c(-c5c(F)c(F)c(F)c(F)c5F)c5nc(c(-c6c(F)c(F)c(F)c(F)c6F)c6ccc3[nH]6)C=C5)C=C4)cc2)C1=O
REMARK SMILES IDX 28 1 27 2 26 3 24 4 25 5 23 7 18 8 19 9 20 10 22 11 21 12
REMARK SMILES IDX 17 13 15 14 16 15 14 17 13 18 8 19 9 20 10 21 99 22 11 23
REMARK SMILES IDX 100 24 12 25 7 26 1 27 2 28 3 29 4 30 6 31 5 32 29 33 30 34
REMARK SMILES IDX 31 35 32 36 33 37 34 38 35 40 36 41 37 42 98 43 38 44 97 45
REMARK SMILES IDX 39 46 40 47 41 48 91 49 42 50 96 51 90 52 92 53 43 54 95 55
REMARK SMILES IDX 89 56 88 57 44 59 76 60 56 61 75 62 57 63 60 64 74 65 93 66
REMARK SMILES IDX 58 67 59 68 73 70 94 71 61 72 45 73 46 74 54 75 47 76 48 77
REMARK SMILES IDX 52 78 55 79 49 80 50 81 53 82 51 83 77 84 78 85 86 86 79 87
REMARK SMILES IDX 80 88 84 89 87 90 81 91 82 92 85 93 83 94 62 95 63 96 71 97
REMARK SMILES IDX 64 98 65 99 69 100 72 101 66 102 67 103 70 104 68 105
REMARK H PARENT 26 6 17 16 33 39 92 58 60 69
REMARK Flexibility Score: inf
ROOT
ATOM      1  C   UNL A   1      33.194  29.301  24.925  1.00  0.00     0.021 C 
ENDROOT
BRANCH   1   2
ATOM      2  C   UNL A   1      33.169  29.263  23.398  1.00  0.00     0.116 C 
BRANCH   2   3
ATOM      3  N   UNL A   1      31.876  29.295  22.727  1.00  0.00    -0.352 N 
ATOM      4  C   UNL A   1      31.024  28.286  22.307  1.00  0.00     0.253 C 
ATOM      5  O   UNL A   1      29.884  28.591  21.965  1.00  0.00    -0.269 OA
ATOM      6  H   UNL A   1      31.547  30.204  22.536  1.00  0.00     0.163 HD
BRANCH   4   7
ATOM      7  C   UNL A   1      31.427  26.861  22.263  1.00  0.00     0.063 A 
ATOM      8  C   UNL A   1      31.283  25.957  23.339  1.00  0.00     0.054 A 
ATOM      9  C   UNL A   1      31.842  24.665  23.203  1.00  0.00     0.027 A 
ATOM     10  C   UNL A   1      32.512  24.260  22.049  1.00  0.00     0.002 A 
ATOM     11  C   UNL A   1      32.229  26.469  21.170  1.00  0.00     0.016 A 
ATOM     12  C   UNL A   1      32.724  25.174  21.035  1.00  0.00     0.001 A 
BRANCH   8  13
ATOM     13  N   UNL A   1      30.844  26.214  24.653  1.00  0.00    -0.324 N 
ATOM     14  C   UNL A   1      31.245  25.949  25.923  1.00  0.00     0.244 C 
ATOM     15  O   UNL A   1      30.447  26.258  26.820  1.00  0.00    -0.273 OA
ATOM     16  H   UNL A   1      30.006  26.733  24.649  1.00  0.00     0.170 HD
BRANCH  14  17
ATOM     17  C   UNL A   1      32.660  25.540  26.293  1.00  0.00     0.230 C 
BRANCH  17  18
ATOM     18  N   UNL A   1      33.065  24.179  26.052  1.00  0.00    -0.259 N 
ATOM     19  C   UNL A   1      32.306  20.747  25.770  1.00  0.00     0.029 C 
ATOM     20  C   UNL A   1      33.045  21.842  26.021  1.00  0.00     0.083 C 
ATOM     21  S   UNL A   1      34.612  22.240  25.469  1.00  0.00    -0.022 SA
ATOM     22  C   UNL A   1      32.438  23.081  26.611  1.00  0.00     0.268 C 
ATOM     23  C   UNL A   1      34.274  23.946  25.474  1.00  0.00     0.294 C 
ATOM     24  O   UNL A   1      31.552  23.076  27.446  1.00  0.00    -0.268 OA
ATOM     25  O   UNL A   1      35.066  24.776  25.034  1.00  0.00    -0.261 OA
BRANCH  19  26
ATOM     26  C   UNL A   1      32.560  19.610  24.844  1.00  0.00    -0.021 A 
ATOM     27  C   UNL A   1      32.094  20.784  22.597  1.00  0.00     0.045 C 
ATOM     28  C   UNL A   1      32.464  19.596  23.437  1.00  0.00    -0.044 A 
ATOM     29  C   UNL A   1      32.660  18.379  22.739  1.00  0.00     0.004 A 
ATOM     30  C   UNL A   1      32.999  17.202  23.402  1.00  0.00     0.000 A 
ATOM     31  C   UNL A   1      32.938  18.408  25.486  1.00  0.00     0.008 A 
ATOM     32  C   UNL A   1      33.158  17.222  24.778  1.00  0.00     0.001 A 
ENDBRANCH  19  26
ENDBRANCH  17  18
ENDBRANCH  14  17
ENDBRANCH   8  13
ENDBRANCH   4   7
ENDBRANCH   2   3
ENDBRANCH   1   2
BRANCH   1  33
ATOM     33  C   UNL A   1      31.944  29.627  25.750  1.00  0.00     0.002 C 
BRANCH  33  34
ATOM     34  C   UNL A   1      32.094  30.408  27.055  1.00  0.00     0.002 C 
BRANCH  34  35
ATOM     35  C   UNL A   1      33.333  31.283  27.198  1.00  0.00     0.021 C 
BRANCH  35  36
ATOM     36  C   UNL A   1      34.438  30.627  28.000  1.00  0.00     0.116 C 
BRANCH  36  37
ATOM     37  N   UNL A   1      35.508  31.490  28.482  1.00  0.00    -0.352 N 
ATOM     38  C   UNL A   1      36.758  31.133  28.976  1.00  0.00     0.251 C 
ATOM     39  H   UNL A   1      35.322  32.457  28.453  1.00  0.00     0.163 HD
ATOM     40  O   UNL A   1      37.490  31.985  29.471  1.00  0.00    -0.269 OA
BRANCH  38  41
ATOM     41  C   UNL A   1      37.290  29.760  28.730  1.00  0.00     0.039 A 
ATOM     42  C   UNL A   1      37.539  28.983  29.868  1.00  0.00     0.014 A 
ATOM     43  C   UNL A   1      37.966  29.484  27.555  1.00  0.00     0.014 A 
ATOM     44  C   UNL A   1      38.719  28.254  29.937  1.00  0.00     0.010 A 
ATOM     45  C   UNL A   1      39.224  28.949  27.674  1.00  0.00     0.010 A 
ATOM     46  C   UNL A   1      39.622  28.397  28.892  1.00  0.00    -0.014 A 
BRANCH  46  47
ATOM     47  C   UNL A   1      40.964  27.861  28.891  1.00  0.00     0.031 A 
ATOM     48  C   UNL A   1      41.073  26.433  28.570  1.00  0.00     0.074 A 
ATOM     49  C   UNL A   1      42.033  28.670  29.049  1.00  0.00     0.049 A 
ATOM     50  N   UNL A   1      42.069  25.691  28.885  1.00  0.00    -0.248 NA
ATOM     51  C   UNL A   1      39.988  25.696  27.925  1.00  0.00     0.031 C 
ATOM     52  C   UNL A   1      43.437  28.361  28.799  1.00  0.00     0.029 A 
ATOM     53  N   UNL A   1      42.064  29.941  29.645  1.00  0.00    -0.354 N 
ATOM     54  C   UNL A   1      41.897  24.477  28.258  1.00  0.00     0.074 A 
ATOM     55  C   UNL A   1      40.539  24.491  27.782  1.00  0.00     0.031 C 
ATOM     56  C   UNL A   1      44.202  29.229  29.485  1.00  0.00     0.029 A 
ATOM     57  C   UNL A   1      43.317  30.026  30.313  1.00  0.00     0.049 A 
ATOM     58  H   UNL A   1      41.364  30.632  29.608  1.00  0.00     0.167 HD
ATOM     59  C   UNL A   1      42.991  23.679  28.109  1.00  0.00     0.037 A 
ATOM     60  C   UNL A   1      43.358  30.089  31.681  1.00  0.00     0.037 A 
ATOM     61  C   UNL A   1      44.129  24.272  28.826  1.00  0.00     0.049 A 
ATOM     62  C   UNL A   1      43.897  28.829  32.322  1.00  0.00     0.074 A 
ATOM     63  C   UNL A   1      45.192  25.073  28.440  1.00  0.00     0.029 A 
ATOM     64  N   UNL A   1      44.040  24.405  30.202  1.00  0.00    -0.354 N 
ATOM     65  N   UNL A   1      44.262  27.762  31.664  1.00  0.00    -0.248 NA
ATOM     66  C   UNL A   1      43.958  28.642  33.768  1.00  0.00     0.031 C 
ATOM     67  C   UNL A   1      45.714  25.709  29.609  1.00  0.00     0.029 A 
ATOM     68  C   UNL A   1      45.001  25.262  30.708  1.00  0.00     0.049 A 
ATOM     69  H   UNL A   1      43.371  23.942  30.757  1.00  0.00     0.167 HD
ATOM     70  C   UNL A   1      44.580  26.765  32.544  1.00  0.00     0.074 A 
ATOM     71  C   UNL A   1      44.326  27.354  33.850  1.00  0.00     0.031 C 
ATOM     72  C   UNL A   1      45.011  25.529  32.141  1.00  0.00     0.037 A 
BRANCH  59  73
ATOM     73  C   UNL A   1      43.115  22.528  27.130  1.00  0.00     0.064 A 
ATOM     74  C   UNL A   1      42.299  21.386  27.290  1.00  0.00     0.173 A 
ATOM     75  C   UNL A   1      44.039  22.429  26.069  1.00  0.00     0.173 A 
ATOM     76  F   UNL A   1      41.313  21.356  28.197  1.00  0.00    -0.203 F 
ATOM     77  C   UNL A   1      42.464  20.225  26.528  1.00  0.00     0.198 A 
ATOM     78  C   UNL A   1      44.226  21.258  25.326  1.00  0.00     0.198 A 
ATOM     79  F   UNL A   1      44.770  23.464  25.657  1.00  0.00    -0.203 F 
ATOM     80  F   UNL A   1      41.669  19.169  26.748  1.00  0.00    -0.200 F 
ATOM     81  C   UNL A   1      43.446  20.150  25.564  1.00  0.00     0.200 A 
ATOM     82  F   UNL A   1      45.173  21.220  24.376  1.00  0.00    -0.200 F 
ATOM     83  F   UNL A   1      43.624  19.029  24.853  1.00  0.00    -0.200 F 
ENDBRANCH  59  73
BRANCH  60  84
ATOM     84  C   UNL A   1      42.236  30.920  32.222  1.00  0.00     0.064 A 
ATOM     85  C   UNL A   1      41.208  30.199  32.859  1.00  0.00     0.173 A 
ATOM     86  C   UNL A   1      42.496  32.220  32.669  1.00  0.00     0.173 A 
ATOM     87  F   UNL A   1      40.848  28.991  32.395  1.00  0.00    -0.203 F 
ATOM     88  C   UNL A   1      40.749  30.602  34.106  1.00  0.00     0.198 A 
ATOM     89  C   UNL A   1      41.961  32.656  33.879  1.00  0.00     0.198 A 
ATOM     90  F   UNL A   1      43.383  32.999  32.035  1.00  0.00    -0.203 F 
ATOM     91  F   UNL A   1      40.002  29.769  34.842  1.00  0.00    -0.200 F 
ATOM     92  C   UNL A   1      41.179  31.803  34.643  1.00  0.00     0.200 A 
ATOM     93  F   UNL A   1      42.304  33.860  34.355  1.00  0.00    -0.200 F 
ATOM     94  F   UNL A   1      40.881  32.107  35.913  1.00  0.00    -0.200 F 
ENDBRANCH  60  84
BRANCH  72  95
ATOM     95  C   UNL A   1      45.443  24.445  33.101  1.00  0.00     0.064 A 
ATOM     96  C   UNL A   1      44.588  23.408  33.509  1.00  0.00     0.173 A 
ATOM     97  C   UNL A   1      46.717  24.445  33.716  1.00  0.00     0.173 A 
ATOM     98  F   UNL A   1      43.291  23.406  33.169  1.00  0.00    -0.203 F 
ATOM     99  C   UNL A   1      45.028  22.360  34.318  1.00  0.00     0.198 A 
ATOM    100  C   UNL A   1      47.135  23.433  34.575  1.00  0.00     0.198 A 
ATOM    101  F   UNL A   1      47.615  25.416  33.507  1.00  0.00    -0.203 F 
ATOM    102  F   UNL A   1      44.201  21.342  34.589  1.00  0.00    -0.200 F 
ATOM    103  C   UNL A   1      46.306  22.367  34.843  1.00  0.00     0.200 A 
ATOM    104  F   UNL A   1      48.354  23.497  35.129  1.00  0.00    -0.200 F 
ATOM    105  F   UNL A   1      46.729  21.361  35.618  1.00  0.00    -0.200 F 
ENDBRANCH  72  95
ENDBRANCH  46  47
ENDBRANCH  38  41
ENDBRANCH  36  37
ENDBRANCH  35  36
ENDBRANCH  34  35
ENDBRANCH  33  34
ENDBRANCH   1  33
TORSDOF 17
ENDMDL
MODEL 3
REMARK VINA RESULT:     -12.9      1.871      2.641
REMARK SMILES Cc1ccccc1/C=C1\SC(=O)N(CC(=O)Nc2ccccc2C(=O)NCCCCCCNC(=O)c2ccc(-c3c4nc(c(-c5c(F)c(F)c(F)c(F)c5F)c5ccc([nH]5)c(-c5c(F)c(F)c(F)c(F)c5F)c5nc(c(-c6c(F)c(F)c(F)c(F)c6F)c6ccc3[nH]6)C=C5)C=C4)cc2)C1=O
REMARK SMILES IDX 28 1 27 2 26 3 24 4 25 5 23 7 18 8 19 9 20 10 22 11 21 12
REMARK SMILES IDX 17 13 15 14 16 15 14 17 13 18 8 19 9 20 10 21 99 22 11 23
REMARK SMILES IDX 100 24 12 25 7 26 1 27 2 28 3 29 4 30 6 31 5 32 29 33 30 34
REMARK SMILES IDX 31 35 32 36 33 37 34 38 35 40 36 41 37 42 98 43 38 44 97 45
REMARK SMILES IDX 39 46 40 47 41 48 91 49 42 50 96 51 90 52 92 53 43 54 95 55
REMARK SMILES IDX 89 56 88 57 44 59 76 60 56 61 75 62 57 63 60 64 74 65 93 66
REMARK SMILES IDX 58 67 59 68 73 70 94 71 61 72 45 73 46 74 54 75 47 76 48 77
REMARK SMILES IDX 52 78 55 79 49 80 50 81 53 82 51 83 77 84 78 85 86 86 79 87
REMARK SMILES IDX 80 88 84 89 87 90 81 91 82 92 85 93 83 94 62 95 63 96 71 97
REMARK SMILES IDX 64 98 65 99 69 100 72 101 66 102 67 103 70 104 68 105
REMARK H PARENT 26 6 17 16 33 39 92 58 60 69
REMARK Flexibility Score: inf
ROOT
ATOM      1  C   UNL A   1      34.271  30.128  27.255  1.00  0.00     0.021 C 
ENDROOT
BRANCH   1   2
ATOM      2  C   UNL A   1      33.408  29.322  26.285  1.00  0.00     0.116 C 
BRANCH   2   3
ATOM      3  N   UNL A   1      33.972  28.968  24.989  1.00  0.00    -0.352 N 
ATOM      4  C   UNL A   1      33.400  28.838  23.733  1.00  0.00     0.253 C 
ATOM      5  O   UNL A   1      34.145  28.746  22.761  1.00  0.00    -0.269 OA
ATOM      6  H   UNL A   1      34.940  28.789  25.009  1.00  0.00     0.163 HD
BRANCH   4   7
ATOM      7  C   UNL A   1      31.934  28.813  23.517  1.00  0.00     0.063 A 
ATOM      8  C   UNL A   1      31.272  27.938  22.628  1.00  0.00     0.054 A 
ATOM      9  C   UNL A   1      29.886  28.123  22.417  1.00  0.00     0.027 A 
ATOM     10  C   UNL A   1      29.162  29.124  23.065  1.00  0.00     0.002 A 
ATOM     11  C   UNL A   1      31.204  29.900  24.046  1.00  0.00     0.016 A 
ATOM     12  C   UNL A   1      29.828  30.030  23.867  1.00  0.00     0.001 A 
BRANCH   8  13
ATOM     13  N   UNL A   1      31.832  27.015  21.722  1.00  0.00    -0.324 N 
ATOM     14  C   UNL A   1      32.245  25.721  21.723  1.00  0.00     0.244 C 
ATOM     15  O   UNL A   1      32.828  25.337  20.699  1.00  0.00    -0.273 OA
ATOM     16  H   UNL A   1      31.959  27.424  20.835  1.00  0.00     0.170 HD
BRANCH  14  17
ATOM     17  C   UNL A   1      31.828  24.703  22.769  1.00  0.00     0.230 C 
BRANCH  17  18
ATOM     18  N   UNL A   1      32.825  24.213  23.685  1.00  0.00    -0.259 N 
ATOM     19  C   UNL A   1      35.717  22.309  24.354  1.00  0.00     0.029 C 
ATOM     20  C   UNL A   1      34.535  22.904  24.594  1.00  0.00     0.083 C 
ATOM     21  S   UNL A   1      34.081  23.927  25.884  1.00  0.00    -0.022 SA
ATOM     22  C   UNL A   1      33.477  23.002  23.535  1.00  0.00     0.268 C 
ATOM     23  C   UNL A   1      32.957  24.815  24.898  1.00  0.00     0.294 C 
ATOM     24  O   UNL A   1      33.254  22.136  22.709  1.00  0.00    -0.268 OA
ATOM     25  O   UNL A   1      32.373  25.817  25.304  1.00  0.00    -0.261 OA
BRANCH  19  26
ATOM     26  C   UNL A   1      37.022  22.452  25.054  1.00  0.00    -0.021 A 
ATOM     27  C   UNL A   1      37.803  19.996  24.996  1.00  0.00     0.045 C 
ATOM     28  C   UNL A   1      37.960  21.444  25.360  1.00  0.00    -0.044 A 
ATOM     29  C   UNL A   1      39.110  21.772  26.119  1.00  0.00     0.004 A 
ATOM     30  C   UNL A   1      39.369  23.078  26.527  1.00  0.00     0.000 A 
ATOM     31  C   UNL A   1      37.328  23.773  25.453  1.00  0.00     0.008 A 
ATOM     32  C   UNL A   1      38.485  24.085  26.175  1.00  0.00     0.001 A 
ENDBRANCH  19  26
ENDBRANCH  17  18
ENDBRANCH  14  17
ENDBRANCH   8  13
ENDBRANCH   4   7
ENDBRANCH   2   3
ENDBRANCH   1   2
BRANCH   1  33
ATOM     33  C   UNL A   1      33.705  31.299  28.066  1.00  0.00     0.002 C 
BRANCH  33  34
ATOM     34  C   UNL A   1      33.587  32.674  27.410  1.00  0.00     0.002 C 
BRANCH  34  35
ATOM     35  C   UNL A   1      32.968  33.787  28.246  1.00  0.00     0.021 C 
BRANCH  35  36
ATOM     36  C   UNL A   1      33.924  34.928  28.524  1.00  0.00     0.116 C 
BRANCH  36  37
ATOM     37  N   UNL A   1      34.386  35.087  29.896  1.00  0.00    -0.352 N 
ATOM     38  C   UNL A   1      35.080  34.182  30.692  1.00  0.00     0.251 C 
ATOM     39  H   UNL A   1      34.180  35.953  30.318  1.00  0.00     0.163 HD
ATOM     40  O   UNL A   1      35.272  34.427  31.880  1.00  0.00    -0.269 OA
BRANCH  38  41
ATOM     41  C   UNL A   1      35.760  33.010  30.065  1.00  0.00     0.039 A 
ATOM     42  C   UNL A   1      35.802  31.839  30.832  1.00  0.00     0.014 A 
ATOM     43  C   UNL A   1      36.707  33.211  29.076  1.00  0.00     0.014 A 
ATOM     44  C   UNL A   1      36.988  31.120  30.892  1.00  0.00     0.010 A 
ATOM     45  C   UNL A   1      37.941  32.647  29.275  1.00  0.00     0.010 A 
ATOM     46  C   UNL A   1      38.092  31.649  30.238  1.00  0.00    -0.014 A 
BRANCH  46  47
ATOM     47  C   UNL A   1      39.436  31.130  30.350  1.00  0.00     0.031 A 
ATOM     48  C   UNL A   1      39.642  29.786  29.798  1.00  0.00     0.074 A 
ATOM     49  C   UNL A   1      40.440  31.904  30.817  1.00  0.00     0.049 A 
ATOM     50  N   UNL A   1      40.604  29.005  30.127  1.00  0.00    -0.248 NA
ATOM     51  C   UNL A   1      38.695  29.173  28.869  1.00  0.00     0.031 C 
ATOM     52  C   UNL A   1      41.875  31.654  30.739  1.00  0.00     0.029 A 
ATOM     53  N   UNL A   1      40.335  33.044  31.629  1.00  0.00    -0.354 N 
ATOM     54  C   UNL A   1      40.572  27.925  29.273  1.00  0.00     0.074 A 
ATOM     55  C   UNL A   1      39.304  28.018  28.600  1.00  0.00     0.031 C 
ATOM     56  C   UNL A   1      42.495  32.386  31.680  1.00  0.00     0.029 A 
ATOM     57  C   UNL A   1      41.467  33.012  32.489  1.00  0.00     0.049 A 
ATOM     58  H   UNL A   1      39.625  33.725  31.608  1.00  0.00     0.167 HD
ATOM     59  C   UNL A   1      41.703  27.175  29.156  1.00  0.00     0.037 A 
ATOM     60  C   UNL A   1      41.296  32.824  33.836  1.00  0.00     0.037 A 
ATOM     61  C   UNL A   1      42.697  27.634  30.137  1.00  0.00     0.049 A 
ATOM     62  C   UNL A   1      41.774  31.471  34.316  1.00  0.00     0.074 A 
ATOM     63  C   UNL A   1      43.777  28.499  30.073  1.00  0.00     0.029 A 
ATOM     64  N   UNL A   1      42.394  27.511  31.483  1.00  0.00    -0.354 N 
ATOM     65  N   UNL A   1      42.273  30.545  33.542  1.00  0.00    -0.248 NA
ATOM     66  C   UNL A   1      41.619  31.023  35.697  1.00  0.00     0.031 C 
ATOM     67  C   UNL A   1      44.093  28.913  31.405  1.00  0.00     0.029 A 
ATOM     68  C   UNL A   1      43.235  28.267  32.279  1.00  0.00     0.049 A 
ATOM     69  H   UNL A   1      41.664  26.950  31.833  1.00  0.00     0.167 HD
ATOM     70  C   UNL A   1      42.487  29.405  34.267  1.00  0.00     0.074 A 
ATOM     71  C   UNL A   1      42.015  29.744  35.602  1.00  0.00     0.031 C 
ATOM     72  C   UNL A   1      43.017  28.268  33.721  1.00  0.00     0.037 A 
BRANCH  59  73
ATOM     73  C   UNL A   1      42.015  26.224  28.017  1.00  0.00     0.064 A 
ATOM     74  C   UNL A   1      42.355  24.883  28.302  1.00  0.00     0.173 A 
ATOM     75  C   UNL A   1      42.077  26.553  26.646  1.00  0.00     0.173 A 
ATOM     76  F   UNL A   1      42.262  24.390  29.544  1.00  0.00    -0.203 F 
ATOM     77  C   UNL A   1      42.808  23.992  27.323  1.00  0.00     0.198 A 
ATOM     78  C   UNL A   1      42.559  25.673  25.671  1.00  0.00     0.198 A 
ATOM     79  F   UNL A   1      41.630  27.714  26.168  1.00  0.00    -0.203 F 
ATOM     80  F   UNL A   1      43.134  22.739  27.667  1.00  0.00    -0.200 F 
ATOM     81  C   UNL A   1      42.937  24.395  26.011  1.00  0.00     0.200 A 
ATOM     82  F   UNL A   1      42.651  26.083  24.396  1.00  0.00    -0.200 F 
ATOM     83  F   UNL A   1      43.397  23.552  25.078  1.00  0.00    -0.200 F 
ENDBRANCH  59  73
BRANCH  60  84
ATOM     84  C   UNL A   1      40.076  33.535  34.335  1.00  0.00     0.064 A 
ATOM     85  C   UNL A   1      38.990  32.702  34.665  1.00  0.00     0.173 A 
ATOM     86  C   UNL A   1      40.219  34.734  35.042  1.00  0.00     0.173 A 
ATOM     87  F   UNL A   1      38.747  31.596  33.943  1.00  0.00    -0.203 F 
ATOM     88  C   UNL A   1      38.332  32.869  35.877  1.00  0.00     0.198 A 
ATOM     89  C   UNL A   1      39.492  34.938  36.212  1.00  0.00     0.198 A 
ATOM     90  F   UNL A   1      41.163  35.621  34.703  1.00  0.00    -0.203 F 
ATOM     91  F   UNL A   1      37.512  31.910  36.327  1.00  0.00    -0.200 F 
ATOM     92  C   UNL A   1      38.633  33.955  36.680  1.00  0.00     0.200 A 
ATOM     93  F   UNL A   1      39.715  36.038  36.942  1.00  0.00    -0.200 F 
ATOM     94  F   UNL A   1      38.135  34.021  37.921  1.00  0.00    -0.200 F 
ENDBRANCH  60  84
BRANCH  72  95
ATOM     95  C   UNL A   1      43.335  27.028  34.526  1.00  0.00     0.064 A 
ATOM     96  C   UNL A   1      42.347  26.118  34.938  1.00  0.00     0.173 A 
ATOM     97  C   UNL A   1      44.642  26.742  34.985  1.00  0.00     0.173 A 
ATOM     98  F   UNL A   1      41.045  26.377  34.753  1.00  0.00    -0.203 F 
ATOM     99  C   UNL A   1      42.665  24.929  35.595  1.00  0.00     0.198 A 
ATOM    100  C   UNL A   1      44.948  25.586  35.698  1.00  0.00     0.198 A 
ATOM    101  F   UNL A   1      45.678  27.558  34.759  1.00  0.00    -0.203 F 
ATOM    102  F   UNL A   1      41.695  24.047  35.871  1.00  0.00    -0.200 F 
ATOM    103  C   UNL A   1      43.968  24.658  35.967  1.00  0.00     0.200 A 
ATOM    104  F   UNL A   1      46.207  25.378  36.110  1.00  0.00    -0.200 F 
ATOM    105  F   UNL A   1      44.273  23.517  36.596  1.00  0.00    -0.200 F 
ENDBRANCH  72  95
ENDBRANCH  46  47
ENDBRANCH  38  41
ENDBRANCH  36  37
ENDBRANCH  35  36
ENDBRANCH  34  35
ENDBRANCH  33  34
ENDBRANCH   1  33
TORSDOF 17
ENDMDL
