MODEL 1
REMARK VINA RESULT:     -13.0      0.000      0.000
REMARK SMILES Cc1ccc(C(C)(C)C)c(OCC(=O)c2nc(C)c(C(=O)NCCCCCCNC(=O)c3ccc(-c4c5nc(c(-c6c(F)c(F)c(F)c(F)c6F)c6ccc([nH]6)c(-c6c(F)c(F)c(F)c(F)c6F)c6nc(c(-c7c(F)c(F)c(F)c(F)c7F)c7ccc4[nH]7)C=C6)C=C5)cc3)s2)c1
REMARK SMILES IDX 24 1 23 2 22 3 20 4 21 5 19 7 15 8 16 9 95 10 17 11 18 12
REMARK SMILES IDX 13 13 14 14 12 15 11 16 10 17 1 18 2 19 3 20 96 21 4 22 5 23
REMARK SMILES IDX 6 24 7 25 8 26 9 27 25 28 26 29 27 30 28 31 29 32 30 33
REMARK SMILES IDX 31 35 32 36 33 37 94 38 34 39 93 40 35 41 36 42 37 43 87 44
REMARK SMILES IDX 38 45 92 46 86 47 88 48 39 49 91 50 85 51 84 52 40 54 72 55
REMARK SMILES IDX 52 56 71 57 53 58 56 59 70 60 89 61 54 62 55 63 69 65 90 66
REMARK SMILES IDX 57 67 41 68 42 69 50 70 43 71 44 72 48 73 51 74 45 75 46 76
REMARK SMILES IDX 49 77 47 78 73 79 74 80 82 81 75 82 76 83 80 84 83 85 77 86
REMARK SMILES IDX 78 87 81 88 79 89 58 90 59 91 67 92 60 93 61 94 65 95 68 96
REMARK SMILES IDX 62 97 63 98 66 99 64 100
REMARK H PARENT 22 6 29 34 88 53 56 64
REMARK Flexibility Score: inf
ROOT
ATOM      1  C   UNL A   1      33.653  28.664  24.144  1.00  0.00     0.021 C 
ENDROOT
BRANCH   1   2
ATOM      2  C   UNL A   1      33.208  28.894  22.694  1.00  0.00     0.116 C 
BRANCH   2   3
ATOM      3  N   UNL A   1      33.383  27.699  21.910  1.00  0.00    -0.351 N 
ATOM      4  C   UNL A   1      32.994  26.394  22.050  1.00  0.00     0.263 C 
ATOM      5  O   UNL A   1      33.362  25.691  21.100  1.00  0.00    -0.268 OA
ATOM      6  H   UNL A   1      33.900  27.855  21.087  1.00  0.00     0.163 HD
BRANCH   4   7
ATOM      7  C   UNL A   1      32.210  25.853  23.159  1.00  0.00     0.115 A 
ATOM      8  C   UNL A   1      31.748  24.509  25.174  1.00  0.00     0.164 A 
ATOM      9  N   UNL A   1      30.689  25.201  24.831  1.00  0.00    -0.237 NA
ATOM     10  S   UNL A   1      33.079  24.701  24.148  1.00  0.00    -0.105 S 
ATOM     11  C   UNL A   1      30.946  26.010  23.728  1.00  0.00     0.062 A 
ATOM     12  C   UNL A   1      29.812  26.911  23.417  1.00  0.00     0.068 C 
BRANCH   8  13
ATOM     13  C   UNL A   1      31.733  23.637  26.339  1.00  0.00     0.228 C 
ATOM     14  O   UNL A   1      30.831  23.667  27.186  1.00  0.00    -0.288 OA
BRANCH  13  15
ATOM     15  C   UNL A   1      32.953  22.740  26.600  1.00  0.00     0.313 C 
BRANCH  15  16
ATOM     16  O   UNL A   1      33.201  21.589  25.824  1.00  0.00    -0.485 OA
BRANCH  16  17
ATOM     17  C   UNL A   1      34.484  21.231  25.519  1.00  0.00     0.123 A 
ATOM     18  C   UNL A   1      38.045  22.589  25.809  1.00  0.00     0.044 C 
ATOM     19  C   UNL A   1      36.892  21.677  25.515  1.00  0.00    -0.047 A 
ATOM     20  C   UNL A   1      37.112  20.403  25.008  1.00  0.00     0.004 A 
ATOM     21  C   UNL A   1      35.575  22.092  25.733  1.00  0.00     0.050 A 
ATOM     22  C   UNL A   1      36.032  19.559  24.740  1.00  0.00     0.008 A 
ATOM     23  C   UNL A   1      34.690  19.937  24.992  1.00  0.00    -0.000 A 
BRANCH  23  24
ATOM     24  C   UNL A   1      33.578  18.908  24.651  1.00  0.00    -0.010 C 
ATOM     25  C   UNL A   1      32.576  19.570  23.675  1.00  0.00     0.016 C 
ATOM     26  C   UNL A   1      34.206  17.668  23.968  1.00  0.00     0.016 C 
ATOM     27  C   UNL A   1      32.731  18.362  25.824  1.00  0.00     0.016 C 
ENDBRANCH  23  24
ENDBRANCH  16  17
ENDBRANCH  15  16
ENDBRANCH  13  15
ENDBRANCH   8  13
ENDBRANCH   4   7
ENDBRANCH   2   3
ENDBRANCH   1   2
BRANCH   1  28
ATOM     28  C   UNL A   1      32.584  28.955  25.205  1.00  0.00     0.002 C 
BRANCH  28  29
ATOM     29  C   UNL A   1      32.996  29.919  26.331  1.00  0.00     0.002 C 
BRANCH  29  30
ATOM     30  C   UNL A   1      34.178  29.471  27.193  1.00  0.00     0.021 C 
BRANCH  30  31
ATOM     31  C   UNL A   1      34.953  30.629  27.799  1.00  0.00     0.116 C 
BRANCH  31  32
ATOM     32  N   UNL A   1      34.126  31.794  28.085  1.00  0.00    -0.352 N 
ATOM     33  C   UNL A   1      34.296  32.815  29.008  1.00  0.00     0.251 C 
ATOM     34  H   UNL A   1      33.314  31.867  27.532  1.00  0.00     0.163 HD
ATOM     35  O   UNL A   1      33.435  33.658  29.156  1.00  0.00    -0.269 OA
BRANCH  33  36
ATOM     36  C   UNL A   1      35.615  32.968  29.673  1.00  0.00     0.039 A 
ATOM     37  C   UNL A   1      36.596  33.659  28.952  1.00  0.00     0.014 A 
ATOM     38  C   UNL A   1      35.964  32.172  30.755  1.00  0.00     0.014 A 
ATOM     39  C   UNL A   1      37.925  33.291  29.104  1.00  0.00     0.010 A 
ATOM     40  C   UNL A   1      37.257  31.710  30.824  1.00  0.00     0.010 A 
ATOM     41  C   UNL A   1      38.213  32.219  29.943  1.00  0.00    -0.014 A 
BRANCH  41  42
ATOM     42  C   UNL A   1      39.516  31.595  30.017  1.00  0.00     0.031 A 
ATOM     43  C   UNL A   1      39.663  30.272  29.401  1.00  0.00     0.074 A 
ATOM     44  C   UNL A   1      40.561  32.233  30.587  1.00  0.00     0.049 A 
ATOM     45  N   UNL A   1      40.509  29.388  29.794  1.00  0.00    -0.248 NA
ATOM     46  C   UNL A   1      38.798  29.808  28.322  1.00  0.00     0.031 C 
ATOM     47  C   UNL A   1      41.967  31.848  30.531  1.00  0.00     0.029 A 
ATOM     48  N   UNL A   1      40.530  33.299  31.499  1.00  0.00    -0.354 N 
ATOM     49  C   UNL A   1      40.503  28.371  28.869  1.00  0.00     0.074 A 
ATOM     50  C   UNL A   1      39.356  28.630  28.032  1.00  0.00     0.031 C 
ATOM     51  C   UNL A   1      42.620  32.431  31.550  1.00  0.00     0.029 A 
ATOM     52  C   UNL A   1      41.630  33.101  32.369  1.00  0.00     0.049 A 
ATOM     53  H   UNL A   1      39.876  34.035  31.528  1.00  0.00     0.167 HD
ATOM     54  C   UNL A   1      41.565  27.517  28.845  1.00  0.00     0.037 A 
ATOM     55  C   UNL A   1      41.452  32.902  33.709  1.00  0.00     0.037 A 
ATOM     56  C   UNL A   1      42.507  27.855  29.915  1.00  0.00     0.049 A 
ATOM     57  C   UNL A   1      41.934  31.556  34.185  1.00  0.00     0.074 A 
ATOM     58  C   UNL A   1      43.659  28.626  29.930  1.00  0.00     0.029 A 
ATOM     59  N   UNL A   1      42.123  27.705  31.243  1.00  0.00    -0.354 N 
ATOM     60  N   UNL A   1      42.182  30.547  33.396  1.00  0.00    -0.248 NA
ATOM     61  C   UNL A   1      42.159  31.239  35.587  1.00  0.00     0.031 C 
ATOM     62  C   UNL A   1      43.963  28.939  31.280  1.00  0.00     0.029 A 
ATOM     63  C   UNL A   1      43.013  28.340  32.090  1.00  0.00     0.049 A 
ATOM     64  H   UNL A   1      41.323  27.212  31.540  1.00  0.00     0.167 HD
ATOM     65  C   UNL A   1      42.583  29.463  34.139  1.00  0.00     0.074 A 
ATOM     66  C   UNL A   1      42.584  29.966  35.501  1.00  0.00     0.031 C 
ATOM     67  C   UNL A   1      42.859  28.258  33.542  1.00  0.00     0.037 A 
BRANCH  54  68
ATOM     68  C   UNL A   1      41.904  26.599  27.690  1.00  0.00     0.064 A 
ATOM     69  C   UNL A   1      41.365  25.294  27.633  1.00  0.00     0.173 A 
ATOM     70  C   UNL A   1      42.786  26.909  26.638  1.00  0.00     0.173 A 
ATOM     71  F   UNL A   1      40.435  24.882  28.504  1.00  0.00    -0.203 F 
ATOM     72  C   UNL A   1      41.760  24.354  26.677  1.00  0.00     0.198 A 
ATOM     73  C   UNL A   1      43.222  25.956  25.711  1.00  0.00     0.198 A 
ATOM     74  F   UNL A   1      43.212  28.160  26.427  1.00  0.00    -0.203 F 
ATOM     75  F   UNL A   1      41.216  23.129  26.685  1.00  0.00    -0.200 F 
ATOM     76  C   UNL A   1      42.716  24.673  25.736  1.00  0.00     0.200 A 
ATOM     77  F   UNL A   1      44.134  26.294  24.788  1.00  0.00    -0.200 F 
ATOM     78  F   UNL A   1      43.123  23.763  24.842  1.00  0.00    -0.200 F 
ENDBRANCH  54  68
BRANCH  55  79
ATOM     79  C   UNL A   1      40.273  33.647  34.233  1.00  0.00     0.064 A 
ATOM     80  C   UNL A   1      39.149  32.858  34.549  1.00  0.00     0.173 A 
ATOM     81  C   UNL A   1      40.459  34.837  34.944  1.00  0.00     0.173 A 
ATOM     82  F   UNL A   1      38.891  31.745  33.841  1.00  0.00    -0.203 F 
ATOM     83  C   UNL A   1      38.439  33.082  35.723  1.00  0.00     0.198 A 
ATOM     84  C   UNL A   1      39.701  35.091  36.085  1.00  0.00     0.198 A 
ATOM     85  F   UNL A   1      41.467  35.664  34.632  1.00  0.00    -0.203 F 
ATOM     86  F   UNL A   1      37.544  32.176  36.143  1.00  0.00    -0.200 F 
ATOM     87  C   UNL A   1      38.756  34.169  36.519  1.00  0.00     0.200 A 
ATOM     88  F   UNL A   1      39.963  36.176  36.827  1.00  0.00    -0.200 F 
ATOM     89  F   UNL A   1      38.187  34.297  37.725  1.00  0.00    -0.200 F 
ENDBRANCH  55  79
BRANCH  67  90
ATOM     90  C   UNL A   1      43.099  26.904  34.206  1.00  0.00     0.064 A 
ATOM     91  C   UNL A   1      42.110  26.080  34.766  1.00  0.00     0.173 A 
ATOM     92  C   UNL A   1      44.403  26.328  34.211  1.00  0.00     0.173 A 
ATOM     93  F   UNL A   1      40.816  26.405  34.741  1.00  0.00    -0.203 F 
ATOM     94  C   UNL A   1      42.400  24.831  35.332  1.00  0.00     0.198 A 
ATOM     95  C   UNL A   1      44.675  25.052  34.704  1.00  0.00     0.198 A 
ATOM     96  F   UNL A   1      45.470  26.968  33.715  1.00  0.00    -0.203 F 
ATOM     97  F   UNL A   1      41.415  24.123  35.900  1.00  0.00    -0.200 F 
ATOM     98  C   UNL A   1      43.675  24.310  35.285  1.00  0.00     0.200 A 
ATOM     99  F   UNL A   1      45.912  24.547  34.593  1.00  0.00    -0.200 F 
ATOM    100  F   UNL A   1      43.934  23.092  35.778  1.00  0.00    -0.200 F 
ENDBRANCH  67  90
ENDBRANCH  41  42
ENDBRANCH  33  36
ENDBRANCH  31  32
ENDBRANCH  30  31
ENDBRANCH  29  30
ENDBRANCH  28  29
ENDBRANCH   1  28
TORSDOF 18
ENDMDL
MODEL 2
REMARK VINA RESULT:     -12.5      4.389     10.280
REMARK SMILES Cc1ccc(C(C)(C)C)c(OCC(=O)c2nc(C)c(C(=O)NCCCCCCNC(=O)c3ccc(-c4c5nc(c(-c6c(F)c(F)c(F)c(F)c6F)c6ccc([nH]6)c(-c6c(F)c(F)c(F)c(F)c6F)c6nc(c(-c7c(F)c(F)c(F)c(F)c7F)c7ccc4[nH]7)C=C6)C=C5)cc3)s2)c1
REMARK SMILES IDX 24 1 23 2 22 3 20 4 21 5 19 7 15 8 16 9 95 10 17 11 18 12
REMARK SMILES IDX 13 13 14 14 12 15 11 16 10 17 1 18 2 19 3 20 96 21 4 22 5 23
REMARK SMILES IDX 6 24 7 25 8 26 9 27 25 28 26 29 27 30 28 31 29 32 30 33
REMARK SMILES IDX 31 35 32 36 33 37 94 38 34 39 93 40 35 41 36 42 37 43 87 44
REMARK SMILES IDX 38 45 92 46 86 47 88 48 39 49 91 50 85 51 84 52 40 54 72 55
REMARK SMILES IDX 52 56 71 57 53 58 56 59 70 60 89 61 54 62 55 63 69 65 90 66
REMARK SMILES IDX 57 67 41 68 42 69 50 70 43 71 44 72 48 73 51 74 45 75 46 76
REMARK SMILES IDX 49 77 47 78 73 79 74 80 82 81 75 82 76 83 80 84 83 85 77 86
REMARK SMILES IDX 78 87 81 88 79 89 58 90 59 91 67 92 60 93 61 94 65 95 68 96
REMARK SMILES IDX 62 97 63 98 66 99 64 100
REMARK H PARENT 22 6 29 34 88 53 56 64
REMARK Flexibility Score: inf
ROOT
ATOM      1  C   UNL A   1      38.130  21.202  25.267  1.00  0.00     0.021 C 
ENDROOT
BRANCH   1   2
ATOM      2  C   UNL A   1      36.623  21.486  25.213  1.00  0.00     0.116 C 
BRANCH   2   3
ATOM      3  N   UNL A   1      35.882  20.270  25.003  1.00  0.00    -0.351 N 
ATOM      4  C   UNL A   1      34.553  19.964  24.878  1.00  0.00     0.263 C 
ATOM      5  O   UNL A   1      34.367  18.756  24.686  1.00  0.00    -0.268 OA
ATOM      6  H   UNL A   1      36.462  19.477  24.933  1.00  0.00     0.163 HD
BRANCH   4   7
ATOM      7  C   UNL A   1      33.451  20.923  24.928  1.00  0.00     0.115 A 
ATOM      8  C   UNL A   1      31.988  22.657  25.894  1.00  0.00     0.164 A 
ATOM      9  N   UNL A   1      31.620  22.376  24.667  1.00  0.00    -0.237 NA
ATOM     10  S   UNL A   1      33.300  21.751  26.461  1.00  0.00    -0.105 S 
ATOM     11  C   UNL A   1      32.469  21.440  24.084  1.00  0.00     0.062 A 
ATOM     12  C   UNL A   1      32.163  21.222  22.650  1.00  0.00     0.068 C 
BRANCH   8  13
ATOM     13  C   UNL A   1      31.284  23.657  26.681  1.00  0.00     0.228 C 
ATOM     14  O   UNL A   1      30.215  23.424  27.259  1.00  0.00    -0.288 OA
BRANCH  13  15
ATOM     15  C   UNL A   1      31.817  25.098  26.684  1.00  0.00     0.313 C 
BRANCH  15  16
ATOM     16  O   UNL A   1      30.948  26.206  26.611  1.00  0.00    -0.485 OA
BRANCH  16  17
ATOM     17  C   UNL A   1      31.421  27.424  26.213  1.00  0.00     0.123 A 
ATOM     18  C   UNL A   1      33.381  30.397  27.603  1.00  0.00     0.044 C 
ATOM     19  C   UNL A   1      32.640  29.502  26.656  1.00  0.00    -0.047 A 
ATOM     20  C   UNL A   1      32.497  29.854  25.320  1.00  0.00     0.004 A 
ATOM     21  C   UNL A   1      32.069  28.305  27.097  1.00  0.00     0.050 A 
ATOM     22  C   UNL A   1      31.807  29.012  24.444  1.00  0.00     0.008 A 
ATOM     23  C   UNL A   1      31.256  27.773  24.854  1.00  0.00    -0.000 A 
BRANCH  23  24
ATOM     24  C   UNL A   1      30.513  26.929  23.784  1.00  0.00    -0.010 C 
ATOM     25  C   UNL A   1      29.207  26.382  24.408  1.00  0.00     0.016 C 
ATOM     26  C   UNL A   1      30.159  27.821  22.568  1.00  0.00     0.016 C 
ATOM     27  C   UNL A   1      31.254  25.701  23.207  1.00  0.00     0.016 C 
ENDBRANCH  23  24
ENDBRANCH  16  17
ENDBRANCH  15  16
ENDBRANCH  13  15
ENDBRANCH   8  13
ENDBRANCH   4   7
ENDBRANCH   2   3
ENDBRANCH   1   2
BRANCH   1  28
ATOM     28  C   UNL A   1      38.929  22.114  26.208  1.00  0.00     0.002 C 
BRANCH  28  29
ATOM     29  C   UNL A   1      40.451  21.888  26.234  1.00  0.00     0.002 C 
BRANCH  29  30
ATOM     30  C   UNL A   1      40.908  20.428  26.233  1.00  0.00     0.021 C 
BRANCH  30  31
ATOM     31  C   UNL A   1      42.388  20.261  26.534  1.00  0.00     0.116 C 
BRANCH  31  32
ATOM     32  N   UNL A   1      43.147  19.708  25.419  1.00  0.00    -0.352 N 
ATOM     33  C   UNL A   1      44.015  20.322  24.527  1.00  0.00     0.251 C 
ATOM     34  H   UNL A   1      43.024  18.742  25.276  1.00  0.00     0.163 HD
ATOM     35  O   UNL A   1      44.484  19.696  23.599  1.00  0.00    -0.269 OA
BRANCH  33  36
ATOM     36  C   UNL A   1      44.503  21.691  24.831  1.00  0.00     0.039 A 
ATOM     37  C   UNL A   1      45.518  21.789  25.790  1.00  0.00     0.014 A 
ATOM     38  C   UNL A   1      43.763  22.808  24.470  1.00  0.00     0.014 A 
ATOM     39  C   UNL A   1      45.558  22.906  26.613  1.00  0.00     0.010 A 
ATOM     40  C   UNL A   1      43.710  23.859  25.356  1.00  0.00     0.010 A 
ATOM     41  C   UNL A   1      44.557  23.861  26.466  1.00  0.00    -0.014 A 
BRANCH  41  42
ATOM     42  C   UNL A   1      44.354  24.949  27.397  1.00  0.00     0.031 A 
ATOM     43  C   UNL A   1      43.088  25.686  27.304  1.00  0.00     0.074 A 
ATOM     44  C   UNL A   1      45.275  25.237  28.342  1.00  0.00     0.049 A 
ATOM     45  N   UNL A   1      42.949  26.918  27.640  1.00  0.00    -0.248 NA
ATOM     46  C   UNL A   1      41.878  25.097  26.742  1.00  0.00     0.031 C 
ATOM     47  C   UNL A   1      45.118  26.131  29.484  1.00  0.00     0.029 A 
ATOM     48  N   UNL A   1      46.635  24.891  28.357  1.00  0.00    -0.354 N 
ATOM     49  C   UNL A   1      41.606  27.205  27.612  1.00  0.00     0.074 A 
ATOM     50  C   UNL A   1      40.994  26.075  26.953  1.00  0.00     0.031 C 
ATOM     51  C   UNL A   1      46.334  26.505  29.916  1.00  0.00     0.029 A 
ATOM     52  C   UNL A   1      47.305  25.971  28.983  1.00  0.00     0.049 A 
ATOM     53  H   UNL A   1      47.040  24.066  28.004  1.00  0.00     0.167 HD
ATOM     54  C   UNL A   1      41.168  28.305  28.287  1.00  0.00     0.037 A 
ATOM     55  C   UNL A   1      48.246  26.706  28.320  1.00  0.00     0.037 A 
ATOM     56  C   UNL A   1      42.303  29.016  28.879  1.00  0.00     0.049 A 
ATOM     57  C   UNL A   1      47.870  28.156  28.156  1.00  0.00     0.074 A 
ATOM     58  C   UNL A   1      42.866  28.977  30.145  1.00  0.00     0.029 A 
ATOM     59  N   UNL A   1      43.246  29.616  28.052  1.00  0.00    -0.354 N 
ATOM     60  N   UNL A   1      46.661  28.619  28.311  1.00  0.00    -0.248 NA
ATOM     61  C   UNL A   1      48.825  29.192  27.792  1.00  0.00     0.031 C 
ATOM     62  C   UNL A   1      44.159  29.558  30.072  1.00  0.00     0.029 A 
ATOM     63  C   UNL A   1      44.375  29.973  28.769  1.00  0.00     0.049 A 
ATOM     64  H   UNL A   1      43.127  29.766  27.086  1.00  0.00     0.167 HD
ATOM     65  C   UNL A   1      46.646  29.972  28.073  1.00  0.00     0.074 A 
ATOM     66  C   UNL A   1      48.036  30.282  27.788  1.00  0.00     0.031 C 
ATOM     67  C   UNL A   1      45.477  30.689  28.127  1.00  0.00     0.037 A 
BRANCH  54  68
ATOM     68  C   UNL A   1      39.726  28.559  28.673  1.00  0.00     0.064 A 
ATOM     69  C   UNL A   1      38.849  29.203  27.771  1.00  0.00     0.173 A 
ATOM     70  C   UNL A   1      39.152  28.250  29.920  1.00  0.00     0.173 A 
ATOM     71  F   UNL A   1      39.214  29.472  26.510  1.00  0.00    -0.203 F 
ATOM     72  C   UNL A   1      37.556  29.599  28.127  1.00  0.00     0.198 A 
ATOM     73  C   UNL A   1      37.878  28.691  30.296  1.00  0.00     0.198 A 
ATOM     74  F   UNL A   1      39.775  27.458  30.800  1.00  0.00    -0.203 F 
ATOM     75  F   UNL A   1      36.779  30.215  27.226  1.00  0.00    -0.200 F 
ATOM     76  C   UNL A   1      37.082  29.375  29.402  1.00  0.00     0.200 A 
ATOM     77  F   UNL A   1      37.426  28.439  31.533  1.00  0.00    -0.200 F 
ATOM     78  F   UNL A   1      35.859  29.787  29.756  1.00  0.00    -0.200 F 
ENDBRANCH  54  68
BRANCH  55  79
ATOM     79  C   UNL A   1      49.011  25.883  27.341  1.00  0.00     0.064 A 
ATOM     80  C   UNL A   1      48.694  26.104  25.986  1.00  0.00     0.173 A 
ATOM     81  C   UNL A   1      50.305  25.454  27.650  1.00  0.00     0.173 A 
ATOM     82  F   UNL A   1      47.443  26.445  25.637  1.00  0.00    -0.203 F 
ATOM     83  C   UNL A   1      49.704  26.205  25.035  1.00  0.00     0.198 A 
ATOM     84  C   UNL A   1      51.302  25.494  26.678  1.00  0.00     0.198 A 
ATOM     85  F   UNL A   1      50.637  25.153  28.914  1.00  0.00    -0.203 F 
ATOM     86  F   UNL A   1      49.420  26.670  23.809  1.00  0.00    -0.200 F 
ATOM     87  C   UNL A   1      51.016  25.954  25.398  1.00  0.00     0.200 A 
ATOM     88  F   UNL A   1      52.565  25.192  27.010  1.00  0.00    -0.200 F 
ATOM     89  F   UNL A   1      52.005  26.206  24.530  1.00  0.00    -0.200 F 
ENDBRANCH  55  79
BRANCH  67  90
ATOM     90  C   UNL A   1      45.227  32.129  27.685  1.00  0.00     0.064 A 
ATOM     91  C   UNL A   1      44.412  32.527  26.614  1.00  0.00     0.173 A 
ATOM     92  C   UNL A   1      45.764  33.214  28.437  1.00  0.00     0.173 A 
ATOM     93  F   UNL A   1      43.731  31.649  25.874  1.00  0.00    -0.203 F 
ATOM     94  C   UNL A   1      44.201  33.873  26.285  1.00  0.00     0.198 A 
ATOM     95  C   UNL A   1      45.490  34.552  28.154  1.00  0.00     0.198 A 
ATOM     96  F   UNL A   1      46.562  33.026  29.496  1.00  0.00    -0.203 F 
ATOM     97  F   UNL A   1      43.457  34.179  25.214  1.00  0.00    -0.200 F 
ATOM     98  C   UNL A   1      44.724  34.883  27.063  1.00  0.00     0.200 A 
ATOM     99  F   UNL A   1      45.963  35.513  28.962  1.00  0.00    -0.200 F 
ATOM    100  F   UNL A   1      44.473  36.167  26.775  1.00  0.00    -0.200 F 
ENDBRANCH  67  90
ENDBRANCH  41  42
ENDBRANCH  33  36
ENDBRANCH  31  32
ENDBRANCH  30  31
ENDBRANCH  29  30
ENDBRANCH  28  29
ENDBRANCH   1  28
TORSDOF 18
ENDMDL
MODEL 3
REMARK VINA RESULT:     -12.5      1.357      2.491
REMARK SMILES Cc1ccc(C(C)(C)C)c(OCC(=O)c2nc(C)c(C(=O)NCCCCCCNC(=O)c3ccc(-c4c5nc(c(-c6c(F)c(F)c(F)c(F)c6F)c6ccc([nH]6)c(-c6c(F)c(F)c(F)c(F)c6F)c6nc(c(-c7c(F)c(F)c(F)c(F)c7F)c7ccc4[nH]7)C=C6)C=C5)cc3)s2)c1
REMARK SMILES IDX 24 1 23 2 22 3 20 4 21 5 19 7 15 8 16 9 95 10 17 11 18 12
REMARK SMILES IDX 13 13 14 14 12 15 11 16 10 17 1 18 2 19 3 20 96 21 4 22 5 23
REMARK SMILES IDX 6 24 7 25 8 26 9 27 25 28 26 29 27 30 28 31 29 32 30 33
REMARK SMILES IDX 31 35 32 36 33 37 94 38 34 39 93 40 35 41 36 42 37 43 87 44
REMARK SMILES IDX 38 45 92 46 86 47 88 48 39 49 91 50 85 51 84 52 40 54 72 55
REMARK SMILES IDX 52 56 71 57 53 58 56 59 70 60 89 61 54 62 55 63 69 65 90 66
REMARK SMILES IDX 57 67 41 68 42 69 50 70 43 71 44 72 48 73 51 74 45 75 46 76
REMARK SMILES IDX 49 77 47 78 73 79 74 80 82 81 75 82 76 83 80 84 83 85 77 86
REMARK SMILES IDX 78 87 81 88 79 89 58 90 59 91 67 92 60 93 61 94 65 95 68 96
REMARK SMILES IDX 62 97 63 98 66 99 64 100
REMARK H PARENT 22 6 29 34 88 53 56 64
REMARK Flexibility Score: inf
ROOT
ATOM      1  C   UNL A   1      34.666  30.567  27.427  1.00  0.00     0.021 C 
ENDROOT
BRANCH   1   2
ATOM      2  C   UNL A   1      34.102  29.476  26.506  1.00  0.00     0.116 C 
BRANCH   2   3
ATOM      3  N   UNL A   1      32.832  29.877  25.960  1.00  0.00    -0.351 N 
ATOM      4  C   UNL A   1      31.999  29.373  24.997  1.00  0.00     0.263 C 
ATOM      5  O   UNL A   1      30.974  30.052  24.863  1.00  0.00    -0.268 OA
ATOM      6  H   UNL A   1      32.482  30.700  26.371  1.00  0.00     0.163 HD
BRANCH   4   7
ATOM      7  C   UNL A   1      32.236  28.160  24.216  1.00  0.00     0.115 A 
ATOM      8  C   UNL A   1      31.868  25.850  23.436  1.00  0.00     0.164 A 
ATOM      9  N   UNL A   1      32.868  26.398  22.791  1.00  0.00    -0.237 NA
ATOM     10  S   UNL A   1      31.158  26.840  24.610  1.00  0.00    -0.105 S 
ATOM     11  C   UNL A   1      33.056  27.723  23.177  1.00  0.00     0.062 A 
ATOM     12  C   UNL A   1      34.081  28.406  22.353  1.00  0.00     0.068 C 
BRANCH   8  13
ATOM     13  C   UNL A   1      31.446  24.486  23.154  1.00  0.00     0.228 C 
ATOM     14  O   UNL A   1      30.279  24.102  23.300  1.00  0.00    -0.288 OA
BRANCH  13  15
ATOM     15  C   UNL A   1      32.519  23.447  22.790  1.00  0.00     0.313 C 
BRANCH  15  16
ATOM     16  O   UNL A   1      33.625  23.205  23.630  1.00  0.00    -0.485 OA
BRANCH  16  17
ATOM     17  C   UNL A   1      33.903  21.934  24.049  1.00  0.00     0.123 A 
ATOM     18  C   UNL A   1      32.292  18.469  24.143  1.00  0.00     0.044 C 
ATOM     19  C   UNL A   1      33.291  19.576  24.299  1.00  0.00    -0.047 A 
ATOM     20  C   UNL A   1      34.563  19.313  24.792  1.00  0.00     0.004 A 
ATOM     21  C   UNL A   1      32.962  20.893  23.965  1.00  0.00     0.050 A 
ATOM     22  C   UNL A   1      35.489  20.350  24.931  1.00  0.00     0.008 A 
ATOM     23  C   UNL A   1      35.196  21.686  24.559  1.00  0.00    -0.000 A 
BRANCH  23  24
ATOM     24  C   UNL A   1      36.311  22.748  24.763  1.00  0.00    -0.010 C 
ATOM     25  C   UNL A   1      37.442  22.117  25.611  1.00  0.00     0.016 C 
ATOM     26  C   UNL A   1      36.885  23.172  23.388  1.00  0.00     0.016 C 
ATOM     27  C   UNL A   1      35.921  24.059  25.483  1.00  0.00     0.016 C 
ENDBRANCH  23  24
ENDBRANCH  16  17
ENDBRANCH  15  16
ENDBRANCH  13  15
ENDBRANCH   8  13
ENDBRANCH   4   7
ENDBRANCH   2   3
ENDBRANCH   1   2
BRANCH   1  28
ATOM     28  C   UNL A   1      33.627  31.553  27.976  1.00  0.00     0.002 C 
BRANCH  28  29
ATOM     29  C   UNL A   1      33.753  33.007  27.487  1.00  0.00     0.002 C 
BRANCH  29  30
ATOM     30  C   UNL A   1      33.015  34.057  28.320  1.00  0.00     0.021 C 
BRANCH  30  31
ATOM     31  C   UNL A   1      33.859  35.284  28.625  1.00  0.00     0.116 C 
BRANCH  31  32
ATOM     32  N   UNL A   1      34.239  35.390  30.028  1.00  0.00    -0.352 N 
ATOM     33  C   UNL A   1      35.018  34.555  30.817  1.00  0.00     0.251 C 
ATOM     34  H   UNL A   1      33.885  36.183  30.492  1.00  0.00     0.163 HD
ATOM     35  O   UNL A   1      35.144  34.774  32.004  1.00  0.00    -0.269 OA
BRANCH  33  36
ATOM     36  C   UNL A   1      35.839  33.508  30.157  1.00  0.00     0.039 A 
ATOM     37  C   UNL A   1      35.842  32.247  30.766  1.00  0.00     0.014 A 
ATOM     38  C   UNL A   1      36.814  33.846  29.229  1.00  0.00     0.014 A 
ATOM     39  C   UNL A   1      36.991  31.473  30.700  1.00  0.00     0.010 A 
ATOM     40  C   UNL A   1      37.999  33.150  29.260  1.00  0.00     0.010 A 
ATOM     41  C   UNL A   1      38.103  32.009  30.058  1.00  0.00    -0.014 A 
BRANCH  41  42
ATOM     42  C   UNL A   1      39.418  31.408  30.111  1.00  0.00     0.031 A 
ATOM     43  C   UNL A   1      39.592  30.113  29.445  1.00  0.00     0.074 A 
ATOM     44  C   UNL A   1      40.449  32.043  30.710  1.00  0.00     0.049 A 
ATOM     45  N   UNL A   1      40.454  29.231  29.805  1.00  0.00    -0.248 NA
ATOM     46  C   UNL A   1      38.738  29.676  28.346  1.00  0.00     0.031 C 
ATOM     47  C   UNL A   1      41.862  31.688  30.643  1.00  0.00     0.029 A 
ATOM     48  N   UNL A   1      40.395  33.072  31.662  1.00  0.00    -0.354 N 
ATOM     49  C   UNL A   1      40.470  28.251  28.842  1.00  0.00     0.074 A 
ATOM     50  C   UNL A   1      39.320  28.521  28.012  1.00  0.00     0.031 C 
ATOM     51  C   UNL A   1      42.501  32.243  31.685  1.00  0.00     0.029 A 
ATOM     52  C   UNL A   1      41.497  32.861  32.527  1.00  0.00     0.049 A 
ATOM     53  H   UNL A   1      39.727  33.793  31.718  1.00  0.00     0.167 HD
ATOM     54  C   UNL A   1      41.548  27.419  28.788  1.00  0.00     0.037 A 
ATOM     55  C   UNL A   1      41.320  32.606  33.858  1.00  0.00     0.037 A 
ATOM     56  C   UNL A   1      42.481  27.733  29.873  1.00  0.00     0.049 A 
ATOM     57  C   UNL A   1      41.826  31.252  34.282  1.00  0.00     0.074 A 
ATOM     58  C   UNL A   1      43.618  28.524  29.921  1.00  0.00     0.029 A 
ATOM     59  N   UNL A   1      42.096  27.524  31.193  1.00  0.00    -0.354 N 
ATOM     60  N   UNL A   1      42.095  30.280  33.456  1.00  0.00    -0.248 NA
ATOM     61  C   UNL A   1      42.054  30.885  35.672  1.00  0.00     0.031 C 
ATOM     62  C   UNL A   1      43.913  28.791  31.283  1.00  0.00     0.029 A 
ATOM     63  C   UNL A   1      42.972  28.142  32.066  1.00  0.00     0.049 A 
ATOM     64  H   UNL A   1      41.306  27.004  31.468  1.00  0.00     0.167 HD
ATOM     65  C   UNL A   1      42.516  29.176  34.156  1.00  0.00     0.074 A 
ATOM     66  C   UNL A   1      42.504  29.625  35.537  1.00  0.00     0.031 C 
ATOM     67  C   UNL A   1      42.817  28.001  33.514  1.00  0.00     0.037 A 
BRANCH  54  68
ATOM     68  C   UNL A   1      41.907  26.554  27.599  1.00  0.00     0.064 A 
ATOM     69  C   UNL A   1      41.277  25.303  27.410  1.00  0.00     0.173 A 
ATOM     70  C   UNL A   1      42.891  26.859  26.639  1.00  0.00     0.173 A 
ATOM     71  F   UNL A   1      40.252  24.912  28.178  1.00  0.00    -0.203 F 
ATOM     72  C   UNL A   1      41.675  24.398  26.421  1.00  0.00     0.198 A 
ATOM     73  C   UNL A   1      43.326  25.936  25.682  1.00  0.00     0.198 A 
ATOM     74  F   UNL A   1      43.426  28.082  26.550  1.00  0.00    -0.203 F 
ATOM     75  F   UNL A   1      41.041  23.223  26.302  1.00  0.00    -0.200 F 
ATOM     76  C   UNL A   1      42.724  24.700  25.578  1.00  0.00     0.200 A 
ATOM     77  F   UNL A   1      44.331  26.259  24.855  1.00  0.00    -0.200 F 
ATOM     78  F   UNL A   1      43.131  23.819  24.655  1.00  0.00    -0.200 F 
ENDBRANCH  54  68
BRANCH  55  79
ATOM     79  C   UNL A   1      40.125  33.307  34.407  1.00  0.00     0.064 A 
ATOM     80  C   UNL A   1      39.045  32.476  34.762  1.00  0.00     0.173 A 
ATOM     81  C   UNL A   1      40.281  34.512  35.100  1.00  0.00     0.173 A 
ATOM     82  F   UNL A   1      38.814  31.346  34.073  1.00  0.00    -0.203 F 
ATOM     83  C   UNL A   1      38.359  32.684  35.953  1.00  0.00     0.198 A 
ATOM     84  C   UNL A   1      39.544  34.747  36.259  1.00  0.00     0.198 A 
ATOM     85  F   UNL A   1      41.244  35.377  34.751  1.00  0.00    -0.203 F 
ATOM     86  F   UNL A   1      37.515  31.746  36.408  1.00  0.00    -0.200 F 
ATOM     87  C   UNL A   1      38.651  33.792  36.729  1.00  0.00     0.200 A 
ATOM     88  F   UNL A   1      39.781  35.851  36.982  1.00  0.00    -0.200 F 
ATOM     89  F   UNL A   1      38.111  33.910  37.949  1.00  0.00    -0.200 F 
ENDBRANCH  55  79
BRANCH  67  90
ATOM     90  C   UNL A   1      43.081  26.627  34.125  1.00  0.00     0.064 A 
ATOM     91  C   UNL A   1      42.194  25.910  34.944  1.00  0.00     0.173 A 
ATOM     92  C   UNL A   1      44.274  25.916  33.805  1.00  0.00     0.173 A 
ATOM     93  F   UNL A   1      40.979  26.370  35.248  1.00  0.00    -0.203 F 
ATOM     94  C   UNL A   1      42.491  24.635  35.444  1.00  0.00     0.198 A 
ATOM     95  C   UNL A   1      44.532  24.616  34.240  1.00  0.00     0.198 A 
ATOM     96  F   UNL A   1      45.234  26.441  33.032  1.00  0.00    -0.203 F 
ATOM     97  F   UNL A   1      41.621  24.033  36.267  1.00  0.00    -0.200 F 
ATOM     98  C   UNL A   1      43.649  23.983  35.080  1.00  0.00     0.200 A 
ATOM     99  F   UNL A   1      45.639  23.983  33.824  1.00  0.00    -0.200 F 
ATOM    100  F   UNL A   1      43.901  22.742  35.518  1.00  0.00    -0.200 F 
ENDBRANCH  67  90
ENDBRANCH  41  42
ENDBRANCH  33  36
ENDBRANCH  31  32
ENDBRANCH  30  31
ENDBRANCH  29  30
ENDBRANCH  28  29
ENDBRANCH   1  28
TORSDOF 18
ENDMDL
