MODEL 1
REMARK VINA RESULT:     -11.2      0.000      0.000
REMARK SMILES O=C(Cc1ccc(OC[C@H]2Cc3ccccc3S2)cc1)NCCCCCCNC(=O)c1ccc(-c2c3nc(c(-c4c(F)c(F)c(F)c(F)c4F)c4ccc([nH]4)c(-c4c(F)c(F)c(F)c(F)c4F)c4nc(c(-c5c(F)c(F)c(F)c(F)c5F)c5ccc2[nH]5)C=C4)C=C3)cc1
REMARK SMILES IDX 23 1 22 2 21 3 1 4 2 5 3 7 4 8 5 9 20 10 6 11 19 12 7 13
REMARK SMILES IDX 8 14 9 15 10 16 11 17 18 18 12 19 17 20 13 21 16 22 14 23
REMARK SMILES IDX 15 24 24 25 25 26 26 27 27 28 28 29 29 30 30 32 31 33 32 34
REMARK SMILES IDX 93 35 33 36 92 37 34 38 35 39 36 40 86 41 37 42 91 43 85 44
REMARK SMILES IDX 87 45 38 46 90 47 84 48 83 49 39 51 71 52 51 53 70 54 52 55
REMARK SMILES IDX 55 56 69 57 88 58 53 59 54 60 68 62 89 63 56 64 40 65 41 66
REMARK SMILES IDX 49 67 42 68 43 69 47 70 50 71 44 72 45 73 48 74 46 75 72 76
REMARK SMILES IDX 73 77 81 78 74 79 75 80 79 81 82 82 76 83 77 84 80 85 78 86
REMARK SMILES IDX 57 87 58 88 66 89 59 90 60 91 64 92 67 93 61 94 62 95 65 96
REMARK SMILES IDX 63 97
REMARK H PARENT 21 6 28 31 87 50 55 61
REMARK Flexibility Score: inf
ROOT
ATOM      1  C   UNL A   1      35.375  32.259  28.284  1.00  0.00     0.021 C 
ENDROOT
BRANCH   1   2
ATOM      2  C   UNL A   1      33.986  31.666  28.050  1.00  0.00     0.116 C 
BRANCH   2   3
ATOM      3  N   UNL A   1      34.005  30.694  26.979  1.00  0.00    -0.356 N 
ATOM      4  O   UNL A   1      31.799  30.921  26.384  1.00  0.00    -0.275 OA
ATOM      5  C   UNL A   1      32.888  30.375  26.238  1.00  0.00     0.224 C 
ATOM      6  H   UNL A   1      34.854  30.240  26.770  1.00  0.00     0.163 HD
BRANCH   5   7
ATOM      7  C   UNL A   1      33.103  29.215  25.292  1.00  0.00     0.135 C 
BRANCH   7   8
ATOM      8  C   UNL A   1      32.823  27.819  25.805  1.00  0.00    -0.038 A 
ATOM      9  C   UNL A   1      31.559  27.388  26.240  1.00  0.00     0.008 A 
ATOM     10  C   UNL A   1      33.838  26.860  25.647  1.00  0.00     0.008 A 
ATOM     11  C   UNL A   1      31.299  26.023  26.431  1.00  0.00     0.047 A 
ATOM     12  C   UNL A   1      33.582  25.505  25.836  1.00  0.00     0.047 A 
ATOM     13  C   UNL A   1      32.307  25.089  26.196  1.00  0.00     0.119 A 
BRANCH  13  14
ATOM     14  O   UNL A   1      32.039  23.744  26.237  1.00  0.00    -0.492 OA
BRANCH  14  15
ATOM     15  C   UNL A   1      32.830  23.072  25.255  1.00  0.00     0.244 C 
BRANCH  15  16
ATOM     16  C   UNL A   1      31.990  22.633  24.034  1.00  0.00     0.094 C 
ATOM     17  C   UNL A   1      30.807  23.569  23.668  1.00  0.00     0.055 C 
ATOM     18  S   UNL A   1      33.135  22.802  22.618  1.00  0.00    -0.119 SA
ATOM     19  C   UNL A   1      31.416  24.756  22.965  1.00  0.00    -0.033 A 
ATOM     20  C   UNL A   1      32.708  24.516  22.487  1.00  0.00     0.011 A 
ATOM     21  C   UNL A   1      30.839  26.011  22.821  1.00  0.00     0.005 A 
ATOM     22  C   UNL A   1      33.528  25.556  22.096  1.00  0.00     0.015 A 
ATOM     23  C   UNL A   1      31.639  27.059  22.361  1.00  0.00     0.000 A 
ATOM     24  C   UNL A   1      32.992  26.844  22.061  1.00  0.00     0.001 A 
ENDBRANCH  15  16
ENDBRANCH  14  15
ENDBRANCH  13  14
ENDBRANCH   7   8
ENDBRANCH   5   7
ENDBRANCH   2   3
ENDBRANCH   1   2
BRANCH   1  25
ATOM     25  C   UNL A   1      35.395  33.515  29.167  1.00  0.00     0.002 C 
BRANCH  25  26
ATOM     26  C   UNL A   1      35.244  34.841  28.415  1.00  0.00     0.002 C 
BRANCH  26  27
ATOM     27  C   UNL A   1      33.968  35.619  28.733  1.00  0.00     0.021 C 
BRANCH  27  28
ATOM     28  C   UNL A   1      32.964  34.872  29.605  1.00  0.00     0.116 C 
BRANCH  28  29
ATOM     29  N   UNL A   1      32.409  35.708  30.658  1.00  0.00    -0.352 N 
ATOM     30  C   UNL A   1      32.766  35.788  31.980  1.00  0.00     0.251 C 
ATOM     31  H   UNL A   1      31.672  36.301  30.383  1.00  0.00     0.163 HD
ATOM     32  O   UNL A   1      32.076  36.431  32.770  1.00  0.00    -0.269 OA
BRANCH  30  33
ATOM     33  C   UNL A   1      33.969  35.079  32.463  1.00  0.00     0.039 A 
ATOM     34  C   UNL A   1      33.823  33.809  33.027  1.00  0.00     0.014 A 
ATOM     35  C   UNL A   1      35.237  35.658  32.358  1.00  0.00     0.014 A 
ATOM     36  C   UNL A   1      34.955  33.093  33.422  1.00  0.00     0.010 A 
ATOM     37  C   UNL A   1      36.368  34.914  32.680  1.00  0.00     0.010 A 
ATOM     38  C   UNL A   1      36.239  33.623  33.217  1.00  0.00    -0.014 A 
BRANCH  38  39
ATOM     39  C   UNL A   1      37.457  32.840  33.552  1.00  0.00     0.031 A 
ATOM     40  C   UNL A   1      38.216  33.125  34.819  1.00  0.00     0.074 A 
ATOM     41  C   UNL A   1      37.910  31.910  32.689  1.00  0.00     0.049 A 
ATOM     42  N   UNL A   1      39.334  32.597  35.251  1.00  0.00    -0.248 NA
ATOM     43  C   UNL A   1      37.660  34.158  35.707  1.00  0.00     0.031 C 
ATOM     44  C   UNL A   1      37.288  31.570  31.408  1.00  0.00     0.029 A 
ATOM     45  N   UNL A   1      39.007  31.085  32.753  1.00  0.00    -0.354 N 
ATOM     46  C   UNL A   1      39.614  33.235  36.453  1.00  0.00     0.074 A 
ATOM     47  C   UNL A   1      38.584  34.231  36.654  1.00  0.00     0.031 C 
ATOM     48  C   UNL A   1      37.999  30.595  30.818  1.00  0.00     0.029 A 
ATOM     49  C   UNL A   1      39.150  30.272  31.654  1.00  0.00     0.049 A 
ATOM     50  H   UNL A   1      39.631  31.078  33.513  1.00  0.00     0.167 HD
ATOM     51  C   UNL A   1      40.624  32.994  37.323  1.00  0.00     0.037 A 
ATOM     52  C   UNL A   1      40.109  29.376  31.350  1.00  0.00     0.037 A 
ATOM     53  C   UNL A   1      41.638  31.991  37.128  1.00  0.00     0.049 A 
ATOM     54  C   UNL A   1      41.236  29.150  32.323  1.00  0.00     0.074 A 
ATOM     55  C   UNL A   1      42.677  31.640  37.973  1.00  0.00     0.029 A 
ATOM     56  N   UNL A   1      41.745  31.180  36.008  1.00  0.00    -0.354 N 
ATOM     57  N   UNL A   1      41.452  29.712  33.488  1.00  0.00    -0.248 NA
ATOM     58  C   UNL A   1      42.251  28.158  31.942  1.00  0.00     0.031 C 
ATOM     59  C   UNL A   1      43.443  30.656  37.341  1.00  0.00     0.029 A 
ATOM     60  C   UNL A   1      42.846  30.347  36.130  1.00  0.00     0.049 A 
ATOM     61  H   UNL A   1      41.128  31.193  35.240  1.00  0.00     0.167 HD
ATOM     62  C   UNL A   1      42.603  29.120  33.991  1.00  0.00     0.074 A 
ATOM     63  C   UNL A   1      43.030  28.140  33.013  1.00  0.00     0.031 C 
ATOM     64  C   UNL A   1      43.250  29.366  35.156  1.00  0.00     0.037 A 
BRANCH  51  65
ATOM     65  C   UNL A   1      40.682  33.823  38.574  1.00  0.00     0.064 A 
ATOM     66  C   UNL A   1      41.469  34.983  38.650  1.00  0.00     0.173 A 
ATOM     67  C   UNL A   1      39.898  33.490  39.688  1.00  0.00     0.173 A 
ATOM     68  F   UNL A   1      42.246  35.341  37.617  1.00  0.00    -0.203 F 
ATOM     69  C   UNL A   1      41.485  35.765  39.802  1.00  0.00     0.198 A 
ATOM     70  C   UNL A   1      39.890  34.292  40.826  1.00  0.00     0.198 A 
ATOM     71  F   UNL A   1      39.122  32.396  39.668  1.00  0.00    -0.203 F 
ATOM     72  F   UNL A   1      42.277  36.843  39.866  1.00  0.00    -0.200 F 
ATOM     73  C   UNL A   1      40.688  35.425  40.885  1.00  0.00     0.200 A 
ATOM     74  F   UNL A   1      39.108  33.970  41.866  1.00  0.00    -0.200 F 
ATOM     75  F   UNL A   1      40.694  36.187  41.987  1.00  0.00    -0.200 F 
ENDBRANCH  51  65
BRANCH  52  76
ATOM     76  C   UNL A   1      40.051  28.618  30.071  1.00  0.00     0.064 A 
ATOM     77  C   UNL A   1      39.404  27.377  29.995  1.00  0.00     0.173 A 
ATOM     78  C   UNL A   1      40.669  29.100  28.908  1.00  0.00     0.173 A 
ATOM     79  F   UNL A   1      38.814  26.861  31.085  1.00  0.00    -0.203 F 
ATOM     80  C   UNL A   1      39.409  26.631  28.818  1.00  0.00     0.198 A 
ATOM     81  C   UNL A   1      40.643  28.370  27.721  1.00  0.00     0.198 A 
ATOM     82  F   UNL A   1      41.297  30.285  28.922  1.00  0.00    -0.203 F 
ATOM     83  F   UNL A   1      38.840  25.417  28.794  1.00  0.00    -0.200 F 
ATOM     84  C   UNL A   1      40.026  27.130  27.681  1.00  0.00     0.200 A 
ATOM     85  F   UNL A   1      41.226  28.864  26.620  1.00  0.00    -0.200 F 
ATOM     86  F   UNL A   1      40.034  26.410  26.550  1.00  0.00    -0.200 F 
ENDBRANCH  52  76
BRANCH  64  87
ATOM     87  C   UNL A   1      44.461  28.531  35.463  1.00  0.00     0.064 A 
ATOM     88  C   UNL A   1      45.751  28.933  35.088  1.00  0.00     0.173 A 
ATOM     89  C   UNL A   1      44.330  27.330  36.179  1.00  0.00     0.173 A 
ATOM     90  F   UNL A   1      45.931  30.065  34.392  1.00  0.00    -0.203 F 
ATOM     91  C   UNL A   1      46.862  28.149  35.390  1.00  0.00     0.198 A 
ATOM     92  C   UNL A   1      45.445  26.567  36.510  1.00  0.00     0.198 A 
ATOM     93  F   UNL A   1      43.120  26.904  36.570  1.00  0.00    -0.203 F 
ATOM     94  F   UNL A   1      48.078  28.525  34.973  1.00  0.00    -0.200 F 
ATOM     95  C   UNL A   1      46.709  26.972  36.107  1.00  0.00     0.200 A 
ATOM     96  F   UNL A   1      45.297  25.438  37.219  1.00  0.00    -0.200 F 
ATOM     97  F   UNL A   1      47.780  26.222  36.405  1.00  0.00    -0.200 F 
ENDBRANCH  64  87
ENDBRANCH  38  39
ENDBRANCH  30  33
ENDBRANCH  28  29
ENDBRANCH  27  28
ENDBRANCH  26  27
ENDBRANCH  25  26
ENDBRANCH   1  25
TORSDOF 17
ENDMDL
MODEL 2
REMARK VINA RESULT:     -11.2      1.842      7.718
REMARK SMILES O=C(Cc1ccc(OC[C@H]2Cc3ccccc3S2)cc1)NCCCCCCNC(=O)c1ccc(-c2c3nc(c(-c4c(F)c(F)c(F)c(F)c4F)c4ccc([nH]4)c(-c4c(F)c(F)c(F)c(F)c4F)c4nc(c(-c5c(F)c(F)c(F)c(F)c5F)c5ccc2[nH]5)C=C4)C=C3)cc1
REMARK SMILES IDX 23 1 22 2 21 3 1 4 2 5 3 7 4 8 5 9 20 10 6 11 19 12 7 13
REMARK SMILES IDX 8 14 9 15 10 16 11 17 18 18 12 19 17 20 13 21 16 22 14 23
REMARK SMILES IDX 15 24 24 25 25 26 26 27 27 28 28 29 29 30 30 32 31 33 32 34
REMARK SMILES IDX 93 35 33 36 92 37 34 38 35 39 36 40 86 41 37 42 91 43 85 44
REMARK SMILES IDX 87 45 38 46 90 47 84 48 83 49 39 51 71 52 51 53 70 54 52 55
REMARK SMILES IDX 55 56 69 57 88 58 53 59 54 60 68 62 89 63 56 64 40 65 41 66
REMARK SMILES IDX 49 67 42 68 43 69 47 70 50 71 44 72 45 73 48 74 46 75 72 76
REMARK SMILES IDX 73 77 81 78 74 79 75 80 79 81 82 82 76 83 77 84 80 85 78 86
REMARK SMILES IDX 57 87 58 88 66 89 59 90 60 91 64 92 67 93 61 94 62 95 65 96
REMARK SMILES IDX 63 97
REMARK H PARENT 21 6 28 31 87 50 55 61
REMARK Flexibility Score: inf
ROOT
ATOM      1  C   UNL A   1      33.648  28.836  26.490  1.00  0.00     0.021 C 
ENDROOT
BRANCH   1   2
ATOM      2  C   UNL A   1      32.657  27.702  26.232  1.00  0.00     0.116 C 
BRANCH   2   3
ATOM      3  N   UNL A   1      32.691  27.281  24.848  1.00  0.00    -0.356 N 
ATOM      4  O   UNL A   1      30.607  28.065  24.288  1.00  0.00    -0.275 OA
ATOM      5  C   UNL A   1      31.638  27.475  23.982  1.00  0.00     0.224 C 
ATOM      6  H   UNL A   1      33.502  26.836  24.512  1.00  0.00     0.163 HD
BRANCH   5   7
ATOM      7  C   UNL A   1      31.830  26.804  22.640  1.00  0.00     0.135 C 
BRANCH   7   8
ATOM      8  C   UNL A   1      31.961  25.296  22.612  1.00  0.00    -0.038 A 
ATOM      9  C   UNL A   1      33.126  24.624  22.210  1.00  0.00     0.008 A 
ATOM     10  C   UNL A   1      30.929  24.550  23.206  1.00  0.00     0.008 A 
ATOM     11  C   UNL A   1      33.285  23.255  22.473  1.00  0.00     0.047 A 
ATOM     12  C   UNL A   1      31.084  23.191  23.467  1.00  0.00     0.047 A 
ATOM     13  C   UNL A   1      32.273  22.557  23.129  1.00  0.00     0.119 A 
BRANCH  13  14
ATOM     14  O   UNL A   1      32.462  21.257  23.524  1.00  0.00    -0.492 OA
BRANCH  14  15
ATOM     15  C   UNL A   1      32.182  21.139  24.921  1.00  0.00     0.244 C 
BRANCH  15  16
ATOM     16  C   UNL A   1      33.275  20.339  25.665  1.00  0.00     0.094 C 
ATOM     17  C   UNL A   1      34.609  20.154  24.893  1.00  0.00     0.055 C 
ATOM     18  S   UNL A   1      33.732  21.409  27.076  1.00  0.00    -0.119 SA
ATOM     19  C   UNL A   1      35.338  21.469  25.001  1.00  0.00    -0.033 A 
ATOM     20  C   UNL A   1      34.867  22.283  26.035  1.00  0.00     0.011 A 
ATOM     21  C   UNL A   1      36.345  21.922  24.158  1.00  0.00     0.005 A 
ATOM     22  C   UNL A   1      35.197  23.623  26.095  1.00  0.00     0.015 A 
ATOM     23  C   UNL A   1      36.737  23.259  24.253  1.00  0.00     0.000 A 
ATOM     24  C   UNL A   1      36.121  24.119  25.174  1.00  0.00     0.001 A 
ENDBRANCH  15  16
ENDBRANCH  14  15
ENDBRANCH  13  14
ENDBRANCH   7   8
ENDBRANCH   5   7
ENDBRANCH   2   3
ENDBRANCH   1   2
BRANCH   1  25
ATOM     25  C   UNL A   1      33.052  30.060  27.199  1.00  0.00     0.002 C 
BRANCH  25  26
ATOM     26  C   UNL A   1      31.725  30.562  26.622  1.00  0.00     0.002 C 
BRANCH  26  27
ATOM     27  C   UNL A   1      31.512  32.073  26.719  1.00  0.00     0.021 C 
BRANCH  27  28
ATOM     28  C   UNL A   1      32.748  32.867  27.129  1.00  0.00     0.116 C 
BRANCH  28  29
ATOM     29  N   UNL A   1      32.423  34.215  27.571  1.00  0.00    -0.352 N 
ATOM     30  C   UNL A   1      32.961  34.943  28.601  1.00  0.00     0.251 C 
ATOM     31  H   UNL A   1      31.717  34.670  27.056  1.00  0.00     0.163 HD
ATOM     32  O   UNL A   1      32.449  36.009  28.940  1.00  0.00    -0.269 OA
BRANCH  30  33
ATOM     33  C   UNL A   1      34.143  34.432  29.326  1.00  0.00     0.039 A 
ATOM     34  C   UNL A   1      33.955  33.760  30.536  1.00  0.00     0.014 A 
ATOM     35  C   UNL A   1      35.432  34.609  28.815  1.00  0.00     0.014 A 
ATOM     36  C   UNL A   1      35.054  33.207  31.198  1.00  0.00     0.010 A 
ATOM     37  C   UNL A   1      36.515  33.992  29.435  1.00  0.00     0.010 A 
ATOM     38  C   UNL A   1      36.337  33.285  30.635  1.00  0.00    -0.014 A 
BRANCH  38  39
ATOM     39  C   UNL A   1      37.503  32.628  31.282  1.00  0.00     0.031 A 
ATOM     40  C   UNL A   1      38.196  31.478  30.605  1.00  0.00     0.074 A 
ATOM     41  C   UNL A   1      37.902  33.032  32.504  1.00  0.00     0.049 A 
ATOM     42  N   UNL A   1      39.184  30.735  31.039  1.00  0.00    -0.248 NA
ATOM     43  C   UNL A   1      37.699  31.094  29.274  1.00  0.00     0.031 C 
ATOM     44  C   UNL A   1      37.286  34.107  33.283  1.00  0.00     0.029 A 
ATOM     45  N   UNL A   1      38.917  32.578  33.312  1.00  0.00    -0.354 N 
ATOM     46  C   UNL A   1      39.420  29.799  30.041  1.00  0.00     0.074 A 
ATOM     47  C   UNL A   1      38.434  30.025  29.005  1.00  0.00     0.031 C 
ATOM     48  C   UNL A   1      37.947  34.244  34.444  1.00  0.00     0.029 A 
ATOM     49  C   UNL A   1      39.003  33.240  34.513  1.00  0.00     0.049 A 
ATOM     50  H   UNL A   1      39.524  31.848  33.054  1.00  0.00     0.167 HD
ATOM     51  C   UNL A   1      40.387  28.852  29.980  1.00  0.00     0.037 A 
ATOM     52  C   UNL A   1      39.831  33.050  35.557  1.00  0.00     0.037 A 
ATOM     53  C   UNL A   1      41.376  28.639  31.005  1.00  0.00     0.049 A 
ATOM     54  C   UNL A   1      40.878  31.970  35.475  1.00  0.00     0.074 A 
ATOM     55  C   UNL A   1      42.424  27.735  31.016  1.00  0.00     0.029 A 
ATOM     56  N   UNL A   1      41.438  29.336  32.203  1.00  0.00    -0.354 N 
ATOM     57  N   UNL A   1      41.134  31.135  34.496  1.00  0.00    -0.248 NA
ATOM     58  C   UNL A   1      41.758  31.809  36.641  1.00  0.00     0.031 C 
ATOM     59  C   UNL A   1      43.086  27.847  32.242  1.00  0.00     0.029 A 
ATOM     60  C   UNL A   1      42.491  28.864  32.970  1.00  0.00     0.049 A 
ATOM     61  H   UNL A   1      40.824  30.059  32.468  1.00  0.00     0.167 HD
ATOM     62  C   UNL A   1      42.221  30.378  34.913  1.00  0.00     0.074 A 
ATOM     63  C   UNL A   1      42.589  30.864  36.227  1.00  0.00     0.031 C 
ATOM     64  C   UNL A   1      42.855  29.369  34.269  1.00  0.00     0.037 A 
BRANCH  51  65
ATOM     65  C   UNL A   1      40.433  27.975  28.762  1.00  0.00     0.064 A 
ATOM     66  C   UNL A   1      41.194  28.322  27.635  1.00  0.00     0.173 A 
ATOM     67  C   UNL A   1      39.758  26.745  28.743  1.00  0.00     0.173 A 
ATOM     68  F   UNL A   1      41.850  29.492  27.598  1.00  0.00    -0.203 F 
ATOM     69  C   UNL A   1      41.260  27.482  26.527  1.00  0.00     0.198 A 
ATOM     70  C   UNL A   1      39.853  25.892  27.646  1.00  0.00     0.198 A 
ATOM     71  F   UNL A   1      39.021  26.360  29.796  1.00  0.00    -0.203 F 
ATOM     72  F   UNL A   1      41.957  27.856  25.446  1.00  0.00    -0.200 F 
ATOM     73  C   UNL A   1      40.598  26.264  26.537  1.00  0.00     0.200 A 
ATOM     74  F   UNL A   1      39.225  24.708  27.664  1.00  0.00    -0.200 F 
ATOM     75  F   UNL A   1      40.674  25.450  25.475  1.00  0.00    -0.200 F 
ENDBRANCH  51  65
BRANCH  52  76
ATOM     76  C   UNL A   1      39.716  33.898  36.774  1.00  0.00     0.064 A 
ATOM     77  C   UNL A   1      38.921  33.503  37.859  1.00  0.00     0.173 A 
ATOM     78  C   UNL A   1      40.369  35.137  36.864  1.00  0.00     0.173 A 
ATOM     79  F   UNL A   1      38.260  32.336  37.815  1.00  0.00    -0.203 F 
ATOM     80  C   UNL A   1      38.754  34.328  38.970  1.00  0.00     0.198 A 
ATOM     81  C   UNL A   1      40.230  35.945  37.991  1.00  0.00     0.198 A 
ATOM     82  F   UNL A   1      41.146  35.562  35.858  1.00  0.00    -0.203 F 
ATOM     83  F   UNL A   1      37.935  33.954  39.963  1.00  0.00    -0.200 F 
ATOM     84  C   UNL A   1      39.411  35.547  39.036  1.00  0.00     0.200 A 
ATOM     85  F   UNL A   1      40.880  37.115  38.058  1.00  0.00    -0.200 F 
ATOM     86  F   UNL A   1      39.247  36.342  40.103  1.00  0.00    -0.200 F 
ENDBRANCH  52  76
BRANCH  64  87
ATOM     87  C   UNL A   1      44.044  28.753  34.951  1.00  0.00     0.064 A 
ATOM     88  C   UNL A   1      43.912  27.677  35.841  1.00  0.00     0.173 A 
ATOM     89  C   UNL A   1      45.339  29.224  34.679  1.00  0.00     0.173 A 
ATOM     90  F   UNL A   1      42.697  27.197  36.145  1.00  0.00    -0.203 F 
ATOM     91  C   UNL A   1      45.028  27.115  36.456  1.00  0.00     0.198 A 
ATOM     92  C   UNL A   1      46.454  28.636  35.268  1.00  0.00     0.198 A 
ATOM     93  F   UNL A   1      45.523  30.245  33.830  1.00  0.00    -0.203 F 
ATOM     94  F   UNL A   1      44.872  26.124  37.344  1.00  0.00    -0.200 F 
ATOM     95  C   UNL A   1      46.297  27.589  36.163  1.00  0.00     0.200 A 
ATOM     96  F   UNL A   1      47.682  29.085  34.971  1.00  0.00    -0.200 F 
ATOM     97  F   UNL A   1      47.371  27.041  36.750  1.00  0.00    -0.200 F 
ENDBRANCH  64  87
ENDBRANCH  38  39
ENDBRANCH  30  33
ENDBRANCH  28  29
ENDBRANCH  27  28
ENDBRANCH  26  27
ENDBRANCH  25  26
ENDBRANCH   1  25
TORSDOF 17
ENDMDL
MODEL 3
REMARK VINA RESULT:     -10.9      0.804      2.229
REMARK SMILES O=C(Cc1ccc(OC[C@H]2Cc3ccccc3S2)cc1)NCCCCCCNC(=O)c1ccc(-c2c3nc(c(-c4c(F)c(F)c(F)c(F)c4F)c4ccc([nH]4)c(-c4c(F)c(F)c(F)c(F)c4F)c4nc(c(-c5c(F)c(F)c(F)c(F)c5F)c5ccc2[nH]5)C=C4)C=C3)cc1
REMARK SMILES IDX 23 1 22 2 21 3 1 4 2 5 3 7 4 8 5 9 20 10 6 11 19 12 7 13
REMARK SMILES IDX 8 14 9 15 10 16 11 17 18 18 12 19 17 20 13 21 16 22 14 23
REMARK SMILES IDX 15 24 24 25 25 26 26 27 27 28 28 29 29 30 30 32 31 33 32 34
REMARK SMILES IDX 93 35 33 36 92 37 34 38 35 39 36 40 86 41 37 42 91 43 85 44
REMARK SMILES IDX 87 45 38 46 90 47 84 48 83 49 39 51 71 52 51 53 70 54 52 55
REMARK SMILES IDX 55 56 69 57 88 58 53 59 54 60 68 62 89 63 56 64 40 65 41 66
REMARK SMILES IDX 49 67 42 68 43 69 47 70 50 71 44 72 45 73 48 74 46 75 72 76
REMARK SMILES IDX 73 77 81 78 74 79 75 80 79 81 82 82 76 83 77 84 80 85 78 86
REMARK SMILES IDX 57 87 58 88 66 89 59 90 60 91 64 92 67 93 61 94 62 95 65 96
REMARK SMILES IDX 63 97
REMARK H PARENT 21 6 28 31 87 50 55 61
REMARK Flexibility Score: inf
ROOT
ATOM      1  C   UNL A   1      35.076  31.806  28.487  1.00  0.00     0.021 C 
ENDROOT
BRANCH   1   2
ATOM      2  C   UNL A   1      33.763  31.686  27.713  1.00  0.00     0.116 C 
BRANCH   2   3
ATOM      3  N   UNL A   1      33.309  30.313  27.661  1.00  0.00    -0.356 N 
ATOM      4  O   UNL A   1      31.513  30.687  26.281  1.00  0.00    -0.275 OA
ATOM      5  C   UNL A   1      32.189  29.923  26.961  1.00  0.00     0.224 C 
ATOM      6  H   UNL A   1      33.823  29.629  28.148  1.00  0.00     0.163 HD
BRANCH   5   7
ATOM      7  C   UNL A   1      31.810  28.476  27.189  1.00  0.00     0.135 C 
BRANCH   7   8
ATOM      8  C   UNL A   1      32.219  27.461  26.144  1.00  0.00    -0.038 A 
ATOM      9  C   UNL A   1      31.348  26.956  25.166  1.00  0.00     0.008 A 
ATOM     10  C   UNL A   1      33.589  27.167  26.035  1.00  0.00     0.008 A 
ATOM     11  C   UNL A   1      31.848  26.247  24.064  1.00  0.00     0.047 A 
ATOM     12  C   UNL A   1      34.088  26.462  24.943  1.00  0.00     0.047 A 
ATOM     13  C   UNL A   1      33.221  26.033  23.947  1.00  0.00     0.119 A 
BRANCH  13  14
ATOM     14  O   UNL A   1      33.748  25.469  22.812  1.00  0.00    -0.492 OA
BRANCH  14  15
ATOM     15  C   UNL A   1      32.889  24.421  22.358  1.00  0.00     0.244 C 
BRANCH  15  16
ATOM     16  C   UNL A   1      33.524  23.026  22.553  1.00  0.00     0.094 C 
ATOM     17  C   UNL A   1      34.458  22.885  23.786  1.00  0.00     0.055 C 
ATOM     18  S   UNL A   1      32.109  21.939  22.952  1.00  0.00    -0.119 SA
ATOM     19  C   UNL A   1      33.551  22.764  24.984  1.00  0.00    -0.033 A 
ATOM     20  C   UNL A   1      32.240  22.405  24.655  1.00  0.00     0.011 A 
ATOM     21  C   UNL A   1      33.894  23.026  26.304  1.00  0.00     0.005 A 
ATOM     22  C   UNL A   1      31.213  22.543  25.568  1.00  0.00     0.015 A 
ATOM     23  C   UNL A   1      32.871  23.101  27.252  1.00  0.00     0.000 A 
ATOM     24  C   UNL A   1      31.533  22.923  26.872  1.00  0.00     0.001 A 
ENDBRANCH  15  16
ENDBRANCH  14  15
ENDBRANCH  13  14
ENDBRANCH   7   8
ENDBRANCH   5   7
ENDBRANCH   2   3
ENDBRANCH   1   2
BRANCH   1  25
ATOM     25  C   UNL A   1      35.219  33.094  29.309  1.00  0.00     0.002 C 
BRANCH  25  26
ATOM     26  C   UNL A   1      35.186  34.392  28.496  1.00  0.00     0.002 C 
BRANCH  26  27
ATOM     27  C   UNL A   1      34.101  35.385  28.913  1.00  0.00     0.021 C 
BRANCH  27  28
ATOM     28  C   UNL A   1      32.938  34.773  29.687  1.00  0.00     0.116 C 
BRANCH  28  29
ATOM     29  N   UNL A   1      32.429  35.660  30.722  1.00  0.00    -0.352 N 
ATOM     30  C   UNL A   1      32.822  35.783  32.030  1.00  0.00     0.251 C 
ATOM     31  H   UNL A   1      31.697  36.258  30.443  1.00  0.00     0.163 HD
ATOM     32  O   UNL A   1      32.167  36.470  32.813  1.00  0.00    -0.269 OA
BRANCH  30  33
ATOM     33  C   UNL A   1      34.022  35.066  32.509  1.00  0.00     0.039 A 
ATOM     34  C   UNL A   1      33.879  33.771  33.013  1.00  0.00     0.014 A 
ATOM     35  C   UNL A   1      35.285  35.664  32.458  1.00  0.00     0.014 A 
ATOM     36  C   UNL A   1      35.011  33.052  33.403  1.00  0.00     0.010 A 
ATOM     37  C   UNL A   1      36.418  34.918  32.773  1.00  0.00     0.010 A 
ATOM     38  C   UNL A   1      36.293  33.604  33.251  1.00  0.00    -0.014 A 
BRANCH  38  39
ATOM     39  C   UNL A   1      37.512  32.821  33.579  1.00  0.00     0.031 A 
ATOM     40  C   UNL A   1      38.273  33.100  34.845  1.00  0.00     0.074 A 
ATOM     41  C   UNL A   1      37.965  31.896  32.709  1.00  0.00     0.049 A 
ATOM     42  N   UNL A   1      39.393  32.570  35.273  1.00  0.00    -0.248 NA
ATOM     43  C   UNL A   1      37.717  34.127  35.741  1.00  0.00     0.031 C 
ATOM     44  C   UNL A   1      37.340  31.563  31.428  1.00  0.00     0.029 A 
ATOM     45  N   UNL A   1      39.063  31.072  32.767  1.00  0.00    -0.354 N 
ATOM     46  C   UNL A   1      39.675  33.202  36.477  1.00  0.00     0.074 A 
ATOM     47  C   UNL A   1      38.644  34.196  36.685  1.00  0.00     0.031 C 
ATOM     48  C   UNL A   1      38.051  30.592  30.831  1.00  0.00     0.029 A 
ATOM     49  C   UNL A   1      39.204  30.265  31.663  1.00  0.00     0.049 A 
ATOM     50  H   UNL A   1      39.688  31.061  33.526  1.00  0.00     0.167 HD
ATOM     51  C   UNL A   1      40.686  32.957  37.344  1.00  0.00     0.037 A 
ATOM     52  C   UNL A   1      40.163  29.372  31.352  1.00  0.00     0.037 A 
ATOM     53  C   UNL A   1      41.701  31.957  37.141  1.00  0.00     0.049 A 
ATOM     54  C   UNL A   1      41.293  29.142  32.321  1.00  0.00     0.074 A 
ATOM     55  C   UNL A   1      42.743  31.603  37.982  1.00  0.00     0.029 A 
ATOM     56  N   UNL A   1      41.807  31.152  36.017  1.00  0.00    -0.354 N 
ATOM     57  N   UNL A   1      41.511  29.698  33.489  1.00  0.00    -0.248 NA
ATOM     58  C   UNL A   1      42.308  28.153  31.933  1.00  0.00     0.031 C 
ATOM     59  C   UNL A   1      43.508  30.623  37.343  1.00  0.00     0.029 A 
ATOM     60  C   UNL A   1      42.909  30.320  36.132  1.00  0.00     0.049 A 
ATOM     61  H   UNL A   1      41.189  31.169  35.250  1.00  0.00     0.167 HD
ATOM     62  C   UNL A   1      42.663  29.104  33.986  1.00  0.00     0.074 A 
ATOM     63  C   UNL A   1      43.089  28.131  33.003  1.00  0.00     0.031 C 
ATOM     64  C   UNL A   1      43.312  29.345  35.151  1.00  0.00     0.037 A 
BRANCH  51  65
ATOM     65  C   UNL A   1      40.746  33.780  38.600  1.00  0.00     0.064 A 
ATOM     66  C   UNL A   1      40.027  33.417  39.750  1.00  0.00     0.173 A 
ATOM     67  C   UNL A   1      41.577  34.907  38.675  1.00  0.00     0.173 A 
ATOM     68  F   UNL A   1      39.209  32.354  39.727  1.00  0.00    -0.203 F 
ATOM     69  C   UNL A   1      40.121  34.165  40.920  1.00  0.00     0.198 A 
ATOM     70  C   UNL A   1      41.695  35.634  39.858  1.00  0.00     0.198 A 
ATOM     71  F   UNL A   1      42.293  35.294  37.608  1.00  0.00    -0.203 F 
ATOM     72  F   UNL A   1      39.391  33.825  41.990  1.00  0.00    -0.200 F 
ATOM     73  C   UNL A   1      40.962  35.267  40.976  1.00  0.00     0.200 A 
ATOM     74  F   UNL A   1      42.520  36.688  39.915  1.00  0.00    -0.200 F 
ATOM     75  F   UNL A   1      41.062  35.977  42.108  1.00  0.00    -0.200 F 
ENDBRANCH  51  65
BRANCH  52  76
ATOM     76  C   UNL A   1      40.104  28.621  30.069  1.00  0.00     0.064 A 
ATOM     77  C   UNL A   1      39.457  27.380  29.987  1.00  0.00     0.173 A 
ATOM     78  C   UNL A   1      40.720  29.110  28.907  1.00  0.00     0.173 A 
ATOM     79  F   UNL A   1      38.869  26.858  31.075  1.00  0.00    -0.203 F 
ATOM     80  C   UNL A   1      39.461  26.640  28.806  1.00  0.00     0.198 A 
ATOM     81  C   UNL A   1      40.692  28.386  27.717  1.00  0.00     0.198 A 
ATOM     82  F   UNL A   1      41.347  30.295  28.927  1.00  0.00    -0.203 F 
ATOM     83  F   UNL A   1      38.893  25.426  28.776  1.00  0.00    -0.200 F 
ATOM     84  C   UNL A   1      40.076  27.146  27.671  1.00  0.00     0.200 A 
ATOM     85  F   UNL A   1      41.273  28.886  26.618  1.00  0.00    -0.200 F 
ATOM     86  F   UNL A   1      40.082  26.433  26.536  1.00  0.00    -0.200 F 
ENDBRANCH  52  76
BRANCH  64  87
ATOM     87  C   UNL A   1      44.525  28.510  35.452  1.00  0.00     0.064 A 
ATOM     88  C   UNL A   1      44.433  27.289  36.135  1.00  0.00     0.173 A 
ATOM     89  C   UNL A   1      45.794  28.922  35.014  1.00  0.00     0.173 A 
ATOM     90  F   UNL A   1      43.247  26.855  36.586  1.00  0.00    -0.203 F 
ATOM     91  C   UNL A   1      45.569  26.527  36.396  1.00  0.00     0.198 A 
ATOM     92  C   UNL A   1      46.922  28.141  35.245  1.00  0.00     0.198 A 
ATOM     93  F   UNL A   1      45.938  30.078  34.348  1.00  0.00    -0.203 F 
ATOM     94  F   UNL A   1      45.464  25.391  37.099  1.00  0.00    -0.200 F 
ATOM     95  C   UNL A   1      46.810  26.949  35.944  1.00  0.00     0.200 A 
ATOM     96  F   UNL A   1      48.118  28.543  34.792  1.00  0.00    -0.200 F 
ATOM     97  F   UNL A   1      47.901  26.210  36.189  1.00  0.00    -0.200 F 
ENDBRANCH  64  87
ENDBRANCH  38  39
ENDBRANCH  30  33
ENDBRANCH  28  29
ENDBRANCH  27  28
ENDBRANCH  26  27
ENDBRANCH  25  26
ENDBRANCH   1  25
TORSDOF 17
ENDMDL
