MODEL 1
REMARK VINA RESULT:     -12.6      0.000      0.000
REMARK SMILES O=C(NCCCCCCNC(=O)c1ccc(-c2c3nc(c(-c4c(F)c(F)c(F)c(F)c4F)c4ccc([nH]4)c(-c4c(F)c(F)c(F)c(F)c4F)c4nc(c(-c5c(F)c(F)c(F)c(F)c5F)c5ccc2[nH]5)C=C4)C=C3)cc1)C1=Cc2cc(Cl)c(Cl)cc2O[C@@H]1C(F)(F)F
REMARK SMILES IDX 7 1 6 2 5 3 4 4 3 5 1 6 2 7 76 9 77 10 87 11 78 12 86 13
REMARK SMILES IDX 79 14 85 15 80 16 84 17 81 18 82 19 83 20 88 21 89 22 90 23
REMARK SMILES IDX 91 24 8 25 9 26 10 27 11 28 12 30 13 31 14 32 75 33 15 34
REMARK SMILES IDX 74 35 16 36 17 37 18 38 68 39 19 40 73 41 67 42 69 43 20 44
REMARK SMILES IDX 72 45 66 46 65 47 21 49 53 50 33 51 52 52 34 53 37 54 51 55
REMARK SMILES IDX 70 56 35 57 36 58 50 60 71 61 38 62 22 63 23 64 31 65 24 66
REMARK SMILES IDX 25 67 29 68 32 69 26 70 27 71 30 72 28 73 54 74 55 75 63 76
REMARK SMILES IDX 56 77 57 78 61 79 64 80 58 81 59 82 62 83 60 84 39 85 40 86
REMARK SMILES IDX 48 87 41 88 42 89 46 90 49 91 43 92 44 93 47 94 45 95
REMARK H PARENT 3 8 10 29 69 48 37 59
REMARK Flexibility Score: inf
ROOT
ATOM      1  C   UNL A   1      37.980  21.437  24.902  1.00  0.00     0.002 C 
ENDROOT
BRANCH   1   2
ATOM      2  C   UNL A   1      38.385  22.413  26.015  1.00  0.00     0.002 C 
BRANCH   2   3
ATOM      3  C   UNL A   1      37.590  23.713  26.121  1.00  0.00     0.021 C 
BRANCH   3   4
ATOM      4  C   UNL A   1      36.108  23.636  25.763  1.00  0.00     0.116 C 
BRANCH   4   5
ATOM      5  N   UNL A   1      35.262  22.995  26.758  1.00  0.00    -0.352 N 
ATOM      6  O   UNL A   1      33.884  21.440  27.624  1.00  0.00    -0.270 OA
ATOM      7  C   UNL A   1      34.378  21.955  26.622  1.00  0.00     0.251 C 
ATOM      8  H   UNL A   1      35.334  23.365  27.668  1.00  0.00     0.163 HD
BRANCH   7   9
ATOM      9  C   UNL A   1      34.083  21.347  25.291  1.00  0.00     0.067 C 
ATOM     10  C   UNL A   1      34.877  20.384  24.799  1.00  0.00     0.025 C 
ATOM     11  C   UNL A   1      32.617  21.359  24.936  1.00  0.00     0.314 C 
ATOM     12  C   UNL A   1      34.219  19.078  24.660  1.00  0.00     0.019 A 
ATOM     13  O   UNL A   1      32.009  20.045  25.045  1.00  0.00    -0.475 OA
ATOM     14  C   UNL A   1      35.022  17.932  24.633  1.00  0.00     0.034 A 
ATOM     15  C   UNL A   1      32.843  18.965  24.900  1.00  0.00     0.129 A 
ATOM     16  C   UNL A   1      34.463  16.686  24.931  1.00  0.00     0.060 A 
ATOM     17  C   UNL A   1      32.279  17.717  25.149  1.00  0.00     0.069 A 
ATOM     18  Cl  UNL A   1      35.540  15.342  25.074  1.00  0.00    -0.083 Cl
ATOM     19  C   UNL A   1      33.091  16.581  25.198  1.00  0.00     0.063 A 
ATOM     20  Cl  UNL A   1      32.360  15.094  25.685  1.00  0.00    -0.083 Cl
BRANCH  11  21
ATOM     21  C   UNL A   1      32.400  21.957  23.533  1.00  0.00     0.429 C 
ATOM     22  F   UNL A   1      31.361  22.825  23.524  1.00  0.00    -0.167 F 
ATOM     23  F   UNL A   1      33.487  22.637  23.100  1.00  0.00    -0.167 F 
ATOM     24  F   UNL A   1      32.133  21.004  22.606  1.00  0.00    -0.167 F 
ENDBRANCH  11  21
ENDBRANCH   7   9
ENDBRANCH   4   5
ENDBRANCH   3   4
ENDBRANCH   2   3
ENDBRANCH   1   2
BRANCH   1  25
ATOM     25  C   UNL A   1      38.578  20.027  24.950  1.00  0.00     0.021 C 
BRANCH  25  26
ATOM     26  C   UNL A   1      39.303  19.631  26.236  1.00  0.00     0.116 C 
BRANCH  26  27
ATOM     27  N   UNL A   1      40.519  18.876  25.999  1.00  0.00    -0.352 N 
ATOM     28  C   UNL A   1      41.831  19.282  25.979  1.00  0.00     0.251 C 
ATOM     29  H   UNL A   1      40.381  17.917  25.824  1.00  0.00     0.163 HD
ATOM     30  O   UNL A   1      42.701  18.483  25.643  1.00  0.00    -0.269 OA
BRANCH  28  31
ATOM     31  C   UNL A   1      42.220  20.668  26.333  1.00  0.00     0.039 A 
ATOM     32  C   UNL A   1      42.401  21.589  25.295  1.00  0.00     0.014 A 
ATOM     33  C   UNL A   1      42.462  21.060  27.652  1.00  0.00     0.014 A 
ATOM     34  C   UNL A   1      42.776  22.906  25.580  1.00  0.00     0.010 A 
ATOM     35  C   UNL A   1      42.775  22.390  27.942  1.00  0.00     0.010 A 
ATOM     36  C   UNL A   1      42.940  23.326  26.908  1.00  0.00    -0.014 A 
BRANCH  36  37
ATOM     37  C   UNL A   1      43.291  24.736  27.227  1.00  0.00     0.031 A 
ATOM     38  C   UNL A   1      44.691  25.241  27.011  1.00  0.00     0.074 A 
ATOM     39  C   UNL A   1      42.359  25.552  27.757  1.00  0.00     0.049 A 
ATOM     40  N   UNL A   1      45.198  26.419  27.278  1.00  0.00    -0.248 NA
ATOM     41  C   UNL A   1      45.655  24.289  26.437  1.00  0.00     0.031 C 
ATOM     42  C   UNL A   1      40.975  25.175  28.050  1.00  0.00     0.029 A 
ATOM     43  N   UNL A   1      42.435  26.865  28.150  1.00  0.00    -0.354 N 
ATOM     44  C   UNL A   1      46.538  26.345  26.919  1.00  0.00     0.074 A 
ATOM     45  C   UNL A   1      46.777  24.994  26.458  1.00  0.00     0.031 C 
ATOM     46  C   UNL A   1      40.330  26.234  28.561  1.00  0.00     0.029 A 
ATOM     47  C   UNL A   1      41.260  27.356  28.664  1.00  0.00     0.049 A 
ATOM     48  H   UNL A   1      43.256  27.404  28.072  1.00  0.00     0.167 HD
ATOM     49  C   UNL A   1      47.478  27.320  26.952  1.00  0.00     0.037 A 
ATOM     50  C   UNL A   1      40.967  28.569  29.169  1.00  0.00     0.037 A 
ATOM     51  C   UNL A   1      47.235  28.671  27.389  1.00  0.00     0.049 A 
ATOM     52  C   UNL A   1      42.031  29.632  29.202  1.00  0.00     0.074 A 
ATOM     53  C   UNL A   1      48.108  29.744  27.404  1.00  0.00     0.029 A 
ATOM     54  N   UNL A   1      46.026  29.133  27.890  1.00  0.00    -0.354 N 
ATOM     55  N   UNL A   1      43.277  29.569  28.800  1.00  0.00    -0.248 NA
ATOM     56  C   UNL A   1      41.645  30.939  29.752  1.00  0.00     0.031 C 
ATOM     57  C   UNL A   1      47.443  30.845  27.954  1.00  0.00     0.029 A 
ATOM     58  C   UNL A   1      46.140  30.471  28.237  1.00  0.00     0.049 A 
ATOM     59  H   UNL A   1      45.209  28.591  27.984  1.00  0.00     0.167 HD
ATOM     60  C   UNL A   1      43.815  30.828  29.022  1.00  0.00     0.074 A 
ATOM     61  C   UNL A   1      42.756  31.642  29.581  1.00  0.00     0.031 C 
ATOM     62  C   UNL A   1      45.075  31.271  28.785  1.00  0.00     0.037 A 
BRANCH  49  63
ATOM     63  C   UNL A   1      48.865  26.964  26.502  1.00  0.00     0.064 A 
ATOM     64  C   UNL A   1      49.809  26.421  27.387  1.00  0.00     0.173 A 
ATOM     65  C   UNL A   1      49.242  27.125  25.159  1.00  0.00     0.173 A 
ATOM     66  F   UNL A   1      49.502  26.254  28.682  1.00  0.00    -0.203 F 
ATOM     67  C   UNL A   1      51.087  26.081  26.952  1.00  0.00     0.198 A 
ATOM     68  C   UNL A   1      50.512  26.757  24.722  1.00  0.00     0.198 A 
ATOM     69  F   UNL A   1      48.376  27.633  24.269  1.00  0.00    -0.203 F 
ATOM     70  F   UNL A   1      51.987  25.608  27.825  1.00  0.00    -0.200 F 
ATOM     71  C   UNL A   1      51.436  26.241  25.619  1.00  0.00     0.200 A 
ATOM     72  F   UNL A   1      50.843  26.901  23.431  1.00  0.00    -0.200 F 
ATOM     73  F   UNL A   1      52.664  25.907  25.200  1.00  0.00    -0.200 F 
ENDBRANCH  49  63
BRANCH  50  74
ATOM     74  C   UNL A   1      39.596  28.852  29.667  1.00  0.00     0.064 A 
ATOM     75  C   UNL A   1      38.630  29.426  28.829  1.00  0.00     0.173 A 
ATOM     76  C   UNL A   1      39.224  28.562  30.988  1.00  0.00     0.173 A 
ATOM     77  F   UNL A   1      38.947  29.744  27.564  1.00  0.00    -0.203 F 
ATOM     78  C   UNL A   1      37.351  29.716  29.297  1.00  0.00     0.198 A 
ATOM     79  C   UNL A   1      37.936  28.826  31.447  1.00  0.00     0.198 A 
ATOM     80  F   UNL A   1      40.111  28.011  31.830  1.00  0.00    -0.203 F 
ATOM     81  F   UNL A   1      36.461  30.306  28.487  1.00  0.00    -0.200 F 
ATOM     82  C   UNL A   1      37.003  29.410  30.604  1.00  0.00     0.200 A 
ATOM     83  F   UNL A   1      37.599  28.519  32.708  1.00  0.00    -0.200 F 
ATOM     84  F   UNL A   1      35.771  29.686  31.053  1.00  0.00    -0.200 F 
ENDBRANCH  50  74
BRANCH  62  85
ATOM     85  C   UNL A   1      45.369  32.710  29.095  1.00  0.00     0.064 A 
ATOM     86  C   UNL A   1      45.922  33.099  30.323  1.00  0.00     0.173 A 
ATOM     87  C   UNL A   1      45.130  33.706  28.136  1.00  0.00     0.173 A 
ATOM     88  F   UNL A   1      46.155  32.188  31.279  1.00  0.00    -0.203 F 
ATOM     89  C   UNL A   1      46.205  34.437  30.589  1.00  0.00     0.198 A 
ATOM     90  C   UNL A   1      45.439  35.039  28.394  1.00  0.00     0.198 A 
ATOM     91  F   UNL A   1      44.607  33.384  26.944  1.00  0.00    -0.203 F 
ATOM     92  F   UNL A   1      46.691  34.793  31.786  1.00  0.00    -0.200 F 
ATOM     93  C   UNL A   1      45.969  35.404  29.622  1.00  0.00     0.200 A 
ATOM     94  F   UNL A   1      45.224  35.969  27.454  1.00  0.00    -0.200 F 
ATOM     95  F   UNL A   1      46.247  36.690  29.877  1.00  0.00    -0.200 F 
ENDBRANCH  62  85
ENDBRANCH  36  37
ENDBRANCH  28  31
ENDBRANCH  26  27
ENDBRANCH  25  26
ENDBRANCH   1  25
TORSDOF 14
ENDMDL
MODEL 2
REMARK VINA RESULT:     -12.6      0.493      7.335
REMARK SMILES O=C(NCCCCCCNC(=O)c1ccc(-c2c3nc(c(-c4c(F)c(F)c(F)c(F)c4F)c4ccc([nH]4)c(-c4c(F)c(F)c(F)c(F)c4F)c4nc(c(-c5c(F)c(F)c(F)c(F)c5F)c5ccc2[nH]5)C=C4)C=C3)cc1)C1=Cc2cc(Cl)c(Cl)cc2O[C@@H]1C(F)(F)F
REMARK SMILES IDX 7 1 6 2 5 3 4 4 3 5 1 6 2 7 76 9 77 10 87 11 78 12 86 13
REMARK SMILES IDX 79 14 85 15 80 16 84 17 81 18 82 19 83 20 88 21 89 22 90 23
REMARK SMILES IDX 91 24 8 25 9 26 10 27 11 28 12 30 13 31 14 32 75 33 15 34
REMARK SMILES IDX 74 35 16 36 17 37 18 38 68 39 19 40 73 41 67 42 69 43 20 44
REMARK SMILES IDX 72 45 66 46 65 47 21 49 53 50 33 51 52 52 34 53 37 54 51 55
REMARK SMILES IDX 70 56 35 57 36 58 50 60 71 61 38 62 22 63 23 64 31 65 24 66
REMARK SMILES IDX 25 67 29 68 32 69 26 70 27 71 30 72 28 73 54 74 55 75 63 76
REMARK SMILES IDX 56 77 57 78 61 79 64 80 58 81 59 82 62 83 60 84 39 85 40 86
REMARK SMILES IDX 48 87 41 88 42 89 46 90 49 91 43 92 44 93 47 94 45 95
REMARK H PARENT 3 8 10 29 69 48 37 59
REMARK Flexibility Score: inf
ROOT
ATOM      1  C   UNL A   1      37.913  21.452  24.907  1.00  0.00     0.002 C 
ENDROOT
BRANCH   1   2
ATOM      2  C   UNL A   1      38.470  22.523  25.854  1.00  0.00     0.002 C 
BRANCH   2   3
ATOM      3  C   UNL A   1      37.567  23.717  26.159  1.00  0.00     0.021 C 
BRANCH   3   4
ATOM      4  C   UNL A   1      36.104  23.587  25.747  1.00  0.00     0.116 C 
BRANCH   4   5
ATOM      5  N   UNL A   1      35.232  22.971  26.736  1.00  0.00    -0.352 N 
ATOM      6  O   UNL A   1      33.815  21.448  27.596  1.00  0.00    -0.270 OA
ATOM      7  C   UNL A   1      34.332  21.944  26.597  1.00  0.00     0.251 C 
ATOM      8  H   UNL A   1      35.297  23.349  27.642  1.00  0.00     0.163 HD
BRANCH   7   9
ATOM      9  C   UNL A   1      34.046  21.328  25.267  1.00  0.00     0.067 C 
ATOM     10  C   UNL A   1      34.847  20.367  24.784  1.00  0.00     0.025 C 
ATOM     11  C   UNL A   1      32.581  21.329  24.907  1.00  0.00     0.314 C 
ATOM     12  C   UNL A   1      34.198  19.057  24.649  1.00  0.00     0.019 A 
ATOM     13  O   UNL A   1      31.981  20.012  25.020  1.00  0.00    -0.475 OA
ATOM     14  C   UNL A   1      35.008  17.915  24.631  1.00  0.00     0.034 A 
ATOM     15  C   UNL A   1      32.822  18.937  24.884  1.00  0.00     0.129 A 
ATOM     16  C   UNL A   1      34.456  16.668  24.934  1.00  0.00     0.060 A 
ATOM     17  C   UNL A   1      32.265  17.687  25.137  1.00  0.00     0.069 A 
ATOM     18  Cl  UNL A   1      35.539  15.330  25.088  1.00  0.00    -0.083 Cl
ATOM     19  C   UNL A   1      33.083  16.556  25.196  1.00  0.00     0.063 A 
ATOM     20  Cl  UNL A   1      32.359  15.067  25.687  1.00  0.00    -0.083 Cl
BRANCH  11  21
ATOM     21  C   UNL A   1      32.367  21.919  23.500  1.00  0.00     0.429 C 
ATOM     22  F   UNL A   1      32.167  20.942  22.583  1.00  0.00    -0.167 F 
ATOM     23  F   UNL A   1      31.286  22.732  23.452  1.00  0.00    -0.167 F 
ATOM     24  F   UNL A   1      33.431  22.648  23.082  1.00  0.00    -0.167 F 
ENDBRANCH  11  21
ENDBRANCH   7   9
ENDBRANCH   4   5
ENDBRANCH   3   4
ENDBRANCH   2   3
ENDBRANCH   1   2
BRANCH   1  25
ATOM     25  C   UNL A   1      38.551  20.060  24.965  1.00  0.00     0.021 C 
BRANCH  25  26
ATOM     26  C   UNL A   1      39.306  19.703  26.244  1.00  0.00     0.116 C 
BRANCH  26  27
ATOM     27  N   UNL A   1      40.468  18.868  26.009  1.00  0.00    -0.352 N 
ATOM     28  C   UNL A   1      41.805  19.185  25.984  1.00  0.00     0.251 C 
ATOM     29  H   UNL A   1      40.267  17.919  25.840  1.00  0.00     0.163 HD
ATOM     30  O   UNL A   1      42.620  18.329  25.650  1.00  0.00    -0.269 OA
BRANCH  28  31
ATOM     31  C   UNL A   1      42.285  20.545  26.329  1.00  0.00     0.039 A 
ATOM     32  C   UNL A   1      42.520  21.448  25.285  1.00  0.00     0.014 A 
ATOM     33  C   UNL A   1      42.561  20.925  27.645  1.00  0.00     0.014 A 
ATOM     34  C   UNL A   1      42.981  22.738  25.562  1.00  0.00     0.010 A 
ATOM     35  C   UNL A   1      42.962  22.234  27.926  1.00  0.00     0.010 A 
ATOM     36  C   UNL A   1      43.181  23.152  26.888  1.00  0.00    -0.014 A 
BRANCH  36  37
ATOM     37  C   UNL A   1      43.625  24.537  27.198  1.00  0.00     0.031 A 
ATOM     38  C   UNL A   1      42.650  25.549  27.733  1.00  0.00     0.074 A 
ATOM     39  C   UNL A   1      44.899  24.900  26.953  1.00  0.00     0.049 A 
ATOM     40  N   UNL A   1      42.837  26.815  28.013  1.00  0.00    -0.248 NA
ATOM     41  C   UNL A   1      41.275  25.081  27.967  1.00  0.00     0.031 C 
ATOM     42  C   UNL A   1      45.935  24.025  26.400  1.00  0.00     0.029 A 
ATOM     43  N   UNL A   1      45.540  26.101  27.130  1.00  0.00    -0.354 N 
ATOM     44  C   UNL A   1      41.606  27.296  28.440  1.00  0.00     0.074 A 
ATOM     45  C   UNL A   1      40.668  26.198  28.340  1.00  0.00     0.031 C 
ATOM     46  C   UNL A   1      47.082  24.713  26.298  1.00  0.00     0.029 A 
ATOM     47  C   UNL A   1      46.859  26.085  26.745  1.00  0.00     0.049 A 
ATOM     48  H   UNL A   1      45.096  26.900  27.498  1.00  0.00     0.167 HD
ATOM     49  C   UNL A   1      41.291  28.533  28.893  1.00  0.00     0.037 A 
ATOM     50  C   UNL A   1      47.780  27.067  26.745  1.00  0.00     0.037 A 
ATOM     51  C   UNL A   1      42.230  29.618  29.014  1.00  0.00     0.049 A 
ATOM     52  C   UNL A   1      47.403  28.434  27.245  1.00  0.00     0.074 A 
ATOM     53  C   UNL A   1      42.020  30.891  29.517  1.00  0.00     0.029 A 
ATOM     54  N   UNL A   1      43.561  29.558  28.627  1.00  0.00    -0.354 N 
ATOM     55  N   UNL A   1      46.252  28.859  27.707  1.00  0.00    -0.248 NA
ATOM     56  C   UNL A   1      48.457  29.459  27.232  1.00  0.00     0.031 C 
ATOM     57  C   UNL A   1      43.210  31.615  29.393  1.00  0.00     0.029 A 
ATOM     58  C   UNL A   1      44.176  30.779  28.859  1.00  0.00     0.049 A 
ATOM     59  H   UNL A   1      44.003  28.766  28.244  1.00  0.00     0.167 HD
ATOM     60  C   UNL A   1      46.448  30.185  28.063  1.00  0.00     0.074 A 
ATOM     61  C   UNL A   1      47.834  30.494  27.778  1.00  0.00     0.031 C 
ATOM     62  C   UNL A   1      45.559  31.070  28.579  1.00  0.00     0.037 A 
BRANCH  49  63
ATOM     63  C   UNL A   1      39.867  28.785  29.294  1.00  0.00     0.064 A 
ATOM     64  C   UNL A   1      38.917  29.260  28.377  1.00  0.00     0.173 A 
ATOM     65  C   UNL A   1      39.434  28.506  30.600  1.00  0.00     0.173 A 
ATOM     66  F   UNL A   1      39.281  29.551  27.119  1.00  0.00    -0.203 F 
ATOM     67  C   UNL A   1      37.596  29.475  28.759  1.00  0.00     0.198 A 
ATOM     68  C   UNL A   1      38.105  28.694  30.970  1.00  0.00     0.198 A 
ATOM     69  F   UNL A   1      40.299  28.042  31.515  1.00  0.00    -0.203 F 
ATOM     70  F   UNL A   1      36.717  29.974  27.878  1.00  0.00    -0.200 F 
ATOM     71  C   UNL A   1      37.189  29.185  30.053  1.00  0.00     0.200 A 
ATOM     72  F   UNL A   1      37.710  28.401  32.217  1.00  0.00    -0.200 F 
ATOM     73  F   UNL A   1      35.914  29.385  30.417  1.00  0.00    -0.200 F 
ENDBRANCH  49  63
BRANCH  50  74
ATOM     74  C   UNL A   1      49.161  26.785  26.272  1.00  0.00     0.064 A 
ATOM     75  C   UNL A   1      50.129  26.270  27.145  1.00  0.00     0.173 A 
ATOM     76  C   UNL A   1      49.542  27.030  24.945  1.00  0.00     0.173 A 
ATOM     77  F   UNL A   1      49.817  26.043  28.430  1.00  0.00    -0.203 F 
ATOM     78  C   UNL A   1      51.431  26.028  26.714  1.00  0.00     0.198 A 
ATOM     79  C   UNL A   1      50.837  26.760  24.508  1.00  0.00     0.198 A 
ATOM     80  F   UNL A   1      48.653  27.522  24.070  1.00  0.00    -0.203 F 
ATOM     81  F   UNL A   1      52.348  25.577  27.580  1.00  0.00    -0.200 F 
ATOM     82  C   UNL A   1      51.782  26.267  25.394  1.00  0.00     0.200 A 
ATOM     83  F   UNL A   1      51.170  26.982  23.228  1.00  0.00    -0.200 F 
ATOM     84  F   UNL A   1      53.034  26.030  24.979  1.00  0.00    -0.200 F 
ENDBRANCH  50  74
BRANCH  62  85
ATOM     85  C   UNL A   1      46.065  32.445  28.903  1.00  0.00     0.064 A 
ATOM     86  C   UNL A   1      46.638  32.744  30.147  1.00  0.00     0.173 A 
ATOM     87  C   UNL A   1      46.013  33.466  27.942  1.00  0.00     0.173 A 
ATOM     88  F   UNL A   1      46.698  31.807  31.105  1.00  0.00    -0.203 F 
ATOM     89  C   UNL A   1      47.118  34.021  30.426  1.00  0.00     0.198 A 
ATOM     90  C   UNL A   1      46.519  34.734  28.213  1.00  0.00     0.198 A 
ATOM     91  F   UNL A   1      45.480  33.230  26.733  1.00  0.00    -0.203 F 
ATOM     92  F   UNL A   1      47.619  34.297  31.639  1.00  0.00    -0.200 F 
ATOM     93  C   UNL A   1      47.065  35.012  29.458  1.00  0.00     0.200 A 
ATOM     94  F   UNL A   1      46.479  35.686  27.271  1.00  0.00    -0.200 F 
ATOM     95  F   UNL A   1      47.533  36.239  29.726  1.00  0.00    -0.200 F 
ENDBRANCH  62  85
ENDBRANCH  36  37
ENDBRANCH  28  31
ENDBRANCH  26  27
ENDBRANCH  25  26
ENDBRANCH   1  25
TORSDOF 14
ENDMDL
MODEL 3
REMARK VINA RESULT:     -12.5      0.476      7.265
REMARK SMILES O=C(NCCCCCCNC(=O)c1ccc(-c2c3nc(c(-c4c(F)c(F)c(F)c(F)c4F)c4ccc([nH]4)c(-c4c(F)c(F)c(F)c(F)c4F)c4nc(c(-c5c(F)c(F)c(F)c(F)c5F)c5ccc2[nH]5)C=C4)C=C3)cc1)C1=Cc2cc(Cl)c(Cl)cc2O[C@@H]1C(F)(F)F
REMARK SMILES IDX 7 1 6 2 5 3 4 4 3 5 1 6 2 7 76 9 77 10 87 11 78 12 86 13
REMARK SMILES IDX 79 14 85 15 80 16 84 17 81 18 82 19 83 20 88 21 89 22 90 23
REMARK SMILES IDX 91 24 8 25 9 26 10 27 11 28 12 30 13 31 14 32 75 33 15 34
REMARK SMILES IDX 74 35 16 36 17 37 18 38 68 39 19 40 73 41 67 42 69 43 20 44
REMARK SMILES IDX 72 45 66 46 65 47 21 49 53 50 33 51 52 52 34 53 37 54 51 55
REMARK SMILES IDX 70 56 35 57 36 58 50 60 71 61 38 62 22 63 23 64 31 65 24 66
REMARK SMILES IDX 25 67 29 68 32 69 26 70 27 71 30 72 28 73 54 74 55 75 63 76
REMARK SMILES IDX 56 77 57 78 61 79 64 80 58 81 59 82 62 83 60 84 39 85 40 86
REMARK SMILES IDX 48 87 41 88 42 89 46 90 49 91 43 92 44 93 47 94 45 95
REMARK H PARENT 3 8 10 29 69 48 37 59
REMARK Flexibility Score: inf
ROOT
ATOM      1  C   UNL A   1      38.044  21.425  24.893  1.00  0.00     0.002 C 
ENDROOT
BRANCH   1   2
ATOM      2  C   UNL A   1      38.525  22.441  25.937  1.00  0.00     0.002 C 
BRANCH   2   3
ATOM      3  C   UNL A   1      37.674  23.696  26.127  1.00  0.00     0.021 C 
BRANCH   3   4
ATOM      4  C   UNL A   1      36.201  23.584  25.746  1.00  0.00     0.116 C 
BRANCH   4   5
ATOM      5  N   UNL A   1      35.345  22.968  26.748  1.00  0.00    -0.352 N 
ATOM      6  O   UNL A   1      33.930  21.453  27.626  1.00  0.00    -0.270 OA
ATOM      7  C   UNL A   1      34.429  21.954  26.620  1.00  0.00     0.251 C 
ATOM      8  H   UNL A   1      35.436  23.335  27.657  1.00  0.00     0.163 HD
BRANCH   7   9
ATOM      9  C   UNL A   1      34.105  21.355  25.291  1.00  0.00     0.067 C 
ATOM     10  C   UNL A   1      34.884  20.391  24.778  1.00  0.00     0.025 C 
ATOM     11  C   UNL A   1      32.632  21.376  24.966  1.00  0.00     0.314 C 
ATOM     12  C   UNL A   1      34.217  19.089  24.644  1.00  0.00     0.019 A 
ATOM     13  O   UNL A   1      32.020  20.064  25.079  1.00  0.00    -0.475 OA
ATOM     14  C   UNL A   1      35.014  17.939  24.594  1.00  0.00     0.034 A 
ATOM     15  C   UNL A   1      32.846  18.982  24.911  1.00  0.00     0.129 A 
ATOM     16  C   UNL A   1      34.456  16.695  24.896  1.00  0.00     0.060 A 
ATOM     17  C   UNL A   1      32.281  17.735  25.164  1.00  0.00     0.069 A 
ATOM     18  Cl  UNL A   1      35.528  15.345  25.010  1.00  0.00    -0.083 Cl
ATOM     19  C   UNL A   1      33.089  16.595  25.190  1.00  0.00     0.063 A 
ATOM     20  Cl  UNL A   1      32.360  15.108  25.683  1.00  0.00    -0.083 Cl
BRANCH  11  21
ATOM     21  C   UNL A   1      32.390  21.983  23.571  1.00  0.00     0.429 C 
ATOM     22  F   UNL A   1      33.401  22.808  23.212  1.00  0.00    -0.167 F 
ATOM     23  F   UNL A   1      32.297  21.030  22.614  1.00  0.00    -0.167 F 
ATOM     24  F   UNL A   1      31.245  22.709  23.520  1.00  0.00    -0.167 F 
ENDBRANCH  11  21
ENDBRANCH   7   9
ENDBRANCH   4   5
ENDBRANCH   3   4
ENDBRANCH   2   3
ENDBRANCH   1   2
BRANCH   1  25
ATOM     25  C   UNL A   1      38.583  19.994  25.002  1.00  0.00     0.021 C 
BRANCH  25  26
ATOM     26  C   UNL A   1      39.279  19.621  26.310  1.00  0.00     0.116 C 
BRANCH  26  27
ATOM     27  N   UNL A   1      40.479  18.830  26.114  1.00  0.00    -0.352 N 
ATOM     28  C   UNL A   1      41.798  19.209  26.053  1.00  0.00     0.251 C 
ATOM     29  H   UNL A   1      40.324  17.863  26.008  1.00  0.00     0.163 HD
ATOM     30  O   UNL A   1      42.651  18.374  25.764  1.00  0.00    -0.269 OA
BRANCH  28  31
ATOM     31  C   UNL A   1      42.214  20.610  26.304  1.00  0.00     0.039 A 
ATOM     32  C   UNL A   1      42.486  20.993  27.623  1.00  0.00     0.014 A 
ATOM     33  C   UNL A   1      42.285  21.561  25.283  1.00  0.00     0.014 A 
ATOM     34  C   UNL A   1      42.873  22.305  27.910  1.00  0.00     0.010 A 
ATOM     35  C   UNL A   1      42.731  22.855  25.560  1.00  0.00     0.010 A 
ATOM     36  C   UNL A   1      43.025  23.243  26.877  1.00  0.00    -0.014 A 
BRANCH  36  37
ATOM     37  C   UNL A   1      43.483  24.628  27.163  1.00  0.00     0.031 A 
ATOM     38  C   UNL A   1      42.529  25.645  27.727  1.00  0.00     0.074 A 
ATOM     39  C   UNL A   1      44.748  24.987  26.871  1.00  0.00     0.049 A 
ATOM     40  N   UNL A   1      42.729  26.913  27.992  1.00  0.00    -0.248 NA
ATOM     41  C   UNL A   1      41.162  25.182  28.012  1.00  0.00     0.031 C 
ATOM     42  C   UNL A   1      45.761  24.106  26.287  1.00  0.00     0.029 A 
ATOM     43  N   UNL A   1      45.397  26.187  27.017  1.00  0.00    -0.354 N 
ATOM     44  C   UNL A   1      41.515  27.399  28.460  1.00  0.00     0.074 A 
ATOM     45  C   UNL A   1      40.571  26.303  28.400  1.00  0.00     0.031 C 
ATOM     46  C   UNL A   1      46.906  24.791  26.140  1.00  0.00     0.029 A 
ATOM     47  C   UNL A   1      46.701  26.166  26.586  1.00  0.00     0.049 A 
ATOM     48  H   UNL A   1      44.968  26.989  27.396  1.00  0.00     0.167 HD
ATOM     49  C   UNL A   1      41.219  28.639  28.916  1.00  0.00     0.037 A 
ATOM     50  C   UNL A   1      47.624  27.146  26.547  1.00  0.00     0.037 A 
ATOM     51  C   UNL A   1      42.164  29.723  28.997  1.00  0.00     0.049 A 
ATOM     52  C   UNL A   1      47.268  28.517  27.053  1.00  0.00     0.074 A 
ATOM     53  C   UNL A   1      41.974  30.999  29.499  1.00  0.00     0.029 A 
ATOM     54  N   UNL A   1      43.480  29.658  28.563  1.00  0.00    -0.354 N 
ATOM     55  N   UNL A   1      46.135  28.947  27.552  1.00  0.00    -0.248 NA
ATOM     56  C   UNL A   1      48.323  29.539  26.995  1.00  0.00     0.031 C 
ATOM     57  C   UNL A   1      43.161  31.720  29.329  1.00  0.00     0.029 A 
ATOM     58  C   UNL A   1      44.106  30.879  28.766  1.00  0.00     0.049 A 
ATOM     59  H   UNL A   1      43.907  28.862  28.170  1.00  0.00     0.167 HD
ATOM     60  C   UNL A   1      46.346  30.275  27.893  1.00  0.00     0.074 A 
ATOM     61  C   UNL A   1      47.722  30.579  27.557  1.00  0.00     0.031 C 
ATOM     62  C   UNL A   1      45.478  31.165  28.435  1.00  0.00     0.037 A 
BRANCH  49  63
ATOM     63  C   UNL A   1      39.810  28.897  29.366  1.00  0.00     0.064 A 
ATOM     64  C   UNL A   1      38.834  29.386  28.485  1.00  0.00     0.173 A 
ATOM     65  C   UNL A   1      39.419  28.609  30.683  1.00  0.00     0.173 A 
ATOM     66  F   UNL A   1      39.158  29.686  27.218  1.00  0.00    -0.203 F 
ATOM     67  C   UNL A   1      37.528  29.607  28.913  1.00  0.00     0.198 A 
ATOM     68  C   UNL A   1      38.104  28.803  31.099  1.00  0.00     0.198 A 
ATOM     69  F   UNL A   1      40.311  28.132  31.565  1.00  0.00    -0.203 F 
ATOM     70  F   UNL A   1      36.624  30.119  28.065  1.00  0.00    -0.200 F 
ATOM     71  C   UNL A   1      37.161  29.307  30.216  1.00  0.00     0.200 A 
ATOM     72  F   UNL A   1      37.749  28.501  32.356  1.00  0.00    -0.200 F 
ATOM     73  F   UNL A   1      35.901  29.513  30.624  1.00  0.00    -0.200 F 
ENDBRANCH  49  63
BRANCH  50  74
ATOM     74  C   UNL A   1      48.987  26.858  26.027  1.00  0.00     0.064 A 
ATOM     75  C   UNL A   1      49.306  27.087  24.682  1.00  0.00     0.173 A 
ATOM     76  C   UNL A   1      49.992  26.344  26.859  1.00  0.00     0.173 A 
ATOM     77  F   UNL A   1      48.370  27.556  23.842  1.00  0.00    -0.203 F 
ATOM     78  C   UNL A   1      50.574  26.797  24.183  1.00  0.00     0.198 A 
ATOM     79  C   UNL A   1      51.267  26.080  26.366  1.00  0.00     0.198 A 
ATOM     80  F   UNL A   1      49.737  26.108  28.153  1.00  0.00    -0.203 F 
ATOM     81  F   UNL A   1      50.839  26.984  22.883  1.00  0.00    -0.200 F 
ATOM     82  C   UNL A   1      51.555  26.299  25.027  1.00  0.00     0.200 A 
ATOM     83  F   UNL A   1      52.217  25.610  27.186  1.00  0.00    -0.200 F 
ATOM     84  F   UNL A   1      52.776  26.023  24.548  1.00  0.00    -0.200 F 
ENDBRANCH  50  74
BRANCH  62  85
ATOM     85  C   UNL A   1      45.999  32.540  28.732  1.00  0.00     0.064 A 
ATOM     86  C   UNL A   1      46.616  32.845  29.954  1.00  0.00     0.173 A 
ATOM     87  C   UNL A   1      45.914  33.556  27.768  1.00  0.00     0.173 A 
ATOM     88  F   UNL A   1      46.709  31.914  30.915  1.00  0.00    -0.203 F 
ATOM     89  C   UNL A   1      47.109  34.123  30.208  1.00  0.00     0.198 A 
ATOM     90  C   UNL A   1      46.432  34.824  28.014  1.00  0.00     0.198 A 
ATOM     91  F   UNL A   1      45.338  33.314  26.581  1.00  0.00    -0.203 F 
ATOM     92  F   UNL A   1      47.654  34.405  31.400  1.00  0.00    -0.200 F 
ATOM     93  C   UNL A   1      47.022  35.108  29.236  1.00  0.00     0.200 A 
ATOM     94  F   UNL A   1      46.360  35.771  27.068  1.00  0.00    -0.200 F 
ATOM     95  F   UNL A   1      47.503  36.336  29.480  1.00  0.00    -0.200 F 
ENDBRANCH  62  85
ENDBRANCH  36  37
ENDBRANCH  28  31
ENDBRANCH  26  27
ENDBRANCH  25  26
ENDBRANCH   1  25
TORSDOF 14
ENDMDL
