MODEL 1
REMARK VINA RESULT:     -11.4      0.000      0.000
REMARK SMILES CC[C@@H]1CC(=O)N(Cc2ccc(/C=C/C(=O)NCCCCCCNC(=O)c3ccc(-c4c5nc(c(-c6c(F)c(F)c(F)c(F)c6F)c6ccc([nH]6)c(-c6c(F)c(F)c(F)c(F)c6F)c6nc(c(-c7c(F)c(F)c(F)c(F)c7F)c7ccc4[nH]7)C=C6)C=C5)cc3)cc2)C1
REMARK SMILES IDX 19 1 18 2 17 3 15 4 16 5 14 7 13 8 12 9 9 10 10 11 91 12
REMARK SMILES IDX 11 13 90 14 8 15 7 16 3 17 4 18 92 19 5 20 6 21 2 22 1 23
REMARK SMILES IDX 20 24 21 25 22 26 23 27 24 28 25 29 26 31 27 32 28 33 89 34
REMARK SMILES IDX 29 35 88 36 30 37 31 38 32 39 82 40 33 41 87 42 81 43 83 44
REMARK SMILES IDX 34 45 86 46 80 47 79 48 35 50 67 51 47 52 66 53 48 54 51 55
REMARK SMILES IDX 65 56 84 57 49 58 50 59 64 61 85 62 52 63 36 64 37 65 45 66
REMARK SMILES IDX 38 67 39 68 43 69 46 70 40 71 41 72 44 73 42 74 68 75 69 76
REMARK SMILES IDX 77 77 70 78 71 79 75 80 78 81 72 82 73 83 76 84 74 85 53 86
REMARK SMILES IDX 54 87 62 88 55 89 56 90 60 91 63 92 57 93 58 94 61 95 59 96
REMARK H PARENT 17 6 24 30 83 49 51 60
REMARK Flexibility Score: inf
ROOT
ATOM      1  C   UNL A   1      40.763  22.364  27.569  1.00  0.00     0.021 C 
ENDROOT
BRANCH   1   2
ATOM      2  C   UNL A   1      39.669  22.962  26.683  1.00  0.00     0.116 C 
BRANCH   2   3
ATOM      3  N   UNL A   1      39.069  21.922  25.869  1.00  0.00    -0.353 N 
ATOM      4  C   UNL A   1      37.825  21.807  25.334  1.00  0.00     0.243 C 
ATOM      5  O   UNL A   1      37.548  20.826  24.650  1.00  0.00    -0.270 OA
ATOM      6  H   UNL A   1      39.668  21.167  25.667  1.00  0.00     0.163 HD
BRANCH   4   7
ATOM      7  C   UNL A   1      36.841  22.903  25.467  1.00  0.00     0.072 C 
ATOM      8  C   UNL A   1      35.512  22.738  25.517  1.00  0.00     0.014 C 
BRANCH   8   9
ATOM      9  C   UNL A   1      34.559  23.834  25.734  1.00  0.00    -0.025 A 
ATOM     10  C   UNL A   1      32.633  25.861  26.173  1.00  0.00    -0.029 A 
ATOM     11  C   UNL A   1      33.847  26.152  25.538  1.00  0.00     0.006 A 
ATOM     12  C   UNL A   1      32.391  24.540  26.573  1.00  0.00     0.006 A 
ATOM     13  C   UNL A   1      34.793  25.146  25.308  1.00  0.00     0.008 A 
ATOM     14  C   UNL A   1      33.346  23.542  26.368  1.00  0.00     0.008 A 
BRANCH  10  15
ATOM     15  C   UNL A   1      31.600  26.943  26.381  1.00  0.00     0.155 C 
BRANCH  15  16
ATOM     16  N   UNL A   1      30.969  27.403  25.157  1.00  0.00    -0.338 N 
ATOM     17  C   UNL A   1      30.207  27.216  22.965  1.00  0.00     0.017 C 
ATOM     18  C   UNL A   1      30.340  28.706  23.320  1.00  0.00     0.105 C 
ATOM     19  C   UNL A   1      30.120  26.575  24.343  1.00  0.00     0.124 C 
ATOM     20  C   UNL A   1      31.120  28.673  24.620  1.00  0.00     0.223 C 
ATOM     21  O   UNL A   1      31.739  29.603  25.098  1.00  0.00    -0.275 OA
BRANCH  17  22
ATOM     22  C   UNL A   1      31.409  26.750  22.116  1.00  0.00     0.002 C 
ATOM     23  C   UNL A   1      31.875  25.327  22.397  1.00  0.00     0.004 C 
ENDBRANCH  17  22
ENDBRANCH  15  16
ENDBRANCH  10  15
ENDBRANCH   8   9
ENDBRANCH   4   7
ENDBRANCH   2   3
ENDBRANCH   1   2
BRANCH   1  24
ATOM     24  C   UNL A   1      41.788  21.534  26.784  1.00  0.00     0.002 C 
BRANCH  24  25
ATOM     25  C   UNL A   1      41.845  20.054  27.179  1.00  0.00     0.002 C 
BRANCH  25  26
ATOM     26  C   UNL A   1      42.213  19.102  26.038  1.00  0.00     0.021 C 
BRANCH  26  27
ATOM     27  C   UNL A   1      43.673  18.669  26.041  1.00  0.00     0.116 C 
BRANCH  27  28
ATOM     28  N   UNL A   1      44.229  18.667  24.699  1.00  0.00    -0.352 N 
ATOM     29  C   UNL A   1      44.610  19.719  23.909  1.00  0.00     0.251 C 
ATOM     30  H   UNL A   1      44.352  17.776  24.297  1.00  0.00     0.163 HD
ATOM     31  O   UNL A   1      44.806  19.549  22.710  1.00  0.00    -0.269 OA
BRANCH  29  32
ATOM     32  C   UNL A   1      44.786  21.062  24.499  1.00  0.00     0.039 A 
ATOM     33  C   UNL A   1      44.296  22.170  23.805  1.00  0.00     0.014 A 
ATOM     34  C   UNL A   1      45.479  21.237  25.702  1.00  0.00     0.014 A 
ATOM     35  C   UNL A   1      44.485  23.449  24.326  1.00  0.00     0.010 A 
ATOM     36  C   UNL A   1      45.584  22.505  26.266  1.00  0.00     0.010 A 
ATOM     37  C   UNL A   1      45.118  23.627  25.567  1.00  0.00    -0.014 A 
BRANCH  37  38
ATOM     38  C   UNL A   1      45.332  24.989  26.117  1.00  0.00     0.031 A 
ATOM     39  C   UNL A   1      46.696  25.620  26.071  1.00  0.00     0.074 A 
ATOM     40  C   UNL A   1      44.299  25.650  26.670  1.00  0.00     0.049 A 
ATOM     41  N   UNL A   1      47.073  26.808  26.474  1.00  0.00    -0.248 NA
ATOM     42  C   UNL A   1      47.789  24.798  25.529  1.00  0.00     0.031 C 
ATOM     43  C   UNL A   1      42.945  25.118  26.827  1.00  0.00     0.029 A 
ATOM     44  N   UNL A   1      44.227  26.913  27.200  1.00  0.00    -0.354 N 
ATOM     45  C   UNL A   1      48.439  26.871  26.232  1.00  0.00     0.074 A 
ATOM     46  C   UNL A   1      48.839  25.577  25.728  1.00  0.00     0.031 C 
ATOM     47  C   UNL A   1      42.167  26.059  27.383  1.00  0.00     0.029 A 
ATOM     48  C   UNL A   1      42.974  27.247  27.650  1.00  0.00     0.049 A 
ATOM     49  H   UNL A   1      44.999  27.521  27.253  1.00  0.00     0.167 HD
ATOM     50  C   UNL A   1      49.279  27.924  26.385  1.00  0.00     0.037 A 
ATOM     51  C   UNL A   1      42.526  28.385  28.213  1.00  0.00     0.037 A 
ATOM     52  C   UNL A   1      48.874  29.211  26.889  1.00  0.00     0.049 A 
ATOM     53  C   UNL A   1      43.473  29.543  28.371  1.00  0.00     0.074 A 
ATOM     54  C   UNL A   1      49.633  30.355  27.054  1.00  0.00     0.029 A 
ATOM     55  N   UNL A   1      47.590  29.519  27.321  1.00  0.00    -0.354 N 
ATOM     56  N   UNL A   1      44.748  29.617  28.075  1.00  0.00    -0.248 NA
ATOM     57  C   UNL A   1      42.911  30.781  28.923  1.00  0.00     0.031 C 
ATOM     58  C   UNL A   1      48.826  31.337  27.639  1.00  0.00     0.029 A 
ATOM     59  C   UNL A   1      47.542  30.829  27.771  1.00  0.00     0.049 A 
ATOM     60  H   UNL A   1      46.826  28.898  27.310  1.00  0.00     0.167 HD
ATOM     61  C   UNL A   1      45.135  30.917  28.375  1.00  0.00     0.074 A 
ATOM     62  C   UNL A   1      43.951  31.599  28.859  1.00  0.00     0.031 C 
ATOM     63  C   UNL A   1      46.357  31.495  28.257  1.00  0.00     0.037 A 
BRANCH  50  64
ATOM     64  C   UNL A   1      50.720  27.713  26.003  1.00  0.00     0.064 A 
ATOM     65  C   UNL A   1      51.693  27.359  26.953  1.00  0.00     0.173 A 
ATOM     66  C   UNL A   1      51.138  27.872  24.673  1.00  0.00     0.173 A 
ATOM     67  F   UNL A   1      51.353  27.204  28.243  1.00  0.00    -0.203 F 
ATOM     68  C   UNL A   1      53.033  27.226  26.597  1.00  0.00     0.198 A 
ATOM     69  C   UNL A   1      52.472  27.698  24.313  1.00  0.00     0.198 A 
ATOM     70  F   UNL A   1      50.253  28.203  23.720  1.00  0.00    -0.203 F 
ATOM     71  F   UNL A   1      53.952  26.965  27.538  1.00  0.00    -0.200 F 
ATOM     72  C   UNL A   1      53.421  27.391  25.277  1.00  0.00     0.200 A 
ATOM     73  F   UNL A   1      52.843  27.843  23.033  1.00  0.00    -0.200 F 
ATOM     74  F   UNL A   1      54.710  27.266  24.935  1.00  0.00    -0.200 F 
ENDBRANCH  50  64
BRANCH  51  75
ATOM     75  C   UNL A   1      41.103  28.487  28.625  1.00  0.00     0.064 A 
ATOM     76  C   UNL A   1      40.121  28.959  27.743  1.00  0.00     0.173 A 
ATOM     77  C   UNL A   1      40.691  28.089  29.907  1.00  0.00     0.173 A 
ATOM     78  F   UNL A   1      40.468  29.366  26.513  1.00  0.00    -0.203 F 
ATOM     79  C   UNL A   1      38.786  29.048  28.132  1.00  0.00     0.198 A 
ATOM     80  C   UNL A   1      39.351  28.147  30.282  1.00  0.00     0.198 A 
ATOM     81  F   UNL A   1      41.589  27.619  30.784  1.00  0.00    -0.203 F 
ATOM     82  F   UNL A   1      37.875  29.542  27.283  1.00  0.00    -0.200 F 
ATOM     83  C   UNL A   1      38.401  28.633  29.398  1.00  0.00     0.200 A 
ATOM     84  F   UNL A   1      38.981  27.726  31.500  1.00  0.00    -0.200 F 
ATOM     85  F   UNL A   1      37.115  28.706  29.767  1.00  0.00    -0.200 F 
ENDBRANCH  51  75
BRANCH  63  86
ATOM     86  C   UNL A   1      46.463  32.950  28.618  1.00  0.00     0.064 A 
ATOM     87  C   UNL A   1      46.781  33.375  29.918  1.00  0.00     0.173 A 
ATOM     88  C   UNL A   1      46.246  33.937  27.644  1.00  0.00     0.173 A 
ATOM     89  F   UNL A   1      46.987  32.474  30.891  1.00  0.00    -0.203 F 
ATOM     90  C   UNL A   1      46.828  34.730  30.239  1.00  0.00     0.198 A 
ATOM     91  C   UNL A   1      46.334  35.291  27.958  1.00  0.00     0.198 A 
ATOM     92  F   UNL A   1      45.951  33.591  26.382  1.00  0.00    -0.203 F 
ATOM     93  F   UNL A   1      47.058  35.108  31.503  1.00  0.00    -0.200 F 
ATOM     94  C   UNL A   1      46.609  35.686  29.258  1.00  0.00     0.200 A 
ATOM     95  F   UNL A   1      46.141  36.212  27.005  1.00  0.00    -0.200 F 
ATOM     96  F   UNL A   1      46.652  36.987  29.569  1.00  0.00    -0.200 F 
ENDBRANCH  63  86
ENDBRANCH  37  38
ENDBRANCH  29  32
ENDBRANCH  27  28
ENDBRANCH  26  27
ENDBRANCH  25  26
ENDBRANCH  24  25
ENDBRANCH   1  24
TORSDOF 17
ENDMDL
MODEL 2
REMARK VINA RESULT:     -11.3      0.265      2.003
REMARK SMILES CC[C@@H]1CC(=O)N(Cc2ccc(/C=C/C(=O)NCCCCCCNC(=O)c3ccc(-c4c5nc(c(-c6c(F)c(F)c(F)c(F)c6F)c6ccc([nH]6)c(-c6c(F)c(F)c(F)c(F)c6F)c6nc(c(-c7c(F)c(F)c(F)c(F)c7F)c7ccc4[nH]7)C=C6)C=C5)cc3)cc2)C1
REMARK SMILES IDX 19 1 18 2 17 3 15 4 16 5 14 7 13 8 12 9 9 10 10 11 91 12
REMARK SMILES IDX 11 13 90 14 8 15 7 16 3 17 4 18 92 19 5 20 6 21 2 22 1 23
REMARK SMILES IDX 20 24 21 25 22 26 23 27 24 28 25 29 26 31 27 32 28 33 89 34
REMARK SMILES IDX 29 35 88 36 30 37 31 38 32 39 82 40 33 41 87 42 81 43 83 44
REMARK SMILES IDX 34 45 86 46 80 47 79 48 35 50 67 51 47 52 66 53 48 54 51 55
REMARK SMILES IDX 65 56 84 57 49 58 50 59 64 61 85 62 52 63 36 64 37 65 45 66
REMARK SMILES IDX 38 67 39 68 43 69 46 70 40 71 41 72 44 73 42 74 68 75 69 76
REMARK SMILES IDX 77 77 70 78 71 79 75 80 78 81 72 82 73 83 76 84 74 85 53 86
REMARK SMILES IDX 54 87 62 88 55 89 56 90 60 91 63 92 57 93 58 94 61 95 59 96
REMARK H PARENT 17 6 24 30 83 49 51 60
REMARK Flexibility Score: inf
ROOT
ATOM      1  C   UNL A   1      40.404  22.698  27.558  1.00  0.00     0.021 C 
ENDROOT
BRANCH   1   2
ATOM      2  C   UNL A   1      39.372  23.245  26.570  1.00  0.00     0.116 C 
BRANCH   2   3
ATOM      3  N   UNL A   1      38.842  22.164  25.761  1.00  0.00    -0.353 N 
ATOM      4  C   UNL A   1      37.624  21.990  25.184  1.00  0.00     0.243 C 
ATOM      5  O   UNL A   1      37.408  20.983  24.515  1.00  0.00    -0.270 OA
ATOM      6  H   UNL A   1      39.475  21.427  25.600  1.00  0.00     0.163 HD
BRANCH   4   7
ATOM      7  C   UNL A   1      36.596  23.051  25.252  1.00  0.00     0.072 C 
ATOM      8  C   UNL A   1      35.351  22.883  25.719  1.00  0.00     0.014 C 
BRANCH   8   9
ATOM      9  C   UNL A   1      34.375  23.972  25.856  1.00  0.00    -0.025 A 
ATOM     10  C   UNL A   1      32.405  25.984  26.141  1.00  0.00    -0.029 A 
ATOM     11  C   UNL A   1      33.636  26.267  25.535  1.00  0.00     0.006 A 
ATOM     12  C   UNL A   1      32.169  24.677  26.589  1.00  0.00     0.006 A 
ATOM     13  C   UNL A   1      34.604  25.268  25.381  1.00  0.00     0.008 A 
ATOM     14  C   UNL A   1      33.146  23.688  26.461  1.00  0.00     0.008 A 
BRANCH  10  15
ATOM     15  C   UNL A   1      31.349  27.056  26.267  1.00  0.00     0.155 C 
BRANCH  15  16
ATOM     16  N   UNL A   1      30.877  27.575  24.995  1.00  0.00    -0.338 N 
ATOM     17  C   UNL A   1      30.273  27.457  22.750  1.00  0.00     0.017 C 
ATOM     18  C   UNL A   1      30.559  28.924  23.112  1.00  0.00     0.105 C 
ATOM     19  C   UNL A   1      30.000  26.847  24.118  1.00  0.00     0.124 C 
ATOM     20  C   UNL A   1      31.224  28.812  24.470  1.00  0.00     0.223 C 
ATOM     21  O   UNL A   1      31.913  29.665  24.994  1.00  0.00    -0.275 OA
BRANCH  17  22
ATOM     22  C   UNL A   1      31.473  26.838  22.001  1.00  0.00     0.002 C 
ATOM     23  C   UNL A   1      31.774  25.391  22.365  1.00  0.00     0.004 C 
ENDBRANCH  17  22
ENDBRANCH  15  16
ENDBRANCH  10  15
ENDBRANCH   8   9
ENDBRANCH   4   7
ENDBRANCH   2   3
ENDBRANCH   1   2
BRANCH   1  24
ATOM     24  C   UNL A   1      40.686  21.202  27.367  1.00  0.00     0.002 C 
BRANCH  24  25
ATOM     25  C   UNL A   1      42.061  20.885  26.768  1.00  0.00     0.002 C 
BRANCH  25  26
ATOM     26  C   UNL A   1      42.123  19.582  25.967  1.00  0.00     0.021 C 
BRANCH  26  27
ATOM     27  C   UNL A   1      43.434  18.822  26.124  1.00  0.00     0.116 C 
BRANCH  27  28
ATOM     28  N   UNL A   1      44.109  18.658  24.848  1.00  0.00    -0.352 N 
ATOM     29  C   UNL A   1      44.639  19.606  24.012  1.00  0.00     0.251 C 
ATOM     30  H   UNL A   1      44.200  17.728  24.538  1.00  0.00     0.163 HD
ATOM     31  O   UNL A   1      44.931  19.312  22.857  1.00  0.00    -0.269 OA
BRANCH  29  32
ATOM     32  C   UNL A   1      44.862  20.982  24.499  1.00  0.00     0.039 A 
ATOM     33  C   UNL A   1      45.543  21.167  25.703  1.00  0.00     0.014 A 
ATOM     34  C   UNL A   1      44.354  22.085  23.803  1.00  0.00     0.014 A 
ATOM     35  C   UNL A   1      45.731  22.457  26.199  1.00  0.00     0.010 A 
ATOM     36  C   UNL A   1      44.623  23.374  24.251  1.00  0.00     0.010 A 
ATOM     37  C   UNL A   1      45.286  23.572  25.470  1.00  0.00    -0.014 A 
BRANCH  37  38
ATOM     38  C   UNL A   1      45.472  24.944  26.003  1.00  0.00     0.031 A 
ATOM     39  C   UNL A   1      46.823  25.602  25.950  1.00  0.00     0.074 A 
ATOM     40  C   UNL A   1      44.426  25.591  26.549  1.00  0.00     0.049 A 
ATOM     41  N   UNL A   1      47.176  26.802  26.338  1.00  0.00    -0.248 NA
ATOM     42  C   UNL A   1      47.932  24.796  25.417  1.00  0.00     0.031 C 
ATOM     43  C   UNL A   1      43.083  25.034  26.713  1.00  0.00     0.029 A 
ATOM     44  N   UNL A   1      44.329  26.859  27.063  1.00  0.00    -0.354 N 
ATOM     45  C   UNL A   1      48.541  26.890  26.096  1.00  0.00     0.074 A 
ATOM     46  C   UNL A   1      48.967  25.598  25.607  1.00  0.00     0.031 C 
ATOM     47  C   UNL A   1      42.286  25.966  27.257  1.00  0.00     0.029 A 
ATOM     48  C   UNL A   1      43.069  27.173  27.510  1.00  0.00     0.049 A 
ATOM     49  H   UNL A   1      45.089  27.483  27.109  1.00  0.00     0.167 HD
ATOM     50  C   UNL A   1      49.360  27.961  26.236  1.00  0.00     0.037 A 
ATOM     51  C   UNL A   1      42.599  28.308  28.059  1.00  0.00     0.037 A 
ATOM     52  C   UNL A   1      48.928  29.245  26.725  1.00  0.00     0.049 A 
ATOM     53  C   UNL A   1      43.522  29.487  28.203  1.00  0.00     0.074 A 
ATOM     54  C   UNL A   1      49.665  30.406  26.876  1.00  0.00     0.029 A 
ATOM     55  N   UNL A   1      47.639  29.533  27.153  1.00  0.00    -0.354 N 
ATOM     56  N   UNL A   1      44.795  29.583  27.906  1.00  0.00    -0.248 NA
ATOM     57  C   UNL A   1      42.935  30.720  28.740  1.00  0.00     0.031 C 
ATOM     58  C   UNL A   1      48.838  31.379  27.449  1.00  0.00     0.029 A 
ATOM     59  C   UNL A   1      47.565  30.847  27.588  1.00  0.00     0.049 A 
ATOM     60  H   UNL A   1      46.888  28.896  27.149  1.00  0.00     0.167 HD
ATOM     61  C   UNL A   1      45.157  30.893  28.191  1.00  0.00     0.074 A 
ATOM     62  C   UNL A   1      43.959  31.557  28.666  1.00  0.00     0.031 C 
ATOM     63  C   UNL A   1      46.367  31.495  28.065  1.00  0.00     0.037 A 
BRANCH  50  64
ATOM     64  C   UNL A   1      50.805  27.774  25.857  1.00  0.00     0.064 A 
ATOM     65  C   UNL A   1      51.244  27.906  24.528  1.00  0.00     0.173 A 
ATOM     66  C   UNL A   1      51.763  27.453  26.830  1.00  0.00     0.173 A 
ATOM     67  F   UNL A   1      50.370  28.201  23.553  1.00  0.00    -0.203 F 
ATOM     68  C   UNL A   1      52.573  27.670  24.183  1.00  0.00     0.198 A 
ATOM     69  C   UNL A   1      53.099  27.258  26.486  1.00  0.00     0.198 A 
ATOM     70  F   UNL A   1      51.405  27.321  28.116  1.00  0.00    -0.203 F 
ATOM     71  F   UNL A   1      52.948  27.725  22.897  1.00  0.00    -0.200 F 
ATOM     72  C   UNL A   1      53.500  27.351  25.161  1.00  0.00     0.200 A 
ATOM     73  F   UNL A   1      53.997  26.965  27.437  1.00  0.00    -0.200 F 
ATOM     74  F   UNL A   1      54.777  27.121  24.828  1.00  0.00    -0.200 F 
ENDBRANCH  50  64
BRANCH  51  75
ATOM     75  C   UNL A   1      41.173  28.386  28.470  1.00  0.00     0.064 A 
ATOM     76  C   UNL A   1      40.759  27.969  29.742  1.00  0.00     0.173 A 
ATOM     77  C   UNL A   1      40.198  28.905  27.604  1.00  0.00     0.173 A 
ATOM     78  F   UNL A   1      41.651  27.452  30.600  1.00  0.00    -0.203 F 
ATOM     79  C   UNL A   1      39.422  28.050  30.126  1.00  0.00     0.198 A 
ATOM     80  C   UNL A   1      38.868  29.015  28.001  1.00  0.00     0.198 A 
ATOM     81  F   UNL A   1      40.545  29.328  26.379  1.00  0.00    -0.203 F 
ATOM     82  F   UNL A   1      39.046  27.605  31.333  1.00  0.00    -0.200 F 
ATOM     83  C   UNL A   1      38.479  28.581  29.258  1.00  0.00     0.200 A 
ATOM     84  F   UNL A   1      37.964  29.547  27.166  1.00  0.00    -0.200 F 
ATOM     85  F   UNL A   1      37.195  28.670  29.633  1.00  0.00    -0.200 F 
ENDBRANCH  51  75
BRANCH  63  86
ATOM     86  C   UNL A   1      46.443  32.956  28.409  1.00  0.00     0.064 A 
ATOM     87  C   UNL A   1      46.221  33.960  27.454  1.00  0.00     0.173 A 
ATOM     88  C   UNL A   1      46.741  33.357  29.721  1.00  0.00     0.173 A 
ATOM     89  F   UNL A   1      45.942  33.633  26.183  1.00  0.00    -0.203 F 
ATOM     90  C   UNL A   1      46.343  35.307  27.787  1.00  0.00     0.198 A 
ATOM     91  C   UNL A   1      46.823  34.706  30.060  1.00  0.00     0.198 A 
ATOM     92  F   UNL A   1      46.952  32.443  30.679  1.00  0.00    -0.203 F 
ATOM     93  F   UNL A   1      46.200  36.244  26.840  1.00  0.00    -0.200 F 
ATOM     94  C   UNL A   1      46.639  35.679  29.090  1.00  0.00     0.200 A 
ATOM     95  F   UNL A   1      47.090  35.062  31.323  1.00  0.00    -0.200 F 
ATOM     96  F   UNL A   1      46.759  36.974  29.407  1.00  0.00    -0.200 F 
ENDBRANCH  63  86
ENDBRANCH  37  38
ENDBRANCH  29  32
ENDBRANCH  27  28
ENDBRANCH  26  27
ENDBRANCH  25  26
ENDBRANCH  24  25
ENDBRANCH   1  24
TORSDOF 17
ENDMDL
MODEL 3
REMARK VINA RESULT:     -11.2      9.350     13.832
REMARK SMILES CC[C@@H]1CC(=O)N(Cc2ccc(/C=C/C(=O)NCCCCCCNC(=O)c3ccc(-c4c5nc(c(-c6c(F)c(F)c(F)c(F)c6F)c6ccc([nH]6)c(-c6c(F)c(F)c(F)c(F)c6F)c6nc(c(-c7c(F)c(F)c(F)c(F)c7F)c7ccc4[nH]7)C=C6)C=C5)cc3)cc2)C1
REMARK SMILES IDX 19 1 18 2 17 3 15 4 16 5 14 7 13 8 12 9 9 10 10 11 91 12
REMARK SMILES IDX 11 13 90 14 8 15 7 16 3 17 4 18 92 19 5 20 6 21 2 22 1 23
REMARK SMILES IDX 20 24 21 25 22 26 23 27 24 28 25 29 26 31 27 32 28 33 89 34
REMARK SMILES IDX 29 35 88 36 30 37 31 38 32 39 82 40 33 41 87 42 81 43 83 44
REMARK SMILES IDX 34 45 86 46 80 47 79 48 35 50 67 51 47 52 66 53 48 54 51 55
REMARK SMILES IDX 65 56 84 57 49 58 50 59 64 61 85 62 52 63 36 64 37 65 45 66
REMARK SMILES IDX 38 67 39 68 43 69 46 70 40 71 41 72 44 73 42 74 68 75 69 76
REMARK SMILES IDX 77 77 70 78 71 79 75 80 78 81 72 82 73 83 76 84 74 85 53 86
REMARK SMILES IDX 54 87 62 88 55 89 56 90 60 91 63 92 57 93 58 94 61 95 59 96
REMARK H PARENT 17 6 24 30 83 49 51 60
REMARK Flexibility Score: inf
ROOT
ATOM      1  C   UNL A   1      46.579  20.990  36.860  1.00  0.00     0.021 C 
ENDROOT
BRANCH   1   2
ATOM      2  C   UNL A   1      47.130  19.582  37.092  1.00  0.00     0.116 C 
BRANCH   2   3
ATOM      3  N   UNL A   1      48.038  19.587  38.222  1.00  0.00    -0.353 N 
ATOM      4  C   UNL A   1      47.868  19.190  39.511  1.00  0.00     0.243 C 
ATOM      5  O   UNL A   1      48.807  19.273  40.299  1.00  0.00    -0.270 OA
ATOM      6  H   UNL A   1      48.936  19.938  38.022  1.00  0.00     0.163 HD
BRANCH   4   7
ATOM      7  C   UNL A   1      46.608  18.552  39.946  1.00  0.00     0.072 C 
ATOM      8  C   UNL A   1      46.218  17.315  39.607  1.00  0.00     0.014 C 
BRANCH   8   9
ATOM      9  C   UNL A   1      45.002  16.671  40.120  1.00  0.00    -0.025 A 
ATOM     10  C   UNL A   1      42.608  15.438  40.991  1.00  0.00    -0.029 A 
ATOM     11  C   UNL A   1      43.518  15.970  41.915  1.00  0.00     0.006 A 
ATOM     12  C   UNL A   1      42.907  15.544  39.627  1.00  0.00     0.006 A 
ATOM     13  C   UNL A   1      44.694  16.592  41.482  1.00  0.00     0.008 A 
ATOM     14  C   UNL A   1      44.093  16.141  39.196  1.00  0.00     0.008 A 
BRANCH  10  15
ATOM     15  C   UNL A   1      41.321  14.804  41.464  1.00  0.00     0.155 C 
BRANCH  15  16
ATOM     16  N   UNL A   1      41.506  13.566  42.201  1.00  0.00    -0.338 N 
ATOM     17  C   UNL A   1      42.253  12.239  43.961  1.00  0.00     0.017 C 
ATOM     18  C   UNL A   1      41.955  11.339  42.750  1.00  0.00     0.105 C 
ATOM     19  C   UNL A   1      41.433  13.479  43.635  1.00  0.00     0.124 C 
ATOM     20  C   UNL A   1      41.789  12.337  41.622  1.00  0.00     0.223 C 
ATOM     21  O   UNL A   1      41.870  12.086  40.435  1.00  0.00    -0.275 OA
BRANCH  17  22
ATOM     22  C   UNL A   1      43.770  12.490  44.092  1.00  0.00     0.002 C 
ATOM     23  C   UNL A   1      44.166  13.431  45.222  1.00  0.00     0.004 C 
ENDBRANCH  17  22
ENDBRANCH  15  16
ENDBRANCH  10  15
ENDBRANCH   8   9
ENDBRANCH   4   7
ENDBRANCH   2   3
ENDBRANCH   1   2
BRANCH   1  24
ATOM     24  C   UNL A   1      45.643  21.079  35.647  1.00  0.00     0.002 C 
BRANCH  24  25
ATOM     25  C   UNL A   1      45.922  22.262  34.713  1.00  0.00     0.002 C 
BRANCH  25  26
ATOM     26  C   UNL A   1      47.404  22.508  34.419  1.00  0.00     0.021 C 
BRANCH  26  27
ATOM     27  C   UNL A   1      47.857  23.938  34.684  1.00  0.00     0.116 C 
BRANCH  27  28
ATOM     28  N   UNL A   1      47.738  24.280  36.091  1.00  0.00    -0.352 N 
ATOM     29  C   UNL A   1      47.040  25.297  36.687  1.00  0.00     0.251 C 
ATOM     30  H   UNL A   1      48.231  23.693  36.709  1.00  0.00     0.163 HD
ATOM     31  O   UNL A   1      47.266  25.596  37.855  1.00  0.00    -0.269 OA
BRANCH  29  32
ATOM     32  C   UNL A   1      46.013  26.037  35.925  1.00  0.00     0.039 A 
ATOM     33  C   UNL A   1      44.724  25.507  35.846  1.00  0.00     0.014 A 
ATOM     34  C   UNL A   1      46.330  27.219  35.246  1.00  0.00     0.014 A 
ATOM     35  C   UNL A   1      43.750  26.171  35.100  1.00  0.00     0.010 A 
ATOM     36  C   UNL A   1      45.334  27.927  34.581  1.00  0.00     0.010 A 
ATOM     37  C   UNL A   1      44.043  27.394  34.474  1.00  0.00    -0.014 A 
BRANCH  37  38
ATOM     38  C   UNL A   1      43.011  28.094  33.669  1.00  0.00     0.031 A 
ATOM     39  C   UNL A   1      42.854  27.790  32.205  1.00  0.00     0.074 A 
ATOM     40  C   UNL A   1      42.227  29.016  34.256  1.00  0.00     0.049 A 
ATOM     41  N   UNL A   1      41.994  28.276  31.345  1.00  0.00    -0.248 NA
ATOM     42  C   UNL A   1      43.807  26.834  31.621  1.00  0.00     0.031 C 
ATOM     43  C   UNL A   1      42.325  29.441  35.653  1.00  0.00     0.029 A 
ATOM     44  N   UNL A   1      41.189  29.759  33.752  1.00  0.00    -0.354 N 
ATOM     45  C   UNL A   1      42.305  27.686  30.127  1.00  0.00     0.074 A 
ATOM     46  C   UNL A   1      43.481  26.872  30.340  1.00  0.00     0.031 C 
ATOM     47  C   UNL A   1      41.366  30.345  35.904  1.00  0.00     0.029 A 
ATOM     48  C   UNL A   1      40.607  30.586  34.680  1.00  0.00     0.049 A 
ATOM     49  H   UNL A   1      40.892  29.705  32.815  1.00  0.00     0.167 HD
ATOM     50  C   UNL A   1      41.650  27.786  28.944  1.00  0.00     0.037 A 
ATOM     51  C   UNL A   1      39.574  31.440  34.557  1.00  0.00     0.037 A 
ATOM     52  C   UNL A   1      40.480  28.600  28.740  1.00  0.00     0.049 A 
ATOM     53  C   UNL A   1      38.858  31.535  33.237  1.00  0.00     0.074 A 
ATOM     54  C   UNL A   1      39.719  28.750  27.594  1.00  0.00     0.029 A 
ATOM     55  N   UNL A   1      39.906  29.413  29.708  1.00  0.00    -0.354 N 
ATOM     56  N   UNL A   1      39.115  30.920  32.108  1.00  0.00    -0.248 NA
ATOM     57  C   UNL A   1      37.695  32.428  33.183  1.00  0.00     0.031 C 
ATOM     58  C   UNL A   1      38.720  29.696  27.852  1.00  0.00     0.029 A 
ATOM     59  C   UNL A   1      38.813  30.083  29.180  1.00  0.00     0.049 A 
ATOM     60  H   UNL A   1      40.228  29.502  30.634  1.00  0.00     0.167 HD
ATOM     61  C   UNL A   1      38.131  31.326  31.218  1.00  0.00     0.074 A 
ATOM     62  C   UNL A   1      37.261  32.227  31.948  1.00  0.00     0.031 C 
ATOM     63  C   UNL A   1      37.958  30.983  29.917  1.00  0.00     0.037 A 
BRANCH  50  64
ATOM     64  C   UNL A   1      42.198  26.994  27.788  1.00  0.00     0.064 A 
ATOM     65  C   UNL A   1      41.841  25.652  27.574  1.00  0.00     0.173 A 
ATOM     66  C   UNL A   1      43.098  27.580  26.883  1.00  0.00     0.173 A 
ATOM     67  F   UNL A   1      40.993  25.037  28.413  1.00  0.00    -0.203 F 
ATOM     68  C   UNL A   1      42.403  24.914  26.535  1.00  0.00     0.198 A 
ATOM     69  C   UNL A   1      43.626  26.850  25.821  1.00  0.00     0.198 A 
ATOM     70  F   UNL A   1      43.470  28.860  27.032  1.00  0.00    -0.203 F 
ATOM     71  F   UNL A   1      42.105  23.614  26.401  1.00  0.00    -0.200 F 
ATOM     72  C   UNL A   1      43.291  25.514  25.657  1.00  0.00     0.200 A 
ATOM     73  F   UNL A   1      44.473  27.437  24.964  1.00  0.00    -0.200 F 
ATOM     74  F   UNL A   1      43.834  24.803  24.659  1.00  0.00    -0.200 F 
ENDBRANCH  50  64
BRANCH  51  75
ATOM     75  C   UNL A   1      39.139  32.237  35.733  1.00  0.00     0.064 A 
ATOM     76  C   UNL A   1      39.581  33.553  35.924  1.00  0.00     0.173 A 
ATOM     77  C   UNL A   1      38.249  31.703  36.679  1.00  0.00     0.173 A 
ATOM     78  F   UNL A   1      40.444  34.101  35.056  1.00  0.00    -0.203 F 
ATOM     79  C   UNL A   1      39.166  34.298  37.026  1.00  0.00     0.198 A 
ATOM     80  C   UNL A   1      37.810  32.462  37.761  1.00  0.00     0.198 A 
ATOM     81  F   UNL A   1      37.788  30.452  36.535  1.00  0.00    -0.203 F 
ATOM     82  F   UNL A   1      39.637  35.540  37.207  1.00  0.00    -0.200 F 
ATOM     83  C   UNL A   1      38.274  33.755  37.938  1.00  0.00     0.200 A 
ATOM     84  F   UNL A   1      36.933  31.939  38.629  1.00  0.00    -0.200 F 
ATOM     85  F   UNL A   1      37.865  34.478  38.990  1.00  0.00    -0.200 F 
ENDBRANCH  51  75
BRANCH  63  86
ATOM     86  C   UNL A   1      36.758  31.552  29.212  1.00  0.00     0.064 A 
ATOM     87  C   UNL A   1      36.677  32.906  28.853  1.00  0.00     0.173 A 
ATOM     88  C   UNL A   1      35.672  30.723  28.887  1.00  0.00     0.173 A 
ATOM     89  F   UNL A   1      37.681  33.744  29.148  1.00  0.00    -0.203 F 
ATOM     90  C   UNL A   1      35.534  33.419  28.242  1.00  0.00     0.198 A 
ATOM     91  C   UNL A   1      34.549  31.231  28.240  1.00  0.00     0.198 A 
ATOM     92  F   UNL A   1      35.699  29.418  29.195  1.00  0.00    -0.203 F 
ATOM     93  F   UNL A   1      35.451  34.729  27.978  1.00  0.00    -0.200 F 
ATOM     94  C   UNL A   1      34.474  32.580  27.932  1.00  0.00     0.200 A 
ATOM     95  F   UNL A   1      33.533  30.415  27.924  1.00  0.00    -0.200 F 
ATOM     96  F   UNL A   1      33.376  33.076  27.347  1.00  0.00    -0.200 F 
ENDBRANCH  63  86
ENDBRANCH  37  38
ENDBRANCH  29  32
ENDBRANCH  27  28
ENDBRANCH  26  27
ENDBRANCH  25  26
ENDBRANCH  24  25
ENDBRANCH   1  24
TORSDOF 17
ENDMDL
