MODEL 1
REMARK VINA RESULT:     -12.7      0.000      0.000
REMARK SMILES O=C(Nc1nc(C2CC2)cs1)N[C@@H]1C=C[C@@H](C(=O)NCCCCCCNC(=O)c2ccc(-c3c4nc(c(-c5c(F)c(F)c(F)c(F)c5F)c5ccc([nH]5)c(-c5c(F)c(F)c(F)c(F)c5F)c5nc(c(-c6c(F)c(F)c(F)c(F)c6F)c6ccc3[nH]6)C=C5)C=C4)cc2)C1
REMARK SMILES IDX 22 1 21 2 20 3 19 4 17 5 18 6 16 8 13 9 14 10 92 11 15 12
REMARK SMILES IDX 12 13 1 14 2 15 3 16 4 19 5 20 11 21 6 22 10 23 7 24 8 25
REMARK SMILES IDX 9 26 23 27 24 28 25 29 26 30 27 31 28 33 29 34 30 35 91 36
REMARK SMILES IDX 31 37 90 38 32 39 33 40 34 41 84 42 35 43 89 44 83 45 85 46
REMARK SMILES IDX 36 47 88 48 82 49 81 50 37 52 69 53 49 54 68 55 50 56 53 57
REMARK SMILES IDX 67 58 86 59 51 60 52 61 66 63 87 64 54 65 38 66 39 67 47 68
REMARK SMILES IDX 40 69 41 70 45 71 48 72 42 73 43 74 46 75 44 76 70 77 71 78
REMARK SMILES IDX 79 79 72 80 73 81 77 82 80 83 74 84 75 85 78 86 76 87 55 88
REMARK SMILES IDX 56 89 64 90 57 91 58 92 62 93 65 94 59 95 60 96 63 97 61 98
REMARK H PARENT 19 7 3 17 12 18 26 32 85 51 53 62
REMARK Flexibility Score: inf
ROOT
ATOM      1  C   UNL A   1      31.794  29.899  25.413  1.00  0.00     0.002 C 
ENDROOT
BRANCH   1   2
ATOM      2  C   UNL A   1      33.174  29.384  24.990  1.00  0.00     0.021 C 
BRANCH   2   3
ATOM      3  C   UNL A   1      33.322  29.165  23.486  1.00  0.00     0.116 C 
BRANCH   3   4
ATOM      4  N   UNL A   1      32.035  28.937  22.866  1.00  0.00    -0.356 N 
ATOM      5  C   UNL A   1      31.290  27.804  22.752  1.00  0.00     0.227 C 
ATOM      6  O   UNL A   1      30.222  27.898  22.139  1.00  0.00    -0.274 OA
ATOM      7  H   UNL A   1      31.629  29.736  22.459  1.00  0.00     0.163 HD
BRANCH   5   8
ATOM      8  C   UNL A   1      31.730  26.468  23.352  1.00  0.00     0.103 C 
ATOM      9  C   UNL A   1      30.767  24.785  24.858  1.00  0.00     0.107 C 
ATOM     10  C   UNL A   1      30.678  24.363  23.429  1.00  0.00    -0.006 C 
ATOM     11  C   UNL A   1      31.292  26.232  24.805  1.00  0.00     0.047 C 
ATOM     12  C   UNL A   1      31.192  25.283  22.603  1.00  0.00    -0.016 C 
BRANCH   9  13
ATOM     13  N   UNL A   1      31.597  23.875  25.612  1.00  0.00    -0.332 N 
ATOM     14  O   UNL A   1      30.150  23.384  27.317  1.00  0.00    -0.248 OA
ATOM     15  C   UNL A   1      31.208  23.190  26.722  1.00  0.00     0.321 C 
ATOM     16  N   UNL A   1      31.985  22.152  27.120  1.00  0.00    -0.284 N 
ATOM     17  H   UNL A   1      31.675  21.642  27.903  1.00  0.00     0.174 HD
ATOM     18  H   UNL A   1      32.520  23.741  25.298  1.00  0.00     0.165 HD
BRANCH  16  19
ATOM     19  C   UNL A   1      33.150  21.744  26.547  1.00  0.00     0.191 A 
ATOM     20  N   UNL A   1      34.346  22.273  26.647  1.00  0.00    -0.225 NA
ATOM     21  S   UNL A   1      32.981  20.392  25.523  1.00  0.00    -0.105 S 
ATOM     22  C   UNL A   1      35.204  21.569  25.820  1.00  0.00     0.057 A 
ATOM     23  C   UNL A   1      34.622  20.574  25.060  1.00  0.00     0.092 A 
BRANCH  22  24
ATOM     24  C   UNL A   1      36.699  21.846  25.753  1.00  0.00     0.039 C 
ATOM     25  C   UNL A   1      37.388  21.928  24.410  1.00  0.00     0.011 C 
ATOM     26  C   UNL A   1      37.133  23.180  25.182  1.00  0.00     0.011 C 
ENDBRANCH  22  24
ENDBRANCH  16  19
ENDBRANCH   9  13
ENDBRANCH   5   8
ENDBRANCH   3   4
ENDBRANCH   2   3
ENDBRANCH   1   2
BRANCH   1  27
ATOM     27  C   UNL A   1      31.740  30.539  26.804  1.00  0.00     0.002 C 
BRANCH  27  28
ATOM     28  C   UNL A   1      31.556  32.057  26.809  1.00  0.00     0.021 C 
BRANCH  28  29
ATOM     29  C   UNL A   1      32.779  32.839  27.269  1.00  0.00     0.116 C 
BRANCH  29  30
ATOM     30  N   UNL A   1      32.459  34.220  27.600  1.00  0.00    -0.352 N 
ATOM     31  C   UNL A   1      32.984  35.012  28.589  1.00  0.00     0.251 C 
ATOM     32  H   UNL A   1      31.771  34.642  27.037  1.00  0.00     0.163 HD
ATOM     33  O   UNL A   1      32.480  36.097  28.857  1.00  0.00    -0.269 OA
BRANCH  31  34
ATOM     34  C   UNL A   1      34.154  34.533  29.351  1.00  0.00     0.039 A 
ATOM     35  C   UNL A   1      33.958  33.952  30.605  1.00  0.00     0.014 A 
ATOM     36  C   UNL A   1      35.439  34.632  28.810  1.00  0.00     0.014 A 
ATOM     37  C   UNL A   1      35.046  33.407  31.290  1.00  0.00     0.010 A 
ATOM     38  C   UNL A   1      36.507  34.019  29.454  1.00  0.00     0.010 A 
ATOM     39  C   UNL A   1      36.321  33.402  30.702  1.00  0.00    -0.014 A 
BRANCH  39  40
ATOM     40  C   UNL A   1      37.477  32.751  31.368  1.00  0.00     0.031 A 
ATOM     41  C   UNL A   1      38.151  31.572  30.728  1.00  0.00     0.074 A 
ATOM     42  C   UNL A   1      37.858  33.163  32.592  1.00  0.00     0.049 A 
ATOM     43  N   UNL A   1      39.109  30.810  31.192  1.00  0.00    -0.248 NA
ATOM     44  C   UNL A   1      37.655  31.173  29.402  1.00  0.00     0.031 C 
ATOM     45  C   UNL A   1      37.241  34.254  33.344  1.00  0.00     0.029 A 
ATOM     46  N   UNL A   1      38.840  32.694  33.428  1.00  0.00    -0.354 N 
ATOM     47  C   UNL A   1      39.313  29.833  30.227  1.00  0.00     0.074 A 
ATOM     48  C   UNL A   1      38.340  30.062  29.182  1.00  0.00     0.031 C 
ATOM     49  C   UNL A   1      37.864  34.380  34.526  1.00  0.00     0.029 A 
ATOM     50  C   UNL A   1      38.896  33.353  34.632  1.00  0.00     0.049 A 
ATOM     51  H   UNL A   1      39.446  31.957  33.188  1.00  0.00     0.167 HD
ATOM     52  C   UNL A   1      40.243  28.847  30.207  1.00  0.00     0.037 A 
ATOM     53  C   UNL A   1      39.679  33.142  35.707  1.00  0.00     0.037 A 
ATOM     54  C   UNL A   1      41.218  28.637  31.245  1.00  0.00     0.049 A 
ATOM     55  C   UNL A   1      40.710  32.050  35.662  1.00  0.00     0.074 A 
ATOM     56  C   UNL A   1      42.254  27.720  31.284  1.00  0.00     0.029 A 
ATOM     57  N   UNL A   1      41.269  29.347  32.436  1.00  0.00    -0.354 N 
ATOM     58  N   UNL A   1      40.956  31.183  34.709  1.00  0.00    -0.248 NA
ATOM     59  C   UNL A   1      41.581  31.911  36.837  1.00  0.00     0.031 C 
ATOM     60  C   UNL A   1      42.891  27.833  32.525  1.00  0.00     0.029 A 
ATOM     61  C   UNL A   1      42.297  28.866  33.234  1.00  0.00     0.049 A 
ATOM     62  H   UNL A   1      40.665  30.086  32.679  1.00  0.00     0.167 HD
ATOM     63  C   UNL A   1      42.020  30.412  35.156  1.00  0.00     0.074 A 
ATOM     64  C   UNL A   1      42.382  30.923  36.463  1.00  0.00     0.031 C 
ATOM     65  C   UNL A   1      42.642  29.378  34.538  1.00  0.00     0.037 A 
BRANCH  52  66
ATOM     66  C   UNL A   1      40.230  27.914  29.028  1.00  0.00     0.064 A 
ATOM     67  C   UNL A   1      39.511  26.708  29.043  1.00  0.00     0.173 A 
ATOM     68  C   UNL A   1      40.955  28.227  27.867  1.00  0.00     0.173 A 
ATOM     69  F   UNL A   1      38.807  26.353  30.129  1.00  0.00    -0.203 F 
ATOM     70  C   UNL A   1      39.562  25.827  27.964  1.00  0.00     0.198 A 
ATOM     71  C   UNL A   1      40.971  27.362  26.775  1.00  0.00     0.198 A 
ATOM     72  F   UNL A   1      41.654  29.369  27.793  1.00  0.00    -0.203 F 
ATOM     73  F   UNL A   1      38.930  24.647  28.035  1.00  0.00    -0.200 F 
ATOM     74  C   UNL A   1      40.288  26.157  26.831  1.00  0.00     0.200 A 
ATOM     75  F   UNL A   1      41.662  27.689  25.675  1.00  0.00    -0.200 F 
ATOM     76  F   UNL A   1      40.342  25.307  25.796  1.00  0.00    -0.200 F 
ENDBRANCH  52  66
BRANCH  53  77
ATOM     77  C   UNL A   1      39.516  34.006  36.904  1.00  0.00     0.064 A 
ATOM     78  C   UNL A   1      38.743  33.592  37.996  1.00  0.00     0.173 A 
ATOM     79  C   UNL A   1      40.170  35.244  36.999  1.00  0.00     0.173 A 
ATOM     80  F   UNL A   1      38.085  32.424  37.945  1.00  0.00    -0.203 F 
ATOM     81  C   UNL A   1      38.624  34.385  39.135  1.00  0.00     0.198 A 
ATOM     82  C   UNL A   1      40.072  36.023  38.148  1.00  0.00     0.198 A 
ATOM     83  F   UNL A   1      40.929  35.682  35.983  1.00  0.00    -0.203 F 
ATOM     84  F   UNL A   1      37.855  33.979  40.155  1.00  0.00    -0.200 F 
ATOM     85  C   UNL A   1      39.296  35.596  39.215  1.00  0.00     0.200 A 
ATOM     86  F   UNL A   1      40.739  37.184  38.228  1.00  0.00    -0.200 F 
ATOM     87  F   UNL A   1      39.196  36.349  40.318  1.00  0.00    -0.200 F 
ENDBRANCH  53  77
BRANCH  65  88
ATOM     88  C   UNL A   1      43.800  28.740  35.254  1.00  0.00     0.064 A 
ATOM     89  C   UNL A   1      45.114  29.199  35.087  1.00  0.00     0.173 A 
ATOM     90  C   UNL A   1      43.581  27.685  36.153  1.00  0.00     0.173 A 
ATOM     91  F   UNL A   1      45.379  30.195  34.228  1.00  0.00    -0.203 F 
ATOM     92  C   UNL A   1      46.171  28.609  35.776  1.00  0.00     0.198 A 
ATOM     93  C   UNL A   1      44.636  27.120  36.866  1.00  0.00     0.198 A 
ATOM     94  F   UNL A   1      42.343  27.213  36.355  1.00  0.00    -0.203 F 
ATOM     95  F   UNL A   1      47.425  29.030  35.565  1.00  0.00    -0.200 F 
ATOM     96  C   UNL A   1      45.931  27.576  36.671  1.00  0.00     0.200 A 
ATOM     97  F   UNL A   1      44.398  26.134  37.742  1.00  0.00    -0.200 F 
ATOM     98  F   UNL A   1      46.947  27.017  37.341  1.00  0.00    -0.200 F 
ENDBRANCH  65  88
ENDBRANCH  39  40
ENDBRANCH  31  34
ENDBRANCH  29  30
ENDBRANCH  28  29
ENDBRANCH  27  28
ENDBRANCH   1  27
TORSDOF 16
ENDMDL
MODEL 2
REMARK VINA RESULT:     -12.3      0.897      2.066
REMARK SMILES O=C(Nc1nc(C2CC2)cs1)N[C@@H]1C=C[C@@H](C(=O)NCCCCCCNC(=O)c2ccc(-c3c4nc(c(-c5c(F)c(F)c(F)c(F)c5F)c5ccc([nH]5)c(-c5c(F)c(F)c(F)c(F)c5F)c5nc(c(-c6c(F)c(F)c(F)c(F)c6F)c6ccc3[nH]6)C=C5)C=C4)cc2)C1
REMARK SMILES IDX 22 1 21 2 20 3 19 4 17 5 18 6 16 8 13 9 14 10 92 11 15 12
REMARK SMILES IDX 12 13 1 14 2 15 3 16 4 19 5 20 11 21 6 22 10 23 7 24 8 25
REMARK SMILES IDX 9 26 23 27 24 28 25 29 26 30 27 31 28 33 29 34 30 35 91 36
REMARK SMILES IDX 31 37 90 38 32 39 33 40 34 41 84 42 35 43 89 44 83 45 85 46
REMARK SMILES IDX 36 47 88 48 82 49 81 50 37 52 69 53 49 54 68 55 50 56 53 57
REMARK SMILES IDX 67 58 86 59 51 60 52 61 66 63 87 64 54 65 38 66 39 67 47 68
REMARK SMILES IDX 40 69 41 70 45 71 48 72 42 73 43 74 46 75 44 76 70 77 71 78
REMARK SMILES IDX 79 79 72 80 73 81 77 82 80 83 74 84 75 85 78 86 76 87 55 88
REMARK SMILES IDX 56 89 64 90 57 91 58 92 62 93 65 94 59 95 60 96 63 97 61 98
REMARK H PARENT 19 7 3 17 12 18 26 32 85 51 53 62
REMARK Flexibility Score: inf
ROOT
ATOM      1  C   UNL A   1      31.791  29.447  26.457  1.00  0.00     0.002 C 
ENDROOT
BRANCH   1   2
ATOM      2  C   UNL A   1      32.961  28.608  25.929  1.00  0.00     0.021 C 
BRANCH   2   3
ATOM      3  C   UNL A   1      33.249  28.808  24.443  1.00  0.00     0.116 C 
BRANCH   3   4
ATOM      4  N   UNL A   1      32.035  28.709  23.662  1.00  0.00    -0.356 N 
ATOM      5  C   UNL A   1      31.353  27.622  23.211  1.00  0.00     0.227 C 
ATOM      6  O   UNL A   1      30.342  27.839  22.534  1.00  0.00    -0.274 OA
ATOM      7  H   UNL A   1      31.635  29.574  23.417  1.00  0.00     0.163 HD
BRANCH   5   8
ATOM      8  C   UNL A   1      31.792  26.190  23.521  1.00  0.00     0.103 C 
ATOM      9  C   UNL A   1      30.864  24.259  24.720  1.00  0.00     0.107 C 
ATOM     10  C   UNL A   1      30.701  24.122  23.242  1.00  0.00    -0.006 C 
ATOM     11  C   UNL A   1      31.415  25.684  24.920  1.00  0.00     0.047 C 
ATOM     12  C   UNL A   1      31.196  25.178  22.585  1.00  0.00    -0.016 C 
BRANCH   9  13
ATOM     13  N   UNL A   1      31.708  23.212  25.243  1.00  0.00    -0.332 N 
ATOM     14  O   UNL A   1      31.278  23.474  27.477  1.00  0.00    -0.248 OA
ATOM     15  C   UNL A   1      31.791  22.847  26.552  1.00  0.00     0.321 C 
ATOM     16  N   UNL A   1      32.378  21.657  26.834  1.00  0.00    -0.284 N 
ATOM     17  H   UNL A   1      32.401  21.387  27.780  1.00  0.00     0.174 HD
ATOM     18  H   UNL A   1      32.270  22.722  24.601  1.00  0.00     0.165 HD
BRANCH  16  19
ATOM     19  C   UNL A   1      32.937  20.796  25.940  1.00  0.00     0.191 A 
ATOM     20  N   UNL A   1      32.377  19.801  25.295  1.00  0.00    -0.225 NA
ATOM     21  S   UNL A   1      34.605  21.043  25.694  1.00  0.00    -0.105 S 
ATOM     22  C   UNL A   1      33.356  19.153  24.561  1.00  0.00     0.057 A 
ATOM     23  C   UNL A   1      34.642  19.628  24.726  1.00  0.00     0.092 A 
BRANCH  22  24
ATOM     24  C   UNL A   1      33.051  18.002  23.612  1.00  0.00     0.039 C 
ATOM     25  C   UNL A   1      34.159  17.068  23.185  1.00  0.00     0.011 C 
ATOM     26  C   UNL A   1      33.142  16.598  24.172  1.00  0.00     0.011 C 
ENDBRANCH  22  24
ENDBRANCH  16  19
ENDBRANCH   9  13
ENDBRANCH   5   8
ENDBRANCH   3   4
ENDBRANCH   2   3
ENDBRANCH   1   2
BRANCH   1  27
ATOM     27  C   UNL A   1      31.721  30.876  25.911  1.00  0.00     0.002 C 
BRANCH  27  28
ATOM     28  C   UNL A   1      31.484  31.958  26.966  1.00  0.00     0.021 C 
BRANCH  28  29
ATOM     29  C   UNL A   1      32.734  32.726  27.374  1.00  0.00     0.116 C 
BRANCH  29  30
ATOM     30  N   UNL A   1      32.460  34.133  27.628  1.00  0.00    -0.352 N 
ATOM     31  C   UNL A   1      33.017  34.963  28.566  1.00  0.00     0.251 C 
ATOM     32  H   UNL A   1      31.780  34.543  27.047  1.00  0.00     0.163 HD
ATOM     33  O   UNL A   1      32.549  36.077  28.776  1.00  0.00    -0.269 OA
BRANCH  31  34
ATOM     34  C   UNL A   1      34.178  34.492  29.347  1.00  0.00     0.039 A 
ATOM     35  C   UNL A   1      33.962  33.851  30.568  1.00  0.00     0.014 A 
ATOM     36  C   UNL A   1      35.476  34.657  28.854  1.00  0.00     0.014 A 
ATOM     37  C   UNL A   1      35.046  33.315  31.266  1.00  0.00     0.010 A 
ATOM     38  C   UNL A   1      36.543  34.054  29.508  1.00  0.00     0.010 A 
ATOM     39  C   UNL A   1      36.339  33.378  30.722  1.00  0.00    -0.014 A 
BRANCH  39  40
ATOM     40  C   UNL A   1      37.494  32.738  31.398  1.00  0.00     0.031 A 
ATOM     41  C   UNL A   1      38.182  31.561  30.769  1.00  0.00     0.074 A 
ATOM     42  C   UNL A   1      37.864  33.158  32.624  1.00  0.00     0.049 A 
ATOM     43  N   UNL A   1      39.142  30.808  31.243  1.00  0.00    -0.248 NA
ATOM     44  C   UNL A   1      37.698  31.153  29.441  1.00  0.00     0.031 C 
ATOM     45  C   UNL A   1      37.234  34.249  33.367  1.00  0.00     0.029 A 
ATOM     46  N   UNL A   1      38.844  32.701  33.469  1.00  0.00    -0.354 N 
ATOM     47  C   UNL A   1      39.360  29.829  30.284  1.00  0.00     0.074 A 
ATOM     48  C   UNL A   1      38.393  30.046  29.231  1.00  0.00     0.031 C 
ATOM     49  C   UNL A   1      37.848  34.385  34.552  1.00  0.00     0.029 A 
ATOM     50  C   UNL A   1      38.886  33.365  34.670  1.00  0.00     0.049 A 
ATOM     51  H   UNL A   1      39.457  31.966  33.236  1.00  0.00     0.167 HD
ATOM     52  C   UNL A   1      40.297  28.849  30.275  1.00  0.00     0.037 A 
ATOM     53  C   UNL A   1      39.664  33.164  35.751  1.00  0.00     0.037 A 
ATOM     54  C   UNL A   1      41.267  28.651  31.321  1.00  0.00     0.049 A 
ATOM     55  C   UNL A   1      40.703  32.080  35.718  1.00  0.00     0.074 A 
ATOM     56  C   UNL A   1      42.309  27.742  31.371  1.00  0.00     0.029 A 
ATOM     57  N   UNL A   1      41.304  29.367  32.509  1.00  0.00    -0.354 N 
ATOM     58  N   UNL A   1      40.962  31.211  34.771  1.00  0.00    -0.248 NA
ATOM     59  C   UNL A   1      41.566  31.953  36.900  1.00  0.00     0.031 C 
ATOM     60  C   UNL A   1      42.936  27.866  32.616  1.00  0.00     0.029 A 
ATOM     61  C   UNL A   1      42.330  28.897  33.315  1.00  0.00     0.049 A 
ATOM     62  H   UNL A   1      40.693  30.102  32.744  1.00  0.00     0.167 HD
ATOM     63  C   UNL A   1      42.029  30.450  35.229  1.00  0.00     0.074 A 
ATOM     64  C   UNL A   1      42.378  30.969  36.536  1.00  0.00     0.031 C 
ATOM     65  C   UNL A   1      42.662  29.418  34.620  1.00  0.00     0.037 A 
BRANCH  52  66
ATOM     66  C   UNL A   1      40.299  27.911  29.100  1.00  0.00     0.064 A 
ATOM     67  C   UNL A   1      41.037  28.179  27.936  1.00  0.00     0.173 A 
ATOM     68  C   UNL A   1      39.544  26.728  29.136  1.00  0.00     0.173 A 
ATOM     69  F   UNL A   1      41.770  29.299  27.843  1.00  0.00    -0.203 F 
ATOM     70  C   UNL A   1      40.977  27.327  26.834  1.00  0.00     0.198 A 
ATOM     71  C   UNL A   1      39.518  25.859  28.048  1.00  0.00     0.198 A 
ATOM     72  F   UNL A   1      38.826  26.415  30.225  1.00  0.00    -0.203 F 
ATOM     73  F   UNL A   1      41.628  27.646  25.708  1.00  0.00    -0.200 F 
ATOM     74  C   UNL A   1      40.221  26.167  26.893  1.00  0.00     0.200 A 
ATOM     75  F   UNL A   1      38.798  24.730  28.111  1.00  0.00    -0.200 F 
ATOM     76  F   UNL A   1      40.159  25.351  25.831  1.00  0.00    -0.200 F 
ENDBRANCH  52  66
BRANCH  53  77
ATOM     77  C   UNL A   1      39.487  34.033  36.944  1.00  0.00     0.064 A 
ATOM     78  C   UNL A   1      38.722  33.611  38.039  1.00  0.00     0.173 A 
ATOM     79  C   UNL A   1      40.118  35.284  37.030  1.00  0.00     0.173 A 
ATOM     80  F   UNL A   1      38.085  32.432  37.995  1.00  0.00    -0.203 F 
ATOM     81  C   UNL A   1      38.589  34.410  39.173  1.00  0.00     0.198 A 
ATOM     82  C   UNL A   1      40.007  36.068  38.175  1.00  0.00     0.198 A 
ATOM     83  F   UNL A   1      40.868  35.729  36.011  1.00  0.00    -0.203 F 
ATOM     84  F   UNL A   1      37.828  33.995  40.196  1.00  0.00    -0.200 F 
ATOM     85  C   UNL A   1      39.239  35.632  39.245  1.00  0.00     0.200 A 
ATOM     86  F   UNL A   1      40.652  37.240  38.247  1.00  0.00    -0.200 F 
ATOM     87  F   UNL A   1      39.126  36.391  40.343  1.00  0.00    -0.200 F 
ENDBRANCH  53  77
BRANCH  65  88
ATOM     88  C   UNL A   1      43.820  28.792  35.346  1.00  0.00     0.064 A 
ATOM     89  C   UNL A   1      43.647  27.699  36.208  1.00  0.00     0.173 A 
ATOM     90  C   UNL A   1      45.125  29.266  35.140  1.00  0.00     0.173 A 
ATOM     91  F   UNL A   1      42.419  27.217  36.451  1.00  0.00    -0.203 F 
ATOM     92  C   UNL A   1      44.736  27.119  36.856  1.00  0.00     0.198 A 
ATOM     93  C   UNL A   1      46.215  28.662  35.763  1.00  0.00     0.198 A 
ATOM     94  F   UNL A   1      45.347  30.304  34.321  1.00  0.00    -0.203 F 
ATOM     95  F   UNL A   1      44.543  26.107  37.712  1.00  0.00    -0.200 F 
ATOM     96  C   UNL A   1      46.018  27.595  36.626  1.00  0.00     0.200 A 
ATOM     97  F   UNL A   1      47.454  29.113  35.526  1.00  0.00    -0.200 F 
ATOM     98  F   UNL A   1      47.065  27.029  37.241  1.00  0.00    -0.200 F 
ENDBRANCH  65  88
ENDBRANCH  39  40
ENDBRANCH  31  34
ENDBRANCH  29  30
ENDBRANCH  28  29
ENDBRANCH  27  28
ENDBRANCH   1  27
TORSDOF 16
ENDMDL
MODEL 3
REMARK VINA RESULT:     -12.3      0.786      7.310
REMARK SMILES O=C(Nc1nc(C2CC2)cs1)N[C@@H]1C=C[C@@H](C(=O)NCCCCCCNC(=O)c2ccc(-c3c4nc(c(-c5c(F)c(F)c(F)c(F)c5F)c5ccc([nH]5)c(-c5c(F)c(F)c(F)c(F)c5F)c5nc(c(-c6c(F)c(F)c(F)c(F)c6F)c6ccc3[nH]6)C=C5)C=C4)cc2)C1
REMARK SMILES IDX 22 1 21 2 20 3 19 4 17 5 18 6 16 8 13 9 14 10 92 11 15 12
REMARK SMILES IDX 12 13 1 14 2 15 3 16 4 19 5 20 11 21 6 22 10 23 7 24 8 25
REMARK SMILES IDX 9 26 23 27 24 28 25 29 26 30 27 31 28 33 29 34 30 35 91 36
REMARK SMILES IDX 31 37 90 38 32 39 33 40 34 41 84 42 35 43 89 44 83 45 85 46
REMARK SMILES IDX 36 47 88 48 82 49 81 50 37 52 69 53 49 54 68 55 50 56 53 57
REMARK SMILES IDX 67 58 86 59 51 60 52 61 66 63 87 64 54 65 38 66 39 67 47 68
REMARK SMILES IDX 40 69 41 70 45 71 48 72 42 73 43 74 46 75 44 76 70 77 71 78
REMARK SMILES IDX 79 79 72 80 73 81 77 82 80 83 74 84 75 85 78 86 76 87 55 88
REMARK SMILES IDX 56 89 64 90 57 91 58 92 62 93 65 94 59 95 60 96 63 97 61 98
REMARK H PARENT 19 7 3 17 12 18 26 32 85 51 53 62
REMARK Flexibility Score: inf
ROOT
ATOM      1  C   UNL A   1      31.763  29.980  25.444  1.00  0.00     0.002 C 
ENDROOT
BRANCH   1   2
ATOM      2  C   UNL A   1      33.117  29.394  25.026  1.00  0.00     0.021 C 
BRANCH   2   3
ATOM      3  C   UNL A   1      33.303  29.273  23.516  1.00  0.00     0.116 C 
BRANCH   3   4
ATOM      4  N   UNL A   1      32.037  29.038  22.855  1.00  0.00    -0.356 N 
ATOM      5  C   UNL A   1      31.335  27.890  22.659  1.00  0.00     0.227 C 
ATOM      6  O   UNL A   1      30.277  27.984  22.028  1.00  0.00    -0.274 OA
ATOM      7  H   UNL A   1      31.613  29.846  22.486  1.00  0.00     0.163 HD
BRANCH   5   8
ATOM      8  C   UNL A   1      31.808  26.537  23.192  1.00  0.00     0.103 C 
ATOM      9  C   UNL A   1      30.931  24.805  24.695  1.00  0.00     0.107 C 
ATOM     10  C   UNL A   1      30.763  24.428  23.260  1.00  0.00    -0.006 C 
ATOM     11  C   UNL A   1      31.451  26.255  24.658  1.00  0.00     0.047 C 
ATOM     12  C   UNL A   1      31.230  25.374  22.437  1.00  0.00    -0.016 C 
BRANCH   9  13
ATOM     13  N   UNL A   1      31.803  23.874  25.372  1.00  0.00    -0.332 N 
ATOM     14  O   UNL A   1      30.549  23.497  27.251  1.00  0.00    -0.248 OA
ATOM     15  C   UNL A   1      31.518  23.236  26.540  1.00  0.00     0.321 C 
ATOM     16  N   UNL A   1      32.289  22.171  26.875  1.00  0.00    -0.284 N 
ATOM     17  H   UNL A   1      32.051  21.696  27.704  1.00  0.00     0.174 HD
ATOM     18  H   UNL A   1      32.675  23.686  24.955  1.00  0.00     0.165 HD
BRANCH  16  19
ATOM     19  C   UNL A   1      33.356  21.692  26.181  1.00  0.00     0.191 A 
ATOM     20  N   UNL A   1      34.438  22.325  25.795  1.00  0.00    -0.225 NA
ATOM     21  S   UNL A   1      33.205  20.058  25.720  1.00  0.00    -0.105 S 
ATOM     22  C   UNL A   1      35.207  21.453  25.042  1.00  0.00     0.057 A 
ATOM     23  C   UNL A   1      34.654  20.209  24.816  1.00  0.00     0.092 A 
BRANCH  22  24
ATOM     24  C   UNL A   1      36.584  21.820  24.506  1.00  0.00     0.039 C 
ATOM     25  C   UNL A   1      37.380  22.917  25.173  1.00  0.00     0.011 C 
ATOM     26  C   UNL A   1      37.778  21.493  25.378  1.00  0.00     0.011 C 
ENDBRANCH  22  24
ENDBRANCH  16  19
ENDBRANCH   9  13
ENDBRANCH   5   8
ENDBRANCH   3   4
ENDBRANCH   2   3
ENDBRANCH   1   2
BRANCH   1  27
ATOM     27  C   UNL A   1      31.730  30.599  26.845  1.00  0.00     0.002 C 
BRANCH  27  28
ATOM     28  C   UNL A   1      31.596  32.122  26.873  1.00  0.00     0.021 C 
BRANCH  28  29
ATOM     29  C   UNL A   1      32.883  32.863  27.212  1.00  0.00     0.116 C 
BRANCH  29  30
ATOM     30  N   UNL A   1      32.632  34.214  27.690  1.00  0.00    -0.352 N 
ATOM     31  C   UNL A   1      33.177  34.859  28.771  1.00  0.00     0.251 C 
ATOM     32  H   UNL A   1      31.982  34.735  27.168  1.00  0.00     0.163 HD
ATOM     33  O   UNL A   1      32.728  35.935  29.152  1.00  0.00    -0.269 OA
BRANCH  31  34
ATOM     34  C   UNL A   1      34.301  34.231  29.494  1.00  0.00     0.039 A 
ATOM     35  C   UNL A   1      34.028  33.375  30.564  1.00  0.00     0.014 A 
ATOM     36  C   UNL A   1      35.619  34.465  29.093  1.00  0.00     0.014 A 
ATOM     37  C   UNL A   1      35.078  32.700  31.190  1.00  0.00     0.010 A 
ATOM     38  C   UNL A   1      36.653  33.733  29.663  1.00  0.00     0.010 A 
ATOM     39  C   UNL A   1      36.392  32.844  30.719  1.00  0.00    -0.014 A 
BRANCH  39  40
ATOM     40  C   UNL A   1      37.513  32.070  31.308  1.00  0.00     0.031 A 
ATOM     41  C   UNL A   1      38.032  32.412  32.675  1.00  0.00     0.074 A 
ATOM     42  C   UNL A   1      38.125  31.120  30.573  1.00  0.00     0.049 A 
ATOM     43  N   UNL A   1      39.059  31.920  33.321  1.00  0.00    -0.248 NA
ATOM     44  C   UNL A   1      37.322  33.478  33.397  1.00  0.00     0.031 C 
ATOM     45  C   UNL A   1      37.755  30.741  29.211  1.00  0.00     0.029 A 
ATOM     46  N   UNL A   1      39.202  30.320  30.863  1.00  0.00    -0.354 N 
ATOM     47  C   UNL A   1      39.129  32.631  34.512  1.00  0.00     0.074 A 
ATOM     48  C   UNL A   1      38.081  33.626  34.472  1.00  0.00     0.031 C 
ATOM     49  C   UNL A   1      38.583  29.775  28.784  1.00  0.00     0.029 A 
ATOM     50  C   UNL A   1      39.567  29.496  29.827  1.00  0.00     0.049 A 
ATOM     51  H   UNL A   1      39.668  30.337  31.730  1.00  0.00     0.167 HD
ATOM     52  C   UNL A   1      39.979  32.454  35.552  1.00  0.00     0.037 A 
ATOM     53  C   UNL A   1      40.589  28.626  29.722  1.00  0.00     0.037 A 
ATOM     54  C   UNL A   1      41.010  31.449  35.590  1.00  0.00     0.049 A 
ATOM     55  C   UNL A   1      41.515  28.436  30.890  1.00  0.00     0.074 A 
ATOM     56  C   UNL A   1      41.870  31.132  36.626  1.00  0.00     0.029 A 
ATOM     57  N   UNL A   1      41.328  30.604  34.535  1.00  0.00    -0.354 N 
ATOM     58  N   UNL A   1      41.522  29.052  32.048  1.00  0.00    -0.248 NA
ATOM     59  C   UNL A   1      42.570  27.425  30.742  1.00  0.00     0.031 C 
ATOM     60  C   UNL A   1      42.750  30.141  36.176  1.00  0.00     0.029 A 
ATOM     61  C   UNL A   1      42.396  29.790  34.883  1.00  0.00     0.049 A 
ATOM     62  H   UNL A   1      40.863  30.585  33.667  1.00  0.00     0.167 HD
ATOM     63  C   UNL A   1      42.563  28.489  32.775  1.00  0.00     0.074 A 
ATOM     64  C   UNL A   1      43.157  27.473  31.931  1.00  0.00     0.031 C 
ATOM     65  C   UNL A   1      42.984  28.787  34.029  1.00  0.00     0.037 A 
BRANCH  52  66
ATOM     66  C   UNL A   1      39.834  33.383  36.725  1.00  0.00     0.064 A 
ATOM     67  C   UNL A   1      38.914  33.139  37.757  1.00  0.00     0.173 A 
ATOM     68  C   UNL A   1      40.623  34.541  36.814  1.00  0.00     0.173 A 
ATOM     69  F   UNL A   1      38.128  32.052  37.720  1.00  0.00    -0.203 F 
ATOM     70  C   UNL A   1      38.750  34.045  38.804  1.00  0.00     0.198 A 
ATOM     71  C   UNL A   1      40.484  35.424  37.883  1.00  0.00     0.198 A 
ATOM     72  F   UNL A   1      41.524  34.822  35.862  1.00  0.00    -0.203 F 
ATOM     73  F   UNL A   1      37.810  33.828  39.734  1.00  0.00    -0.200 F 
ATOM     74  C   UNL A   1      39.538  35.183  38.868  1.00  0.00     0.200 A 
ATOM     75  F   UNL A   1      41.257  36.517  37.951  1.00  0.00    -0.200 F 
ATOM     76  F   UNL A   1      39.376  36.056  39.872  1.00  0.00    -0.200 F 
ENDBRANCH  52  66
BRANCH  53  77
ATOM     77  C   UNL A   1      40.764  27.861  28.460  1.00  0.00     0.064 A 
ATOM     78  C   UNL A   1      41.555  28.359  27.417  1.00  0.00     0.173 A 
ATOM     79  C   UNL A   1      40.182  26.595  28.293  1.00  0.00     0.173 A 
ATOM     80  F   UNL A   1      42.118  29.572  27.523  1.00  0.00    -0.203 F 
ATOM     81  C   UNL A   1      41.752  27.622  26.250  1.00  0.00     0.198 A 
ATOM     82  C   UNL A   1      40.402  25.849  27.139  1.00  0.00     0.198 A 
ATOM     83  F   UNL A   1      39.423  26.071  29.268  1.00  0.00    -0.203 F 
ATOM     84  F   UNL A   1      42.490  28.134  25.255  1.00  0.00    -0.200 F 
ATOM     85  C   UNL A   1      41.184  26.364  26.116  1.00  0.00     0.200 A 
ATOM     86  F   UNL A   1      39.867  24.626  27.021  1.00  0.00    -0.200 F 
ATOM     87  F   UNL A   1      41.389  25.650  25.001  1.00  0.00    -0.200 F 
ENDBRANCH  53  77
BRANCH  65  88
ATOM     88  C   UNL A   1      44.130  27.986  34.581  1.00  0.00     0.064 A 
ATOM     89  C   UNL A   1      43.928  26.765  35.241  1.00  0.00     0.173 A 
ATOM     90  C   UNL A   1      45.451  28.426  34.405  1.00  0.00     0.173 A 
ATOM     91  F   UNL A   1      42.684  26.307  35.448  1.00  0.00    -0.203 F 
ATOM     92  C   UNL A   1      45.005  26.027  35.727  1.00  0.00     0.198 A 
ATOM     93  C   UNL A   1      46.527  27.669  34.862  1.00  0.00     0.198 A 
ATOM     94  F   UNL A   1      45.701  29.583  33.775  1.00  0.00    -0.203 F 
ATOM     95  F   UNL A   1      44.786  24.888  36.397  1.00  0.00    -0.200 F 
ATOM     96  C   UNL A   1      46.303  26.475  35.529  1.00  0.00     0.200 A 
ATOM     97  F   UNL A   1      47.781  28.096  34.655  1.00  0.00    -0.200 F 
ATOM     98  F   UNL A   1      47.338  25.758  35.988  1.00  0.00    -0.200 F 
ENDBRANCH  65  88
ENDBRANCH  39  40
ENDBRANCH  31  34
ENDBRANCH  29  30
ENDBRANCH  28  29
ENDBRANCH  27  28
ENDBRANCH   1  27
TORSDOF 16
ENDMDL
