MODEL 1
REMARK VINA RESULT:     -14.2      0.000      0.000
REMARK SMILES O=C(Cn1c(-c2nc(-c3ccc(C(F)(F)F)cc3)no2)cc2ccccc21)NCCCCCCNC(=O)c1ccc(-c2c3nc(c(-c4c(F)c(F)c(F)c(F)c4F)c4ccc([nH]4)c(-c4c(F)c(F)c(F)c(F)c4F)c4nc(c(-c5c(F)c(F)c(F)c(F)c5F)c5ccc2[nH]5)C=C4)C=C3)cc1
REMARK SMILES IDX 30 1 29 2 28 3 1 4 2 5 3 7 4 8 5 9 27 10 21 11 22 12 26 13
REMARK SMILES IDX 23 14 25 15 24 16 6 17 7 18 20 19 8 20 19 21 9 22 10 23
REMARK SMILES IDX 18 24 11 25 17 26 12 27 13 28 14 29 15 30 16 31 31 32 32 33
REMARK SMILES IDX 33 34 34 35 35 36 36 37 37 39 38 40 39 41 100 42 40 43 99 44
REMARK SMILES IDX 41 45 42 46 43 47 93 48 44 49 98 50 92 51 94 52 45 53 97 54
REMARK SMILES IDX 91 55 90 56 46 58 78 59 58 60 77 61 59 62 62 63 76 64 95 65
REMARK SMILES IDX 60 66 61 67 75 69 96 70 63 71 47 72 48 73 56 74 49 75 50 76
REMARK SMILES IDX 54 77 57 78 51 79 52 80 55 81 53 82 79 83 80 84 88 85 81 86
REMARK SMILES IDX 82 87 86 88 89 89 83 90 84 91 87 92 85 93 64 94 65 95 73 96
REMARK SMILES IDX 66 97 67 98 71 99 74 100 68 101 69 102 72 103 70 104
REMARK H PARENT 28 6 35 38 94 57 62 68
REMARK Flexibility Score: inf
ROOT
ATOM      1  C   UNL A   1      36.357  23.258  24.070  1.00  0.00     0.021 C 
ENDROOT
BRANCH   1   2
ATOM      2  C   UNL A   1      35.365  24.133  24.825  1.00  0.00     0.116 C 
BRANCH   2   3
ATOM      3  N   UNL A   1      34.446  24.845  23.962  1.00  0.00    -0.355 N 
ATOM      4  O   UNL A   1      33.917  26.455  25.523  1.00  0.00    -0.273 OA
ATOM      5  C   UNL A   1      33.839  26.016  24.372  1.00  0.00     0.239 C 
ATOM      6  H   UNL A   1      34.249  24.487  23.067  1.00  0.00     0.163 HD
BRANCH   5   7
ATOM      7  C   UNL A   1      32.990  26.680  23.324  1.00  0.00     0.222 C 
BRANCH   7   8
ATOM      8  N   UNL A   1      31.537  26.490  23.368  1.00  0.00    -0.327 N 
ATOM      9  C   UNL A   1      30.766  25.407  23.744  1.00  0.00     0.109 A 
ATOM     10  C   UNL A   1      30.696  27.596  23.152  1.00  0.00     0.049 A 
ATOM     11  C   UNL A   1      29.443  25.816  23.714  1.00  0.00     0.042 A 
ATOM     12  C   UNL A   1      29.386  27.181  23.378  1.00  0.00     0.000 A 
ATOM     13  C   UNL A   1      30.980  28.931  22.806  1.00  0.00     0.027 A 
ATOM     14  C   UNL A   1      28.328  28.105  23.279  1.00  0.00     0.010 A 
ATOM     15  C   UNL A   1      29.915  29.837  22.709  1.00  0.00     0.002 A 
ATOM     16  C   UNL A   1      28.606  29.431  22.946  1.00  0.00     0.001 A 
BRANCH   9  17
ATOM     17  C   UNL A   1      31.139  24.119  24.252  1.00  0.00     0.274 A 
ATOM     18  N   UNL A   1      31.709  23.110  23.621  1.00  0.00    -0.185 NA
ATOM     19  O   UNL A   1      30.784  23.786  25.534  1.00  0.00    -0.332 OA
ATOM     20  C   UNL A   1      31.711  22.106  24.581  1.00  0.00     0.202 A 
ATOM     21  N   UNL A   1      31.155  22.479  25.744  1.00  0.00    -0.057 NA
BRANCH  20  22
ATOM     22  C   UNL A   1      32.348  20.792  24.443  1.00  0.00     0.023 A 
ATOM     23  C   UNL A   1      32.171  20.074  23.244  1.00  0.00     0.013 A 
ATOM     24  C   UNL A   1      33.095  20.199  25.465  1.00  0.00     0.013 A 
ATOM     25  C   UNL A   1      32.710  18.798  23.072  1.00  0.00     0.014 A 
ATOM     26  C   UNL A   1      33.651  18.918  25.287  1.00  0.00     0.014 A 
ATOM     27  C   UNL A   1      33.463  18.205  24.090  1.00  0.00     0.056 A 
BRANCH  27  28
ATOM     28  C   UNL A   1      34.025  16.821  23.873  1.00  0.00     0.416 C 
ATOM     29  F   UNL A   1      35.111  16.579  24.661  1.00  0.00    -0.166 F 
ATOM     30  F   UNL A   1      33.127  15.841  24.174  1.00  0.00    -0.166 F 
ATOM     31  F   UNL A   1      34.428  16.581  22.596  1.00  0.00    -0.166 F 
ENDBRANCH  27  28
ENDBRANCH  20  22
ENDBRANCH   9  17
ENDBRANCH   7   8
ENDBRANCH   5   7
ENDBRANCH   2   3
ENDBRANCH   1   2
BRANCH   1  32
ATOM     32  C   UNL A   1      36.289  21.758  24.379  1.00  0.00     0.002 C 
BRANCH  32  33
ATOM     33  C   UNL A   1      37.543  21.134  24.999  1.00  0.00     0.002 C 
BRANCH  33  34
ATOM     34  C   UNL A   1      38.479  22.091  25.752  1.00  0.00     0.021 C 
BRANCH  34  35
ATOM     35  C   UNL A   1      39.655  21.423  26.464  1.00  0.00     0.116 C 
BRANCH  35  36
ATOM     36  N   UNL A   1      40.941  21.875  25.976  1.00  0.00    -0.352 N 
ATOM     37  C   UNL A   1      41.713  22.987  26.130  1.00  0.00     0.251 C 
ATOM     38  H   UNL A   1      41.365  21.211  25.386  1.00  0.00     0.163 HD
ATOM     39  O   UNL A   1      42.837  22.928  25.623  1.00  0.00    -0.269 OA
BRANCH  37  40
ATOM     40  C   UNL A   1      41.303  24.255  26.791  1.00  0.00     0.039 A 
ATOM     41  C   UNL A   1      40.355  25.162  26.317  1.00  0.00     0.014 A 
ATOM     42  C   UNL A   1      42.027  24.588  27.954  1.00  0.00     0.014 A 
ATOM     43  C   UNL A   1      40.215  26.409  26.927  1.00  0.00     0.010 A 
ATOM     44  C   UNL A   1      41.884  25.826  28.569  1.00  0.00     0.010 A 
ATOM     45  C   UNL A   1      41.025  26.764  28.013  1.00  0.00    -0.014 A 
BRANCH  45  46
ATOM     46  C   UNL A   1      40.927  28.123  28.543  1.00  0.00     0.031 A 
ATOM     47  C   UNL A   1      42.008  29.060  28.120  1.00  0.00     0.074 A 
ATOM     48  C   UNL A   1      39.903  28.548  29.314  1.00  0.00     0.049 A 
ATOM     49  N   UNL A   1      42.876  29.669  28.864  1.00  0.00    -0.248 NA
ATOM     50  C   UNL A   1      42.200  29.279  26.678  1.00  0.00     0.031 C 
ATOM     51  C   UNL A   1      38.644  27.868  29.634  1.00  0.00     0.029 A 
ATOM     52  N   UNL A   1      39.760  29.751  29.940  1.00  0.00    -0.354 N 
ATOM     53  C   UNL A   1      43.644  30.456  28.006  1.00  0.00     0.074 A 
ATOM     54  C   UNL A   1      43.247  30.105  26.666  1.00  0.00     0.031 C 
ATOM     55  C   UNL A   1      37.787  28.746  30.206  1.00  0.00     0.029 A 
ATOM     56  C   UNL A   1      38.486  29.998  30.435  1.00  0.00     0.049 A 
ATOM     57  H   UNL A   1      40.500  30.393  30.033  1.00  0.00     0.167 HD
ATOM     58  C   UNL A   1      44.445  31.458  28.465  1.00  0.00     0.037 A 
ATOM     59  C   UNL A   1      38.037  31.164  30.963  1.00  0.00     0.037 A 
ATOM     60  C   UNL A   1      44.737  31.311  29.864  1.00  0.00     0.049 A 
ATOM     61  C   UNL A   1      39.224  31.940  31.394  1.00  0.00     0.074 A 
ATOM     62  C   UNL A   1      45.429  30.386  30.620  1.00  0.00     0.029 A 
ATOM     63  N   UNL A   1      44.006  32.042  30.764  1.00  0.00    -0.354 N 
ATOM     64  N   UNL A   1      39.993  31.601  32.388  1.00  0.00    -0.248 NA
ATOM     65  C   UNL A   1      39.804  32.869  30.436  1.00  0.00     0.031 C 
ATOM     66  C   UNL A   1      44.697  30.283  31.840  1.00  0.00     0.029 A 
ATOM     67  C   UNL A   1      43.636  31.184  31.768  1.00  0.00     0.049 A 
ATOM     68  H   UNL A   1      43.790  33.001  30.702  1.00  0.00     0.167 HD
ATOM     69  C   UNL A   1      41.273  31.921  31.964  1.00  0.00     0.074 A 
ATOM     70  C   UNL A   1      41.086  32.772  30.791  1.00  0.00     0.031 C 
ATOM     71  C   UNL A   1      42.360  31.245  32.437  1.00  0.00     0.037 A 
BRANCH  58  72
ATOM     72  C   UNL A   1      44.727  32.736  27.717  1.00  0.00     0.064 A 
ATOM     73  C   UNL A   1      45.946  32.893  27.028  1.00  0.00     0.173 A 
ATOM     74  C   UNL A   1      43.973  33.914  27.903  1.00  0.00     0.173 A 
ATOM     75  F   UNL A   1      46.753  31.843  26.817  1.00  0.00    -0.203 F 
ATOM     76  C   UNL A   1      46.404  34.148  26.614  1.00  0.00     0.198 A 
ATOM     77  C   UNL A   1      44.410  35.157  27.446  1.00  0.00     0.198 A 
ATOM     78  F   UNL A   1      42.847  33.925  28.626  1.00  0.00    -0.203 F 
ATOM     79  F   UNL A   1      47.620  34.266  26.065  1.00  0.00    -0.200 F 
ATOM     80  C   UNL A   1      45.638  35.280  26.829  1.00  0.00     0.200 A 
ATOM     81  F   UNL A   1      43.664  36.245  27.682  1.00  0.00    -0.200 F 
ATOM     82  F   UNL A   1      46.100  36.489  26.489  1.00  0.00    -0.200 F 
ENDBRANCH  58  72
BRANCH  59  83
ATOM     83  C   UNL A   1      36.716  31.813  30.777  1.00  0.00     0.064 A 
ATOM     84  C   UNL A   1      35.862  32.030  31.872  1.00  0.00     0.173 A 
ATOM     85  C   UNL A   1      36.417  32.522  29.599  1.00  0.00     0.173 A 
ATOM     86  F   UNL A   1      36.101  31.423  33.044  1.00  0.00    -0.203 F 
ATOM     87  C   UNL A   1      34.801  32.940  31.806  1.00  0.00     0.198 A 
ATOM     88  C   UNL A   1      35.355  33.427  29.533  1.00  0.00     0.198 A 
ATOM     89  F   UNL A   1      37.212  32.433  28.523  1.00  0.00    -0.203 F 
ATOM     90  F   UNL A   1      34.055  33.178  32.895  1.00  0.00    -0.200 F 
ATOM     91  C   UNL A   1      34.560  33.649  30.642  1.00  0.00     0.200 A 
ATOM     92  F   UNL A   1      35.154  34.136  28.414  1.00  0.00    -0.200 F 
ATOM     93  F   UNL A   1      33.593  34.577  30.602  1.00  0.00    -0.200 F 
ENDBRANCH  59  83
BRANCH  71  94
ATOM     94  C   UNL A   1      42.144  30.307  33.592  1.00  0.00     0.064 A 
ATOM     95  C   UNL A   1      41.745  28.966  33.448  1.00  0.00     0.173 A 
ATOM     96  C   UNL A   1      42.477  30.744  34.881  1.00  0.00     0.173 A 
ATOM     97  F   UNL A   1      41.509  28.444  32.239  1.00  0.00    -0.203 F 
ATOM     98  C   UNL A   1      41.640  28.119  34.551  1.00  0.00     0.198 A 
ATOM     99  C   UNL A   1      42.407  29.887  35.974  1.00  0.00     0.198 A 
ATOM    100  F   UNL A   1      42.919  31.997  35.071  1.00  0.00    -0.203 F 
ATOM    101  F   UNL A   1      41.245  26.847  34.387  1.00  0.00    -0.200 F 
ATOM    102  C   UNL A   1      41.976  28.579  35.812  1.00  0.00     0.200 A 
ATOM    103  F   UNL A   1      42.781  30.321  37.186  1.00  0.00    -0.200 F 
ATOM    104  F   UNL A   1      41.915  27.754  36.868  1.00  0.00    -0.200 F 
ENDBRANCH  71  94
ENDBRANCH  45  46
ENDBRANCH  37  40
ENDBRANCH  35  36
ENDBRANCH  34  35
ENDBRANCH  33  34
ENDBRANCH  32  33
ENDBRANCH   1  32
TORSDOF 17
ENDMDL
MODEL 2
REMARK VINA RESULT:     -14.2      3.595      6.113
REMARK SMILES O=C(Cn1c(-c2nc(-c3ccc(C(F)(F)F)cc3)no2)cc2ccccc21)NCCCCCCNC(=O)c1ccc(-c2c3nc(c(-c4c(F)c(F)c(F)c(F)c4F)c4ccc([nH]4)c(-c4c(F)c(F)c(F)c(F)c4F)c4nc(c(-c5c(F)c(F)c(F)c(F)c5F)c5ccc2[nH]5)C=C4)C=C3)cc1
REMARK SMILES IDX 30 1 29 2 28 3 1 4 2 5 3 7 4 8 5 9 27 10 21 11 22 12 26 13
REMARK SMILES IDX 23 14 25 15 24 16 6 17 7 18 20 19 8 20 19 21 9 22 10 23
REMARK SMILES IDX 18 24 11 25 17 26 12 27 13 28 14 29 15 30 16 31 31 32 32 33
REMARK SMILES IDX 33 34 34 35 35 36 36 37 37 39 38 40 39 41 100 42 40 43 99 44
REMARK SMILES IDX 41 45 42 46 43 47 93 48 44 49 98 50 92 51 94 52 45 53 97 54
REMARK SMILES IDX 91 55 90 56 46 58 78 59 58 60 77 61 59 62 62 63 76 64 95 65
REMARK SMILES IDX 60 66 61 67 75 69 96 70 63 71 47 72 48 73 56 74 49 75 50 76
REMARK SMILES IDX 54 77 57 78 51 79 52 80 55 81 53 82 79 83 80 84 88 85 81 86
REMARK SMILES IDX 82 87 86 88 89 89 83 90 84 91 87 92 85 93 64 94 65 95 73 96
REMARK SMILES IDX 66 97 67 98 71 99 74 100 68 101 69 102 72 103 70 104
REMARK H PARENT 28 6 35 38 94 57 62 68
REMARK Flexibility Score: inf
ROOT
ATOM      1  C   UNL A   1      40.174  21.492  26.138  1.00  0.00     0.021 C 
ENDROOT
BRANCH   1   2
ATOM      2  C   UNL A   1      39.000  22.462  26.143  1.00  0.00     0.116 C 
BRANCH   2   3
ATOM      3  N   UNL A   1      37.890  22.032  25.319  1.00  0.00    -0.355 N 
ATOM      4  O   UNL A   1      36.403  23.572  26.170  1.00  0.00    -0.273 OA
ATOM      5  C   UNL A   1      36.675  22.688  25.353  1.00  0.00     0.239 C 
ATOM      6  H   UNL A   1      38.003  21.257  24.723  1.00  0.00     0.163 HD
BRANCH   5   7
ATOM      7  C   UNL A   1      35.660  22.177  24.368  1.00  0.00     0.222 C 
BRANCH   7   8
ATOM      8  N   UNL A   1      34.423  21.576  24.876  1.00  0.00    -0.327 N 
ATOM      9  C   UNL A   1      33.226  22.141  25.273  1.00  0.00     0.109 A 
ATOM     10  C   UNL A   1      34.281  20.177  24.848  1.00  0.00     0.049 A 
ATOM     11  C   UNL A   1      32.352  21.100  25.543  1.00  0.00     0.042 A 
ATOM     12  C   UNL A   1      32.983  19.876  25.254  1.00  0.00     0.000 A 
ATOM     13  C   UNL A   1      35.174  19.155  24.471  1.00  0.00     0.027 A 
ATOM     14  C   UNL A   1      32.544  18.539  25.274  1.00  0.00     0.010 A 
ATOM     15  C   UNL A   1      34.721  17.830  24.500  1.00  0.00     0.002 A 
ATOM     16  C   UNL A   1      33.422  17.524  24.893  1.00  0.00     0.001 A 
BRANCH   9  17
ATOM     17  C   UNL A   1      32.789  23.506  25.283  1.00  0.00     0.274 A 
ATOM     18  N   UNL A   1      31.983  24.126  24.442  1.00  0.00    -0.185 NA
ATOM     19  O   UNL A   1      33.329  24.367  26.202  1.00  0.00    -0.332 OA
ATOM     20  C   UNL A   1      32.028  25.443  24.884  1.00  0.00     0.202 A 
ATOM     21  N   UNL A   1      32.836  25.622  25.940  1.00  0.00    -0.057 NA
BRANCH  20  22
ATOM     22  C   UNL A   1      31.209  26.545  24.371  1.00  0.00     0.023 A 
ATOM     23  C   UNL A   1      31.710  27.859  24.450  1.00  0.00     0.013 A 
ATOM     24  C   UNL A   1      29.931  26.357  23.837  1.00  0.00     0.013 A 
ATOM     25  C   UNL A   1      30.958  28.955  24.025  1.00  0.00     0.014 A 
ATOM     26  C   UNL A   1      29.176  27.460  23.394  1.00  0.00     0.014 A 
ATOM     27  C   UNL A   1      29.682  28.768  23.484  1.00  0.00     0.056 A 
BRANCH  27  28
ATOM     28  C   UNL A   1      28.891  29.976  23.040  1.00  0.00     0.416 C 
ATOM     29  F   UNL A   1      27.551  29.729  23.010  1.00  0.00    -0.166 F 
ATOM     30  F   UNL A   1      29.050  31.039  23.878  1.00  0.00    -0.166 F 
ATOM     31  F   UNL A   1      29.219  30.425  21.799  1.00  0.00    -0.166 F 
ENDBRANCH  27  28
ENDBRANCH  20  22
ENDBRANCH   9  17
ENDBRANCH   7   8
ENDBRANCH   5   7
ENDBRANCH   2   3
ENDBRANCH   1   2
BRANCH   1  32
ATOM     32  C   UNL A   1      40.817  21.221  27.502  1.00  0.00     0.002 C 
BRANCH  32  33
ATOM     33  C   UNL A   1      42.063  20.328  27.502  1.00  0.00     0.002 C 
BRANCH  33  34
ATOM     34  C   UNL A   1      42.103  19.216  26.444  1.00  0.00     0.021 C 
BRANCH  34  35
ATOM     35  C   UNL A   1      43.490  18.638  26.163  1.00  0.00     0.116 C 
BRANCH  35  36
ATOM     36  N   UNL A   1      43.999  19.000  24.858  1.00  0.00    -0.352 N 
ATOM     37  C   UNL A   1      44.524  20.119  24.285  1.00  0.00     0.251 C 
ATOM     38  H   UNL A   1      43.956  18.248  24.224  1.00  0.00     0.163 HD
ATOM     39  O   UNL A   1      44.963  19.974  23.140  1.00  0.00    -0.269 OA
BRANCH  37  40
ATOM     40  C   UNL A   1      44.559  21.479  24.887  1.00  0.00     0.039 A 
ATOM     41  C   UNL A   1      45.369  21.891  25.945  1.00  0.00     0.014 A 
ATOM     42  C   UNL A   1      43.604  22.385  24.381  1.00  0.00     0.014 A 
ATOM     43  C   UNL A   1      45.156  23.131  26.547  1.00  0.00     0.010 A 
ATOM     44  C   UNL A   1      43.394  23.624  24.973  1.00  0.00     0.010 A 
ATOM     45  C   UNL A   1      44.126  23.969  26.101  1.00  0.00    -0.014 A 
BRANCH  45  46
ATOM     46  C   UNL A   1      43.863  25.205  26.839  1.00  0.00     0.031 A 
ATOM     47  C   UNL A   1      44.862  26.296  26.647  1.00  0.00     0.074 A 
ATOM     48  C   UNL A   1      42.763  25.395  27.600  1.00  0.00     0.049 A 
ATOM     49  N   UNL A   1      45.625  26.848  27.536  1.00  0.00    -0.248 NA
ATOM     50  C   UNL A   1      45.101  26.772  25.276  1.00  0.00     0.031 C 
ATOM     51  C   UNL A   1      41.567  24.556  27.720  1.00  0.00     0.029 A 
ATOM     52  N   UNL A   1      42.467  26.456  28.404  1.00  0.00    -0.354 N 
ATOM     53  C   UNL A   1      46.349  27.837  26.871  1.00  0.00     0.074 A 
ATOM     54  C   UNL A   1      46.057  27.683  25.469  1.00  0.00     0.031 C 
ATOM     55  C   UNL A   1      40.597  25.241  28.371  1.00  0.00     0.029 A 
ATOM     56  C   UNL A   1      41.151  26.496  28.847  1.00  0.00     0.049 A 
ATOM     57  H   UNL A   1      43.131  27.139  28.649  1.00  0.00     0.167 HD
ATOM     58  C   UNL A   1      47.019  28.817  27.540  1.00  0.00     0.037 A 
ATOM     59  C   UNL A   1      40.559  27.509  29.528  1.00  0.00     0.037 A 
ATOM     60  C   UNL A   1      47.255  28.463  28.912  1.00  0.00     0.049 A 
ATOM     61  C   UNL A   1      41.638  28.307  30.158  1.00  0.00     0.074 A 
ATOM     62  C   UNL A   1      48.000  27.492  29.551  1.00  0.00     0.029 A 
ATOM     63  N   UNL A   1      46.409  28.960  29.870  1.00  0.00    -0.354 N 
ATOM     64  N   UNL A   1      42.388  27.878  31.131  1.00  0.00    -0.248 NA
ATOM     65  C   UNL A   1      42.166  29.435  29.406  1.00  0.00     0.031 C 
ATOM     66  C   UNL A   1      47.223  27.115  30.686  1.00  0.00     0.029 A 
ATOM     67  C   UNL A   1      46.080  27.913  30.693  1.00  0.00     0.049 A 
ATOM     68  H   UNL A   1      46.099  29.890  29.952  1.00  0.00     0.167 HD
ATOM     69  C   UNL A   1      43.647  28.383  30.851  1.00  0.00     0.074 A 
ATOM     70  C   UNL A   1      43.431  29.399  29.824  1.00  0.00     0.031 C 
ATOM     71  C   UNL A   1      44.773  27.740  31.277  1.00  0.00     0.037 A 
BRANCH  58  72
ATOM     72  C   UNL A   1      47.204  30.223  27.032  1.00  0.00     0.064 A 
ATOM     73  C   UNL A   1      48.473  30.834  27.098  1.00  0.00     0.173 A 
ATOM     74  C   UNL A   1      46.123  31.089  26.761  1.00  0.00     0.173 A 
ATOM     75  F   UNL A   1      49.567  30.108  27.374  1.00  0.00    -0.203 F 
ATOM     76  C   UNL A   1      48.635  32.216  26.967  1.00  0.00     0.198 A 
ATOM     77  C   UNL A   1      46.295  32.461  26.582  1.00  0.00     0.198 A 
ATOM     78  F   UNL A   1      44.856  30.659  26.770  1.00  0.00    -0.203 F 
ATOM     79  F   UNL A   1      49.843  32.766  27.150  1.00  0.00    -0.200 F 
ATOM     80  C   UNL A   1      47.545  33.029  26.715  1.00  0.00     0.200 A 
ATOM     81  F   UNL A   1      45.224  33.236  26.360  1.00  0.00    -0.200 F 
ATOM     82  F   UNL A   1      47.688  34.359  26.649  1.00  0.00    -0.200 F 
ENDBRANCH  58  72
BRANCH  59  83
ATOM     83  C   UNL A   1      39.190  28.054  29.365  1.00  0.00     0.064 A 
ATOM     84  C   UNL A   1      38.360  28.260  30.480  1.00  0.00     0.173 A 
ATOM     85  C   UNL A   1      38.800  28.686  28.169  1.00  0.00     0.173 A 
ATOM     86  F   UNL A   1      38.682  27.724  31.668  1.00  0.00    -0.203 F 
ATOM     87  C   UNL A   1      37.235  29.088  30.416  1.00  0.00     0.198 A 
ATOM     88  C   UNL A   1      37.674  29.510  28.105  1.00  0.00     0.198 A 
ATOM     89  F   UNL A   1      39.562  28.605  27.069  1.00  0.00    -0.203 F 
ATOM     90  F   UNL A   1      36.512  29.322  31.521  1.00  0.00    -0.200 F 
ATOM     91  C   UNL A   1      36.903  29.725  29.233  1.00  0.00     0.200 A 
ATOM     92  F   UNL A   1      37.384  30.152  26.964  1.00  0.00    -0.200 F 
ATOM     93  F   UNL A   1      35.871  30.580  29.189  1.00  0.00    -0.200 F 
ENDBRANCH  59  83
BRANCH  71  94
ATOM     94  C   UNL A   1      44.598  26.605  32.247  1.00  0.00     0.064 A 
ATOM     95  C   UNL A   1      44.438  25.262  31.859  1.00  0.00     0.173 A 
ATOM     96  C   UNL A   1      44.726  26.868  33.616  1.00  0.00     0.173 A 
ATOM     97  F   UNL A   1      44.410  24.917  30.566  1.00  0.00    -0.203 F 
ATOM     98  C   UNL A   1      44.362  24.240  32.804  1.00  0.00     0.198 A 
ATOM     99  C   UNL A   1      44.686  25.841  34.555  1.00  0.00     0.198 A 
ATOM    100  F   UNL A   1      44.938  28.122  34.042  1.00  0.00    -0.203 F 
ATOM    101  F   UNL A   1      44.197  22.968  32.408  1.00  0.00    -0.200 F 
ATOM    102  C   UNL A   1      44.492  24.529  34.150  1.00  0.00     0.200 A 
ATOM    103  F   UNL A   1      44.864  26.120  35.855  1.00  0.00    -0.200 F 
ATOM    104  F   UNL A   1      44.460  23.542  35.058  1.00  0.00    -0.200 F 
ENDBRANCH  71  94
ENDBRANCH  45  46
ENDBRANCH  37  40
ENDBRANCH  35  36
ENDBRANCH  34  35
ENDBRANCH  33  34
ENDBRANCH  32  33
ENDBRANCH   1  32
TORSDOF 17
ENDMDL
MODEL 3
REMARK VINA RESULT:     -13.4      2.751      8.172
REMARK SMILES O=C(Cn1c(-c2nc(-c3ccc(C(F)(F)F)cc3)no2)cc2ccccc21)NCCCCCCNC(=O)c1ccc(-c2c3nc(c(-c4c(F)c(F)c(F)c(F)c4F)c4ccc([nH]4)c(-c4c(F)c(F)c(F)c(F)c4F)c4nc(c(-c5c(F)c(F)c(F)c(F)c5F)c5ccc2[nH]5)C=C4)C=C3)cc1
REMARK SMILES IDX 30 1 29 2 28 3 1 4 2 5 3 7 4 8 5 9 27 10 21 11 22 12 26 13
REMARK SMILES IDX 23 14 25 15 24 16 6 17 7 18 20 19 8 20 19 21 9 22 10 23
REMARK SMILES IDX 18 24 11 25 17 26 12 27 13 28 14 29 15 30 16 31 31 32 32 33
REMARK SMILES IDX 33 34 34 35 35 36 36 37 37 39 38 40 39 41 100 42 40 43 99 44
REMARK SMILES IDX 41 45 42 46 43 47 93 48 44 49 98 50 92 51 94 52 45 53 97 54
REMARK SMILES IDX 91 55 90 56 46 58 78 59 58 60 77 61 59 62 62 63 76 64 95 65
REMARK SMILES IDX 60 66 61 67 75 69 96 70 63 71 47 72 48 73 56 74 49 75 50 76
REMARK SMILES IDX 54 77 57 78 51 79 52 80 55 81 53 82 79 83 80 84 88 85 81 86
REMARK SMILES IDX 82 87 86 88 89 89 83 90 84 91 87 92 85 93 64 94 65 95 73 96
REMARK SMILES IDX 66 97 67 98 71 99 74 100 68 101 69 102 72 103 70 104
REMARK H PARENT 28 6 35 38 94 57 62 68
REMARK Flexibility Score: inf
ROOT
ATOM      1  C   UNL A   1      33.883  32.494  28.027  1.00  0.00     0.021 C 
ENDROOT
BRANCH   1   2
ATOM      2  C   UNL A   1      34.327  31.050  27.833  1.00  0.00     0.116 C 
BRANCH   2   3
ATOM      3  N   UNL A   1      33.234  30.140  27.565  1.00  0.00    -0.355 N 
ATOM      4  O   UNL A   1      34.372  28.928  25.970  1.00  0.00    -0.273 OA
ATOM      5  C   UNL A   1      33.378  29.085  26.685  1.00  0.00     0.239 C 
ATOM      6  H   UNL A   1      32.371  30.275  28.019  1.00  0.00     0.163 HD
BRANCH   5   7
ATOM      7  C   UNL A   1      32.182  28.179  26.594  1.00  0.00     0.222 C 
BRANCH   7   8
ATOM      8  N   UNL A   1      31.696  27.784  25.268  1.00  0.00    -0.327 N 
ATOM      9  C   UNL A   1      31.693  26.564  24.619  1.00  0.00     0.109 A 
ATOM     10  C   UNL A   1      30.950  28.706  24.511  1.00  0.00     0.049 A 
ATOM     11  C   UNL A   1      30.993  26.733  23.435  1.00  0.00     0.042 A 
ATOM     12  C   UNL A   1      30.499  28.048  23.369  1.00  0.00     0.000 A 
ATOM     13  C   UNL A   1      30.610  30.051  24.750  1.00  0.00     0.027 A 
ATOM     14  C   UNL A   1      29.679  28.724  22.446  1.00  0.00     0.010 A 
ATOM     15  C   UNL A   1      29.795  30.709  23.819  1.00  0.00     0.002 A 
ATOM     16  C   UNL A   1      29.332  30.054  22.682  1.00  0.00     0.001 A 
BRANCH   9  17
ATOM     17  C   UNL A   1      32.135  25.271  25.049  1.00  0.00     0.274 A 
ATOM     18  N   UNL A   1      32.417  24.206  24.323  1.00  0.00    -0.185 NA
ATOM     19  O   UNL A   1      32.192  25.003  26.392  1.00  0.00    -0.332 OA
ATOM     20  C   UNL A   1      32.670  23.234  25.283  1.00  0.00     0.202 A 
ATOM     21  N   UNL A   1      32.537  23.681  26.540  1.00  0.00    -0.057 NA
BRANCH  20  22
ATOM     22  C   UNL A   1      33.154  21.876  25.018  1.00  0.00     0.023 A 
ATOM     23  C   UNL A   1      32.242  20.905  24.560  1.00  0.00     0.013 A 
ATOM     24  C   UNL A   1      34.480  21.486  25.235  1.00  0.00     0.013 A 
ATOM     25  C   UNL A   1      32.631  19.583  24.338  1.00  0.00     0.014 A 
ATOM     26  C   UNL A   1      34.877  20.157  24.998  1.00  0.00     0.014 A 
ATOM     27  C   UNL A   1      33.957  19.193  24.548  1.00  0.00     0.056 A 
BRANCH  27  28
ATOM     28  C   UNL A   1      34.344  17.753  24.306  1.00  0.00     0.416 C 
ATOM     29  F   UNL A   1      34.165  17.387  23.005  1.00  0.00    -0.166 F 
ATOM     30  F   UNL A   1      35.657  17.514  24.578  1.00  0.00    -0.166 F 
ATOM     31  F   UNL A   1      33.638  16.859  25.048  1.00  0.00    -0.166 F 
ENDBRANCH  27  28
ENDBRANCH  20  22
ENDBRANCH   9  17
ENDBRANCH   7   8
ENDBRANCH   5   7
ENDBRANCH   2   3
ENDBRANCH   1   2
BRANCH   1  32
ATOM     32  C   UNL A   1      34.955  33.452  28.561  1.00  0.00     0.002 C 
BRANCH  32  33
ATOM     33  C   UNL A   1      34.756  34.938  28.247  1.00  0.00     0.002 C 
BRANCH  33  34
ATOM     34  C   UNL A   1      33.435  35.563  28.720  1.00  0.00     0.021 C 
BRANCH  34  35
ATOM     35  C   UNL A   1      33.538  36.424  29.978  1.00  0.00     0.116 C 
BRANCH  35  36
ATOM     36  N   UNL A   1      32.902  35.821  31.129  1.00  0.00    -0.352 N 
ATOM     37  C   UNL A   1      33.286  34.991  32.140  1.00  0.00     0.251 C 
ATOM     38  H   UNL A   1      31.954  36.073  31.202  1.00  0.00     0.163 HD
ATOM     39  O   UNL A   1      32.443  34.801  33.021  1.00  0.00    -0.269 OA
BRANCH  37  40
ATOM     40  C   UNL A   1      34.583  34.267  32.236  1.00  0.00     0.039 A 
ATOM     41  C   UNL A   1      35.850  34.849  32.259  1.00  0.00     0.014 A 
ATOM     42  C   UNL A   1      34.490  32.861  32.203  1.00  0.00     0.014 A 
ATOM     43  C   UNL A   1      36.988  34.050  32.144  1.00  0.00     0.010 A 
ATOM     44  C   UNL A   1      35.621  32.061  32.096  1.00  0.00     0.010 A 
ATOM     45  C   UNL A   1      36.869  32.662  31.998  1.00  0.00    -0.014 A 
BRANCH  45  46
ATOM     46  C   UNL A   1      38.081  31.878  31.760  1.00  0.00     0.031 A 
ATOM     47  C   UNL A   1      38.923  31.611  32.962  1.00  0.00     0.074 A 
ATOM     48  C   UNL A   1      38.408  31.365  30.554  1.00  0.00     0.049 A 
ATOM     49  N   UNL A   1      40.145  31.982  33.182  1.00  0.00    -0.248 NA
ATOM     50  C   UNL A   1      38.296  30.916  34.096  1.00  0.00     0.031 C 
ATOM     51  C   UNL A   1      37.608  31.308  29.327  1.00  0.00     0.029 A 
ATOM     52  N   UNL A   1      39.551  30.712  30.197  1.00  0.00    -0.354 N 
ATOM     53  C   UNL A   1      40.495  31.457  34.426  1.00  0.00     0.074 A 
ATOM     54  C   UNL A   1      39.292  30.892  34.983  1.00  0.00     0.031 C 
ATOM     55  C   UNL A   1      38.199  30.474  28.440  1.00  0.00     0.029 A 
ATOM     56  C   UNL A   1      39.488  30.066  28.969  1.00  0.00     0.049 A 
ATOM     57  H   UNL A   1      40.355  30.699  30.764  1.00  0.00     0.167 HD
ATOM     58  C   UNL A   1      41.790  31.385  34.842  1.00  0.00     0.037 A 
ATOM     59  C   UNL A   1      40.420  29.228  28.449  1.00  0.00     0.037 A 
ATOM     60  C   UNL A   1      42.641  32.273  34.099  1.00  0.00     0.049 A 
ATOM     61  C   UNL A   1      41.702  29.514  29.135  1.00  0.00     0.074 A 
ATOM     62  C   UNL A   1      42.739  33.644  33.972  1.00  0.00     0.029 A 
ATOM     63  N   UNL A   1      43.378  31.758  33.064  1.00  0.00    -0.354 N 
ATOM     64  N   UNL A   1      42.378  30.617  28.986  1.00  0.00    -0.248 NA
ATOM     65  C   UNL A   1      42.015  28.741  30.328  1.00  0.00     0.031 C 
ATOM     66  C   UNL A   1      43.089  33.865  32.607  1.00  0.00     0.029 A 
ATOM     67  C   UNL A   1      43.229  32.616  32.004  1.00  0.00     0.049 A 
ATOM     68  H   UNL A   1      43.913  30.932  33.079  1.00  0.00     0.167 HD
ATOM     69  C   UNL A   1      42.876  30.896  30.248  1.00  0.00     0.074 A 
ATOM     70  C   UNL A   1      42.689  29.665  31.013  1.00  0.00     0.031 C 
ATOM     71  C   UNL A   1      43.140  32.178  30.633  1.00  0.00     0.037 A 
BRANCH  58  72
ATOM     72  C   UNL A   1      42.343  30.296  35.724  1.00  0.00     0.064 A 
ATOM     73  C   UNL A   1      43.203  30.624  36.792  1.00  0.00     0.173 A 
ATOM     74  C   UNL A   1      42.298  28.929  35.374  1.00  0.00     0.173 A 
ATOM     75  F   UNL A   1      43.341  31.897  37.191  1.00  0.00    -0.203 F 
ATOM     76  C   UNL A   1      44.003  29.663  37.418  1.00  0.00     0.198 A 
ATOM     77  C   UNL A   1      43.062  27.966  36.033  1.00  0.00     0.198 A 
ATOM     78  F   UNL A   1      41.603  28.494  34.317  1.00  0.00    -0.203 F 
ATOM     79  F   UNL A   1      44.888  30.039  38.351  1.00  0.00    -0.200 F 
ATOM     80  C   UNL A   1      43.936  28.336  37.034  1.00  0.00     0.200 A 
ATOM     81  F   UNL A   1      42.999  26.689  35.633  1.00  0.00    -0.200 F 
ATOM     82  F   UNL A   1      44.744  27.425  37.589  1.00  0.00    -0.200 F 
ENDBRANCH  58  72
BRANCH  59  83
ATOM     83  C   UNL A   1      40.212  27.967  27.698  1.00  0.00     0.064 A 
ATOM     84  C   UNL A   1      40.976  27.675  26.556  1.00  0.00     0.173 A 
ATOM     85  C   UNL A   1      39.505  26.892  28.270  1.00  0.00     0.173 A 
ATOM     86  F   UNL A   1      41.710  28.636  25.973  1.00  0.00    -0.203 F 
ATOM     87  C   UNL A   1      41.068  26.376  26.045  1.00  0.00     0.198 A 
ATOM     88  C   UNL A   1      39.594  25.595  27.757  1.00  0.00     0.198 A 
ATOM     89  F   UNL A   1      38.802  27.055  29.400  1.00  0.00    -0.203 F 
ATOM     90  F   UNL A   1      41.869  26.123  25.000  1.00  0.00    -0.200 F 
ATOM     91  C   UNL A   1      40.390  25.335  26.657  1.00  0.00     0.200 A 
ATOM     92  F   UNL A   1      38.964  24.590  28.380  1.00  0.00    -0.200 F 
ATOM     93  F   UNL A   1      40.538  24.078  26.216  1.00  0.00    -0.200 F 
ENDBRANCH  59  83
BRANCH  71  94
ATOM     94  C   UNL A   1      43.091  33.244  29.573  1.00  0.00     0.064 A 
ATOM     95  C   UNL A   1      41.975  34.067  29.342  1.00  0.00     0.173 A 
ATOM     96  C   UNL A   1      44.259  33.527  28.853  1.00  0.00     0.173 A 
ATOM     97  F   UNL A   1      40.855  33.926  30.062  1.00  0.00    -0.203 F 
ATOM     98  C   UNL A   1      42.014  35.094  28.400  1.00  0.00     0.198 A 
ATOM     99  C   UNL A   1      44.307  34.576  27.940  1.00  0.00     0.198 A 
ATOM    100  F   UNL A   1      45.373  32.812  29.073  1.00  0.00    -0.203 F 
ATOM    101  F   UNL A   1      40.931  35.857  28.191  1.00  0.00    -0.200 F 
ATOM    102  C   UNL A   1      43.182  35.351  27.704  1.00  0.00     0.200 A 
ATOM    103  F   UNL A   1      45.455  34.854  27.305  1.00  0.00    -0.200 F 
ATOM    104  F   UNL A   1      43.235  36.365  26.828  1.00  0.00    -0.200 F 
ENDBRANCH  71  94
ENDBRANCH  45  46
ENDBRANCH  37  40
ENDBRANCH  35  36
ENDBRANCH  34  35
ENDBRANCH  33  34
ENDBRANCH  32  33
ENDBRANCH   1  32
TORSDOF 17
ENDMDL
