MODEL 1
REMARK VINA RESULT:     -13.5      0.000      0.000
REMARK SMILES Cc1ccc(S(=O)(=O)N2CCCC2)cc1C(=O)N[C@H](CC1=c2ccccc2=NC1)C(=O)NCCCCCCNC(=O)c1ccc(-c2c3nc(c(-c4c(F)c(F)c(F)c(F)c4F)c4ccc([nH]4)c(-c4c(F)c(F)c(F)c(F)c4F)c4nc(c(-c5c(F)c(F)c(F)c(F)c5F)c5ccc2[nH]5)C=C4)C=C3)cc1
REMARK SMILES IDX 34 1 33 2 32 3 30 4 31 5 19 7 18 8 16 9 17 10 15 12 1 13
REMARK SMILES IDX 2 14 3 15 4 16 14 17 5 18 6 19 7 20 8 21 9 22 10 23 13 24
REMARK SMILES IDX 11 25 12 26 20 27 21 28 22 29 29 30 23 31 27 32 28 33 24 34
REMARK SMILES IDX 26 35 25 36 35 37 36 38 37 39 38 40 39 41 40 42 41 44 42 45
REMARK SMILES IDX 43 46 104 47 44 48 103 49 45 50 46 51 47 52 97 53 48 54
REMARK SMILES IDX 102 55 96 56 98 57 49 58 101 59 95 60 94 61 50 63 82 64
REMARK SMILES IDX 62 65 81 66 63 67 66 68 80 69 99 70 64 71 65 72 79 74 100 75
REMARK SMILES IDX 67 76 51 77 52 78 60 79 53 80 54 81 58 82 61 83 55 84 56 85
REMARK SMILES IDX 59 86 57 87 83 88 84 89 92 90 85 91 86 92 90 93 93 94 87 95
REMARK SMILES IDX 88 96 91 97 89 98 68 99 69 100 77 101 70 102 71 103 75 104
REMARK SMILES IDX 78 105 72 106 73 107 76 108 74 109
REMARK H PARENT 32 6 18 11 39 43 98 62 66 73
REMARK Flexibility Score: inf
ROOT
ATOM      1  C   UNL A   1      38.754  24.327  26.672  1.00  0.00     0.021 C 
ENDROOT
BRANCH   1   2
ATOM      2  C   UNL A   1      37.778  23.560  25.779  1.00  0.00     0.116 C 
BRANCH   2   3
ATOM      3  N   UNL A   1      36.426  23.610  26.277  1.00  0.00    -0.354 N 
ATOM      4  C   UNL A   1      35.297  22.937  25.956  1.00  0.00     0.242 C 
ATOM      5  O   UNL A   1      34.372  23.080  26.768  1.00  0.00    -0.273 OA
ATOM      6  H   UNL A   1      36.298  24.267  27.000  1.00  0.00     0.163 HD
BRANCH   4   7
ATOM      7  C   UNL A   1      35.065  22.084  24.664  1.00  0.00     0.175 C 
BRANCH   7   8
ATOM      8  N   UNL A   1      34.118  22.559  23.598  1.00  0.00    -0.340 N 
ATOM      9  C   UNL A   1      33.097  23.407  23.256  1.00  0.00     0.252 C 
ATOM     10  O   UNL A   1      32.808  23.330  22.051  1.00  0.00    -0.269 OA
ATOM     11  H   UNL A   1      34.319  22.029  22.793  1.00  0.00     0.164 HD
BRANCH   9  12
ATOM     12  C   UNL A   1      32.309  24.427  24.049  1.00  0.00     0.044 A 
ATOM     13  C   UNL A   1      31.024  22.913  25.635  1.00  0.00     0.045 C 
ATOM     14  C   UNL A   1      31.361  24.213  25.050  1.00  0.00    -0.038 A 
ATOM     15  C   UNL A   1      30.585  25.260  25.584  1.00  0.00     0.005 A 
ATOM     16  C   UNL A   1      30.787  26.559  25.196  1.00  0.00     0.022 A 
ATOM     17  C   UNL A   1      32.543  25.787  23.713  1.00  0.00     0.035 A 
ATOM     18  C   UNL A   1      31.785  26.831  24.270  1.00  0.00     0.083 A 
BRANCH  18  19
ATOM     19  S   UNL A   1      31.922  28.548  23.849  1.00  0.00     0.243 S 
ATOM     20  O   UNL A   1      32.874  28.609  22.767  1.00  0.00    -0.207 OA
ATOM     21  O   UNL A   1      30.553  29.008  23.682  1.00  0.00    -0.207 OA
BRANCH  19  22
ATOM     22  N   UNL A   1      32.557  29.347  25.144  1.00  0.00    -0.198 NA
ATOM     23  C   UNL A   1      33.741  28.891  25.875  1.00  0.00     0.102 C 
ATOM     24  C   UNL A   1      31.806  30.354  25.896  1.00  0.00     0.102 C 
ATOM     25  C   UNL A   1      33.490  29.408  27.287  1.00  0.00     0.018 C 
ATOM     26  C   UNL A   1      32.747  30.711  27.040  1.00  0.00     0.018 C 
ENDBRANCH  19  22
ENDBRANCH  18  19
ENDBRANCH   9  12
ENDBRANCH   7   8
BRANCH   7  27
ATOM     27  C   UNL A   1      35.320  20.523  24.758  1.00  0.00     0.068 C 
BRANCH  27  28
ATOM     28  C   UNL A   1      34.172  19.525  24.848  1.00  0.00    -0.037 C 
ATOM     29  C   UNL A   1      34.250  18.194  24.890  1.00  0.00     0.001 A 
ATOM     30  C   UNL A   1      32.711  19.900  24.727  1.00  0.00     0.174 C 
ATOM     31  C   UNL A   1      35.308  17.242  24.873  1.00  0.00     0.010 A 
ATOM     32  C   UNL A   1      32.845  17.756  24.963  1.00  0.00     0.065 A 
ATOM     33  N   UNL A   1      31.924  18.652  24.808  1.00  0.00    -0.280 NA
ATOM     34  C   UNL A   1      35.014  15.946  25.063  1.00  0.00     0.001 A 
ATOM     35  C   UNL A   1      32.597  16.330  25.234  1.00  0.00     0.028 A 
ATOM     36  C   UNL A   1      33.650  15.500  25.294  1.00  0.00     0.002 A 
ENDBRANCH  27  28
ENDBRANCH   7  27
ENDBRANCH   4   7
ENDBRANCH   2   3
ENDBRANCH   1   2
BRANCH   1  37
ATOM     37  C   UNL A   1      39.819  23.473  27.364  1.00  0.00     0.002 C 
BRANCH  37  38
ATOM     38  C   UNL A   1      39.954  22.033  26.854  1.00  0.00     0.002 C 
BRANCH  38  39
ATOM     39  C   UNL A   1      41.383  21.519  26.701  1.00  0.00     0.021 C 
BRANCH  39  40
ATOM     40  C   UNL A   1      42.231  22.345  25.748  1.00  0.00     0.116 C 
BRANCH  40  41
ATOM     41  N   UNL A   1      43.168  21.508  25.006  1.00  0.00    -0.352 N 
ATOM     42  C   UNL A   1      44.452  21.758  24.566  1.00  0.00     0.251 C 
ATOM     43  H   UNL A   1      42.827  20.612  24.782  1.00  0.00     0.163 HD
ATOM     44  O   UNL A   1      44.984  21.002  23.761  1.00  0.00    -0.269 OA
BRANCH  42  45
ATOM     45  C   UNL A   1      45.261  22.786  25.253  1.00  0.00     0.039 A 
ATOM     46  C   UNL A   1      45.477  22.558  26.620  1.00  0.00     0.014 A 
ATOM     47  C   UNL A   1      45.367  24.061  24.719  1.00  0.00     0.014 A 
ATOM     48  C   UNL A   1      45.452  23.634  27.489  1.00  0.00     0.010 A 
ATOM     49  C   UNL A   1      45.195  25.116  25.573  1.00  0.00     0.010 A 
ATOM     50  C   UNL A   1      45.161  24.879  26.948  1.00  0.00    -0.014 A 
BRANCH  50  51
ATOM     51  C   UNL A   1      44.879  26.053  27.734  1.00  0.00     0.031 A 
ATOM     52  C   UNL A   1      43.556  26.651  27.555  1.00  0.00     0.074 A 
ATOM     53  C   UNL A   1      45.759  26.400  28.696  1.00  0.00     0.049 A 
ATOM     54  N   UNL A   1      43.237  27.832  27.931  1.00  0.00    -0.248 NA
ATOM     55  C   UNL A   1      42.476  25.950  26.868  1.00  0.00     0.031 C 
ATOM     56  C   UNL A   1      45.589  27.334  29.802  1.00  0.00     0.029 A 
ATOM     57  N   UNL A   1      47.126  26.078  28.727  1.00  0.00    -0.354 N 
ATOM     58  C   UNL A   1      41.867  27.935  27.830  1.00  0.00     0.074 A 
ATOM     59  C   UNL A   1      41.463  26.797  27.048  1.00  0.00     0.031 C 
ATOM     60  C   UNL A   1      46.805  27.765  30.186  1.00  0.00     0.029 A 
ATOM     61  C   UNL A   1      47.764  27.241  29.225  1.00  0.00     0.049 A 
ATOM     62  H   UNL A   1      47.549  25.231  28.460  1.00  0.00     0.167 HD
ATOM     63  C   UNL A   1      41.257  28.904  28.571  1.00  0.00     0.037 A 
ATOM     64  C   UNL A   1      48.506  27.999  28.360  1.00  0.00     0.037 A 
ATOM     65  C   UNL A   1      42.280  29.762  29.187  1.00  0.00     0.049 A 
ATOM     66  C   UNL A   1      47.893  29.361  28.068  1.00  0.00     0.074 A 
ATOM     67  C   UNL A   1      42.872  29.816  30.440  1.00  0.00     0.029 A 
ATOM     68  N   UNL A   1      43.128  30.463  28.345  1.00  0.00    -0.354 N 
ATOM     69  N   UNL A   1      46.705  29.744  28.457  1.00  0.00    -0.248 NA
ATOM     70  C   UNL A   1      48.550  30.367  27.240  1.00  0.00     0.031 C 
ATOM     71  C   UNL A   1      44.107  30.530  30.315  1.00  0.00     0.029 A 
ATOM     72  C   UNL A   1      44.248  30.936  29.000  1.00  0.00     0.049 A 
ATOM     73  H   UNL A   1      42.952  30.607  27.387  1.00  0.00     0.167 HD
ATOM     74  C   UNL A   1      46.425  30.990  27.962  1.00  0.00     0.074 A 
ATOM     75  C   UNL A   1      47.602  31.316  27.169  1.00  0.00     0.031 C 
ATOM     76  C   UNL A   1      45.253  31.652  28.222  1.00  0.00     0.037 A 
BRANCH  63  77
ATOM     77  C   UNL A   1      39.788  28.934  28.945  1.00  0.00     0.064 A 
ATOM     78  C   UNL A   1      38.833  29.347  27.992  1.00  0.00     0.173 A 
ATOM     79  C   UNL A   1      39.245  28.645  30.216  1.00  0.00     0.173 A 
ATOM     80  F   UNL A   1      39.175  29.584  26.719  1.00  0.00    -0.203 F 
ATOM     81  C   UNL A   1      37.483  29.540  28.306  1.00  0.00     0.198 A 
ATOM     82  C   UNL A   1      37.900  28.864  30.538  1.00  0.00     0.198 A 
ATOM     83  F   UNL A   1      39.964  28.090  31.191  1.00  0.00    -0.203 F 
ATOM     84  F   UNL A   1      36.632  29.951  27.354  1.00  0.00    -0.200 F 
ATOM     85  C   UNL A   1      37.020  29.321  29.585  1.00  0.00     0.200 A 
ATOM     86  F   UNL A   1      37.471  28.618  31.785  1.00  0.00    -0.200 F 
ATOM     87  F   UNL A   1      35.732  29.525  29.893  1.00  0.00    -0.200 F 
ENDBRANCH  63  77
BRANCH  64  88
ATOM     88  C   UNL A   1      49.242  27.139  27.375  1.00  0.00     0.064 A 
ATOM     89  C   UNL A   1      48.747  27.087  26.052  1.00  0.00     0.173 A 
ATOM     90  C   UNL A   1      50.577  26.773  27.572  1.00  0.00     0.173 A 
ATOM     91  F   UNL A   1      47.465  27.401  25.802  1.00  0.00    -0.203 F 
ATOM     92  C   UNL A   1      49.597  26.873  24.967  1.00  0.00     0.198 A 
ATOM     93  C   UNL A   1      51.414  26.509  26.483  1.00  0.00     0.198 A 
ATOM     94  F   UNL A   1      51.114  26.786  28.800  1.00  0.00    -0.203 F 
ATOM     95  F   UNL A   1      49.131  27.007  23.716  1.00  0.00    -0.200 F 
ATOM     96  C   UNL A   1      50.938  26.617  25.184  1.00  0.00     0.200 A 
ATOM     97  F   UNL A   1      52.713  26.252  26.692  1.00  0.00    -0.200 F 
ATOM     98  F   UNL A   1      51.777  26.514  24.144  1.00  0.00    -0.200 F 
ENDBRANCH  64  88
BRANCH  76  99
ATOM     99  C   UNL A   1      44.929  33.039  27.702  1.00  0.00     0.064 A 
ATOM    100  C   UNL A   1      44.190  33.261  26.531  1.00  0.00     0.173 A 
ATOM    101  C   UNL A   1      45.417  34.213  28.330  1.00  0.00     0.173 A 
ATOM    102  F   UNL A   1      43.837  32.244  25.733  1.00  0.00    -0.203 F 
ATOM    103  C   UNL A   1      43.824  34.545  26.117  1.00  0.00     0.198 A 
ATOM    104  C   UNL A   1      45.102  35.494  27.883  1.00  0.00     0.198 A 
ATOM    105  F   UNL A   1      46.210  34.178  29.407  1.00  0.00    -0.203 F 
ATOM    106  F   UNL A   1      43.033  34.695  25.046  1.00  0.00    -0.200 F 
ATOM    107  C   UNL A   1      44.271  35.660  26.800  1.00  0.00     0.200 A 
ATOM    108  F   UNL A   1      45.603  36.560  28.524  1.00  0.00    -0.200 F 
ATOM    109  F   UNL A   1      43.918  36.890  26.406  1.00  0.00    -0.200 F 
ENDBRANCH  76  99
ENDBRANCH  50  51
ENDBRANCH  42  45
ENDBRANCH  40  41
ENDBRANCH  39  40
ENDBRANCH  38  39
ENDBRANCH  37  38
ENDBRANCH   1  37
TORSDOF 19
ENDMDL
MODEL 2
REMARK VINA RESULT:     -13.4      5.085     11.043
REMARK SMILES Cc1ccc(S(=O)(=O)N2CCCC2)cc1C(=O)N[C@H](CC1=c2ccccc2=NC1)C(=O)NCCCCCCNC(=O)c1ccc(-c2c3nc(c(-c4c(F)c(F)c(F)c(F)c4F)c4ccc([nH]4)c(-c4c(F)c(F)c(F)c(F)c4F)c4nc(c(-c5c(F)c(F)c(F)c(F)c5F)c5ccc2[nH]5)C=C4)C=C3)cc1
REMARK SMILES IDX 34 1 33 2 32 3 30 4 31 5 19 7 18 8 16 9 17 10 15 12 1 13
REMARK SMILES IDX 2 14 3 15 4 16 14 17 5 18 6 19 7 20 8 21 9 22 10 23 13 24
REMARK SMILES IDX 11 25 12 26 20 27 21 28 22 29 29 30 23 31 27 32 28 33 24 34
REMARK SMILES IDX 26 35 25 36 35 37 36 38 37 39 38 40 39 41 40 42 41 44 42 45
REMARK SMILES IDX 43 46 104 47 44 48 103 49 45 50 46 51 47 52 97 53 48 54
REMARK SMILES IDX 102 55 96 56 98 57 49 58 101 59 95 60 94 61 50 63 82 64
REMARK SMILES IDX 62 65 81 66 63 67 66 68 80 69 99 70 64 71 65 72 79 74 100 75
REMARK SMILES IDX 67 76 51 77 52 78 60 79 53 80 54 81 58 82 61 83 55 84 56 85
REMARK SMILES IDX 59 86 57 87 83 88 84 89 92 90 85 91 86 92 90 93 93 94 87 95
REMARK SMILES IDX 88 96 91 97 89 98 68 99 69 100 77 101 70 102 71 103 75 104
REMARK SMILES IDX 78 105 72 106 73 107 76 108 74 109
REMARK H PARENT 32 6 18 11 39 43 98 62 66 73
REMARK Flexibility Score: inf
ROOT
ATOM      1  C   UNL A   1      34.642  30.860  27.314  1.00  0.00     0.021 C 
ENDROOT
BRANCH   1   2
ATOM      2  C   UNL A   1      34.338  29.372  27.138  1.00  0.00     0.116 C 
BRANCH   2   3
ATOM      3  N   UNL A   1      33.060  29.005  27.697  1.00  0.00    -0.354 N 
ATOM      4  C   UNL A   1      31.924  28.504  27.157  1.00  0.00     0.242 C 
ATOM      5  O   UNL A   1      31.107  28.088  27.990  1.00  0.00    -0.273 OA
ATOM      6  H   UNL A   1      33.003  29.145  28.670  1.00  0.00     0.163 HD
BRANCH   4   7
ATOM      7  C   UNL A   1      31.559  28.474  25.635  1.00  0.00     0.175 C 
BRANCH   7   8
ATOM      8  N   UNL A   1      32.158  27.434  24.730  1.00  0.00    -0.340 N 
ATOM      9  C   UNL A   1      32.351  26.101  24.473  1.00  0.00     0.252 C 
ATOM     10  O   UNL A   1      32.927  25.913  23.389  1.00  0.00    -0.269 OA
ATOM     11  H   UNL A   1      32.608  27.924  24.004  1.00  0.00     0.164 HD
BRANCH   9  12
ATOM     12  C   UNL A   1      31.960  24.850  25.227  1.00  0.00     0.044 A 
ATOM     13  C   UNL A   1      29.546  25.379  25.816  1.00  0.00     0.045 C 
ATOM     14  C   UNL A   1      30.755  24.554  25.864  1.00  0.00    -0.038 A 
ATOM     15  C   UNL A   1      30.595  23.411  26.672  1.00  0.00     0.005 A 
ATOM     16  C   UNL A   1      31.602  22.491  26.803  1.00  0.00     0.022 A 
ATOM     17  C   UNL A   1      32.963  23.848  25.327  1.00  0.00     0.035 A 
ATOM     18  C   UNL A   1      32.787  22.696  26.112  1.00  0.00     0.083 A 
BRANCH  18  19
ATOM     19  S   UNL A   1      34.005  21.437  26.389  1.00  0.00     0.243 S 
ATOM     20  O   UNL A   1      34.142  21.335  27.821  1.00  0.00    -0.207 OA
ATOM     21  O   UNL A   1      33.571  20.306  25.585  1.00  0.00    -0.207 OA
BRANCH  19  22
ATOM     22  N   UNL A   1      35.439  21.963  25.767  1.00  0.00    -0.198 NA
ATOM     23  C   UNL A   1      36.130  23.167  26.233  1.00  0.00     0.102 C 
ATOM     24  C   UNL A   1      35.956  21.500  24.478  1.00  0.00     0.102 C 
ATOM     25  C   UNL A   1      36.868  23.640  24.986  1.00  0.00     0.018 C 
ATOM     26  C   UNL A   1      37.216  22.336  24.287  1.00  0.00     0.018 C 
ENDBRANCH  19  22
ENDBRANCH  18  19
ENDBRANCH   9  12
ENDBRANCH   7   8
BRANCH   7  27
ATOM     27  C   UNL A   1      31.091  29.831  24.963  1.00  0.00     0.068 C 
BRANCH  27  28
ATOM     28  C   UNL A   1      30.169  29.850  23.750  1.00  0.00    -0.037 C 
ATOM     29  C   UNL A   1      29.483  30.885  23.263  1.00  0.00     0.001 A 
ATOM     30  C   UNL A   1      29.745  28.614  22.988  1.00  0.00     0.174 C 
ATOM     31  C   UNL A   1      29.332  32.256  23.620  1.00  0.00     0.010 A 
ATOM     32  C   UNL A   1      28.767  30.326  22.103  1.00  0.00     0.065 A 
ATOM     33  N   UNL A   1      28.811  29.045  21.927  1.00  0.00    -0.280 NA
ATOM     34  C   UNL A   1      28.636  33.062  22.804  1.00  0.00     0.001 A 
ATOM     35  C   UNL A   1      28.075  31.277  21.217  1.00  0.00     0.028 A 
ATOM     36  C   UNL A   1      28.047  32.572  21.568  1.00  0.00     0.002 A 
ENDBRANCH  27  28
ENDBRANCH   7  27
ENDBRANCH   4   7
ENDBRANCH   2   3
ENDBRANCH   1   2
BRANCH   1  37
ATOM     37  C   UNL A   1      35.904  31.181  28.116  1.00  0.00     0.002 C 
BRANCH  37  38
ATOM     38  C   UNL A   1      36.276  32.667  28.209  1.00  0.00     0.002 C 
BRANCH  38  39
ATOM     39  C   UNL A   1      35.386  33.513  29.116  1.00  0.00     0.021 C 
BRANCH  39  40
ATOM     40  C   UNL A   1      34.804  32.745  30.292  1.00  0.00     0.116 C 
BRANCH  40  41
ATOM     41  N   UNL A   1      34.016  33.615  31.158  1.00  0.00    -0.352 N 
ATOM     42  C   UNL A   1      34.208  33.999  32.470  1.00  0.00     0.251 C 
ATOM     43  H   UNL A   1      33.211  33.992  30.735  1.00  0.00     0.163 HD
ATOM     44  O   UNL A   1      33.304  34.554  33.085  1.00  0.00    -0.269 OA
BRANCH  42  45
ATOM     45  C   UNL A   1      35.571  33.964  33.039  1.00  0.00     0.039 A 
ATOM     46  C   UNL A   1      36.523  34.729  32.349  1.00  0.00     0.014 A 
ATOM     47  C   UNL A   1      35.958  32.913  33.855  1.00  0.00     0.014 A 
ATOM     48  C   UNL A   1      37.804  34.228  32.205  1.00  0.00     0.010 A 
ATOM     49  C   UNL A   1      37.173  32.336  33.603  1.00  0.00     0.010 A 
ATOM     50  C   UNL A   1      38.052  32.962  32.717  1.00  0.00    -0.014 A 
BRANCH  50  51
ATOM     51  C   UNL A   1      39.254  32.210  32.462  1.00  0.00     0.031 A 
ATOM     52  C   UNL A   1      39.086  30.943  31.750  1.00  0.00     0.074 A 
ATOM     53  C   UNL A   1      40.439  32.800  32.719  1.00  0.00     0.049 A 
ATOM     54  N   UNL A   1      39.971  30.020  31.694  1.00  0.00    -0.248 NA
ATOM     55  C   UNL A   1      37.843  30.596  31.069  1.00  0.00     0.031 C 
ATOM     56  C   UNL A   1      41.774  32.401  32.292  1.00  0.00     0.029 A 
ATOM     57  N   UNL A   1      40.669  33.836  33.639  1.00  0.00    -0.354 N 
ATOM     58  C   UNL A   1      39.559  29.118  30.737  1.00  0.00     0.074 A 
ATOM     59  C   UNL A   1      38.183  29.450  30.479  1.00  0.00     0.031 C 
ATOM     60  C   UNL A   1      42.670  32.919  33.153  1.00  0.00     0.029 A 
ATOM     61  C   UNL A   1      41.913  33.521  34.240  1.00  0.00     0.049 A 
ATOM     62  H   UNL A   1      40.093  34.612  33.826  1.00  0.00     0.167 HD
ATOM     63  C   UNL A   1      40.511  28.313  30.187  1.00  0.00     0.037 A 
ATOM     64  C   UNL A   1      41.918  33.087  35.538  1.00  0.00     0.037 A 
ATOM     65  C   UNL A   1      41.777  28.486  30.915  1.00  0.00     0.049 A 
ATOM     66  C   UNL A   1      42.318  31.626  35.686  1.00  0.00     0.074 A 
ATOM     67  C   UNL A   1      42.927  29.227  30.695  1.00  0.00     0.029 A 
ATOM     68  N   UNL A   1      41.796  28.162  32.262  1.00  0.00    -0.354 N 
ATOM     69  N   UNL A   1      42.494  30.795  34.692  1.00  0.00    -0.248 NA
ATOM     70  C   UNL A   1      42.473  30.972  36.983  1.00  0.00     0.031 C 
ATOM     71  C   UNL A   1      43.609  29.370  31.946  1.00  0.00     0.029 A 
ATOM     72  C   UNL A   1      42.893  28.689  32.915  1.00  0.00     0.049 A 
ATOM     73  H   UNL A   1      41.105  27.618  32.704  1.00  0.00     0.167 HD
ATOM     74  C   UNL A   1      42.770  29.540  35.169  1.00  0.00     0.074 A 
ATOM     75  C   UNL A   1      42.701  29.700  36.615  1.00  0.00     0.031 C 
ATOM     76  C   UNL A   1      43.015  28.467  34.352  1.00  0.00     0.037 A 
BRANCH  63  77
ATOM     77  C   UNL A   1      40.387  27.575  28.868  1.00  0.00     0.064 A 
ATOM     78  C   UNL A   1      39.632  26.384  28.802  1.00  0.00     0.173 A 
ATOM     79  C   UNL A   1      41.022  27.921  27.655  1.00  0.00     0.173 A 
ATOM     80  F   UNL A   1      38.907  25.959  29.845  1.00  0.00    -0.203 F 
ATOM     81  C   UNL A   1      39.592  25.573  27.662  1.00  0.00     0.198 A 
ATOM     82  C   UNL A   1      41.005  27.097  26.523  1.00  0.00     0.198 A 
ATOM     83  F   UNL A   1      41.642  29.087  27.481  1.00  0.00    -0.203 F 
ATOM     84  F   UNL A   1      38.867  24.446  27.675  1.00  0.00    -0.200 F 
ATOM     85  C   UNL A   1      40.297  25.918  26.530  1.00  0.00     0.200 A 
ATOM     86  F   UNL A   1      41.680  27.469  25.425  1.00  0.00    -0.200 F 
ATOM     87  F   UNL A   1      40.277  25.133  25.444  1.00  0.00    -0.200 F 
ENDBRANCH  63  77
BRANCH  64  88
ATOM     88  C   UNL A   1      40.882  33.799  36.356  1.00  0.00     0.064 A 
ATOM     89  C   UNL A   1      39.711  33.084  36.699  1.00  0.00     0.173 A 
ATOM     90  C   UNL A   1      41.200  34.914  37.138  1.00  0.00     0.173 A 
ATOM     91  F   UNL A   1      39.337  32.020  35.969  1.00  0.00    -0.203 F 
ATOM     92  C   UNL A   1      39.014  33.354  37.875  1.00  0.00     0.198 A 
ATOM     93  C   UNL A   1      40.467  35.211  38.292  1.00  0.00     0.198 A 
ATOM     94  F   UNL A   1      42.288  35.648  36.868  1.00  0.00    -0.203 F 
ATOM     95  F   UNL A   1      38.016  32.545  38.262  1.00  0.00    -0.200 F 
ATOM     96  C   UNL A   1      39.414  34.398  38.689  1.00  0.00     0.200 A 
ATOM     97  F   UNL A   1      40.848  36.229  39.076  1.00  0.00    -0.200 F 
ATOM     98  F   UNL A   1      38.813  34.596  39.870  1.00  0.00    -0.200 F 
ENDBRANCH  64  88
BRANCH  76  99
ATOM     99  C   UNL A   1      43.342  27.075  34.855  1.00  0.00     0.064 A 
ATOM    100  C   UNL A   1      42.361  26.105  35.103  1.00  0.00     0.173 A 
ATOM    101  C   UNL A   1      44.665  26.682  35.180  1.00  0.00     0.173 A 
ATOM    102  F   UNL A   1      41.057  26.404  35.028  1.00  0.00    -0.203 F 
ATOM    103  C   UNL A   1      42.688  24.798  35.480  1.00  0.00     0.198 A 
ATOM    104  C   UNL A   1      44.985  25.398  35.614  1.00  0.00     0.198 A 
ATOM    105  F   UNL A   1      45.709  27.514  35.086  1.00  0.00    -0.203 F 
ATOM    106  F   UNL A   1      41.717  23.884  35.607  1.00  0.00    -0.200 F 
ATOM    107  C   UNL A   1      44.001  24.443  35.724  1.00  0.00     0.200 A 
ATOM    108  F   UNL A   1      46.258  25.097  35.908  1.00  0.00    -0.200 F 
ATOM    109  F   UNL A   1      44.315  23.191  36.081  1.00  0.00    -0.200 F 
ENDBRANCH  76  99
ENDBRANCH  50  51
ENDBRANCH  42  45
ENDBRANCH  40  41
ENDBRANCH  39  40
ENDBRANCH  38  39
ENDBRANCH  37  38
ENDBRANCH   1  37
TORSDOF 19
ENDMDL
MODEL 3
REMARK VINA RESULT:     -13.2      4.593     10.601
REMARK SMILES Cc1ccc(S(=O)(=O)N2CCCC2)cc1C(=O)N[C@H](CC1=c2ccccc2=NC1)C(=O)NCCCCCCNC(=O)c1ccc(-c2c3nc(c(-c4c(F)c(F)c(F)c(F)c4F)c4ccc([nH]4)c(-c4c(F)c(F)c(F)c(F)c4F)c4nc(c(-c5c(F)c(F)c(F)c(F)c5F)c5ccc2[nH]5)C=C4)C=C3)cc1
REMARK SMILES IDX 34 1 33 2 32 3 30 4 31 5 19 7 18 8 16 9 17 10 15 12 1 13
REMARK SMILES IDX 2 14 3 15 4 16 14 17 5 18 6 19 7 20 8 21 9 22 10 23 13 24
REMARK SMILES IDX 11 25 12 26 20 27 21 28 22 29 29 30 23 31 27 32 28 33 24 34
REMARK SMILES IDX 26 35 25 36 35 37 36 38 37 39 38 40 39 41 40 42 41 44 42 45
REMARK SMILES IDX 43 46 104 47 44 48 103 49 45 50 46 51 47 52 97 53 48 54
REMARK SMILES IDX 102 55 96 56 98 57 49 58 101 59 95 60 94 61 50 63 82 64
REMARK SMILES IDX 62 65 81 66 63 67 66 68 80 69 99 70 64 71 65 72 79 74 100 75
REMARK SMILES IDX 67 76 51 77 52 78 60 79 53 80 54 81 58 82 61 83 55 84 56 85
REMARK SMILES IDX 59 86 57 87 83 88 84 89 92 90 85 91 86 92 90 93 93 94 87 95
REMARK SMILES IDX 88 96 91 97 89 98 68 99 69 100 77 101 70 102 71 103 75 104
REMARK SMILES IDX 78 105 72 106 73 107 76 108 74 109
REMARK H PARENT 32 6 18 11 39 43 98 62 66 73
REMARK Flexibility Score: inf
ROOT
ATOM      1  C   UNL A   1      34.267  27.832  25.756  1.00  0.00     0.021 C 
ENDROOT
BRANCH   1   2
ATOM      2  C   UNL A   1      33.690  26.454  26.082  1.00  0.00     0.116 C 
BRANCH   2   3
ATOM      3  N   UNL A   1      32.301  26.519  26.466  1.00  0.00    -0.354 N 
ATOM      4  C   UNL A   1      31.148  26.230  25.818  1.00  0.00     0.242 C 
ATOM      5  O   UNL A   1      30.152  26.183  26.553  1.00  0.00    -0.273 OA
ATOM      6  H   UNL A   1      32.164  26.839  27.387  1.00  0.00     0.163 HD
BRANCH   4   7
ATOM      7  C   UNL A   1      30.981  26.024  24.276  1.00  0.00     0.175 C 
BRANCH   7   8
ATOM      8  N   UNL A   1      31.231  24.677  23.656  1.00  0.00    -0.340 N 
ATOM      9  C   UNL A   1      31.846  23.457  23.757  1.00  0.00     0.252 C 
ATOM     10  O   UNL A   1      31.528  22.694  22.831  1.00  0.00    -0.269 OA
ATOM     11  H   UNL A   1      30.736  24.668  22.805  1.00  0.00     0.164 HD
BRANCH   9  12
ATOM     12  C   UNL A   1      32.783  22.869  24.790  1.00  0.00     0.044 A 
ATOM     13  C   UNL A   1      31.280  22.840  26.839  1.00  0.00     0.045 C 
ATOM     14  C   UNL A   1      32.558  22.650  26.150  1.00  0.00    -0.038 A 
ATOM     15  C   UNL A   1      33.587  22.249  27.024  1.00  0.00     0.005 A 
ATOM     16  C   UNL A   1      34.846  21.976  26.557  1.00  0.00     0.022 A 
ATOM     17  C   UNL A   1      34.077  22.516  24.322  1.00  0.00     0.035 A 
ATOM     18  C   UNL A   1      35.092  22.089  25.196  1.00  0.00     0.083 A 
BRANCH  18  19
ATOM     19  S   UNL A   1      36.765  21.722  24.737  1.00  0.00     0.243 S 
ATOM     20  O   UNL A   1      36.918  20.300  24.927  1.00  0.00    -0.207 OA
ATOM     21  O   UNL A   1      36.943  22.337  23.432  1.00  0.00    -0.207 OA
BRANCH  19  22
ATOM     22  N   UNL A   1      37.769  22.497  25.790  1.00  0.00    -0.198 NA
ATOM     23  C   UNL A   1      37.634  23.911  26.145  1.00  0.00     0.102 C 
ATOM     24  C   UNL A   1      39.076  21.960  26.174  1.00  0.00     0.102 C 
ATOM     25  C   UNL A   1      39.070  24.325  26.449  1.00  0.00     0.018 C 
ATOM     26  C   UNL A   1      39.662  23.061  27.050  1.00  0.00     0.018 C 
ENDBRANCH  19  22
ENDBRANCH  18  19
ENDBRANCH   9  12
ENDBRANCH   7   8
BRANCH   7  27
ATOM     27  C   UNL A   1      31.157  27.292  23.341  1.00  0.00     0.068 C 
BRANCH  27  28
ATOM     28  C   UNL A   1      30.675  28.675  23.763  1.00  0.00    -0.037 C 
ATOM     29  C   UNL A   1      29.680  29.388  23.236  1.00  0.00     0.001 A 
ATOM     30  C   UNL A   1      31.389  29.549  24.771  1.00  0.00     0.174 C 
ATOM     31  C   UNL A   1      28.746  29.193  22.178  1.00  0.00     0.010 A 
ATOM     32  C   UNL A   1      29.673  30.631  24.026  1.00  0.00     0.065 A 
ATOM     33  N   UNL A   1      30.644  30.822  24.859  1.00  0.00    -0.280 NA
ATOM     34  C   UNL A   1      27.773  30.100  22.001  1.00  0.00     0.001 A 
ATOM     35  C   UNL A   1      28.541  31.552  23.823  1.00  0.00     0.028 A 
ATOM     36  C   UNL A   1      27.646  31.261  22.867  1.00  0.00     0.002 A 
ENDBRANCH  27  28
ENDBRANCH   7  27
ENDBRANCH   4   7
ENDBRANCH   2   3
ENDBRANCH   1   2
BRANCH   1  37
ATOM     37  C   UNL A   1      34.120  28.882  26.858  1.00  0.00     0.002 C 
BRANCH  37  38
ATOM     38  C   UNL A   1      35.429  29.470  27.400  1.00  0.00     0.002 C 
BRANCH  38  39
ATOM     39  C   UNL A   1      35.375  30.941  27.801  1.00  0.00     0.021 C 
BRANCH  39  40
ATOM     40  C   UNL A   1      35.543  31.176  29.293  1.00  0.00     0.116 C 
BRANCH  40  41
ATOM     41  N   UNL A   1      34.693  32.265  29.761  1.00  0.00    -0.352 N 
ATOM     42  C   UNL A   1      34.784  33.068  30.880  1.00  0.00     0.251 C 
ATOM     43  H   UNL A   1      33.923  32.462  29.179  1.00  0.00     0.163 HD
ATOM     44  O   UNL A   1      33.838  33.775  31.208  1.00  0.00    -0.269 OA
BRANCH  42  45
ATOM     45  C   UNL A   1      36.099  33.255  31.527  1.00  0.00     0.039 A 
ATOM     46  C   UNL A   1      37.050  33.937  30.754  1.00  0.00     0.014 A 
ATOM     47  C   UNL A   1      36.491  32.424  32.565  1.00  0.00     0.014 A 
ATOM     48  C   UNL A   1      38.368  33.520  30.794  1.00  0.00     0.010 A 
ATOM     49  C   UNL A   1      37.755  31.905  32.512  1.00  0.00     0.010 A 
ATOM     50  C   UNL A   1      38.657  32.407  31.571  1.00  0.00    -0.014 A 
BRANCH  50  51
ATOM     51  C   UNL A   1      39.921  31.715  31.551  1.00  0.00     0.031 A 
ATOM     52  C   UNL A   1      39.967  30.473  30.781  1.00  0.00     0.074 A 
ATOM     53  C   UNL A   1      40.997  32.343  32.069  1.00  0.00     0.049 A 
ATOM     54  N   UNL A   1      40.888  29.589  30.884  1.00  0.00    -0.248 NA
ATOM     55  C   UNL A   1      38.911  30.102  29.844  1.00  0.00     0.031 C 
ATOM     56  C   UNL A   1      42.410  32.017  31.919  1.00  0.00     0.029 A 
ATOM     57  N   UNL A   1      40.980  33.350  33.048  1.00  0.00    -0.354 N 
ATOM     58  C   UNL A   1      40.728  28.710  29.835  1.00  0.00     0.074 A 
ATOM     59  C   UNL A   1      39.422  28.996  29.304  1.00  0.00     0.031 C 
ATOM     60  C   UNL A   1      43.080  32.536  32.965  1.00  0.00     0.029 A 
ATOM     61  C   UNL A   1      42.085  33.063  33.887  1.00  0.00     0.049 A 
ATOM     62  H   UNL A   1      40.341  34.093  33.133  1.00  0.00     0.167 HD
ATOM     63  C   UNL A   1      41.812  27.968  29.471  1.00  0.00     0.037 A 
ATOM     64  C   UNL A   1      41.841  32.577  35.143  1.00  0.00     0.037 A 
ATOM     65  C   UNL A   1      42.888  28.163  30.454  1.00  0.00     0.049 A 
ATOM     66  C   UNL A   1      42.272  31.129  35.327  1.00  0.00     0.074 A 
ATOM     67  C   UNL A   1      44.022  28.960  30.503  1.00  0.00     0.029 A 
ATOM     68  N   UNL A   1      42.642  27.787  31.765  1.00  0.00    -0.354 N 
ATOM     69  N   UNL A   1      42.691  30.347  34.366  1.00  0.00    -0.248 NA
ATOM     70  C   UNL A   1      42.185  30.430  36.606  1.00  0.00     0.031 C 
ATOM     71  C   UNL A   1      44.421  29.079  31.873  1.00  0.00     0.029 A 
ATOM     72  C   UNL A   1      43.553  28.332  32.649  1.00  0.00     0.049 A 
ATOM     73  H   UNL A   1      41.902  27.197  32.035  1.00  0.00     0.167 HD
ATOM     74  C   UNL A   1      42.922  29.086  34.852  1.00  0.00     0.074 A 
ATOM     75  C   UNL A   1      42.546  29.185  36.256  1.00  0.00     0.031 C 
ATOM     76  C   UNL A   1      43.384  28.058  34.072  1.00  0.00     0.037 A 
BRANCH  63  77
ATOM     77  C   UNL A   1      42.001  27.279  28.134  1.00  0.00     0.064 A 
ATOM     78  C   UNL A   1      42.312  25.902  28.095  1.00  0.00     0.173 A 
ATOM     79  C   UNL A   1      41.966  27.896  26.865  1.00  0.00     0.173 A 
ATOM     80  F   UNL A   1      42.309  25.155  29.207  1.00  0.00    -0.203 F 
ATOM     81  C   UNL A   1      42.642  25.232  26.912  1.00  0.00     0.198 A 
ATOM     82  C   UNL A   1      42.323  27.234  25.684  1.00  0.00     0.198 A 
ATOM     83  F   UNL A   1      41.535  29.145  26.690  1.00  0.00    -0.203 F 
ATOM     84  F   UNL A   1      42.943  23.927  26.950  1.00  0.00    -0.200 F 
ATOM     85  C   UNL A   1      42.671  25.904  25.709  1.00  0.00     0.200 A 
ATOM     86  F   UNL A   1      42.318  27.905  24.523  1.00  0.00    -0.200 F 
ATOM     87  F   UNL A   1      43.008  25.270  24.577  1.00  0.00    -0.200 F 
ENDBRANCH  63  77
BRANCH  64  88
ATOM     88  C   UNL A   1      40.624  33.212  35.746  1.00  0.00     0.064 A 
ATOM     89  C   UNL A   1      39.471  32.409  35.899  1.00  0.00     0.173 A 
ATOM     90  C   UNL A   1      40.710  34.360  36.541  1.00  0.00     0.173 A 
ATOM     91  F   UNL A   1      39.316  31.308  35.145  1.00  0.00    -0.203 F 
ATOM     92  C   UNL A   1      38.557  32.637  36.927  1.00  0.00     0.198 A 
ATOM     93  C   UNL A   1      39.764  34.612  37.540  1.00  0.00     0.198 A 
ATOM     94  F   UNL A   1      41.768  35.178  36.445  1.00  0.00    -0.203 F 
ATOM     95  F   UNL A   1      37.573  31.754  37.156  1.00  0.00    -0.200 F 
ATOM     96  C   UNL A   1      38.725  33.721  37.769  1.00  0.00     0.200 A 
ATOM     97  F   UNL A   1      39.919  35.668  38.350  1.00  0.00    -0.200 F 
ATOM     98  F   UNL A   1      37.911  33.885  38.821  1.00  0.00    -0.200 F 
ENDBRANCH  64  88
BRANCH  76  99
ATOM     99  C   UNL A   1      43.667  26.661  34.589  1.00  0.00     0.064 A 
ATOM    100  C   UNL A   1      42.652  25.744  34.900  1.00  0.00     0.173 A 
ATOM    101  C   UNL A   1      44.982  26.211  34.866  1.00  0.00     0.173 A 
ATOM    102  F   UNL A   1      41.361  26.105  34.875  1.00  0.00    -0.203 F 
ATOM    103  C   UNL A   1      42.933  24.431  35.289  1.00  0.00     0.198 A 
ATOM    104  C   UNL A   1      45.259  24.921  35.312  1.00  0.00     0.198 A 
ATOM    105  F   UNL A   1      46.059  26.989  34.710  1.00  0.00    -0.203 F 
ATOM    106  F   UNL A   1      41.927  23.567  35.477  1.00  0.00    -0.200 F 
ATOM    107  C   UNL A   1      44.237  24.017  35.484  1.00  0.00     0.200 A 
ATOM    108  F   UNL A   1      46.528  24.564  35.557  1.00  0.00    -0.200 F 
ATOM    109  F   UNL A   1      44.507  22.758  35.854  1.00  0.00    -0.200 F 
ENDBRANCH  76  99
ENDBRANCH  50  51
ENDBRANCH  42  45
ENDBRANCH  40  41
ENDBRANCH  39  40
ENDBRANCH  38  39
ENDBRANCH  37  38
ENDBRANCH   1  37
TORSDOF 19
ENDMDL
