MODEL 1
REMARK VINA RESULT:     -12.6      0.000      0.000
REMARK SMILES O=C(NCCCCCCNC(=O)c1ccc(-c2c3nc(c(-c4c(F)c(F)c(F)c(F)c4F)c4ccc([nH]4)c(-c4c(F)c(F)c(F)c(F)c4F)c4nc(c(-c5c(F)c(F)c(F)c(F)c5F)c5ccc2[nH]5)C=C4)C=C3)cc1)C1=C[C@H]2C(=N1)C=CC(Cl)=C2Cl
REMARK SMILES IDX 7 1 6 2 5 3 4 4 3 5 1 6 2 7 76 9 77 10 80 11 78 12 79 13
REMARK SMILES IDX 85 14 81 15 83 16 86 17 82 18 84 19 8 20 9 21 10 22 11 23
REMARK SMILES IDX 12 25 13 26 14 27 75 28 15 29 74 30 16 31 17 32 18 33 68 34
REMARK SMILES IDX 19 35 73 36 67 37 69 38 20 39 72 40 66 41 65 42 21 44 53 45
REMARK SMILES IDX 33 46 52 47 34 48 37 49 51 50 70 51 35 52 36 53 50 55 71 56
REMARK SMILES IDX 38 57 22 58 23 59 31 60 24 61 25 62 29 63 32 64 26 65 27 66
REMARK SMILES IDX 30 67 28 68 54 69 55 70 63 71 56 72 57 73 61 74 64 75 58 76
REMARK SMILES IDX 59 77 62 78 60 79 39 80 40 81 48 82 41 83 42 84 46 85 49 86
REMARK SMILES IDX 43 87 44 88 47 89 45 90
REMARK H PARENT 3 8 10 24 69 43 37 54
REMARK Flexibility Score: inf
ROOT
ATOM      1  C   UNL A   1      31.656  30.585  26.698  1.00  0.00     0.002 C 
ENDROOT
BRANCH   1   2
ATOM      2  C   UNL A   1      31.677  30.006  25.279  1.00  0.00     0.002 C 
BRANCH   2   3
ATOM      3  C   UNL A   1      33.003  29.388  24.809  1.00  0.00     0.021 C 
BRANCH   3   4
ATOM      4  C   UNL A   1      33.049  28.922  23.350  1.00  0.00     0.116 C 
BRANCH   4   5
ATOM      5  N   UNL A   1      31.955  29.455  22.567  1.00  0.00    -0.351 N 
ATOM      6  O   UNL A   1      29.961  29.539  21.555  1.00  0.00    -0.268 OA
ATOM      7  C   UNL A   1      30.758  28.900  22.241  1.00  0.00     0.269 C 
ATOM      8  H   UNL A   1      32.100  30.363  22.217  1.00  0.00     0.163 HD
BRANCH   7   9
ATOM      9  C   UNL A   1      30.447  27.503  22.642  1.00  0.00     0.125 C 
ATOM     10  C   UNL A   1      29.702  27.311  23.737  1.00  0.00     0.023 C 
ATOM     11  N   UNL A   1      31.115  26.379  22.196  1.00  0.00    -0.247 NA
ATOM     12  C   UNL A   1      29.791  25.886  24.122  1.00  0.00     0.106 C 
ATOM     13  C   UNL A   1      30.832  25.481  23.092  1.00  0.00     0.054 C 
ATOM     14  C   UNL A   1      30.297  25.480  25.469  1.00  0.00     0.050 C 
ATOM     15  C   UNL A   1      31.438  24.133  23.216  1.00  0.00     0.026 C 
ATOM     16  C   UNL A   1      30.800  24.237  25.585  1.00  0.00     0.056 C 
ATOM     17  Cl  UNL A   1      30.999  26.706  26.490  1.00  0.00    -0.086 Cl
ATOM     18  C   UNL A   1      31.342  23.546  24.424  1.00  0.00     0.023 C 
ATOM     19  Cl  UNL A   1      30.188  23.239  26.868  1.00  0.00    -0.083 Cl
ENDBRANCH   7   9
ENDBRANCH   4   5
ENDBRANCH   3   4
ENDBRANCH   2   3
ENDBRANCH   1   2
BRANCH   1  20
ATOM     20  C   UNL A   1      31.470  32.100  26.799  1.00  0.00     0.021 C 
BRANCH  20  21
ATOM     21  C   UNL A   1      32.723  32.891  27.159  1.00  0.00     0.116 C 
BRANCH  21  22
ATOM     22  N   UNL A   1      32.431  34.247  27.599  1.00  0.00    -0.352 N 
ATOM     23  C   UNL A   1      33.003  34.983  28.605  1.00  0.00     0.251 C 
ATOM     24  H   UNL A   1      31.717  34.706  27.099  1.00  0.00     0.163 HD
ATOM     25  O   UNL A   1      32.513  36.075  28.923  1.00  0.00    -0.269 OA
BRANCH  23  26
ATOM     26  C   UNL A   1      34.181  34.477  29.341  1.00  0.00     0.039 A 
ATOM     27  C   UNL A   1      33.989  33.849  30.575  1.00  0.00     0.014 A 
ATOM     28  C   UNL A   1      35.474  34.623  28.830  1.00  0.00     0.014 A 
ATOM     29  C   UNL A   1      35.081  33.306  31.259  1.00  0.00     0.010 A 
ATOM     30  C   UNL A   1      36.549  34.014  29.474  1.00  0.00     0.010 A 
ATOM     31  C   UNL A   1      36.366  33.346  30.694  1.00  0.00    -0.014 A 
BRANCH  31  32
ATOM     32  C   UNL A   1      37.522  32.689  31.361  1.00  0.00     0.031 A 
ATOM     33  C   UNL A   1      38.220  31.528  30.708  1.00  0.00     0.074 A 
ATOM     34  C   UNL A   1      37.904  33.094  32.587  1.00  0.00     0.049 A 
ATOM     35  N   UNL A   1      39.196  30.782  31.163  1.00  0.00    -0.248 NA
ATOM     36  C   UNL A   1      37.738  31.136  29.374  1.00  0.00     0.031 C 
ATOM     37  C   UNL A   1      37.281  34.176  33.351  1.00  0.00     0.029 A 
ATOM     38  N   UNL A   1      38.900  32.635  33.414  1.00  0.00    -0.354 N 
ATOM     39  C   UNL A   1      39.440  29.834  30.178  1.00  0.00     0.074 A 
ATOM     40  C   UNL A   1      38.467  30.057  29.129  1.00  0.00     0.031 C 
ATOM     41  C   UNL A   1      37.916  34.308  34.526  1.00  0.00     0.029 A 
ATOM     42  C   UNL A   1      38.964  33.295  34.618  1.00  0.00     0.049 A 
ATOM     43  H   UNL A   1      39.511  31.903  33.168  1.00  0.00     0.167 HD
ATOM     44  C   UNL A   1      40.404  28.881  30.138  1.00  0.00     0.037 A 
ATOM     45  C   UNL A   1      39.765  33.098  35.683  1.00  0.00     0.037 A 
ATOM     46  C   UNL A   1      41.372  28.665  31.181  1.00  0.00     0.049 A 
ATOM     47  C   UNL A   1      40.812  32.018  35.626  1.00  0.00     0.074 A 
ATOM     48  C   UNL A   1      42.415  27.754  31.217  1.00  0.00     0.029 A 
ATOM     49  N   UNL A   1      41.415  29.365  32.378  1.00  0.00    -0.354 N 
ATOM     50  N   UNL A   1      41.076  31.170  34.662  1.00  0.00    -0.248 NA
ATOM     51  C   UNL A   1      41.680  31.874  36.804  1.00  0.00     0.031 C 
ATOM     52  C   UNL A   1      43.052  27.864  32.456  1.00  0.00     0.029 A 
ATOM     53  C   UNL A   1      42.449  28.887  33.170  1.00  0.00     0.049 A 
ATOM     54  H   UNL A   1      40.802  30.092  32.630  1.00  0.00     0.167 HD
ATOM     55  C   UNL A   1      42.153  30.413  35.103  1.00  0.00     0.074 A 
ATOM     56  C   UNL A   1      42.505  30.913  36.415  1.00  0.00     0.031 C 
ATOM     57  C   UNL A   1      42.792  29.395  34.476  1.00  0.00     0.037 A 
BRANCH  44  58
ATOM     58  C   UNL A   1      40.452  27.999  28.922  1.00  0.00     0.064 A 
ATOM     59  C   UNL A   1      41.221  28.339  27.797  1.00  0.00     0.173 A 
ATOM     60  C   UNL A   1      39.744  26.789  28.887  1.00  0.00     0.173 A 
ATOM     61  F   UNL A   1      41.912  29.489  27.773  1.00  0.00    -0.203 F 
ATOM     62  C   UNL A   1      41.245  27.521  26.669  1.00  0.00     0.198 A 
ATOM     63  C   UNL A   1      39.799  25.956  27.773  1.00  0.00     0.198 A 
ATOM     64  F   UNL A   1      39.000  26.409  29.937  1.00  0.00    -0.203 F 
ATOM     65  F   UNL A   1      41.937  27.898  25.585  1.00  0.00    -0.200 F 
ATOM     66  C   UNL A   1      40.541  26.328  26.661  1.00  0.00     0.200 A 
ATOM     67  F   UNL A   1      39.131  24.795  27.771  1.00  0.00    -0.200 F 
ATOM     68  F   UNL A   1      40.568  25.540  25.577  1.00  0.00    -0.200 F 
ENDBRANCH  44  58
BRANCH  45  69
ATOM     69  C   UNL A   1      39.612  33.952  36.890  1.00  0.00     0.064 A 
ATOM     70  C   UNL A   1      38.820  33.543  37.972  1.00  0.00     0.173 A 
ATOM     71  C   UNL A   1      40.255  35.196  36.988  1.00  0.00     0.173 A 
ATOM     72  F   UNL A   1      38.167  32.372  37.918  1.00  0.00    -0.203 F 
ATOM     73  C   UNL A   1      38.661  34.352  39.096  1.00  0.00     0.198 A 
ATOM     74  C   UNL A   1      40.122  35.989  38.126  1.00  0.00     0.198 A 
ATOM     75  F   UNL A   1      41.027  35.634  35.982  1.00  0.00    -0.203 F 
ATOM     76  F   UNL A   1      37.862  33.956  40.096  1.00  0.00    -0.200 F 
ATOM     77  C   UNL A   1      39.319  35.571  39.175  1.00  0.00     0.200 A 
ATOM     78  F   UNL A   1      40.772  37.158  38.203  1.00  0.00    -0.200 F 
ATOM     79  F   UNL A   1      39.173  36.343  40.259  1.00  0.00    -0.200 F 
ENDBRANCH  45  69
BRANCH  57  80
ATOM     80  C   UNL A   1      43.962  28.772  35.185  1.00  0.00     0.064 A 
ATOM     81  C   UNL A   1      45.267  29.267  35.035  1.00  0.00     0.173 A 
ATOM     82  C   UNL A   1      43.769  27.689  36.056  1.00  0.00     0.173 A 
ATOM     83  F   UNL A   1      45.509  30.292  34.204  1.00  0.00    -0.203 F 
ATOM     84  C   UNL A   1      46.336  28.683  35.709  1.00  0.00     0.198 A 
ATOM     85  C   UNL A   1      44.835  27.129  36.754  1.00  0.00     0.198 A 
ATOM     86  F   UNL A   1      42.541  27.180  36.241  1.00  0.00    -0.203 F 
ATOM     87  F   UNL A   1      47.581  29.140  35.510  1.00  0.00    -0.200 F 
ATOM     88  C   UNL A   1      46.119  27.621  36.574  1.00  0.00     0.200 A 
ATOM     89  F   UNL A   1      44.620  26.113  37.601  1.00  0.00    -0.200 F 
ATOM     90  F   UNL A   1      47.148  27.066  37.229  1.00  0.00    -0.200 F 
ENDBRANCH  57  80
ENDBRANCH  31  32
ENDBRANCH  23  26
ENDBRANCH  21  22
ENDBRANCH  20  21
ENDBRANCH   1  20
TORSDOF 13
ENDMDL
MODEL 2
REMARK VINA RESULT:     -12.5      0.101      1.986
REMARK SMILES O=C(NCCCCCCNC(=O)c1ccc(-c2c3nc(c(-c4c(F)c(F)c(F)c(F)c4F)c4ccc([nH]4)c(-c4c(F)c(F)c(F)c(F)c4F)c4nc(c(-c5c(F)c(F)c(F)c(F)c5F)c5ccc2[nH]5)C=C4)C=C3)cc1)C1=C[C@H]2C(=N1)C=CC(Cl)=C2Cl
REMARK SMILES IDX 7 1 6 2 5 3 4 4 3 5 1 6 2 7 76 9 77 10 80 11 78 12 79 13
REMARK SMILES IDX 85 14 81 15 83 16 86 17 82 18 84 19 8 20 9 21 10 22 11 23
REMARK SMILES IDX 12 25 13 26 14 27 75 28 15 29 74 30 16 31 17 32 18 33 68 34
REMARK SMILES IDX 19 35 73 36 67 37 69 38 20 39 72 40 66 41 65 42 21 44 53 45
REMARK SMILES IDX 33 46 52 47 34 48 37 49 51 50 70 51 35 52 36 53 50 55 71 56
REMARK SMILES IDX 38 57 22 58 23 59 31 60 24 61 25 62 29 63 32 64 26 65 27 66
REMARK SMILES IDX 30 67 28 68 54 69 55 70 63 71 56 72 57 73 61 74 64 75 58 76
REMARK SMILES IDX 59 77 62 78 60 79 39 80 40 81 48 82 41 83 42 84 46 85 49 86
REMARK SMILES IDX 43 87 44 88 47 89 45 90
REMARK H PARENT 3 8 10 24 69 43 37 54
REMARK Flexibility Score: inf
ROOT
ATOM      1  C   UNL A   1      31.726  30.580  26.646  1.00  0.00     0.002 C 
ENDROOT
BRANCH   1   2
ATOM      2  C   UNL A   1      31.737  30.052  25.208  1.00  0.00     0.002 C 
BRANCH   2   3
ATOM      3  C   UNL A   1      33.003  29.307  24.759  1.00  0.00     0.021 C 
BRANCH   3   4
ATOM      4  C   UNL A   1      33.084  28.951  23.271  1.00  0.00     0.116 C 
BRANCH   4   5
ATOM      5  N   UNL A   1      31.977  29.493  22.515  1.00  0.00    -0.351 N 
ATOM      6  O   UNL A   1      29.966  29.586  21.536  1.00  0.00    -0.268 OA
ATOM      7  C   UNL A   1      30.776  28.939  22.199  1.00  0.00     0.269 C 
ATOM      8  H   UNL A   1      32.113  30.407  22.176  1.00  0.00     0.163 HD
BRANCH   7   9
ATOM      9  C   UNL A   1      30.475  27.535  22.583  1.00  0.00     0.125 C 
ATOM     10  C   UNL A   1      29.723  27.324  23.669  1.00  0.00     0.023 C 
ATOM     11  N   UNL A   1      31.158  26.422  22.131  1.00  0.00    -0.247 NA
ATOM     12  C   UNL A   1      29.823  25.896  24.039  1.00  0.00     0.106 C 
ATOM     13  C   UNL A   1      30.877  25.512  23.015  1.00  0.00     0.054 C 
ATOM     14  C   UNL A   1      30.321  25.481  25.386  1.00  0.00     0.050 C 
ATOM     15  C   UNL A   1      31.494  24.168  23.129  1.00  0.00     0.026 C 
ATOM     16  C   UNL A   1      30.836  24.242  25.494  1.00  0.00     0.056 C 
ATOM     17  Cl  UNL A   1      31.003  26.703  26.427  1.00  0.00    -0.086 Cl
ATOM     18  C   UNL A   1      31.395  23.568  24.330  1.00  0.00     0.023 C 
ATOM     19  Cl  UNL A   1      30.224  23.224  26.761  1.00  0.00    -0.083 Cl
ENDBRANCH   7   9
ENDBRANCH   4   5
ENDBRANCH   3   4
ENDBRANCH   2   3
ENDBRANCH   1   2
BRANCH   1  20
ATOM     20  C   UNL A   1      31.492  32.084  26.804  1.00  0.00     0.021 C 
BRANCH  20  21
ATOM     21  C   UNL A   1      32.730  32.907  27.143  1.00  0.00     0.116 C 
BRANCH  21  22
ATOM     22  N   UNL A   1      32.410  34.249  27.607  1.00  0.00    -0.352 N 
ATOM     23  C   UNL A   1      32.961  34.975  28.632  1.00  0.00     0.251 C 
ATOM     24  H   UNL A   1      31.691  34.703  27.111  1.00  0.00     0.163 HD
ATOM     25  O   UNL A   1      32.449  36.051  28.968  1.00  0.00    -0.269 OA
BRANCH  23  26
ATOM     26  C   UNL A   1      34.144  34.476  29.365  1.00  0.00     0.039 A 
ATOM     27  C   UNL A   1      33.956  33.829  30.591  1.00  0.00     0.014 A 
ATOM     28  C   UNL A   1      35.436  34.649  28.862  1.00  0.00     0.014 A 
ATOM     29  C   UNL A   1      35.053  33.293  31.272  1.00  0.00     0.010 A 
ATOM     30  C   UNL A   1      36.518  34.047  29.502  1.00  0.00     0.010 A 
ATOM     31  C   UNL A   1      36.340  33.360  30.713  1.00  0.00    -0.014 A 
BRANCH  31  32
ATOM     32  C   UNL A   1      37.503  32.711  31.375  1.00  0.00     0.031 A 
ATOM     33  C   UNL A   1      38.216  31.565  30.713  1.00  0.00     0.074 A 
ATOM     34  C   UNL A   1      37.877  33.110  32.606  1.00  0.00     0.049 A 
ATOM     35  N   UNL A   1      39.200  30.827  31.163  1.00  0.00    -0.248 NA
ATOM     36  C   UNL A   1      37.741  31.179  29.374  1.00  0.00     0.031 C 
ATOM     37  C   UNL A   1      37.240  34.177  33.379  1.00  0.00     0.029 A 
ATOM     38  N   UNL A   1      38.878  32.656  33.431  1.00  0.00    -0.354 N 
ATOM     39  C   UNL A   1      39.458  29.891  30.170  1.00  0.00     0.074 A 
ATOM     40  C   UNL A   1      38.484  30.111  29.122  1.00  0.00     0.031 C 
ATOM     41  C   UNL A   1      37.871  34.306  34.556  1.00  0.00     0.029 A 
ATOM     42  C   UNL A   1      38.932  33.305  34.641  1.00  0.00     0.049 A 
ATOM     43  H   UNL A   1      39.499  31.934  33.179  1.00  0.00     0.167 HD
ATOM     44  C   UNL A   1      40.433  28.951  30.123  1.00  0.00     0.037 A 
ATOM     45  C   UNL A   1      39.734  33.108  35.705  1.00  0.00     0.037 A 
ATOM     46  C   UNL A   1      41.403  28.737  31.166  1.00  0.00     0.049 A 
ATOM     47  C   UNL A   1      40.794  32.042  35.640  1.00  0.00     0.074 A 
ATOM     48  C   UNL A   1      42.456  27.839  31.195  1.00  0.00     0.029 A 
ATOM     49  N   UNL A   1      41.435  29.426  32.369  1.00  0.00    -0.354 N 
ATOM     50  N   UNL A   1      41.070  31.207  34.668  1.00  0.00    -0.248 NA
ATOM     51  C   UNL A   1      41.661  31.898  36.818  1.00  0.00     0.031 C 
ATOM     52  C   UNL A   1      43.090  27.945  32.437  1.00  0.00     0.029 A 
ATOM     53  C   UNL A   1      42.474  28.954  33.159  1.00  0.00     0.049 A 
ATOM     54  H   UNL A   1      40.812  30.144  32.626  1.00  0.00     0.167 HD
ATOM     55  C   UNL A   1      42.155  30.458  35.104  1.00  0.00     0.074 A 
ATOM     56  C   UNL A   1      42.499  30.951  36.422  1.00  0.00     0.031 C 
ATOM     57  C   UNL A   1      42.808  29.454  34.469  1.00  0.00     0.037 A 
BRANCH  44  58
ATOM     58  C   UNL A   1      40.495  28.081  28.899  1.00  0.00     0.064 A 
ATOM     59  C   UNL A   1      39.772  26.880  28.813  1.00  0.00     0.173 A 
ATOM     60  C   UNL A   1      41.265  28.459  27.789  1.00  0.00     0.173 A 
ATOM     61  F   UNL A   1      39.025  26.465  29.847  1.00  0.00    -0.203 F 
ATOM     62  C   UNL A   1      39.850  26.074  27.680  1.00  0.00     0.198 A 
ATOM     63  C   UNL A   1      41.312  27.669  26.644  1.00  0.00     0.198 A 
ATOM     64  F   UNL A   1      41.969  29.601  27.812  1.00  0.00    -0.203 F 
ATOM     65  F   UNL A   1      39.199  24.902  27.647  1.00  0.00    -0.200 F 
ATOM     66  C   UNL A   1      40.613  26.472  26.594  1.00  0.00     0.200 A 
ATOM     67  F   UNL A   1      42.038  28.063  25.589  1.00  0.00    -0.200 F 
ATOM     68  F   UNL A   1      40.685  25.697  25.502  1.00  0.00    -0.200 F 
ENDBRANCH  44  58
BRANCH  45  69
ATOM     69  C   UNL A   1      39.568  33.950  36.919  1.00  0.00     0.064 A 
ATOM     70  C   UNL A   1      40.189  35.202  37.024  1.00  0.00     0.173 A 
ATOM     71  C   UNL A   1      38.783  33.521  38.001  1.00  0.00     0.173 A 
ATOM     72  F   UNL A   1      40.967  35.648  36.026  1.00  0.00    -0.203 F 
ATOM     73  C   UNL A   1      40.048  35.984  38.169  1.00  0.00     0.198 A 
ATOM     74  C   UNL A   1      38.617  34.317  39.131  1.00  0.00     0.198 A 
ATOM     75  F   UNL A   1      38.163  32.332  37.951  1.00  0.00    -0.203 F 
ATOM     76  F   UNL A   1      40.691  37.156  38.261  1.00  0.00    -0.200 F 
ATOM     77  C   UNL A   1      39.256  35.543  39.219  1.00  0.00     0.200 A 
ATOM     78  F   UNL A   1      37.837  33.894  40.136  1.00  0.00    -0.200 F 
ATOM     79  F   UNL A   1      39.115  36.299  40.316  1.00  0.00    -0.200 F 
ENDBRANCH  45  69
BRANCH  57  80
ATOM     80  C   UNL A   1      43.985  28.840  35.175  1.00  0.00     0.064 A 
ATOM     81  C   UNL A   1      43.836  27.764  36.063  1.00  0.00     0.173 A 
ATOM     82  C   UNL A   1      45.284  29.310  34.928  1.00  0.00     0.173 A 
ATOM     83  F   UNL A   1      42.614  27.285  36.345  1.00  0.00    -0.203 F 
ATOM     84  C   UNL A   1      44.940  27.202  36.699  1.00  0.00     0.198 A 
ATOM     85  C   UNL A   1      46.388  28.723  35.539  1.00  0.00     0.198 A 
ATOM     86  F   UNL A   1      45.484  30.332  34.082  1.00  0.00    -0.203 F 
ATOM     87  F   UNL A   1      44.768  26.209  37.583  1.00  0.00    -0.200 F 
ATOM     88  C   UNL A   1      46.215  27.675  36.430  1.00  0.00     0.200 A 
ATOM     89  F   UNL A   1      47.621  29.173  35.266  1.00  0.00    -0.200 F 
ATOM     90  F   UNL A   1      47.277  27.127  37.036  1.00  0.00    -0.200 F 
ENDBRANCH  57  80
ENDBRANCH  31  32
ENDBRANCH  23  26
ENDBRANCH  21  22
ENDBRANCH  20  21
ENDBRANCH   1  20
TORSDOF 13
ENDMDL
MODEL 3
REMARK VINA RESULT:     -12.3      6.256     11.407
REMARK SMILES O=C(NCCCCCCNC(=O)c1ccc(-c2c3nc(c(-c4c(F)c(F)c(F)c(F)c4F)c4ccc([nH]4)c(-c4c(F)c(F)c(F)c(F)c4F)c4nc(c(-c5c(F)c(F)c(F)c(F)c5F)c5ccc2[nH]5)C=C4)C=C3)cc1)C1=C[C@H]2C(=N1)C=CC(Cl)=C2Cl
REMARK SMILES IDX 7 1 6 2 5 3 4 4 3 5 1 6 2 7 76 9 77 10 80 11 78 12 79 13
REMARK SMILES IDX 85 14 81 15 83 16 86 17 82 18 84 19 8 20 9 21 10 22 11 23
REMARK SMILES IDX 12 25 13 26 14 27 75 28 15 29 74 30 16 31 17 32 18 33 68 34
REMARK SMILES IDX 19 35 73 36 67 37 69 38 20 39 72 40 66 41 65 42 21 44 53 45
REMARK SMILES IDX 33 46 52 47 34 48 37 49 51 50 70 51 35 52 36 53 50 55 71 56
REMARK SMILES IDX 38 57 22 58 23 59 31 60 24 61 25 62 29 63 32 64 26 65 27 66
REMARK SMILES IDX 30 67 28 68 54 69 55 70 63 71 56 72 57 73 61 74 64 75 58 76
REMARK SMILES IDX 59 77 62 78 60 79 39 80 40 81 48 82 41 83 42 84 46 85 49 86
REMARK SMILES IDX 43 87 44 88 47 89 45 90
REMARK H PARENT 3 8 10 24 69 43 37 54
REMARK Flexibility Score: inf
ROOT
ATOM      1  C   UNL A   1      37.272  21.022  24.718  1.00  0.00     0.002 C 
ENDROOT
BRANCH   1   2
ATOM      2  C   UNL A   1      35.843  20.839  25.241  1.00  0.00     0.002 C 
BRANCH   2   3
ATOM      3  C   UNL A   1      35.328  21.906  26.219  1.00  0.00     0.021 C 
BRANCH   3   4
ATOM      4  C   UNL A   1      34.069  21.540  27.012  1.00  0.00     0.116 C 
BRANCH   4   5
ATOM      5  N   UNL A   1      33.542  20.245  26.641  1.00  0.00    -0.351 N 
ATOM      6  O   UNL A   1      32.363  18.721  25.502  1.00  0.00    -0.268 OA
ATOM      7  C   UNL A   1      32.685  19.900  25.643  1.00  0.00     0.269 C 
ATOM      8  H   UNL A   1      33.852  19.495  27.198  1.00  0.00     0.163 HD
BRANCH   7   9
ATOM      9  C   UNL A   1      32.082  20.948  24.779  1.00  0.00     0.125 C 
ATOM     10  C   UNL A   1      32.564  21.103  23.541  1.00  0.00     0.023 C 
ATOM     11  N   UNL A   1      31.300  21.996  25.227  1.00  0.00    -0.247 NA
ATOM     12  C   UNL A   1      32.056  22.379  22.994  1.00  0.00     0.106 C 
ATOM     13  C   UNL A   1      31.367  22.861  24.259  1.00  0.00     0.054 C 
ATOM     14  C   UNL A   1      32.992  23.454  22.544  1.00  0.00     0.050 C 
ATOM     15  C   UNL A   1      30.865  24.257  24.283  1.00  0.00     0.026 C 
ATOM     16  C   UNL A   1      32.515  24.712  22.522  1.00  0.00     0.056 C 
ATOM     17  Cl  UNL A   1      34.690  23.269  22.893  1.00  0.00    -0.086 Cl
ATOM     18  C   UNL A   1      31.406  25.099  23.383  1.00  0.00     0.023 C 
ATOM     19  Cl  UNL A   1      32.713  25.622  21.056  1.00  0.00    -0.083 Cl
ENDBRANCH   7   9
ENDBRANCH   4   5
ENDBRANCH   3   4
ENDBRANCH   2   3
ENDBRANCH   1   2
BRANCH   1  20
ATOM     20  C   UNL A   1      38.225  19.849  24.954  1.00  0.00     0.021 C 
BRANCH  20  21
ATOM     21  C   UNL A   1      39.299  20.080  26.011  1.00  0.00     0.116 C 
BRANCH  21  22
ATOM     22  N   UNL A   1      40.351  19.074  25.981  1.00  0.00    -0.352 N 
ATOM     23  C   UNL A   1      41.710  19.225  26.092  1.00  0.00     0.251 C 
ATOM     24  H   UNL A   1      40.041  18.147  25.865  1.00  0.00     0.163 HD
ATOM     25  O   UNL A   1      42.454  18.257  25.894  1.00  0.00    -0.269 OA
BRANCH  23  26
ATOM     26  C   UNL A   1      42.303  20.540  26.416  1.00  0.00     0.039 A 
ATOM     27  C   UNL A   1      42.720  21.370  25.370  1.00  0.00     0.014 A 
ATOM     28  C   UNL A   1      42.462  20.960  27.739  1.00  0.00     0.014 A 
ATOM     29  C   UNL A   1      43.226  22.643  25.648  1.00  0.00     0.010 A 
ATOM     30  C   UNL A   1      42.892  22.257  28.011  1.00  0.00     0.010 A 
ATOM     31  C   UNL A   1      43.277  23.115  26.970  1.00  0.00    -0.014 A 
BRANCH  31  32
ATOM     32  C   UNL A   1      43.721  24.501  27.277  1.00  0.00     0.031 A 
ATOM     33  C   UNL A   1      42.738  25.523  27.778  1.00  0.00     0.074 A 
ATOM     34  C   UNL A   1      44.997  24.861  27.041  1.00  0.00     0.049 A 
ATOM     35  N   UNL A   1      42.918  26.796  28.032  1.00  0.00    -0.248 NA
ATOM     36  C   UNL A   1      41.360  25.057  28.001  1.00  0.00     0.031 C 
ATOM     37  C   UNL A   1      46.038  23.981  26.510  1.00  0.00     0.029 A 
ATOM     38  N   UNL A   1      45.634  26.067  27.204  1.00  0.00    -0.354 N 
ATOM     39  C   UNL A   1      41.682  27.281  28.436  1.00  0.00     0.074 A 
ATOM     40  C   UNL A   1      40.744  26.183  28.332  1.00  0.00     0.031 C 
ATOM     41  C   UNL A   1      47.186  24.669  26.404  1.00  0.00     0.029 A 
ATOM     42  C   UNL A   1      46.954  26.049  26.821  1.00  0.00     0.049 A 
ATOM     43  H   UNL A   1      45.188  26.869  27.562  1.00  0.00     0.167 HD
ATOM     44  C   UNL A   1      41.361  28.521  28.880  1.00  0.00     0.037 A 
ATOM     45  C   UNL A   1      47.870  27.036  26.793  1.00  0.00     0.037 A 
ATOM     46  C   UNL A   1      42.298  29.610  28.986  1.00  0.00     0.049 A 
ATOM     47  C   UNL A   1      47.486  28.412  27.267  1.00  0.00     0.074 A 
ATOM     48  C   UNL A   1      42.081  30.892  29.463  1.00  0.00     0.029 A 
ATOM     49  N   UNL A   1      43.630  29.549  28.604  1.00  0.00    -0.354 N 
ATOM     50  N   UNL A   1      46.329  28.842  27.709  1.00  0.00    -0.248 NA
ATOM     51  C   UNL A   1      48.538  29.437  27.247  1.00  0.00     0.031 C 
ATOM     52  C   UNL A   1      43.265  31.621  29.317  1.00  0.00     0.029 A 
ATOM     53  C   UNL A   1      44.240  30.777  28.809  1.00  0.00     0.049 A 
ATOM     54  H   UNL A   1      44.076  28.751  28.240  1.00  0.00     0.167 HD
ATOM     55  C   UNL A   1      46.520  30.176  28.044  1.00  0.00     0.074 A 
ATOM     56  C   UNL A   1      47.909  30.479  27.770  1.00  0.00     0.031 C 
ATOM     57  C   UNL A   1      45.625  31.068  28.534  1.00  0.00     0.037 A 
BRANCH  44  58
ATOM     58  C   UNL A   1      39.933  28.763  29.281  1.00  0.00     0.064 A 
ATOM     59  C   UNL A   1      39.487  28.525  30.591  1.00  0.00     0.173 A 
ATOM     60  C   UNL A   1      39.004  29.262  28.356  1.00  0.00     0.173 A 
ATOM     61  F   UNL A   1      40.331  28.041  31.515  1.00  0.00    -0.203 F 
ATOM     62  C   UNL A   1      38.157  28.738  30.948  1.00  0.00     0.198 A 
ATOM     63  C   UNL A   1      37.684  29.508  28.725  1.00  0.00     0.198 A 
ATOM     64  F   UNL A   1      39.377  29.517  27.092  1.00  0.00    -0.203 F 
ATOM     65  F   UNL A   1      37.742  28.444  32.188  1.00  0.00    -0.200 F 
ATOM     66  C   UNL A   1      37.259  29.235  30.016  1.00  0.00     0.200 A 
ATOM     67  F   UNL A   1      36.821  30.004  27.828  1.00  0.00    -0.200 F 
ATOM     68  F   UNL A   1      35.981  29.443  30.361  1.00  0.00    -0.200 F 
ENDBRANCH  44  58
BRANCH  45  69
ATOM     69  C   UNL A   1      49.246  26.751  26.306  1.00  0.00     0.064 A 
ATOM     70  C   UNL A   1      50.231  26.249  27.169  1.00  0.00     0.173 A 
ATOM     71  C   UNL A   1      49.606  26.972  24.967  1.00  0.00     0.173 A 
ATOM     72  F   UNL A   1      49.944  26.041  28.462  1.00  0.00    -0.203 F 
ATOM     73  C   UNL A   1      51.526  25.998  26.718  1.00  0.00     0.198 A 
ATOM     74  C   UNL A   1      50.891  26.690  24.510  1.00  0.00     0.198 A 
ATOM     75  F   UNL A   1      48.700  27.448  24.100  1.00  0.00    -0.203 F 
ATOM     76  F   UNL A   1      52.459  25.563  27.574  1.00  0.00    -0.200 F 
ATOM     77  C   UNL A   1      51.852  26.213  25.387  1.00  0.00     0.200 A 
ATOM     78  F   UNL A   1      51.196  26.884  23.220  1.00  0.00    -0.200 F 
ATOM     79  F   UNL A   1      53.094  25.964  24.952  1.00  0.00    -0.200 F 
ENDBRANCH  45  69
BRANCH  57  80
ATOM     80  C   UNL A   1      46.125  32.452  28.841  1.00  0.00     0.064 A 
ATOM     81  C   UNL A   1      46.671  32.782  30.090  1.00  0.00     0.173 A 
ATOM     82  C   UNL A   1      46.092  33.452  27.856  1.00  0.00     0.173 A 
ATOM     83  F   UNL A   1      46.714  31.867  31.071  1.00  0.00    -0.203 F 
ATOM     84  C   UNL A   1      47.139  34.067  30.351  1.00  0.00     0.198 A 
ATOM     85  C   UNL A   1      46.591  34.726  28.110  1.00  0.00     0.198 A 
ATOM     86  F   UNL A   1      45.586  33.189  26.641  1.00  0.00    -0.203 F 
ATOM     87  F   UNL A   1      47.609  34.373  31.569  1.00  0.00    -0.200 F 
ATOM     88  C   UNL A   1      47.107  35.035  29.359  1.00  0.00     0.200 A 
ATOM     89  F   UNL A   1      46.573  35.655  27.144  1.00  0.00    -0.200 F 
ATOM     90  F   UNL A   1      47.566  36.269  29.609  1.00  0.00    -0.200 F 
ENDBRANCH  57  80
ENDBRANCH  31  32
ENDBRANCH  23  26
ENDBRANCH  21  22
ENDBRANCH  20  21
ENDBRANCH   1  20
TORSDOF 13
ENDMDL
