MODEL 1
REMARK VINA RESULT:     -13.1      0.000      0.000
REMARK SMILES C[C@H](C(=O)NCCCCCCNC(=O)c1ccc(-c2c3nc(c(-c4c(F)c(F)c(F)c(F)c4F)c4ccc([nH]4)c(-c4c(F)c(F)c(F)c(F)c4F)c4nc(c(-c5c(F)c(F)c(F)c(F)c5F)c5ccc2[nH]5)C=C4)C=C3)cc1)c1ccc(-c2ccccc2)c(F)c1
REMARK SMILES IDX 8 1 7 2 6 3 5 4 3 5 4 6 2 8 1 9 78 10 79 11 90 12 80 13
REMARK SMILES IDX 88 14 81 15 89 16 82 17 83 18 87 19 84 20 86 21 85 22 9 23
REMARK SMILES IDX 10 24 11 25 12 26 13 27 14 29 15 30 16 31 77 32 17 33 76 34
REMARK SMILES IDX 18 35 19 36 20 37 70 38 21 39 75 40 69 41 71 42 22 43 74 44
REMARK SMILES IDX 68 45 67 46 23 48 55 49 35 50 54 51 36 52 39 53 53 54 72 55
REMARK SMILES IDX 37 56 38 57 52 59 73 60 40 61 24 62 25 63 33 64 26 65 27 66
REMARK SMILES IDX 31 67 34 68 28 69 29 70 32 71 30 72 56 73 57 74 65 75 58 76
REMARK SMILES IDX 59 77 63 78 66 79 60 80 61 81 64 82 62 83 41 84 42 85 50 86
REMARK SMILES IDX 43 87 44 88 48 89 51 90 45 91 46 92 49 93 47 94
REMARK H PARENT 5 7 12 28 71 47 39 58
REMARK Flexibility Score: inf
ROOT
ATOM      1  C   UNL A   1      32.389  29.581  27.024  1.00  0.00     0.002 C 
ENDROOT
BRANCH   1   2
ATOM      2  C   UNL A   1      31.645  28.258  27.245  1.00  0.00     0.021 C 
BRANCH   2   3
ATOM      3  C   UNL A   1      32.332  27.055  26.598  1.00  0.00     0.116 C 
BRANCH   3   4
ATOM      4  N   UNL A   1      31.540  25.853  26.764  1.00  0.00    -0.356 N 
ATOM      5  C   UNL A   1      30.945  25.066  25.821  1.00  0.00     0.227 C 
ATOM      6  O   UNL A   1      30.208  24.158  26.211  1.00  0.00    -0.274 OA
ATOM      7  H   UNL A   1      31.412  25.561  27.697  1.00  0.00     0.163 HD
BRANCH   5   8
ATOM      8  C   UNL A   1      31.220  25.318  24.333  1.00  0.00     0.105 C 
ATOM      9  C   UNL A   1      30.689  24.145  23.499  1.00  0.00     0.023 C 
BRANCH   8  10
ATOM     10  C   UNL A   1      30.656  26.651  23.864  1.00  0.00    -0.033 A 
ATOM     11  C   UNL A   1      31.484  27.680  23.399  1.00  0.00     0.005 A 
ATOM     12  C   UNL A   1      29.273  26.874  23.863  1.00  0.00     0.044 A 
ATOM     13  C   UNL A   1      30.942  28.891  22.946  1.00  0.00     0.012 A 
ATOM     14  C   UNL A   1      28.739  28.069  23.376  1.00  0.00     0.131 A 
ATOM     15  C   UNL A   1      29.553  29.109  22.912  1.00  0.00     0.017 A 
ATOM     16  F   UNL A   1      27.402  28.183  23.349  1.00  0.00    -0.206 F 
BRANCH  15  17
ATOM     17  C   UNL A   1      28.995  30.383  22.415  1.00  0.00    -0.015 A 
ATOM     18  C   UNL A   1      28.496  30.499  21.106  1.00  0.00     0.009 A 
ATOM     19  C   UNL A   1      28.956  31.529  23.229  1.00  0.00     0.009 A 
ATOM     20  C   UNL A   1      27.991  31.711  20.626  1.00  0.00     0.001 A 
ATOM     21  C   UNL A   1      28.449  32.741  22.753  1.00  0.00     0.001 A 
ATOM     22  C   UNL A   1      27.970  32.833  21.450  1.00  0.00     0.000 A 
ENDBRANCH  15  17
ENDBRANCH   8  10
ENDBRANCH   5   8
ENDBRANCH   3   4
ENDBRANCH   2   3
ENDBRANCH   1   2
BRANCH   1  23
ATOM     23  C   UNL A   1      31.719  30.545  26.037  1.00  0.00     0.002 C 
BRANCH  23  24
ATOM     24  C   UNL A   1      31.420  31.939  26.594  1.00  0.00     0.021 C 
BRANCH  24  25
ATOM     25  C   UNL A   1      32.600  32.604  27.300  1.00  0.00     0.116 C 
BRANCH  25  26
ATOM     26  N   UNL A   1      32.350  34.013  27.568  1.00  0.00    -0.352 N 
ATOM     27  C   UNL A   1      32.937  34.849  28.484  1.00  0.00     0.251 C 
ATOM     28  H   UNL A   1      31.656  34.429  27.007  1.00  0.00     0.163 HD
ATOM     29  O   UNL A   1      32.449  35.954  28.714  1.00  0.00    -0.269 OA
BRANCH  27  30
ATOM     30  C   UNL A   1      34.142  34.414  29.218  1.00  0.00     0.039 A 
ATOM     31  C   UNL A   1      33.990  33.808  30.468  1.00  0.00     0.014 A 
ATOM     32  C   UNL A   1      35.419  34.600  28.679  1.00  0.00     0.014 A 
ATOM     33  C   UNL A   1      35.109  33.311  31.136  1.00  0.00     0.010 A 
ATOM     34  C   UNL A   1      36.527  34.046  29.316  1.00  0.00     0.010 A 
ATOM     35  C   UNL A   1      36.382  33.381  30.542  1.00  0.00    -0.014 A 
BRANCH  35  36
ATOM     36  C   UNL A   1      37.554  32.706  31.159  1.00  0.00     0.031 A 
ATOM     37  C   UNL A   1      38.215  31.542  30.478  1.00  0.00     0.074 A 
ATOM     38  C   UNL A   1      37.967  33.102  32.380  1.00  0.00     0.049 A 
ATOM     39  N   UNL A   1      39.194  30.785  30.905  1.00  0.00    -0.248 NA
ATOM     40  C   UNL A   1      37.698  31.163  29.154  1.00  0.00     0.031 C 
ATOM     41  C   UNL A   1      37.371  34.186  33.164  1.00  0.00     0.029 A 
ATOM     42  N   UNL A   1      38.972  32.625  33.187  1.00  0.00    -0.354 N 
ATOM     43  C   UNL A   1      39.400  29.835  29.912  1.00  0.00     0.074 A 
ATOM     44  C   UNL A   1      38.423  30.087  28.876  1.00  0.00     0.031 C 
ATOM     45  C   UNL A   1      38.025  34.298  34.330  1.00  0.00     0.029 A 
ATOM     46  C   UNL A   1      39.056  33.267  34.400  1.00  0.00     0.049 A 
ATOM     47  H   UNL A   1      39.575  31.894  32.922  1.00  0.00     0.167 HD
ATOM     48  C   UNL A   1      40.332  28.854  29.869  1.00  0.00     0.037 A 
ATOM     49  C   UNL A   1      39.855  33.036  35.458  1.00  0.00     0.037 A 
ATOM     50  C   UNL A   1      41.322  28.626  30.890  1.00  0.00     0.049 A 
ATOM     51  C   UNL A   1      40.869  31.925  35.382  1.00  0.00     0.074 A 
ATOM     52  C   UNL A   1      42.367  27.719  30.887  1.00  0.00     0.029 A 
ATOM     53  N   UNL A   1      41.383  29.303  32.098  1.00  0.00    -0.354 N 
ATOM     54  N   UNL A   1      41.120  31.101  34.394  1.00  0.00    -0.248 NA
ATOM     55  C   UNL A   1      41.711  31.712  36.567  1.00  0.00     0.031 C 
ATOM     56  C   UNL A   1      43.021  27.801  32.120  1.00  0.00     0.029 A 
ATOM     57  C   UNL A   1      42.421  28.801  32.868  1.00  0.00     0.049 A 
ATOM     58  H   UNL A   1      40.780  30.032  32.370  1.00  0.00     0.167 HD
ATOM     59  C   UNL A   1      42.158  30.289  34.830  1.00  0.00     0.074 A 
ATOM     60  C   UNL A   1      42.510  30.738  36.160  1.00  0.00     0.031 C 
ATOM     61  C   UNL A   1      42.760  29.258  34.190  1.00  0.00     0.037 A 
BRANCH  48  62
ATOM     62  C   UNL A   1      40.343  27.938  28.681  1.00  0.00     0.064 A 
ATOM     63  C   UNL A   1      41.080  28.241  27.525  1.00  0.00     0.173 A 
ATOM     64  C   UNL A   1      39.696  26.695  28.739  1.00  0.00     0.173 A 
ATOM     65  F   UNL A   1      41.712  29.418  27.416  1.00  0.00    -0.203 F 
ATOM     66  C   UNL A   1      41.160  27.334  26.471  1.00  0.00     0.198 A 
ATOM     67  C   UNL A   1      39.800  25.780  27.695  1.00  0.00     0.198 A 
ATOM     68  F   UNL A   1      38.985  26.355  29.825  1.00  0.00    -0.203 F 
ATOM     69  F   UNL A   1      41.851  27.652  25.368  1.00  0.00    -0.200 F 
ATOM     70  C   UNL A   1      40.531  26.102  26.562  1.00  0.00     0.200 A 
ATOM     71  F   UNL A   1      39.205  24.584  27.791  1.00  0.00    -0.200 F 
ATOM     72  F   UNL A   1      40.630  25.221  25.556  1.00  0.00    -0.200 F 
ENDBRANCH  48  62
BRANCH  49  73
ATOM     73  C   UNL A   1      39.723  33.854  36.694  1.00  0.00     0.064 A 
ATOM     74  C   UNL A   1      38.900  33.440  37.752  1.00  0.00     0.173 A 
ATOM     75  C   UNL A   1      40.377  35.088  36.824  1.00  0.00     0.173 A 
ATOM     76  F   UNL A   1      38.236  32.277  37.667  1.00  0.00    -0.203 F 
ATOM     77  C   UNL A   1      38.707  34.244  38.873  1.00  0.00     0.198 A 
ATOM     78  C   UNL A   1      40.212  35.875  37.962  1.00  0.00     0.198 A 
ATOM     79  F   UNL A   1      41.179  35.531  35.846  1.00  0.00    -0.203 F 
ATOM     80  F   UNL A   1      37.862  33.854  39.836  1.00  0.00    -0.200 F 
ATOM     81  C   UNL A   1      39.366  35.459  38.979  1.00  0.00     0.200 A 
ATOM     82  F   UNL A   1      40.864  37.041  38.068  1.00  0.00    -0.200 F 
ATOM     83  F   UNL A   1      39.176  36.236  40.054  1.00  0.00    -0.200 F 
ENDBRANCH  49  73
BRANCH  61  84
ATOM     84  C   UNL A   1      43.872  28.553  34.913  1.00  0.00     0.064 A 
ATOM     85  C   UNL A   1      43.631  27.418  35.701  1.00  0.00     0.173 A 
ATOM     86  C   UNL A   1      45.198  28.995  34.787  1.00  0.00     0.173 A 
ATOM     87  F   UNL A   1      42.378  26.965  35.867  1.00  0.00    -0.203 F 
ATOM     88  C   UNL A   1      44.672  26.766  36.356  1.00  0.00     0.198 A 
ATOM     89  C   UNL A   1      46.241  28.321  35.416  1.00  0.00     0.198 A 
ATOM     90  F   UNL A   1      45.484  30.073  34.041  1.00  0.00    -0.203 F 
ATOM     91  F   UNL A   1      44.410  25.714  37.143  1.00  0.00    -0.200 F 
ATOM     92  C   UNL A   1      45.976  27.212  36.206  1.00  0.00     0.200 A 
ATOM     93  F   UNL A   1      47.503  28.744  35.257  1.00  0.00    -0.200 F 
ATOM     94  F   UNL A   1      46.978  26.578  36.829  1.00  0.00    -0.200 F 
ENDBRANCH  61  84
ENDBRANCH  35  36
ENDBRANCH  27  30
ENDBRANCH  25  26
ENDBRANCH  24  25
ENDBRANCH  23  24
ENDBRANCH   1  23
TORSDOF 15
ENDMDL
MODEL 2
REMARK VINA RESULT:     -12.9      0.245      1.601
REMARK SMILES C[C@H](C(=O)NCCCCCCNC(=O)c1ccc(-c2c3nc(c(-c4c(F)c(F)c(F)c(F)c4F)c4ccc([nH]4)c(-c4c(F)c(F)c(F)c(F)c4F)c4nc(c(-c5c(F)c(F)c(F)c(F)c5F)c5ccc2[nH]5)C=C4)C=C3)cc1)c1ccc(-c2ccccc2)c(F)c1
REMARK SMILES IDX 8 1 7 2 6 3 5 4 3 5 4 6 2 8 1 9 78 10 79 11 90 12 80 13
REMARK SMILES IDX 88 14 81 15 89 16 82 17 83 18 87 19 84 20 86 21 85 22 9 23
REMARK SMILES IDX 10 24 11 25 12 26 13 27 14 29 15 30 16 31 77 32 17 33 76 34
REMARK SMILES IDX 18 35 19 36 20 37 70 38 21 39 75 40 69 41 71 42 22 43 74 44
REMARK SMILES IDX 68 45 67 46 23 48 55 49 35 50 54 51 36 52 39 53 53 54 72 55
REMARK SMILES IDX 37 56 38 57 52 59 73 60 40 61 24 62 25 63 33 64 26 65 27 66
REMARK SMILES IDX 31 67 34 68 28 69 29 70 32 71 30 72 56 73 57 74 65 75 58 76
REMARK SMILES IDX 59 77 63 78 66 79 60 80 61 81 64 82 62 83 41 84 42 85 50 86
REMARK SMILES IDX 43 87 44 88 48 89 51 90 45 91 46 92 49 93 47 94
REMARK H PARENT 5 7 12 28 71 47 39 58
REMARK Flexibility Score: inf
ROOT
ATOM      1  C   UNL A   1      32.266  29.431  27.091  1.00  0.00     0.002 C 
ENDROOT
BRANCH   1   2
ATOM      2  C   UNL A   1      31.528  28.094  27.222  1.00  0.00     0.021 C 
BRANCH   2   3
ATOM      3  C   UNL A   1      32.287  26.914  26.616  1.00  0.00     0.116 C 
BRANCH   3   4
ATOM      4  N   UNL A   1      31.554  25.676  26.796  1.00  0.00    -0.356 N 
ATOM      5  C   UNL A   1      30.984  24.859  25.862  1.00  0.00     0.227 C 
ATOM      6  O   UNL A   1      30.296  23.919  26.265  1.00  0.00    -0.274 OA
ATOM      7  H   UNL A   1      31.451  25.382  27.730  1.00  0.00     0.163 HD
BRANCH   5   8
ATOM      8  C   UNL A   1      31.228  25.118  24.370  1.00  0.00     0.105 C 
ATOM      9  C   UNL A   1      30.661  23.959  23.540  1.00  0.00     0.023 C 
BRANCH   8  10
ATOM     10  C   UNL A   1      30.671  26.462  23.924  1.00  0.00    -0.033 A 
ATOM     11  C   UNL A   1      31.502  27.483  23.446  1.00  0.00     0.005 A 
ATOM     12  C   UNL A   1      29.292  26.704  23.957  1.00  0.00     0.044 A 
ATOM     13  C   UNL A   1      30.967  28.705  23.015  1.00  0.00     0.012 A 
ATOM     14  C   UNL A   1      28.764  27.910  23.492  1.00  0.00     0.131 A 
ATOM     15  C   UNL A   1      29.580  28.942  23.015  1.00  0.00     0.017 A 
ATOM     16  F   UNL A   1      27.427  28.042  23.498  1.00  0.00    -0.206 F 
BRANCH  15  17
ATOM     17  C   UNL A   1      29.028  30.227  22.541  1.00  0.00    -0.015 A 
ATOM     18  C   UNL A   1      28.582  30.384  21.217  1.00  0.00     0.009 A 
ATOM     19  C   UNL A   1      28.942  31.343  23.392  1.00  0.00     0.009 A 
ATOM     20  C   UNL A   1      28.083  31.607  20.760  1.00  0.00     0.001 A 
ATOM     21  C   UNL A   1      28.442  32.566  22.938  1.00  0.00     0.001 A 
ATOM     22  C   UNL A   1      28.015  32.699  21.620  1.00  0.00     0.000 A 
ENDBRANCH  15  17
ENDBRANCH   8  10
ENDBRANCH   5   8
ENDBRANCH   3   4
ENDBRANCH   2   3
ENDBRANCH   1   2
BRANCH   1  23
ATOM     23  C   UNL A   1      31.694  30.388  26.038  1.00  0.00     0.002 C 
BRANCH  23  24
ATOM     24  C   UNL A   1      31.408  31.806  26.537  1.00  0.00     0.021 C 
BRANCH  24  25
ATOM     25  C   UNL A   1      32.579  32.471  27.257  1.00  0.00     0.116 C 
BRANCH  25  26
ATOM     26  N   UNL A   1      32.346  33.891  27.480  1.00  0.00    -0.352 N 
ATOM     27  C   UNL A   1      32.905  34.737  28.404  1.00  0.00     0.251 C 
ATOM     28  H   UNL A   1      31.690  34.307  26.875  1.00  0.00     0.163 HD
ATOM     29  O   UNL A   1      32.430  35.857  28.584  1.00  0.00    -0.269 OA
BRANCH  27  30
ATOM     30  C   UNL A   1      34.063  34.295  29.207  1.00  0.00     0.039 A 
ATOM     31  C   UNL A   1      33.850  33.425  30.279  1.00  0.00     0.014 A 
ATOM     32  C   UNL A   1      35.356  34.734  28.906  1.00  0.00     0.014 A 
ATOM     33  C   UNL A   1      34.940  32.927  30.994  1.00  0.00     0.010 A 
ATOM     34  C   UNL A   1      36.448  34.187  29.578  1.00  0.00     0.010 A 
ATOM     35  C   UNL A   1      36.252  33.265  30.617  1.00  0.00    -0.014 A 
BRANCH  35  36
ATOM     36  C   UNL A   1      37.424  32.612  31.255  1.00  0.00     0.031 A 
ATOM     37  C   UNL A   1      38.111  31.451  30.592  1.00  0.00     0.074 A 
ATOM     38  C   UNL A   1      37.816  33.023  32.477  1.00  0.00     0.049 A 
ATOM     39  N   UNL A   1      39.095  30.711  31.039  1.00  0.00    -0.248 NA
ATOM     40  C   UNL A   1      37.616  31.054  29.265  1.00  0.00     0.031 C 
ATOM     41  C   UNL A   1      37.195  34.106  33.245  1.00  0.00     0.029 A 
ATOM     42  N   UNL A   1      38.817  32.568  33.301  1.00  0.00    -0.354 N 
ATOM     43  C   UNL A   1      39.327  29.757  30.057  1.00  0.00     0.074 A 
ATOM     44  C   UNL A   1      38.360  29.986  29.006  1.00  0.00     0.031 C 
ATOM     45  C   UNL A   1      37.833  34.237  34.418  1.00  0.00     0.029 A 
ATOM     46  C   UNL A   1      38.876  33.221  34.510  1.00  0.00     0.049 A 
ATOM     47  H   UNL A   1      39.434  31.843  33.051  1.00  0.00     0.167 HD
ATOM     48  C   UNL A   1      40.272  28.788  30.034  1.00  0.00     0.037 A 
ATOM     49  C   UNL A   1      39.665  33.010  35.581  1.00  0.00     0.037 A 
ATOM     50  C   UNL A   1      41.252  28.583  31.070  1.00  0.00     0.049 A 
ATOM     51  C   UNL A   1      40.695  31.913  35.526  1.00  0.00     0.074 A 
ATOM     52  C   UNL A   1      42.309  27.690  31.088  1.00  0.00     0.029 A 
ATOM     53  N   UNL A   1      41.288  29.271  32.273  1.00  0.00    -0.354 N 
ATOM     54  N   UNL A   1      40.970  31.084  34.550  1.00  0.00    -0.248 NA
ATOM     55  C   UNL A   1      41.524  31.721  36.724  1.00  0.00     0.031 C 
ATOM     56  C   UNL A   1      42.946  27.792  32.329  1.00  0.00     0.029 A 
ATOM     57  C   UNL A   1      42.323  28.789  33.060  1.00  0.00     0.049 A 
ATOM     58  H   UNL A   1      40.671  29.994  32.530  1.00  0.00     0.167 HD
ATOM     59  C   UNL A   1      42.013  30.290  35.006  1.00  0.00     0.074 A 
ATOM     60  C   UNL A   1      42.342  30.755  36.337  1.00  0.00     0.031 C 
ATOM     61  C   UNL A   1      42.638  29.262  34.382  1.00  0.00     0.037 A 
BRANCH  48  62
ATOM     62  C   UNL A   1      40.312  27.863  28.854  1.00  0.00     0.064 A 
ATOM     63  C   UNL A   1      41.070  28.159  27.711  1.00  0.00     0.173 A 
ATOM     64  C   UNL A   1      39.670  26.616  28.910  1.00  0.00     0.173 A 
ATOM     65  F   UNL A   1      41.698  29.339  27.604  1.00  0.00    -0.203 F 
ATOM     66  C   UNL A   1      41.176  27.244  26.666  1.00  0.00     0.198 A 
ATOM     67  C   UNL A   1      39.800  25.694  27.876  1.00  0.00     0.198 A 
ATOM     68  F   UNL A   1      38.939  26.281  29.985  1.00  0.00    -0.203 F 
ATOM     69  F   UNL A   1      41.887  27.557  25.574  1.00  0.00    -0.200 F 
ATOM     70  C   UNL A   1      40.551  26.009  26.755  1.00  0.00     0.200 A 
ATOM     71  F   UNL A   1      39.209  24.495  27.970  1.00  0.00    -0.200 F 
ATOM     72  F   UNL A   1      40.675  25.121  25.758  1.00  0.00    -0.200 F 
ENDBRANCH  48  62
BRANCH  49  73
ATOM     73  C   UNL A   1      39.505  33.836  36.808  1.00  0.00     0.064 A 
ATOM     74  C   UNL A   1      40.210  35.038  36.969  1.00  0.00     0.173 A 
ATOM     75  C   UNL A   1      38.683  33.418  37.865  1.00  0.00     0.173 A 
ATOM     76  F   UNL A   1      41.026  35.470  35.996  1.00  0.00    -0.203 F 
ATOM     77  C   UNL A   1      40.128  35.769  38.152  1.00  0.00     0.198 A 
ATOM     78  C   UNL A   1      38.573  34.169  39.033  1.00  0.00     0.198 A 
ATOM     79  F   UNL A   1      37.983  32.279  37.763  1.00  0.00    -0.203 F 
ATOM     80  F   UNL A   1      40.865  36.876  38.304  1.00  0.00    -0.200 F 
ATOM     81  C   UNL A   1      39.307  35.336  39.182  1.00  0.00     0.200 A 
ATOM     82  F   UNL A   1      37.765  33.755  40.019  1.00  0.00    -0.200 F 
ATOM     83  F   UNL A   1      39.233  36.035  40.323  1.00  0.00    -0.200 F 
ENDBRANCH  49  73
BRANCH  61  84
ATOM     84  C   UNL A   1      43.750  28.579  35.126  1.00  0.00     0.064 A 
ATOM     85  C   UNL A   1      45.085  28.989  34.989  1.00  0.00     0.173 A 
ATOM     86  C   UNL A   1      43.474  27.529  36.015  1.00  0.00     0.173 A 
ATOM     87  F   UNL A   1      45.403  29.977  34.138  1.00  0.00    -0.203 F 
ATOM     88  C   UNL A   1      46.104  28.357  35.694  1.00  0.00     0.198 A 
ATOM     89  C   UNL A   1      44.492  26.922  36.745  1.00  0.00     0.198 A 
ATOM     90  F   UNL A   1      42.214  27.102  36.188  1.00  0.00    -0.203 F 
ATOM     91  F   UNL A   1      47.377  28.732  35.508  1.00  0.00    -0.200 F 
ATOM     92  C   UNL A   1      45.807  27.330  36.578  1.00  0.00     0.200 A 
ATOM     93  F   UNL A   1      44.201  25.940  37.610  1.00  0.00    -0.200 F 
ATOM     94  F   UNL A   1      46.788  26.729  37.263  1.00  0.00    -0.200 F 
ENDBRANCH  61  84
ENDBRANCH  35  36
ENDBRANCH  27  30
ENDBRANCH  25  26
ENDBRANCH  24  25
ENDBRANCH  23  24
ENDBRANCH   1  23
TORSDOF 15
ENDMDL
MODEL 3
REMARK VINA RESULT:     -12.7      6.255     11.749
REMARK SMILES C[C@H](C(=O)NCCCCCCNC(=O)c1ccc(-c2c3nc(c(-c4c(F)c(F)c(F)c(F)c4F)c4ccc([nH]4)c(-c4c(F)c(F)c(F)c(F)c4F)c4nc(c(-c5c(F)c(F)c(F)c(F)c5F)c5ccc2[nH]5)C=C4)C=C3)cc1)c1ccc(-c2ccccc2)c(F)c1
REMARK SMILES IDX 8 1 7 2 6 3 5 4 3 5 4 6 2 8 1 9 78 10 79 11 90 12 80 13
REMARK SMILES IDX 88 14 81 15 89 16 82 17 83 18 87 19 84 20 86 21 85 22 9 23
REMARK SMILES IDX 10 24 11 25 12 26 13 27 14 29 15 30 16 31 77 32 17 33 76 34
REMARK SMILES IDX 18 35 19 36 20 37 70 38 21 39 75 40 69 41 71 42 22 43 74 44
REMARK SMILES IDX 68 45 67 46 23 48 55 49 35 50 54 51 36 52 39 53 53 54 72 55
REMARK SMILES IDX 37 56 38 57 52 59 73 60 40 61 24 62 25 63 33 64 26 65 27 66
REMARK SMILES IDX 31 67 34 68 28 69 29 70 32 71 30 72 56 73 57 74 65 75 58 76
REMARK SMILES IDX 59 77 63 78 66 79 60 80 61 81 64 82 62 83 41 84 42 85 50 86
REMARK SMILES IDX 43 87 44 88 48 89 51 90 45 91 46 92 49 93 47 94
REMARK H PARENT 5 7 12 28 71 47 39 58
REMARK Flexibility Score: inf
ROOT
ATOM      1  C   UNL A   1      36.347  22.202  24.122  1.00  0.00     0.002 C 
ENDROOT
BRANCH   1   2
ATOM      2  C   UNL A   1      36.449  23.671  24.553  1.00  0.00     0.021 C 
BRANCH   2   3
ATOM      3  C   UNL A   1      35.093  24.343  24.762  1.00  0.00     0.116 C 
BRANCH   3   4
ATOM      4  N   UNL A   1      34.453  24.627  23.493  1.00  0.00    -0.356 N 
ATOM      5  C   UNL A   1      33.208  24.284  23.050  1.00  0.00     0.227 C 
ATOM      6  O   UNL A   1      32.928  24.528  21.874  1.00  0.00    -0.274 OA
ATOM      7  H   UNL A   1      34.998  25.144  22.855  1.00  0.00     0.163 HD
BRANCH   5   8
ATOM      8  C   UNL A   1      32.207  23.635  24.014  1.00  0.00     0.105 C 
ATOM      9  C   UNL A   1      30.777  23.841  23.498  1.00  0.00     0.023 C 
BRANCH   8  10
ATOM     10  C   UNL A   1      32.518  22.165  24.257  1.00  0.00    -0.033 A 
ATOM     11  C   UNL A   1      32.945  21.697  25.506  1.00  0.00     0.005 A 
ATOM     12  C   UNL A   1      32.356  21.227  23.229  1.00  0.00     0.044 A 
ATOM     13  C   UNL A   1      33.200  20.335  25.716  1.00  0.00     0.012 A 
ATOM     14  C   UNL A   1      32.577  19.868  23.457  1.00  0.00     0.131 A 
ATOM     15  C   UNL A   1      33.009  19.384  24.698  1.00  0.00     0.017 A 
ATOM     16  F   UNL A   1      32.340  19.024  22.439  1.00  0.00    -0.206 F 
BRANCH  15  17
ATOM     17  C   UNL A   1      33.263  17.950  24.939  1.00  0.00    -0.015 A 
ATOM     18  C   UNL A   1      34.508  17.370  24.639  1.00  0.00     0.009 A 
ATOM     19  C   UNL A   1      32.265  17.110  25.463  1.00  0.00     0.009 A 
ATOM     20  C   UNL A   1      34.742  16.007  24.842  1.00  0.00     0.001 A 
ATOM     21  C   UNL A   1      32.497  15.747  25.670  1.00  0.00     0.001 A 
ATOM     22  C   UNL A   1      33.735  15.195  25.356  1.00  0.00     0.000 A 
ENDBRANCH  15  17
ENDBRANCH   8  10
ENDBRANCH   5   8
ENDBRANCH   3   4
ENDBRANCH   2   3
ENDBRANCH   1   2
BRANCH   1  23
ATOM     23  C   UNL A   1      36.637  21.180  25.227  1.00  0.00     0.002 C 
BRANCH  23  24
ATOM     24  C   UNL A   1      37.879  20.315  25.001  1.00  0.00     0.021 C 
BRANCH  24  25
ATOM     25  C   UNL A   1      39.027  20.591  25.970  1.00  0.00     0.116 C 
BRANCH  25  26
ATOM     26  N   UNL A   1      39.981  19.492  26.011  1.00  0.00    -0.352 N 
ATOM     27  C   UNL A   1      41.349  19.522  26.111  1.00  0.00     0.251 C 
ATOM     28  H   UNL A   1      39.585  18.592  25.961  1.00  0.00     0.163 HD
ATOM     29  O   UNL A   1      42.006  18.500  25.917  1.00  0.00    -0.269 OA
BRANCH  27  30
ATOM     30  C   UNL A   1      42.041  20.788  26.426  1.00  0.00     0.039 A 
ATOM     31  C   UNL A   1      42.459  21.609  25.376  1.00  0.00     0.014 A 
ATOM     32  C   UNL A   1      42.278  21.167  27.751  1.00  0.00     0.014 A 
ATOM     33  C   UNL A   1      43.036  22.849  25.654  1.00  0.00     0.010 A 
ATOM     34  C   UNL A   1      42.793  22.432  28.028  1.00  0.00     0.010 A 
ATOM     35  C   UNL A   1      43.161  23.292  26.983  1.00  0.00    -0.014 A 
BRANCH  35  36
ATOM     36  C   UNL A   1      43.611  24.675  27.289  1.00  0.00     0.031 A 
ATOM     37  C   UNL A   1      42.640  25.705  27.794  1.00  0.00     0.074 A 
ATOM     38  C   UNL A   1      44.890  25.018  27.031  1.00  0.00     0.049 A 
ATOM     39  N   UNL A   1      42.839  26.976  28.037  1.00  0.00    -0.248 NA
ATOM     40  C   UNL A   1      41.261  25.255  28.038  1.00  0.00     0.031 C 
ATOM     41  C   UNL A   1      45.913  24.120  26.490  1.00  0.00     0.029 A 
ATOM     42  N   UNL A   1      45.544  26.218  27.169  1.00  0.00    -0.354 N 
ATOM     43  C   UNL A   1      41.611  27.479  28.448  1.00  0.00     0.074 A 
ATOM     44  C   UNL A   1      40.664  26.388  28.389  1.00  0.00     0.031 C 
ATOM     45  C   UNL A   1      47.064  24.796  26.352  1.00  0.00     0.029 A 
ATOM     46  C   UNL A   1      46.852  26.184  26.748  1.00  0.00     0.049 A 
ATOM     47  H   UNL A   1      45.117  27.027  27.534  1.00  0.00     0.167 HD
ATOM     48  C   UNL A   1      41.312  28.736  28.851  1.00  0.00     0.037 A 
ATOM     49  C   UNL A   1      47.771  27.165  26.668  1.00  0.00     0.037 A 
ATOM     50  C   UNL A   1      42.266  29.813  28.937  1.00  0.00     0.049 A 
ATOM     51  C   UNL A   1      47.398  28.556  27.109  1.00  0.00     0.074 A 
ATOM     52  C   UNL A   1      42.075  31.093  29.425  1.00  0.00     0.029 A 
ATOM     53  N   UNL A   1      43.584  29.738  28.514  1.00  0.00    -0.354 N 
ATOM     54  N   UNL A   1      46.261  28.994  27.592  1.00  0.00    -0.248 NA
ATOM     55  C   UNL A   1      48.436  29.590  26.994  1.00  0.00     0.031 C 
ATOM     56  C   UNL A   1      43.259  31.813  29.239  1.00  0.00     0.029 A 
ATOM     57  C   UNL A   1      44.205  30.965  28.689  1.00  0.00     0.049 A 
ATOM     58  H   UNL A   1      44.015  28.933  28.144  1.00  0.00     0.167 HD
ATOM     59  C   UNL A   1      46.454  30.343  27.856  1.00  0.00     0.074 A 
ATOM     60  C   UNL A   1      47.825  30.646  27.508  1.00  0.00     0.031 C 
ATOM     61  C   UNL A   1      45.571  31.252  28.337  1.00  0.00     0.037 A 
BRANCH  48  62
ATOM     62  C   UNL A   1      39.894  29.039  29.239  1.00  0.00     0.064 A 
ATOM     63  C   UNL A   1      38.940  29.436  28.290  1.00  0.00     0.173 A 
ATOM     64  C   UNL A   1      39.460  28.826  30.556  1.00  0.00     0.173 A 
ATOM     65  F   UNL A   1      39.304  29.659  27.019  1.00  0.00    -0.203 F 
ATOM     66  C   UNL A   1      37.607  29.617  28.649  1.00  0.00     0.198 A 
ATOM     67  C   UNL A   1      38.122  28.981  30.906  1.00  0.00     0.198 A 
ATOM     68  F   UNL A   1      40.332  28.438  31.500  1.00  0.00    -0.203 F 
ATOM     69  F   UNL A   1      36.716  30.017  27.732  1.00  0.00    -0.200 F 
ATOM     70  C   UNL A   1      37.197  29.378  29.953  1.00  0.00     0.200 A 
ATOM     71  F   UNL A   1      37.725  28.734  32.162  1.00  0.00    -0.200 F 
ATOM     72  F   UNL A   1      35.909  29.528  30.289  1.00  0.00    -0.200 F 
ENDBRANCH  48  62
BRANCH  49  73
ATOM     73  C   UNL A   1      49.129  26.883  26.130  1.00  0.00     0.064 A 
ATOM     74  C   UNL A   1      49.426  27.079  24.774  1.00  0.00     0.173 A 
ATOM     75  C   UNL A   1      50.144  26.365  26.949  1.00  0.00     0.173 A 
ATOM     76  F   UNL A   1      48.483  27.550  23.944  1.00  0.00    -0.203 F 
ATOM     77  C   UNL A   1      50.670  26.733  24.250  1.00  0.00     0.198 A 
ATOM     78  C   UNL A   1      51.400  26.055  26.432  1.00  0.00     0.198 A 
ATOM     79  F   UNL A   1      49.917  26.162  28.255  1.00  0.00    -0.203 F 
ATOM     80  F   UNL A   1      50.902  26.867  22.938  1.00  0.00    -0.200 F 
ATOM     81  C   UNL A   1      51.657  26.225  25.080  1.00  0.00     0.200 A 
ATOM     82  F   UNL A   1      52.356  25.580  27.242  1.00  0.00    -0.200 F 
ATOM     83  F   UNL A   1      52.852  25.887  24.577  1.00  0.00    -0.200 F 
ENDBRANCH  49  73
BRANCH  61  84
ATOM     84  C   UNL A   1      46.065  32.657  28.528  1.00  0.00     0.064 A 
ATOM     85  C   UNL A   1      45.985  33.608  27.500  1.00  0.00     0.173 A 
ATOM     86  C   UNL A   1      46.589  33.068  29.763  1.00  0.00     0.173 A 
ATOM     87  F   UNL A   1      45.509  33.261  26.294  1.00  0.00    -0.203 F 
ATOM     88  C   UNL A   1      46.435  34.911  27.693  1.00  0.00     0.198 A 
ATOM     89  C   UNL A   1      47.006  34.381  29.964  1.00  0.00     0.198 A 
ATOM     90  F   UNL A   1      46.682  32.199  30.782  1.00  0.00    -0.203 F 
ATOM     91  F   UNL A   1      46.395  35.788  26.681  1.00  0.00    -0.200 F 
ATOM     92  C   UNL A   1      46.936  35.299  28.927  1.00  0.00     0.200 A 
ATOM     93  F   UNL A   1      47.475  34.757  31.161  1.00  0.00    -0.200 F 
ATOM     94  F   UNL A   1      47.359  36.556  29.115  1.00  0.00    -0.200 F 
ENDBRANCH  61  84
ENDBRANCH  35  36
ENDBRANCH  27  30
ENDBRANCH  25  26
ENDBRANCH  24  25
ENDBRANCH  23  24
ENDBRANCH   1  23
TORSDOF 15
ENDMDL
