MODEL 1
REMARK VINA RESULT:     -10.7      0.000      0.000
REMARK SMILES O=C(NCCCCCCNC(=O)c1ccc(Br)c(NC(=S)NC(=O)c2cccs2)c1)c1ccc(-c2c3nc(c(-c4c(F)c(F)c(F)c(F)c4F)c4ccc([nH]4)c(-c4c(F)c(F)c(F)c(F)c4F)c4nc(c(-c5c(F)c(F)c(F)c(F)c5F)c5ccc2[nH]5)C=C4)C=C3)cc1
REMARK SMILES IDX 7 1 6 2 5 3 4 4 3 5 1 6 2 7 31 9 32 10 93 11 33 12 92 13
REMARK SMILES IDX 34 14 35 15 36 16 86 17 37 18 91 19 85 20 87 21 38 22 90 23
REMARK SMILES IDX 84 24 83 25 39 27 71 28 51 29 70 30 52 31 55 32 69 33 88 34
REMARK SMILES IDX 53 35 54 36 68 38 89 39 56 40 40 41 41 42 49 43 42 44 43 45
REMARK SMILES IDX 47 46 50 47 44 48 45 49 48 50 46 51 72 52 73 53 81 54 74 55
REMARK SMILES IDX 75 56 79 57 82 58 76 59 77 60 80 61 78 62 57 63 58 64 66 65
REMARK SMILES IDX 59 66 60 67 64 68 67 69 61 70 62 71 65 72 63 73 8 74 9 75
REMARK SMILES IDX 10 76 11 77 12 79 13 80 14 81 30 82 15 83 18 84 16 85 17 86
REMARK SMILES IDX 19 87 20 89 21 90 22 91 23 92 24 94 25 95 26 96 29 97 27 98
REMARK SMILES IDX 28 99
REMARK H PARENT 3 8 87 26 55 37 10 78 19 88 22 93
REMARK Flexibility Score: inf
ROOT
ATOM      1  C   UNL A   1      46.409  25.576  31.922  1.00  0.00     0.002 C 
ENDROOT
BRANCH   1   2
ATOM      2  C   UNL A   1      47.616  25.882  32.815  1.00  0.00     0.002 C 
BRANCH   2   3
ATOM      3  C   UNL A   1      48.041  24.728  33.719  1.00  0.00     0.021 C 
BRANCH   3   4
ATOM      4  C   UNL A   1      46.882  24.071  34.448  1.00  0.00     0.116 C 
BRANCH   4   5
ATOM      5  N   UNL A   1      46.892  24.391  35.864  1.00  0.00    -0.352 N 
ATOM      6  O   UNL A   1      46.579  25.715  37.665  1.00  0.00    -0.269 OA
ATOM      7  C   UNL A   1      46.292  25.440  36.507  1.00  0.00     0.251 C 
ATOM      8  H   UNL A   1      47.399  23.771  36.437  1.00  0.00     0.163 HD
BRANCH   7   9
ATOM      9  C   UNL A   1      45.302  26.251  35.774  1.00  0.00     0.039 A 
ATOM     10  C   UNL A   1      45.651  27.504  35.260  1.00  0.00     0.014 A 
ATOM     11  C   UNL A   1      44.011  25.750  35.610  1.00  0.00     0.014 A 
ATOM     12  C   UNL A   1      44.679  28.310  34.685  1.00  0.00     0.010 A 
ATOM     13  C   UNL A   1      43.061  26.519  34.945  1.00  0.00     0.010 A 
ATOM     14  C   UNL A   1      43.383  27.811  34.492  1.00  0.00    -0.014 A 
BRANCH  14  15
ATOM     15  C   UNL A   1      42.378  28.608  33.751  1.00  0.00     0.031 A 
ATOM     16  C   UNL A   1      41.488  29.574  34.469  1.00  0.00     0.074 A 
ATOM     17  C   UNL A   1      42.235  28.402  32.429  1.00  0.00     0.049 A 
ATOM     18  N   UNL A   1      40.469  30.255  34.010  1.00  0.00    -0.248 NA
ATOM     19  C   UNL A   1      41.769  29.790  35.894  1.00  0.00     0.031 C 
ATOM     20  C   UNL A   1      43.049  27.490  31.626  1.00  0.00     0.029 A 
ATOM     21  N   UNL A   1      41.338  28.928  31.534  1.00  0.00    -0.354 N 
ATOM     22  C   UNL A   1      39.970  30.961  35.096  1.00  0.00     0.074 A 
ATOM     23  C   UNL A   1      40.777  30.596  36.241  1.00  0.00     0.031 C 
ATOM     24  C   UNL A   1      42.619  27.519  30.358  1.00  0.00     0.029 A 
ATOM     25  C   UNL A   1      41.451  28.389  30.277  1.00  0.00     0.049 A 
ATOM     26  H   UNL A   1      40.680  29.622  31.769  1.00  0.00     0.167 HD
ATOM     27  C   UNL A   1      38.933  31.832  35.125  1.00  0.00     0.037 A 
ATOM     28  C   UNL A   1      40.672  28.534  29.189  1.00  0.00     0.037 A 
ATOM     29  C   UNL A   1      38.127  32.160  33.975  1.00  0.00     0.049 A 
ATOM     30  C   UNL A   1      39.478  29.442  29.260  1.00  0.00     0.074 A 
ATOM     31  C   UNL A   1      37.076  33.055  33.889  1.00  0.00     0.029 A 
ATOM     32  N   UNL A   1      38.262  31.581  32.720  1.00  0.00    -0.354 N 
ATOM     33  N   UNL A   1      39.031  30.136  30.278  1.00  0.00    -0.248 NA
ATOM     34  C   UNL A   1      38.682  29.591  28.037  1.00  0.00     0.031 C 
ATOM     35  C   UNL A   1      36.512  32.942  32.615  1.00  0.00     0.029 A 
ATOM     36  C   UNL A   1      37.283  32.066  31.868  1.00  0.00     0.049 A 
ATOM     37  H   UNL A   1      38.952  30.924  32.473  1.00  0.00     0.167 HD
ATOM     38  C   UNL A   1      37.926  30.834  29.811  1.00  0.00     0.074 A 
ATOM     39  C   UNL A   1      37.765  30.472  28.418  1.00  0.00     0.031 C 
ATOM     40  C   UNL A   1      37.133  31.707  30.477  1.00  0.00     0.037 A 
BRANCH  27  41
ATOM     41  C   UNL A   1      38.574  32.435  36.456  1.00  0.00     0.064 A 
ATOM     42  C   UNL A   1      38.930  33.747  36.803  1.00  0.00     0.173 A 
ATOM     43  C   UNL A   1      37.873  31.678  37.409  1.00  0.00     0.173 A 
ATOM     44  F   UNL A   1      39.597  34.521  35.933  1.00  0.00    -0.203 F 
ATOM     45  C   UNL A   1      38.665  34.250  38.075  1.00  0.00     0.198 A 
ATOM     46  C   UNL A   1      37.565  32.201  38.660  1.00  0.00     0.198 A 
ATOM     47  F   UNL A   1      37.490  30.423  37.129  1.00  0.00    -0.203 F 
ATOM     48  F   UNL A   1      39.104  35.471  38.414  1.00  0.00    -0.200 F 
ATOM     49  C   UNL A   1      37.981  33.479  39.001  1.00  0.00     0.200 A 
ATOM     50  F   UNL A   1      36.880  31.463  39.544  1.00  0.00    -0.200 F 
ATOM     51  F   UNL A   1      37.736  33.961  40.227  1.00  0.00    -0.200 F 
ENDBRANCH  27  41
BRANCH  28  52
ATOM     52  C   UNL A   1      41.001  27.771  27.958  1.00  0.00     0.064 A 
ATOM     53  C   UNL A   1      40.354  26.566  27.659  1.00  0.00     0.173 A 
ATOM     54  C   UNL A   1      41.931  28.265  27.029  1.00  0.00     0.173 A 
ATOM     55  F   UNL A   1      39.467  26.048  28.521  1.00  0.00    -0.203 F 
ATOM     56  C   UNL A   1      40.631  25.878  26.478  1.00  0.00     0.198 A 
ATOM     57  C   UNL A   1      42.179  27.594  25.834  1.00  0.00     0.198 A 
ATOM     58  F   UNL A   1      42.567  29.422  27.264  1.00  0.00    -0.203 F 
ATOM     59  F   UNL A   1      40.024  24.709  26.231  1.00  0.00    -0.200 F 
ATOM     60  C   UNL A   1      41.533  26.399  25.563  1.00  0.00     0.200 A 
ATOM     61  F   UNL A   1      43.032  28.115  24.941  1.00  0.00    -0.200 F 
ATOM     62  F   UNL A   1      41.782  25.746  24.419  1.00  0.00    -0.200 F 
ENDBRANCH  28  52
BRANCH  40  63
ATOM     63  C   UNL A   1      36.048  32.406  29.705  1.00  0.00     0.064 A 
ATOM     64  C   UNL A   1      36.105  33.772  29.398  1.00  0.00     0.173 A 
ATOM     65  C   UNL A   1      34.982  31.659  29.178  1.00  0.00     0.173 A 
ATOM     66  F   UNL A   1      37.093  34.535  29.888  1.00  0.00    -0.203 F 
ATOM     67  C   UNL A   1      35.132  34.364  28.595  1.00  0.00     0.198 A 
ATOM     68  C   UNL A   1      34.035  32.245  28.344  1.00  0.00     0.198 A 
ATOM     69  F   UNL A   1      34.881  30.346  29.439  1.00  0.00    -0.203 F 
ATOM     70  F   UNL A   1      35.187  35.678  28.339  1.00  0.00    -0.200 F 
ATOM     71  C   UNL A   1      34.109  33.597  28.056  1.00  0.00     0.200 A 
ATOM     72  F   UNL A   1      33.063  31.496  27.807  1.00  0.00    -0.200 F 
ATOM     73  F   UNL A   1      33.193  34.163  27.257  1.00  0.00    -0.200 F 
ENDBRANCH  40  63
ENDBRANCH  14  15
ENDBRANCH   7   9
ENDBRANCH   4   5
ENDBRANCH   3   4
ENDBRANCH   2   3
ENDBRANCH   1   2
BRANCH   1  74
ATOM     74  C   UNL A   1      46.392  26.317  30.578  1.00  0.00     0.021 C 
BRANCH  74  75
ATOM     75  C   UNL A   1      45.859  25.497  29.404  1.00  0.00     0.116 C 
BRANCH  75  76
ATOM     76  N   UNL A   1      45.727  26.311  28.218  1.00  0.00    -0.352 N 
ATOM     77  C   UNL A   1      45.484  25.995  26.909  1.00  0.00     0.251 C 
ATOM     78  H   UNL A   1      45.834  27.276  28.382  1.00  0.00     0.163 HD
ATOM     79  O   UNL A   1      45.686  26.908  26.114  1.00  0.00    -0.269 OA
BRANCH  77  80
ATOM     80  C   UNL A   1      44.961  24.549  26.557  1.00  0.00     0.041 A 
ATOM     81  C   UNL A   1      46.360  23.519  26.019  1.00  0.00     0.015 A 
ATOM     82  C   UNL A   1      43.151  23.570  26.513  1.00  0.00     0.041 A 
ATOM     83  C   UNL A   1      45.984  21.854  25.501  1.00  0.00     0.018 A 
ATOM     84  C   UNL A   1      42.902  22.058  25.912  1.00  0.00     0.055 A 
ATOM     85  C   UNL A   1      44.321  21.185  25.447  1.00  0.00     0.041 A 
ATOM     86  Br  UNL A   1      44.106  19.467  24.677  1.00  0.00    -0.049 Br
BRANCH  84  87
ATOM     87  N   UNL A   1      41.523  21.933  25.635  1.00  0.00    -0.331 N 
ATOM     88  H   UNL A   1      41.173  22.561  24.963  1.00  0.00     0.169 HD
BRANCH  87  89
ATOM     89  C   UNL A   1      40.578  21.050  26.172  1.00  0.00     0.177 C 
ATOM     90  S   UNL A   1      41.106  20.087  27.447  1.00  0.00    -0.040 S 
BRANCH  89  91
ATOM     91  N   UNL A   1      39.184  20.865  25.794  1.00  0.00    -0.298 N 
ATOM     92  C   UNL A   1      37.781  21.360  25.402  1.00  0.00     0.267 C 
ATOM     93  H   UNL A   1      39.084  19.886  25.783  1.00  0.00     0.172 HD
ATOM     94  O   UNL A   1      36.871  20.533  25.392  1.00  0.00    -0.268 OA
BRANCH  92  95
ATOM     95  C   UNL A   1      37.589  22.826  24.998  1.00  0.00     0.092 A 
ATOM     96  C   UNL A   1      36.816  23.737  26.218  1.00  0.00     0.025 A 
ATOM     97  S   UNL A   1      36.603  22.962  22.907  1.00  0.00    -0.139 S 
ATOM     98  C   UNL A   1      35.069  24.332  25.729  1.00  0.00     0.012 A 
ATOM     99  C   UNL A   1      34.696  23.962  23.813  1.00  0.00     0.065 A 
ENDBRANCH  92  95
ENDBRANCH  89  91
ENDBRANCH  87  89
ENDBRANCH  84  87
ENDBRANCH  77  80
ENDBRANCH  75  76
ENDBRANCH  74  75
ENDBRANCH   1  74
TORSDOF 17
ENDMDL
MODEL 2
REMARK VINA RESULT:     -10.2      6.903     12.629
REMARK SMILES O=C(NCCCCCCNC(=O)c1ccc(Br)c(NC(=S)NC(=O)c2cccs2)c1)c1ccc(-c2c3nc(c(-c4c(F)c(F)c(F)c(F)c4F)c4ccc([nH]4)c(-c4c(F)c(F)c(F)c(F)c4F)c4nc(c(-c5c(F)c(F)c(F)c(F)c5F)c5ccc2[nH]5)C=C4)C=C3)cc1
REMARK SMILES IDX 7 1 6 2 5 3 4 4 3 5 1 6 2 7 31 9 32 10 93 11 33 12 92 13
REMARK SMILES IDX 34 14 35 15 36 16 86 17 37 18 91 19 85 20 87 21 38 22 90 23
REMARK SMILES IDX 84 24 83 25 39 27 71 28 51 29 70 30 52 31 55 32 69 33 88 34
REMARK SMILES IDX 53 35 54 36 68 38 89 39 56 40 40 41 41 42 49 43 42 44 43 45
REMARK SMILES IDX 47 46 50 47 44 48 45 49 48 50 46 51 72 52 73 53 81 54 74 55
REMARK SMILES IDX 75 56 79 57 82 58 76 59 77 60 80 61 78 62 57 63 58 64 66 65
REMARK SMILES IDX 59 66 60 67 64 68 67 69 61 70 62 71 65 72 63 73 8 74 9 75
REMARK SMILES IDX 10 76 11 77 12 79 13 80 14 81 30 82 15 83 18 84 16 85 17 86
REMARK SMILES IDX 19 87 20 89 21 90 22 91 23 92 24 94 25 95 26 96 29 97 27 98
REMARK SMILES IDX 28 99
REMARK H PARENT 3 8 87 26 55 37 10 78 19 88 22 93
REMARK Flexibility Score: inf
ROOT
ATOM      1  C   UNL A   1      35.108  35.234  33.230  1.00  0.00     0.002 C 
ENDROOT
BRANCH   1   2
ATOM      2  C   UNL A   1      34.701  33.863  33.778  1.00  0.00     0.002 C 
BRANCH   2   3
ATOM      3  C   UNL A   1      35.101  32.685  32.894  1.00  0.00     0.021 C 
BRANCH   3   4
ATOM      4  C   UNL A   1      36.541  32.242  33.090  1.00  0.00     0.116 C 
BRANCH   4   5
ATOM      5  N   UNL A   1      36.632  30.815  33.337  1.00  0.00    -0.352 N 
ATOM      6  O   UNL A   1      37.324  28.706  32.926  1.00  0.00    -0.269 OA
ATOM      7  C   UNL A   1      37.513  29.911  32.809  1.00  0.00     0.251 C 
ATOM      8  H   UNL A   1      35.971  30.450  33.970  1.00  0.00     0.163 HD
BRANCH   7   9
ATOM      9  C   UNL A   1      38.691  30.410  32.075  1.00  0.00     0.039 A 
ATOM     10  C   UNL A   1      38.652  30.555  30.685  1.00  0.00     0.014 A 
ATOM     11  C   UNL A   1      39.844  30.728  32.792  1.00  0.00     0.014 A 
ATOM     12  C   UNL A   1      39.805  30.904  29.995  1.00  0.00     0.010 A 
ATOM     13  C   UNL A   1      40.971  31.173  32.107  1.00  0.00     0.010 A 
ATOM     14  C   UNL A   1      40.965  31.249  30.703  1.00  0.00    -0.014 A 
BRANCH  14  15
ATOM     15  C   UNL A   1      42.154  31.761  29.983  1.00  0.00     0.031 A 
ATOM     16  C   UNL A   1      43.230  30.827  29.524  1.00  0.00     0.074 A 
ATOM     17  C   UNL A   1      42.283  33.088  29.806  1.00  0.00     0.049 A 
ATOM     18  N   UNL A   1      44.397  31.105  29.001  1.00  0.00    -0.248 NA
ATOM     19  C   UNL A   1      42.967  29.392  29.690  1.00  0.00     0.031 C 
ATOM     20  C   UNL A   1      41.296  34.090  30.207  1.00  0.00     0.029 A 
ATOM     21  N   UNL A   1      43.306  33.824  29.264  1.00  0.00    -0.354 N 
ATOM     22  C   UNL A   1      45.020  29.881  28.800  1.00  0.00     0.074 A 
ATOM     23  C   UNL A   1      44.115  28.863  29.290  1.00  0.00     0.031 C 
ATOM     24  C   UNL A   1      41.757  35.309  29.898  1.00  0.00     0.029 A 
ATOM     25  C   UNL A   1      43.103  35.178  29.351  1.00  0.00     0.049 A 
ATOM     26  H   UNL A   1      44.105  33.420  28.853  1.00  0.00     0.167 HD
ATOM     27  C   UNL A   1      46.236  29.639  28.254  1.00  0.00     0.037 A 
ATOM     28  C   UNL A   1      43.926  36.206  29.074  1.00  0.00     0.037 A 
ATOM     29  C   UNL A   1      47.131  30.672  27.795  1.00  0.00     0.049 A 
ATOM     30  C   UNL A   1      45.302  35.919  28.544  1.00  0.00     0.074 A 
ATOM     31  C   UNL A   1      48.369  30.532  27.195  1.00  0.00     0.029 A 
ATOM     32  N   UNL A   1      46.897  32.036  27.915  1.00  0.00    -0.354 N 
ATOM     33  N   UNL A   1      45.873  34.761  28.321  1.00  0.00    -0.248 NA
ATOM     34  C   UNL A   1      46.146  37.077  28.226  1.00  0.00     0.031 C 
ATOM     35  C   UNL A   1      48.927  31.806  27.047  1.00  0.00     0.029 A 
ATOM     36  C   UNL A   1      47.989  32.746  27.444  1.00  0.00     0.049 A 
ATOM     37  H   UNL A   1      46.076  32.437  28.281  1.00  0.00     0.167 HD
ATOM     38  C   UNL A   1      47.127  35.047  27.800  1.00  0.00     0.074 A 
ATOM     39  C   UNL A   1      47.237  36.490  27.749  1.00  0.00     0.031 C 
ATOM     40  C   UNL A   1      48.089  34.185  27.388  1.00  0.00     0.037 A 
BRANCH  27  41
ATOM     41  C   UNL A   1      46.691  28.206  28.188  1.00  0.00     0.064 A 
ATOM     42  C   UNL A   1      47.409  27.601  29.231  1.00  0.00     0.173 A 
ATOM     43  C   UNL A   1      46.417  27.429  27.051  1.00  0.00     0.173 A 
ATOM     44  F   UNL A   1      47.698  28.292  30.344  1.00  0.00    -0.203 F 
ATOM     45  C   UNL A   1      47.897  26.302  29.107  1.00  0.00     0.198 A 
ATOM     46  C   UNL A   1      46.862  26.115  26.952  1.00  0.00     0.198 A 
ATOM     47  F   UNL A   1      45.719  27.946  26.028  1.00  0.00    -0.203 F 
ATOM     48  F   UNL A   1      48.664  25.783  30.076  1.00  0.00    -0.200 F 
ATOM     49  C   UNL A   1      47.621  25.559  27.970  1.00  0.00     0.200 A 
ATOM     50  F   UNL A   1      46.570  25.390  25.863  1.00  0.00    -0.200 F 
ATOM     51  F   UNL A   1      48.100  24.314  27.849  1.00  0.00    -0.200 F 
ENDBRANCH  27  41
BRANCH  28  52
ATOM     52  C   UNL A   1      43.459  37.593  29.324  1.00  0.00     0.064 A 
ATOM     53  C   UNL A   1      43.849  38.292  30.472  1.00  0.00     0.173 A 
ATOM     54  C   UNL A   1      42.656  38.265  28.388  1.00  0.00     0.173 A 
ATOM     55  F   UNL A   1      44.605  37.689  31.401  1.00  0.00    -0.203 F 
ATOM     56  C   UNL A   1      43.448  39.611  30.680  1.00  0.00     0.198 A 
ATOM     57  C   UNL A   1      42.286  39.594  28.580  1.00  0.00     0.198 A 
ATOM     58  F   UNL A   1      42.266  37.642  27.266  1.00  0.00    -0.203 F 
ATOM     59  F   UNL A   1      43.806  40.248  31.803  1.00  0.00    -0.200 F 
ATOM     60  C   UNL A   1      42.677  40.263  29.729  1.00  0.00     0.200 A 
ATOM     61  F   UNL A   1      41.565  40.227  27.646  1.00  0.00    -0.200 F 
ATOM     62  F   UNL A   1      42.311  41.538  29.920  1.00  0.00    -0.200 F 
ENDBRANCH  28  52
BRANCH  40  63
ATOM     63  C   UNL A   1      49.333  34.760  26.769  1.00  0.00     0.064 A 
ATOM     64  C   UNL A   1      49.376  35.202  25.440  1.00  0.00     0.173 A 
ATOM     65  C   UNL A   1      50.473  34.963  27.565  1.00  0.00     0.173 A 
ATOM     66  F   UNL A   1      48.321  35.019  24.631  1.00  0.00    -0.203 F 
ATOM     67  C   UNL A   1      50.515  35.821  24.929  1.00  0.00     0.198 A 
ATOM     68  C   UNL A   1      51.593  35.617  27.063  1.00  0.00     0.198 A 
ATOM     69  F   UNL A   1      50.484  34.561  28.845  1.00  0.00    -0.203 F 
ATOM     70  F   UNL A   1      50.548  36.207  23.647  1.00  0.00    -0.200 F 
ATOM     71  C   UNL A   1      51.615  36.042  25.746  1.00  0.00     0.200 A 
ATOM     72  F   UNL A   1      52.644  35.850  27.862  1.00  0.00    -0.200 F 
ATOM     73  F   UNL A   1      52.697  36.668  25.262  1.00  0.00    -0.200 F 
ENDBRANCH  40  63
ENDBRANCH  14  15
ENDBRANCH   7   9
ENDBRANCH   4   5
ENDBRANCH   3   4
ENDBRANCH   2   3
ENDBRANCH   1   2
BRANCH   1  74
ATOM     74  C   UNL A   1      33.940  36.146  32.829  1.00  0.00     0.021 C 
BRANCH  74  75
ATOM     75  C   UNL A   1      32.962  35.530  31.832  1.00  0.00     0.116 C 
BRANCH  75  76
ATOM     76  N   UNL A   1      32.880  36.320  30.626  1.00  0.00    -0.352 N 
ATOM     77  C   UNL A   1      33.291  36.085  29.343  1.00  0.00     0.251 C 
ATOM     78  H   UNL A   1      32.445  37.195  30.751  1.00  0.00     0.163 HD
ATOM     79  O   UNL A   1      33.293  37.072  28.615  1.00  0.00    -0.269 OA
BRANCH  77  80
ATOM     80  C   UNL A   1      33.687  34.616  28.925  1.00  0.00     0.041 A 
ATOM     81  C   UNL A   1      35.284  34.186  29.679  1.00  0.00     0.015 A 
ATOM     82  C   UNL A   1      32.901  33.121  27.748  1.00  0.00     0.041 A 
ATOM     83  C   UNL A   1      35.961  32.585  29.280  1.00  0.00     0.018 A 
ATOM     84  C   UNL A   1      33.666  31.716  27.359  1.00  0.00     0.055 A 
ATOM     85  C   UNL A   1      35.173  31.429  28.159  1.00  0.00     0.041 A 
ATOM     86  Br  UNL A   1      36.146  29.866  27.705  1.00  0.00    -0.049 Br
BRANCH  84  87
ATOM     87  N   UNL A   1      33.035  31.193  26.210  1.00  0.00    -0.331 N 
ATOM     88  H   UNL A   1      33.258  31.649  25.367  1.00  0.00     0.169 HD
BRANCH  87  89
ATOM     89  C   UNL A   1      32.140  30.123  26.088  1.00  0.00     0.177 C 
ATOM     90  S   UNL A   1      32.105  29.037  27.373  1.00  0.00    -0.040 S 
BRANCH  89  91
ATOM     91  N   UNL A   1      31.210  29.830  25.006  1.00  0.00    -0.298 N 
ATOM     92  C   UNL A   1      30.695  29.007  23.812  1.00  0.00     0.267 C 
ATOM     93  H   UNL A   1      30.548  30.554  25.078  1.00  0.00     0.172 HD
ATOM     94  O   UNL A   1      29.803  29.503  23.126  1.00  0.00    -0.268 OA
BRANCH  92  95
ATOM     95  C   UNL A   1      31.269  27.609  23.561  1.00  0.00     0.092 A 
ATOM     96  C   UNL A   1      30.611  26.441  24.619  1.00  0.00     0.025 A 
ATOM     97  S   UNL A   1      33.582  27.685  23.510  1.00  0.00    -0.139 S 
ATOM     98  C   UNL A   1      31.883  25.735  25.856  1.00  0.00     0.012 A 
ATOM     99  C   UNL A   1      33.722  26.351  25.422  1.00  0.00     0.065 A 
ENDBRANCH  92  95
ENDBRANCH  89  91
ENDBRANCH  87  89
ENDBRANCH  84  87
ENDBRANCH  77  80
ENDBRANCH  75  76
ENDBRANCH  74  75
ENDBRANCH   1  74
TORSDOF 17
ENDMDL
MODEL 3
REMARK VINA RESULT:     -10.1      5.903     11.913
REMARK SMILES O=C(NCCCCCCNC(=O)c1ccc(Br)c(NC(=S)NC(=O)c2cccs2)c1)c1ccc(-c2c3nc(c(-c4c(F)c(F)c(F)c(F)c4F)c4ccc([nH]4)c(-c4c(F)c(F)c(F)c(F)c4F)c4nc(c(-c5c(F)c(F)c(F)c(F)c5F)c5ccc2[nH]5)C=C4)C=C3)cc1
REMARK SMILES IDX 7 1 6 2 5 3 4 4 3 5 1 6 2 7 31 9 32 10 93 11 33 12 92 13
REMARK SMILES IDX 34 14 35 15 36 16 86 17 37 18 91 19 85 20 87 21 38 22 90 23
REMARK SMILES IDX 84 24 83 25 39 27 71 28 51 29 70 30 52 31 55 32 69 33 88 34
REMARK SMILES IDX 53 35 54 36 68 38 89 39 56 40 40 41 41 42 49 43 42 44 43 45
REMARK SMILES IDX 47 46 50 47 44 48 45 49 48 50 46 51 72 52 73 53 81 54 74 55
REMARK SMILES IDX 75 56 79 57 82 58 76 59 77 60 80 61 78 62 57 63 58 64 66 65
REMARK SMILES IDX 59 66 60 67 64 68 67 69 61 70 62 71 65 72 63 73 8 74 9 75
REMARK SMILES IDX 10 76 11 77 12 79 13 80 14 81 30 82 15 83 18 84 16 85 17 86
REMARK SMILES IDX 19 87 20 89 21 90 22 91 23 92 24 94 25 95 26 96 29 97 27 98
REMARK SMILES IDX 28 99
REMARK H PARENT 3 8 87 26 55 37 10 78 19 88 22 93
REMARK Flexibility Score: inf
ROOT
ATOM      1  C   UNL A   1      37.055  30.438  29.560  1.00  0.00     0.002 C 
ENDROOT
BRANCH   1   2
ATOM      2  C   UNL A   1      36.860  29.958  31.001  1.00  0.00     0.002 C 
BRANCH   2   3
ATOM      3  C   UNL A   1      35.960  30.853  31.849  1.00  0.00     0.021 C 
BRANCH   3   4
ATOM      4  C   UNL A   1      35.911  32.293  31.369  1.00  0.00     0.116 C 
BRANCH   4   5
ATOM      5  N   UNL A   1      36.415  33.208  32.375  1.00  0.00    -0.352 N 
ATOM      6  O   UNL A   1      37.949  34.021  33.818  1.00  0.00    -0.269 OA
ATOM      7  C   UNL A   1      37.704  33.384  32.801  1.00  0.00     0.251 C 
ATOM      8  H   UNL A   1      35.740  33.779  32.809  1.00  0.00     0.163 HD
BRANCH   7   9
ATOM      9  C   UNL A   1      38.800  32.775  32.024  1.00  0.00     0.039 A 
ATOM     10  C   UNL A   1      39.069  33.205  30.721  1.00  0.00     0.014 A 
ATOM     11  C   UNL A   1      39.555  31.758  32.609  1.00  0.00     0.014 A 
ATOM     12  C   UNL A   1      40.018  32.539  29.957  1.00  0.00     0.010 A 
ATOM     13  C   UNL A   1      40.573  31.157  31.874  1.00  0.00     0.010 A 
ATOM     14  C   UNL A   1      40.800  31.532  30.538  1.00  0.00    -0.014 A 
BRANCH  14  15
ATOM     15  C   UNL A   1      41.911  30.915  29.775  1.00  0.00     0.031 A 
ATOM     16  C   UNL A   1      41.780  29.532  29.218  1.00  0.00     0.074 A 
ATOM     17  C   UNL A   1      43.064  31.595  29.645  1.00  0.00     0.049 A 
ATOM     18  N   UNL A   1      42.687  28.784  28.643  1.00  0.00    -0.248 NA
ATOM     19  C   UNL A   1      40.460  28.898  29.340  1.00  0.00     0.031 C 
ATOM     20  C   UNL A   1      43.303  32.950  30.142  1.00  0.00     0.029 A 
ATOM     21  N   UNL A   1      44.259  31.231  29.077  1.00  0.00    -0.354 N 
ATOM     22  C   UNL A   1      42.056  27.582  28.357  1.00  0.00     0.074 A 
ATOM     23  C   UNL A   1      40.700  27.689  28.855  1.00  0.00     0.031 C 
ATOM     24  C   UNL A   1      44.562  33.307  29.858  1.00  0.00     0.029 A 
ATOM     25  C   UNL A   1      45.241  32.177  29.232  1.00  0.00     0.049 A 
ATOM     26  H   UNL A   1      44.398  30.378  28.607  1.00  0.00     0.167 HD
ATOM     27  C   UNL A   1      42.568  26.493  27.734  1.00  0.00     0.037 A 
ATOM     28  C   UNL A   1      46.556  32.127  28.952  1.00  0.00     0.037 A 
ATOM     29  C   UNL A   1      43.930  26.400  27.269  1.00  0.00     0.049 A 
ATOM     30  C   UNL A   1      47.126  30.882  28.335  1.00  0.00     0.074 A 
ATOM     31  C   UNL A   1      44.539  25.356  26.596  1.00  0.00     0.029 A 
ATOM     32  N   UNL A   1      44.901  27.375  27.458  1.00  0.00    -0.354 N 
ATOM     33  N   UNL A   1      46.518  29.761  28.032  1.00  0.00    -0.248 NA
ATOM     34  C   UNL A   1      48.559  30.893  28.018  1.00  0.00     0.031 C 
ATOM     35  C   UNL A   1      45.899  25.655  26.470  1.00  0.00     0.029 A 
ATOM     36  C   UNL A   1      46.116  26.935  26.957  1.00  0.00     0.049 A 
ATOM     37  H   UNL A   1      44.748  28.248  27.886  1.00  0.00     0.167 HD
ATOM     38  C   UNL A   1      47.482  28.947  27.455  1.00  0.00     0.074 A 
ATOM     39  C   UNL A   1      48.718  29.701  27.457  1.00  0.00     0.031 C 
ATOM     40  C   UNL A   1      47.343  27.695  26.955  1.00  0.00     0.037 A 
BRANCH  27  41
ATOM     41  C   UNL A   1      41.669  25.295  27.585  1.00  0.00     0.064 A 
ATOM     42  C   UNL A   1      41.866  24.116  28.320  1.00  0.00     0.173 A 
ATOM     43  C   UNL A   1      40.600  25.323  26.675  1.00  0.00     0.173 A 
ATOM     44  F   UNL A   1      42.869  24.030  29.207  1.00  0.00    -0.203 F 
ATOM     45  C   UNL A   1      41.076  22.990  28.096  1.00  0.00     0.198 A 
ATOM     46  C   UNL A   1      39.781  24.214  26.491  1.00  0.00     0.198 A 
ATOM     47  F   UNL A   1      40.350  26.428  25.956  1.00  0.00    -0.203 F 
ATOM     48  F   UNL A   1      41.348  21.846  28.740  1.00  0.00    -0.200 F 
ATOM     49  C   UNL A   1      40.032  23.041  27.185  1.00  0.00     0.200 A 
ATOM     50  F   UNL A   1      38.756  24.275  25.630  1.00  0.00    -0.200 F 
ATOM     51  F   UNL A   1      39.280  21.954  26.964  1.00  0.00    -0.200 F 
ENDBRANCH  27  41
BRANCH  28  52
ATOM     52  C   UNL A   1      47.410  33.296  29.285  1.00  0.00     0.064 A 
ATOM     53  C   UNL A   1      48.081  33.376  30.511  1.00  0.00     0.173 A 
ATOM     54  C   UNL A   1      47.616  34.328  28.356  1.00  0.00     0.173 A 
ATOM     55  F   UNL A   1      47.906  32.420  31.435  1.00  0.00    -0.203 F 
ATOM     56  C   UNL A   1      48.920  34.451  30.800  1.00  0.00     0.198 A 
ATOM     57  C   UNL A   1      48.482  35.383  28.632  1.00  0.00     0.198 A 
ATOM     58  F   UNL A   1      47.005  34.291  27.162  1.00  0.00    -0.203 F 
ATOM     59  F   UNL A   1      49.524  34.522  31.994  1.00  0.00    -0.200 F 
ATOM     60  C   UNL A   1      49.129  35.446  29.857  1.00  0.00     0.200 A 
ATOM     61  F   UNL A   1      48.701  36.327  27.707  1.00  0.00    -0.200 F 
ATOM     62  F   UNL A   1      49.953  36.467  30.128  1.00  0.00    -0.200 F 
ENDBRANCH  28  52
BRANCH  40  63
ATOM     63  C   UNL A   1      48.536  27.064  26.291  1.00  0.00     0.064 A 
ATOM     64  C   UNL A   1      48.801  27.212  24.923  1.00  0.00     0.173 A 
ATOM     65  C   UNL A   1      49.484  26.382  27.073  1.00  0.00     0.173 A 
ATOM     66  F   UNL A   1      47.923  27.840  24.128  1.00  0.00    -0.203 F 
ATOM     67  C   UNL A   1      49.968  26.697  24.363  1.00  0.00     0.198 A 
ATOM     68  C   UNL A   1      50.666  25.905  26.518  1.00  0.00     0.198 A 
ATOM     69  F   UNL A   1      49.280  26.214  28.389  1.00  0.00    -0.203 F 
ATOM     70  F   UNL A   1      50.189  26.822  23.047  1.00  0.00    -0.200 F 
ATOM     71  C   UNL A   1      50.906  26.060  25.163  1.00  0.00     0.200 A 
ATOM     72  F   UNL A   1      51.579  25.312  27.299  1.00  0.00    -0.200 F 
ATOM     73  F   UNL A   1      52.043  25.595  24.626  1.00  0.00    -0.200 F 
ENDBRANCH  40  63
ENDBRANCH  14  15
ENDBRANCH   7   9
ENDBRANCH   4   5
ENDBRANCH   3   4
ENDBRANCH   2   3
ENDBRANCH   1   2
BRANCH   1  74
ATOM     74  C   UNL A   1      36.843  29.365  28.483  1.00  0.00     0.021 C 
BRANCH  74  75
ATOM     75  C   UNL A   1      35.439  29.332  27.883  1.00  0.00     0.116 C 
BRANCH  75  76
ATOM     76  N   UNL A   1      34.690  30.513  28.242  1.00  0.00    -0.352 N 
ATOM     77  C   UNL A   1      33.668  31.177  27.622  1.00  0.00     0.251 C 
ATOM     78  H   UNL A   1      34.968  30.917  29.096  1.00  0.00     0.163 HD
ATOM     79  O   UNL A   1      33.429  32.292  28.076  1.00  0.00    -0.269 OA
BRANCH  77  80
ATOM     80  C   UNL A   1      32.900  30.467  26.441  1.00  0.00     0.041 A 
ATOM     81  C   UNL A   1      31.403  31.417  26.040  1.00  0.00     0.015 A 
ATOM     82  C   UNL A   1      33.131  28.771  25.299  1.00  0.00     0.041 A 
ATOM     83  C   UNL A   1      30.340  30.752  24.772  1.00  0.00     0.018 A 
ATOM     84  C   UNL A   1      32.027  28.190  24.224  1.00  0.00     0.055 A 
ATOM     85  C   UNL A   1      30.655  29.201  23.928  1.00  0.00     0.041 A 
ATOM     86  Br  UNL A   1      29.307  28.565  22.758  1.00  0.00    -0.049 Br
BRANCH  84  87
ATOM     87  N   UNL A   1      32.323  26.827  24.006  1.00  0.00    -0.331 N 
ATOM     88  H   UNL A   1      33.167  26.653  23.531  1.00  0.00     0.169 HD
BRANCH  87  89
ATOM     89  C   UNL A   1      31.596  25.685  24.363  1.00  0.00     0.177 C 
ATOM     90  S   UNL A   1      30.601  25.037  23.171  1.00  0.00    -0.040 S 
BRANCH  89  91
ATOM     91  N   UNL A   1      31.598  24.960  25.626  1.00  0.00    -0.298 N 
ATOM     92  C   UNL A   1      32.029  23.818  26.563  1.00  0.00     0.267 C 
ATOM     93  H   UNL A   1      30.992  25.492  26.190  1.00  0.00     0.172 HD
ATOM     94  O   UNL A   1      31.412  23.689  27.619  1.00  0.00    -0.268 OA
BRANCH  92  95
ATOM     95  C   UNL A   1      33.220  22.936  26.172  1.00  0.00     0.092 A 
ATOM     96  C   UNL A   1      34.701  23.782  26.242  1.00  0.00     0.025 A 
ATOM     97  S   UNL A   1      32.802  21.864  24.162  1.00  0.00    -0.139 S 
ATOM     98  C   UNL A   1      35.510  24.037  24.531  1.00  0.00     0.012 A 
ATOM     99  C   UNL A   1      34.547  23.018  23.124  1.00  0.00     0.065 A 
ENDBRANCH  92  95
ENDBRANCH  89  91
ENDBRANCH  87  89
ENDBRANCH  84  87
ENDBRANCH  77  80
ENDBRANCH  75  76
ENDBRANCH  74  75
ENDBRANCH   1  74
TORSDOF 17
ENDMDL
