MODEL 1
REMARK VINA RESULT:     -13.1      0.000      0.000
REMARK SMILES O=C(C[NH+]1CCN(C(=O)c2ccc(F)c(F)c2F)CC1)NCCCCCCNC(=O)c1ccc(-c2c3nc(c(-c4c(F)c(F)c(F)c(F)c4F)c4ccc([nH]4)c(-c4c(F)c(F)c(F)c(F)c4F)c4nc(c(-c5c(F)c(F)c(F)c(F)c5F)c5ccc2[nH]5)C=C4)C=C3)cc1
REMARK SMILES IDX 24 1 23 2 22 3 21 4 1 5 2 6 3 8 4 9 5 10 20 11 6 13 19 14
REMARK SMILES IDX 7 15 8 16 9 17 10 18 11 19 17 20 12 21 15 22 18 23 13 24
REMARK SMILES IDX 16 25 14 26 25 27 26 28 27 29 28 30 29 31 30 33 31 34 32 35
REMARK SMILES IDX 93 36 33 37 92 38 34 39 35 40 36 41 86 42 37 43 91 44 85 45
REMARK SMILES IDX 87 46 38 47 90 48 84 49 83 50 39 52 71 53 51 54 70 55 52 56
REMARK SMILES IDX 55 57 69 58 88 59 53 60 54 61 68 63 89 64 56 65 40 66 41 67
REMARK SMILES IDX 49 68 42 69 43 70 47 71 50 72 44 73 45 74 48 75 46 76 72 77
REMARK SMILES IDX 73 78 81 79 74 80 75 81 79 82 82 83 76 84 77 85 80 86 78 87
REMARK SMILES IDX 57 88 58 89 66 90 59 91 60 92 64 93 67 94 61 95 62 96 65 97
REMARK SMILES IDX 63 98
REMARK H PARENT 21 7 4 12 28 32 87 51 55 62
REMARK Flexibility Score: inf
ROOT
ATOM      1  C   UNL A   1      32.315  29.541  25.118  1.00  0.00     0.002 C 
ENDROOT
BRANCH   1   2
ATOM      2  C   UNL A   1      31.156  29.093  24.216  1.00  0.00     0.021 C 
BRANCH   2   3
ATOM      3  C   UNL A   1      31.498  28.903  22.740  1.00  0.00     0.116 C 
BRANCH   3   4
ATOM      4  N   UNL A   1      31.817  27.530  22.407  1.00  0.00    -0.351 N 
ATOM      5  O   UNL A   1      34.042  27.930  21.997  1.00  0.00    -0.269 OA
ATOM      6  C   UNL A   1      33.112  27.137  22.111  1.00  0.00     0.275 C 
ATOM      7  H   UNL A   1      31.097  26.859  22.390  1.00  0.00     0.163 HD
BRANCH   6   8
ATOM      8  C   UNL A   1      33.294  25.620  22.026  1.00  0.00     0.363 C 
BRANCH   8   9
ATOM      9  N   UNL A   1      33.784  24.984  23.263  1.00  0.00    -0.324 N 
ATOM     10  C   UNL A   1      32.786  24.858  24.340  1.00  0.00     0.284 C 
ATOM     11  C   UNL A   1      34.528  23.734  23.087  1.00  0.00     0.284 C 
ATOM     12  H   UNL A   1      34.467  25.675  23.573  1.00  0.00     0.348 HD
ATOM     13  C   UNL A   1      31.941  23.569  24.372  1.00  0.00     0.181 C 
ATOM     14  C   UNL A   1      33.674  22.454  23.021  1.00  0.00     0.181 C 
ATOM     15  N   UNL A   1      32.720  22.352  24.122  1.00  0.00    -0.327 N 
ATOM     16  C   UNL A   1      32.247  21.153  24.657  1.00  0.00     0.257 C 
ATOM     17  O   UNL A   1      31.375  21.077  25.517  1.00  0.00    -0.269 OA
BRANCH  16  18
ATOM     18  C   UNL A   1      32.805  19.890  24.143  1.00  0.00     0.079 A 
ATOM     19  C   UNL A   1      32.119  19.146  23.173  1.00  0.00     0.020 A 
ATOM     20  C   UNL A   1      34.015  19.430  24.662  1.00  0.00     0.174 A 
ATOM     21  C   UNL A   1      32.615  17.899  22.786  1.00  0.00     0.043 A 
ATOM     22  C   UNL A   1      34.515  18.200  24.255  1.00  0.00     0.195 A 
ATOM     23  F   UNL A   1      34.682  20.135  25.588  1.00  0.00    -0.203 F 
ATOM     24  C   UNL A   1      33.808  17.434  23.335  1.00  0.00     0.161 A 
ATOM     25  F   UNL A   1      35.661  17.735  24.772  1.00  0.00    -0.200 F 
ATOM     26  F   UNL A   1      34.263  16.226  22.978  1.00  0.00    -0.204 F 
ENDBRANCH  16  18
ENDBRANCH   8   9
ENDBRANCH   6   8
ENDBRANCH   3   4
ENDBRANCH   2   3
ENDBRANCH   1   2
BRANCH   1  27
ATOM     27  C   UNL A   1      31.937  30.085  26.499  1.00  0.00     0.002 C 
BRANCH  27  28
ATOM     28  C   UNL A   1      31.715  31.594  26.592  1.00  0.00     0.021 C 
BRANCH  28  29
ATOM     29  C   UNL A   1      32.832  32.394  27.256  1.00  0.00     0.116 C 
BRANCH  29  30
ATOM     30  N   UNL A   1      32.473  33.777  27.532  1.00  0.00    -0.352 N 
ATOM     31  C   UNL A   1      33.037  34.649  28.433  1.00  0.00     0.251 C 
ATOM     32  H   UNL A   1      31.726  34.137  27.001  1.00  0.00     0.163 HD
ATOM     33  O   UNL A   1      32.548  35.761  28.610  1.00  0.00    -0.269 OA
BRANCH  31  34
ATOM     34  C   UNL A   1      34.220  34.232  29.221  1.00  0.00     0.039 A 
ATOM     35  C   UNL A   1      34.027  33.517  30.405  1.00  0.00     0.014 A 
ATOM     36  C   UNL A   1      35.514  34.526  28.782  1.00  0.00     0.014 A 
ATOM     37  C   UNL A   1      35.131  33.024  31.107  1.00  0.00     0.010 A 
ATOM     38  C   UNL A   1      36.610  33.982  29.448  1.00  0.00     0.010 A 
ATOM     39  C   UNL A   1      36.431  33.218  30.611  1.00  0.00    -0.014 A 
BRANCH  39  40
ATOM     40  C   UNL A   1      37.617  32.620  31.277  1.00  0.00     0.031 A 
ATOM     41  C   UNL A   1      38.357  31.489  30.620  1.00  0.00     0.074 A 
ATOM     42  C   UNL A   1      37.978  33.036  32.508  1.00  0.00     0.049 A 
ATOM     43  N   UNL A   1      39.319  30.741  31.099  1.00  0.00    -0.248 NA
ATOM     44  C   UNL A   1      37.948  31.133  29.252  1.00  0.00     0.031 C 
ATOM     45  C   UNL A   1      37.322  34.101  33.266  1.00  0.00     0.029 A 
ATOM     46  N   UNL A   1      38.975  32.598  33.348  1.00  0.00    -0.354 N 
ATOM     47  C   UNL A   1      39.614  29.821  30.102  1.00  0.00     0.074 A 
ATOM     48  C   UNL A   1      38.708  30.076  29.005  1.00  0.00     0.031 C 
ATOM     49  C   UNL A   1      37.936  34.240  34.452  1.00  0.00     0.029 A 
ATOM     50  C   UNL A   1      39.001  33.247  34.559  1.00  0.00     0.049 A 
ATOM     51  H   UNL A   1      39.610  31.885  33.104  1.00  0.00     0.167 HD
ATOM     52  C   UNL A   1      40.572  28.863  30.098  1.00  0.00     0.037 A 
ATOM     53  C   UNL A   1      39.781  33.052  35.642  1.00  0.00     0.037 A 
ATOM     54  C   UNL A   1      41.502  28.638  31.173  1.00  0.00     0.049 A 
ATOM     55  C   UNL A   1      40.836  31.978  35.608  1.00  0.00     0.074 A 
ATOM     56  C   UNL A   1      42.537  27.722  31.233  1.00  0.00     0.029 A 
ATOM     57  N   UNL A   1      41.515  29.339  32.367  1.00  0.00    -0.354 N 
ATOM     58  N   UNL A   1      41.129  31.141  34.643  1.00  0.00    -0.248 NA
ATOM     59  C   UNL A   1      41.671  31.822  36.809  1.00  0.00     0.031 C 
ATOM     60  C   UNL A   1      43.156  27.844  32.479  1.00  0.00     0.029 A 
ATOM     61  C   UNL A   1      42.535  28.868  33.176  1.00  0.00     0.049 A 
ATOM     62  H   UNL A   1      40.893  30.065  32.606  1.00  0.00     0.167 HD
ATOM     63  C   UNL A   1      42.193  30.380  35.108  1.00  0.00     0.074 A 
ATOM     64  C   UNL A   1      42.504  30.860  36.437  1.00  0.00     0.031 C 
ATOM     65  C   UNL A   1      42.850  29.372  34.487  1.00  0.00     0.037 A 
BRANCH  52  66
ATOM     66  C   UNL A   1      40.696  27.991  28.885  1.00  0.00     0.064 A 
ATOM     67  C   UNL A   1      41.483  28.396  27.795  1.00  0.00     0.173 A 
ATOM     68  C   UNL A   1      39.942  26.817  28.753  1.00  0.00     0.173 A 
ATOM     69  F   UNL A   1      42.217  29.516  27.871  1.00  0.00    -0.203 F 
ATOM     70  C   UNL A   1      41.490  27.668  26.609  1.00  0.00     0.198 A 
ATOM     71  C   UNL A   1      39.969  26.078  27.575  1.00  0.00     0.198 A 
ATOM     72  F   UNL A   1      39.181  26.386  29.771  1.00  0.00    -0.203 F 
ATOM     73  F   UNL A   1      42.214  28.095  25.566  1.00  0.00    -0.200 F 
ATOM     74  C   UNL A   1      40.732  26.511  26.499  1.00  0.00     0.200 A 
ATOM     75  F   UNL A   1      39.251  24.951  27.475  1.00  0.00    -0.200 F 
ATOM     76  F   UNL A   1      40.734  25.815  25.354  1.00  0.00    -0.200 F 
ENDBRANCH  52  66
BRANCH  53  77
ATOM     77  C   UNL A   1      39.597  33.901  36.849  1.00  0.00     0.064 A 
ATOM     78  C   UNL A   1      40.216  35.155  36.960  1.00  0.00     0.173 A 
ATOM     79  C   UNL A   1      38.798  33.470  37.917  1.00  0.00     0.173 A 
ATOM     80  F   UNL A   1      40.991  35.612  35.966  1.00  0.00    -0.203 F 
ATOM     81  C   UNL A   1      40.052  35.939  38.101  1.00  0.00     0.198 A 
ATOM     82  C   UNL A   1      38.613  34.267  39.044  1.00  0.00     0.198 A 
ATOM     83  F   UNL A   1      38.168  32.289  37.846  1.00  0.00    -0.203 F 
ATOM     84  F   UNL A   1      40.675  37.122  38.193  1.00  0.00    -0.200 F 
ATOM     85  C   UNL A   1      39.245  35.499  39.138  1.00  0.00     0.200 A 
ATOM     86  F   UNL A   1      37.808  33.850  40.032  1.00  0.00    -0.200 F 
ATOM     87  F   UNL A   1      39.070  36.261  40.226  1.00  0.00    -0.200 F 
ENDBRANCH  53  77
BRANCH  65  88
ATOM     88  C   UNL A   1      43.997  28.728  35.207  1.00  0.00     0.064 A 
ATOM     89  C   UNL A   1      43.768  27.666  36.095  1.00  0.00     0.173 A 
ATOM     90  C   UNL A   1      45.300  29.234  35.108  1.00  0.00     0.173 A 
ATOM     91  F   UNL A   1      42.535  27.154  36.234  1.00  0.00    -0.203 F 
ATOM     92  C   UNL A   1      44.799  27.149  36.874  1.00  0.00     0.198 A 
ATOM     93  C   UNL A   1      46.334  28.699  35.870  1.00  0.00     0.198 A 
ATOM     94  F   UNL A   1      45.569  30.244  34.265  1.00  0.00    -0.203 F 
ATOM     95  F   UNL A   1      44.548  26.165  37.749  1.00  0.00    -0.200 F 
ATOM     96  C   UNL A   1      46.081  27.666  36.761  1.00  0.00     0.200 A 
ATOM     97  F   UNL A   1      47.576  29.187  35.747  1.00  0.00    -0.200 F 
ATOM     98  F   UNL A   1      47.071  27.171  37.514  1.00  0.00    -0.200 F 
ENDBRANCH  65  88
ENDBRANCH  39  40
ENDBRANCH  31  34
ENDBRANCH  29  30
ENDBRANCH  28  29
ENDBRANCH  27  28
ENDBRANCH   1  27
TORSDOF 15
ENDMDL
MODEL 2
REMARK VINA RESULT:     -12.9      6.409     11.136
REMARK SMILES O=C(C[NH+]1CCN(C(=O)c2ccc(F)c(F)c2F)CC1)NCCCCCCNC(=O)c1ccc(-c2c3nc(c(-c4c(F)c(F)c(F)c(F)c4F)c4ccc([nH]4)c(-c4c(F)c(F)c(F)c(F)c4F)c4nc(c(-c5c(F)c(F)c(F)c(F)c5F)c5ccc2[nH]5)C=C4)C=C3)cc1
REMARK SMILES IDX 24 1 23 2 22 3 21 4 1 5 2 6 3 8 4 9 5 10 20 11 6 13 19 14
REMARK SMILES IDX 7 15 8 16 9 17 10 18 11 19 17 20 12 21 15 22 18 23 13 24
REMARK SMILES IDX 16 25 14 26 25 27 26 28 27 29 28 30 29 31 30 33 31 34 32 35
REMARK SMILES IDX 93 36 33 37 92 38 34 39 35 40 36 41 86 42 37 43 91 44 85 45
REMARK SMILES IDX 87 46 38 47 90 48 84 49 83 50 39 52 71 53 51 54 70 55 52 56
REMARK SMILES IDX 55 57 69 58 88 59 53 60 54 61 68 63 89 64 56 65 40 66 41 67
REMARK SMILES IDX 49 68 42 69 43 70 47 71 50 72 44 73 45 74 48 75 46 76 72 77
REMARK SMILES IDX 73 78 81 79 74 80 75 81 79 82 82 83 76 84 77 85 80 86 78 87
REMARK SMILES IDX 57 88 58 89 66 90 59 91 60 92 64 93 67 94 61 95 62 96 65 97
REMARK SMILES IDX 63 98
REMARK H PARENT 21 7 4 12 28 32 87 51 55 62
REMARK Flexibility Score: inf
ROOT
ATOM      1  C   UNL A   1      40.485  22.167  27.223  1.00  0.00     0.002 C 
ENDROOT
BRANCH   1   2
ATOM      2  C   UNL A   1      39.272  22.929  26.669  1.00  0.00     0.021 C 
BRANCH   2   3
ATOM      3  C   UNL A   1      38.328  22.120  25.782  1.00  0.00     0.116 C 
BRANCH   3   4
ATOM      4  N   UNL A   1      36.930  22.374  26.065  1.00  0.00    -0.351 N 
ATOM      5  O   UNL A   1      36.168  20.440  25.089  1.00  0.00    -0.269 OA
ATOM      6  C   UNL A   1      35.945  21.458  25.737  1.00  0.00     0.275 C 
ATOM      7  H   UNL A   1      36.674  23.218  26.503  1.00  0.00     0.163 HD
BRANCH   6   8
ATOM      8  C   UNL A   1      34.573  21.787  26.328  1.00  0.00     0.363 C 
BRANCH   8   9
ATOM      9  N   UNL A   1      33.576  22.264  25.351  1.00  0.00    -0.324 N 
ATOM     10  C   UNL A   1      32.170  22.017  25.719  1.00  0.00     0.284 C 
ATOM     11  C   UNL A   1      33.760  23.636  24.869  1.00  0.00     0.284 C 
ATOM     12  H   UNL A   1      33.784  21.658  24.557  1.00  0.00     0.348 HD
ATOM     13  C   UNL A   1      31.451  23.112  26.533  1.00  0.00     0.181 C 
ATOM     14  C   UNL A   1      33.123  24.737  25.736  1.00  0.00     0.181 C 
ATOM     15  N   UNL A   1      31.722  24.471  26.053  1.00  0.00    -0.327 N 
ATOM     16  C   UNL A   1      30.760  25.452  26.294  1.00  0.00     0.257 C 
ATOM     17  O   UNL A   1      29.610  25.218  26.652  1.00  0.00    -0.269 OA
BRANCH  16  18
ATOM     18  C   UNL A   1      31.147  26.865  26.137  1.00  0.00     0.079 A 
ATOM     19  C   UNL A   1      31.578  27.616  27.239  1.00  0.00     0.020 A 
ATOM     20  C   UNL A   1      31.048  27.452  24.875  1.00  0.00     0.174 A 
ATOM     21  C   UNL A   1      31.832  28.980  27.084  1.00  0.00     0.043 A 
ATOM     22  C   UNL A   1      31.325  28.804  24.724  1.00  0.00     0.195 A 
ATOM     23  F   UNL A   1      30.639  26.743  23.814  1.00  0.00    -0.203 F 
ATOM     24  C   UNL A   1      31.698  29.565  25.826  1.00  0.00     0.161 A 
ATOM     25  F   UNL A   1      31.202  29.385  23.522  1.00  0.00    -0.200 F 
ATOM     26  F   UNL A   1      31.918  30.879  25.691  1.00  0.00    -0.204 F 
ENDBRANCH  16  18
ENDBRANCH   8   9
ENDBRANCH   6   8
ENDBRANCH   3   4
ENDBRANCH   2   3
ENDBRANCH   1   2
BRANCH   1  27
ATOM     27  C   UNL A   1      41.434  21.548  26.193  1.00  0.00     0.002 C 
BRANCH  27  28
ATOM     28  C   UNL A   1      41.406  20.024  26.079  1.00  0.00     0.021 C 
BRANCH  28  29
ATOM     29  C   UNL A   1      42.694  19.302  26.461  1.00  0.00     0.116 C 
BRANCH  29  30
ATOM     30  N   UNL A   1      43.444  18.806  25.317  1.00  0.00    -0.352 N 
ATOM     31  C   UNL A   1      44.336  19.480  24.515  1.00  0.00     0.251 C 
ATOM     32  H   UNL A   1      43.293  17.860  25.087  1.00  0.00     0.163 HD
ATOM     33  O   UNL A   1      44.813  18.935  23.524  1.00  0.00    -0.269 OA
BRANCH  31  34
ATOM     34  C   UNL A   1      44.695  20.882  24.828  1.00  0.00     0.039 A 
ATOM     35  C   UNL A   1      44.383  21.883  23.905  1.00  0.00     0.014 A 
ATOM     36  C   UNL A   1      45.317  21.211  26.036  1.00  0.00     0.014 A 
ATOM     37  C   UNL A   1      44.619  23.223  24.226  1.00  0.00     0.010 A 
ATOM     38  C   UNL A   1      45.493  22.549  26.380  1.00  0.00     0.010 A 
ATOM     39  C   UNL A   1      45.138  23.569  25.484  1.00  0.00    -0.014 A 
BRANCH  39  40
ATOM     40  C   UNL A   1      45.303  24.988  25.896  1.00  0.00     0.031 A 
ATOM     41  C   UNL A   1      46.656  25.639  25.822  1.00  0.00     0.074 A 
ATOM     42  C   UNL A   1      44.258  25.663  26.416  1.00  0.00     0.049 A 
ATOM     43  N   UNL A   1      47.035  26.811  26.267  1.00  0.00    -0.248 NA
ATOM     44  C   UNL A   1      47.732  24.864  25.184  1.00  0.00     0.031 C 
ATOM     45  C   UNL A   1      42.904  25.133  26.573  1.00  0.00     0.029 A 
ATOM     46  N   UNL A   1      44.176  26.936  26.928  1.00  0.00    -0.354 N 
ATOM     47  C   UNL A   1      48.390  26.903  25.980  1.00  0.00     0.074 A 
ATOM     48  C   UNL A   1      48.780  25.658  25.356  1.00  0.00     0.031 C 
ATOM     49  C   UNL A   1      42.125  26.073  27.133  1.00  0.00     0.029 A 
ATOM     50  C   UNL A   1      42.932  27.256  27.416  1.00  0.00     0.049 A 
ATOM     51  H   UNL A   1      44.939  27.560  26.945  1.00  0.00     0.167 HD
ATOM     52  C   UNL A   1      49.227  27.945  26.199  1.00  0.00     0.037 A 
ATOM     53  C   UNL A   1      42.494  28.369  28.039  1.00  0.00     0.037 A 
ATOM     54  C   UNL A   1      48.829  29.199  26.780  1.00  0.00     0.049 A 
ATOM     55  C   UNL A   1      43.448  29.510  28.270  1.00  0.00     0.074 A 
ATOM     56  C   UNL A   1      49.601  30.328  26.993  1.00  0.00     0.029 A 
ATOM     57  N   UNL A   1      47.552  29.494  27.229  1.00  0.00    -0.354 N 
ATOM     58  N   UNL A   1      44.719  29.599  27.958  1.00  0.00    -0.248 NA
ATOM     59  C   UNL A   1      42.912  30.707  28.935  1.00  0.00     0.031 C 
ATOM     60  C   UNL A   1      48.800  31.295  27.606  1.00  0.00     0.029 A 
ATOM     61  C   UNL A   1      47.518  30.784  27.730  1.00  0.00     0.049 A 
ATOM     62  H   UNL A   1      46.784  28.878  27.197  1.00  0.00     0.167 HD
ATOM     63  C   UNL A   1      45.125  30.862  28.364  1.00  0.00     0.074 A 
ATOM     64  C   UNL A   1      43.966  31.513  28.936  1.00  0.00     0.031 C 
ATOM     65  C   UNL A   1      46.351  31.429  28.273  1.00  0.00     0.037 A 
BRANCH  52  66
ATOM     66  C   UNL A   1      50.661  27.800  25.787  1.00  0.00     0.064 A 
ATOM     67  C   UNL A   1      51.030  27.912  24.438  1.00  0.00     0.173 A 
ATOM     68  C   UNL A   1      51.648  27.429  26.711  1.00  0.00     0.173 A 
ATOM     69  F   UNL A   1      50.119  28.256  23.515  1.00  0.00    -0.203 F 
ATOM     70  C   UNL A   1      52.330  27.635  24.026  1.00  0.00     0.198 A 
ATOM     71  C   UNL A   1      52.954  27.176  26.300  1.00  0.00     0.198 A 
ATOM     72  F   UNL A   1      51.346  27.317  28.014  1.00  0.00    -0.203 F 
ATOM     73  F   UNL A   1      52.650  27.706  22.727  1.00  0.00    -0.200 F 
ATOM     74  C   UNL A   1      53.290  27.266  24.957  1.00  0.00     0.200 A 
ATOM     75  F   UNL A   1      53.885  26.837  27.202  1.00  0.00    -0.200 F 
ATOM     76  F   UNL A   1      54.540  26.993  24.558  1.00  0.00    -0.200 F 
ENDBRANCH  52  66
BRANCH  53  77
ATOM     77  C   UNL A   1      41.077  28.461  28.480  1.00  0.00     0.064 A 
ATOM     78  C   UNL A   1      40.681  28.039  29.757  1.00  0.00     0.173 A 
ATOM     79  C   UNL A   1      40.090  28.974  27.627  1.00  0.00     0.173 A 
ATOM     80  F   UNL A   1      41.587  27.540  30.611  1.00  0.00    -0.203 F 
ATOM     81  C   UNL A   1      39.348  28.114  30.159  1.00  0.00     0.198 A 
ATOM     82  C   UNL A   1      38.763  29.075  28.040  1.00  0.00     0.198 A 
ATOM     83  F   UNL A   1      40.424  29.412  26.405  1.00  0.00    -0.203 F 
ATOM     84  F   UNL A   1      38.993  27.680  31.376  1.00  0.00    -0.200 F 
ATOM     85  C   UNL A   1      38.392  28.639  29.304  1.00  0.00     0.200 A 
ATOM     86  F   UNL A   1      37.847  29.609  27.221  1.00  0.00    -0.200 F 
ATOM     87  F   UNL A   1      37.114  28.730  29.698  1.00  0.00    -0.200 F 
ENDBRANCH  53  77
BRANCH  65  88
ATOM     88  C   UNL A   1      46.516  32.836  28.765  1.00  0.00     0.064 A 
ATOM     89  C   UNL A   1      46.363  33.916  27.883  1.00  0.00     0.173 A 
ATOM     90  C   UNL A   1      46.937  33.108  30.074  1.00  0.00     0.173 A 
ATOM     91  F   UNL A   1      45.973  33.705  26.616  1.00  0.00    -0.203 F 
ATOM     92  C   UNL A   1      46.649  35.217  28.287  1.00  0.00     0.198 A 
ATOM     93  C   UNL A   1      47.197  34.413  30.483  1.00  0.00     0.198 A 
ATOM     94  F   UNL A   1      47.088  32.108  30.956  1.00  0.00    -0.203 F 
ATOM     95  F   UNL A   1      46.539  36.228  27.415  1.00  0.00    -0.200 F 
ATOM     96  C   UNL A   1      47.065  35.464  29.587  1.00  0.00     0.200 A 
ATOM     97  F   UNL A   1      47.582  34.653  31.744  1.00  0.00    -0.200 F 
ATOM     98  F   UNL A   1      47.343  36.716  29.975  1.00  0.00    -0.200 F 
ENDBRANCH  65  88
ENDBRANCH  39  40
ENDBRANCH  31  34
ENDBRANCH  29  30
ENDBRANCH  28  29
ENDBRANCH  27  28
ENDBRANCH   1  27
TORSDOF 15
ENDMDL
MODEL 3
REMARK VINA RESULT:     -12.9      1.935      7.862
REMARK SMILES O=C(C[NH+]1CCN(C(=O)c2ccc(F)c(F)c2F)CC1)NCCCCCCNC(=O)c1ccc(-c2c3nc(c(-c4c(F)c(F)c(F)c(F)c4F)c4ccc([nH]4)c(-c4c(F)c(F)c(F)c(F)c4F)c4nc(c(-c5c(F)c(F)c(F)c(F)c5F)c5ccc2[nH]5)C=C4)C=C3)cc1
REMARK SMILES IDX 24 1 23 2 22 3 21 4 1 5 2 6 3 8 4 9 5 10 20 11 6 13 19 14
REMARK SMILES IDX 7 15 8 16 9 17 10 18 11 19 17 20 12 21 15 22 18 23 13 24
REMARK SMILES IDX 16 25 14 26 25 27 26 28 27 29 28 30 29 31 30 33 31 34 32 35
REMARK SMILES IDX 93 36 33 37 92 38 34 39 35 40 36 41 86 42 37 43 91 44 85 45
REMARK SMILES IDX 87 46 38 47 90 48 84 49 83 50 39 52 71 53 51 54 70 55 52 56
REMARK SMILES IDX 55 57 69 58 88 59 53 60 54 61 68 63 89 64 56 65 40 66 41 67
REMARK SMILES IDX 49 68 42 69 43 70 47 71 50 72 44 73 45 74 48 75 46 76 72 77
REMARK SMILES IDX 73 78 81 79 74 80 75 81 79 82 82 83 76 84 77 85 80 86 78 87
REMARK SMILES IDX 57 88 58 89 66 90 59 91 60 92 64 93 67 94 61 95 62 96 65 97
REMARK SMILES IDX 63 98
REMARK H PARENT 21 7 4 12 28 32 87 51 55 62
REMARK Flexibility Score: inf
ROOT
ATOM      1  C   UNL A   1      35.573  33.176  28.548  1.00  0.00     0.002 C 
ENDROOT
BRANCH   1   2
ATOM      2  C   UNL A   1      35.546  31.753  27.970  1.00  0.00     0.021 C 
BRANCH   2   3
ATOM      3  C   UNL A   1      34.164  31.201  27.628  1.00  0.00     0.116 C 
BRANCH   3   4
ATOM      4  N   UNL A   1      34.192  30.239  26.545  1.00  0.00    -0.351 N 
ATOM      5  O   UNL A   1      31.933  29.822  26.582  1.00  0.00    -0.269 OA
ATOM      6  C   UNL A   1      33.032  29.657  26.061  1.00  0.00     0.275 C 
ATOM      7  H   UNL A   1      35.056  29.993  26.143  1.00  0.00     0.163 HD
BRANCH   6   8
ATOM      8  C   UNL A   1      33.232  28.862  24.769  1.00  0.00     0.363 C 
BRANCH   8   9
ATOM      9  N   UNL A   1      32.409  27.643  24.658  1.00  0.00    -0.324 N 
ATOM     10  C   UNL A   1      32.039  27.260  23.284  1.00  0.00     0.284 C 
ATOM     11  C   UNL A   1      32.881  26.482  25.418  1.00  0.00     0.284 C 
ATOM     12  H   UNL A   1      31.553  27.951  25.120  1.00  0.00     0.348 HD
ATOM     13  C   UNL A   1      32.997  26.316  22.531  1.00  0.00     0.181 C 
ATOM     14  C   UNL A   1      33.914  25.593  24.701  1.00  0.00     0.181 C 
ATOM     15  N   UNL A   1      33.496  25.210  23.355  1.00  0.00    -0.327 N 
ATOM     16  C   UNL A   1      33.876  24.034  22.707  1.00  0.00     0.257 C 
ATOM     17  O   UNL A   1      33.597  23.766  21.543  1.00  0.00    -0.269 OA
BRANCH  16  18
ATOM     18  C   UNL A   1      34.687  23.056  23.453  1.00  0.00     0.079 A 
ATOM     19  C   UNL A   1      36.088  23.108  23.413  1.00  0.00     0.020 A 
ATOM     20  C   UNL A   1      34.037  22.057  24.177  1.00  0.00     0.174 A 
ATOM     21  C   UNL A   1      36.831  22.104  24.036  1.00  0.00     0.043 A 
ATOM     22  C   UNL A   1      34.783  21.074  24.815  1.00  0.00     0.195 A 
ATOM     23  F   UNL A   1      32.698  21.999  24.225  1.00  0.00    -0.203 F 
ATOM     24  C   UNL A   1      36.171  21.091  24.729  1.00  0.00     0.161 A 
ATOM     25  F   UNL A   1      34.167  20.091  25.486  1.00  0.00    -0.200 F 
ATOM     26  F   UNL A   1      36.890  20.117  25.302  1.00  0.00    -0.204 F 
ENDBRANCH  16  18
ENDBRANCH   8   9
ENDBRANCH   6   8
ENDBRANCH   3   4
ENDBRANCH   2   3
ENDBRANCH   1   2
BRANCH   1  27
ATOM     27  C   UNL A   1      34.573  34.174  27.958  1.00  0.00     0.002 C 
BRANCH  27  28
ATOM     28  C   UNL A   1      33.420  34.595  28.870  1.00  0.00     0.021 C 
BRANCH  28  29
ATOM     29  C   UNL A   1      33.571  35.951  29.554  1.00  0.00     0.116 C 
BRANCH  29  30
ATOM     30  N   UNL A   1      32.557  36.209  30.565  1.00  0.00    -0.352 N 
ATOM     31  C   UNL A   1      32.543  35.829  31.886  1.00  0.00     0.251 C 
ATOM     32  H   UNL A   1      31.775  36.726  30.261  1.00  0.00     0.163 HD
ATOM     33  O   UNL A   1      31.557  36.048  32.584  1.00  0.00    -0.269 OA
BRANCH  31  34
ATOM     34  C   UNL A   1      33.709  35.120  32.462  1.00  0.00     0.039 A 
ATOM     35  C   UNL A   1      33.542  33.818  32.939  1.00  0.00     0.014 A 
ATOM     36  C   UNL A   1      34.966  35.729  32.510  1.00  0.00     0.014 A 
ATOM     37  C   UNL A   1      34.651  33.095  33.390  1.00  0.00     0.010 A 
ATOM     38  C   UNL A   1      36.079  34.987  32.900  1.00  0.00     0.010 A 
ATOM     39  C   UNL A   1      35.935  33.660  33.334  1.00  0.00    -0.014 A 
BRANCH  39  40
ATOM     40  C   UNL A   1      37.146  32.883  33.707  1.00  0.00     0.031 A 
ATOM     41  C   UNL A   1      37.866  33.184  34.993  1.00  0.00     0.074 A 
ATOM     42  C   UNL A   1      37.647  31.968  32.853  1.00  0.00     0.049 A 
ATOM     43  N   UNL A   1      39.013  32.723  35.425  1.00  0.00    -0.248 NA
ATOM     44  C   UNL A   1      37.226  34.148  35.902  1.00  0.00     0.031 C 
ATOM     45  C   UNL A   1      37.061  31.608  31.562  1.00  0.00     0.029 A 
ATOM     46  N   UNL A   1      38.775  31.186  32.935  1.00  0.00    -0.354 N 
ATOM     47  C   UNL A   1      39.237  33.352  36.642  1.00  0.00     0.074 A 
ATOM     48  C   UNL A   1      38.130  34.256  36.866  1.00  0.00     0.031 C 
ATOM     49  C   UNL A   1      37.827  30.672  30.977  1.00  0.00     0.029 A 
ATOM     50  C   UNL A   1      38.980  30.397  31.828  1.00  0.00     0.049 A 
ATOM     51  H   UNL A   1      39.379  31.191  33.713  1.00  0.00     0.167 HD
ATOM     52  C   UNL A   1      40.266  33.174  37.505  1.00  0.00     0.037 A 
ATOM     53  C   UNL A   1      39.993  29.560  31.524  1.00  0.00     0.037 A 
ATOM     54  C   UNL A   1      41.344  32.244  37.302  1.00  0.00     0.049 A 
ATOM     55  C   UNL A   1      41.124  29.384  32.502  1.00  0.00     0.074 A 
ATOM     56  C   UNL A   1      42.403  31.962  38.146  1.00  0.00     0.029 A 
ATOM     57  N   UNL A   1      41.497  31.440  36.183  1.00  0.00    -0.354 N 
ATOM     58  N   UNL A   1      41.304  29.956  33.667  1.00  0.00    -0.248 NA
ATOM     59  C   UNL A   1      42.192  28.444  32.127  1.00  0.00     0.031 C 
ATOM     60  C   UNL A   1      43.218  31.013  37.524  1.00  0.00     0.029 A 
ATOM     61  C   UNL A   1      42.640  30.670  36.312  1.00  0.00     0.049 A 
ATOM     62  H   UNL A   1      40.884  31.420  35.412  1.00  0.00     0.167 HD
ATOM     63  C   UNL A   1      42.485  29.431  34.173  1.00  0.00     0.074 A 
ATOM     64  C   UNL A   1      42.977  28.484  33.196  1.00  0.00     0.031 C 
ATOM     65  C   UNL A   1      43.105  29.712  35.343  1.00  0.00     0.037 A 
BRANCH  52  66
ATOM     66  C   UNL A   1      40.276  33.976  38.771  1.00  0.00     0.064 A 
ATOM     67  C   UNL A   1      39.527  33.561  39.883  1.00  0.00     0.173 A 
ATOM     68  C   UNL A   1      40.929  35.214  38.841  1.00  0.00     0.173 A 
ATOM     69  F   UNL A   1      38.878  32.388  39.860  1.00  0.00    -0.203 F 
ATOM     70  C   UNL A   1      39.411  34.370  41.009  1.00  0.00     0.198 A 
ATOM     71  C   UNL A   1      40.832  36.010  39.979  1.00  0.00     0.198 A 
ATOM     72  F   UNL A   1      41.665  35.649  37.806  1.00  0.00    -0.203 F 
ATOM     73  F   UNL A   1      38.655  33.974  42.042  1.00  0.00    -0.200 F 
ATOM     74  C   UNL A   1      40.062  35.594  41.056  1.00  0.00     0.200 A 
ATOM     75  F   UNL A   1      41.476  37.185  40.031  1.00  0.00    -0.200 F 
ATOM     76  F   UNL A   1      39.945  36.375  42.138  1.00  0.00    -0.200 F 
ENDBRANCH  52  66
BRANCH  53  77
ATOM     77  C   UNL A   1      39.978  28.817  30.236  1.00  0.00     0.064 A 
ATOM     78  C   UNL A   1      39.381  27.552  30.129  1.00  0.00     0.173 A 
ATOM     79  C   UNL A   1      40.563  29.362  29.084  1.00  0.00     0.173 A 
ATOM     80  F   UNL A   1      38.808  26.987  31.202  1.00  0.00    -0.203 F 
ATOM     81  C   UNL A   1      39.384  26.855  28.922  1.00  0.00     0.198 A 
ATOM     82  C   UNL A   1      40.540  28.676  27.872  1.00  0.00     0.198 A 
ATOM     83  F   UNL A   1      41.125  30.579  29.131  1.00  0.00    -0.203 F 
ATOM     84  F   UNL A   1      38.830  25.637  28.854  1.00  0.00    -0.200 F 
ATOM     85  C   UNL A   1      39.956  27.420  27.793  1.00  0.00     0.200 A 
ATOM     86  F   UNL A   1      41.069  29.238  26.776  1.00  0.00    -0.200 F 
ATOM     87  F   UNL A   1      39.940  26.759  26.628  1.00  0.00    -0.200 F 
ENDBRANCH  53  77
BRANCH  65  88
ATOM     88  C   UNL A   1      44.368  28.973  35.667  1.00  0.00     0.064 A 
ATOM     89  C   UNL A   1      45.604  29.441  35.191  1.00  0.00     0.173 A 
ATOM     90  C   UNL A   1      44.346  27.748  36.346  1.00  0.00     0.173 A 
ATOM     91  F   UNL A   1      45.675  30.604  34.525  1.00  0.00    -0.203 F 
ATOM     92  C   UNL A   1      46.766  28.695  35.364  1.00  0.00     0.198 A 
ATOM     93  C   UNL A   1      45.514  27.016  36.540  1.00  0.00     0.198 A 
ATOM     94  F   UNL A   1      43.189  27.264  36.828  1.00  0.00    -0.203 F 
ATOM     95  F   UNL A   1      47.926  29.139  34.862  1.00  0.00    -0.200 F 
ATOM     96  C   UNL A   1      46.720  27.484  36.038  1.00  0.00     0.200 A 
ATOM     97  F   UNL A   1      45.472  25.855  37.206  1.00  0.00    -0.200 F 
ATOM     98  F   UNL A   1      47.839  26.766  36.201  1.00  0.00    -0.200 F 
ENDBRANCH  65  88
ENDBRANCH  39  40
ENDBRANCH  31  34
ENDBRANCH  29  30
ENDBRANCH  28  29
ENDBRANCH  27  28
ENDBRANCH   1  27
TORSDOF 15
ENDMDL
