MODEL 1
REMARK VINA RESULT:     -12.7      0.000      0.000
REMARK SMILES CC(C)Cc1cc2c(cc1Cl)C=C(C(=O)NCCCCCCNC(=O)c1ccc(-c3c4nc(c(-c5c(F)c(F)c(F)c(F)c5F)c5ccc([nH]5)c(-c5c(F)c(F)c(F)c(F)c5F)c5nc(c(-c6c(F)c(F)c(F)c(F)c6F)c6ccc3[nH]6)C=C5)C=C4)cc1)[C@H](C(F)(F)F)O2
REMARK SMILES IDX 19 1 18 2 17 3 16 4 14 5 15 6 13 8 5 9 6 10 10 11 7 12 9 13
REMARK SMILES IDX 11 14 8 15 94 16 12 17 89 18 4 19 2 20 1 21 3 22 90 23 91 24
REMARK SMILES IDX 92 25 93 26 20 27 21 28 22 29 23 30 24 31 25 33 26 34 27 35
REMARK SMILES IDX 88 36 28 37 87 38 29 39 30 40 31 41 81 42 32 43 86 44 80 45
REMARK SMILES IDX 82 46 33 47 85 48 79 49 78 50 34 52 66 53 46 54 65 55 47 56
REMARK SMILES IDX 50 57 64 58 83 59 48 60 49 61 63 63 84 64 51 65 35 66 36 67
REMARK SMILES IDX 44 68 37 69 38 70 42 71 45 72 39 73 40 74 43 75 41 76 67 77
REMARK SMILES IDX 68 78 76 79 69 80 70 81 74 82 77 83 71 84 72 85 75 86 73 87
REMARK SMILES IDX 52 88 53 89 61 90 54 91 55 92 59 93 62 94 56 95 57 96 60 97
REMARK SMILES IDX 58 98
REMARK H PARENT 16 7 23 32 82 51 50 62
REMARK Flexibility Score: inf
ROOT
ATOM      1  C   UNL A   1      37.407  22.019  25.060  1.00  0.00     0.002 C 
ENDROOT
BRANCH   1   2
ATOM      2  C   UNL A   1      36.449  23.078  24.513  1.00  0.00     0.021 C 
BRANCH   2   3
ATOM      3  C   UNL A   1      35.663  23.823  25.588  1.00  0.00     0.116 C 
BRANCH   3   4
ATOM      4  N   UNL A   1      34.423  23.144  25.918  1.00  0.00    -0.352 N 
ATOM      5  C   UNL A   1      33.101  23.309  25.684  1.00  0.00     0.251 C 
ATOM      6  O   UNL A   1      32.372  22.441  26.175  1.00  0.00    -0.270 OA
ATOM      7  H   UNL A   1      34.591  22.341  26.463  1.00  0.00     0.163 HD
BRANCH   5   8
ATOM      8  C   UNL A   1      32.491  24.422  24.896  1.00  0.00     0.067 C 
ATOM      9  C   UNL A   1      30.481  28.835  23.480  1.00  0.00    -0.025 A 
ATOM     10  C   UNL A   1      30.495  27.539  22.943  1.00  0.00     0.052 A 
ATOM     11  C   UNL A   1      31.158  29.064  24.690  1.00  0.00     0.045 A 
ATOM     12  C   UNL A   1      31.147  26.505  23.606  1.00  0.00     0.128 A 
ATOM     13  C   UNL A   1      31.788  28.011  25.367  1.00  0.00     0.032 A 
ATOM     14  Cl  UNL A   1      31.231  30.627  25.420  1.00  0.00    -0.084 Cl
ATOM     15  C   UNL A   1      31.775  26.724  24.830  1.00  0.00     0.019 A 
ATOM     16  O   UNL A   1      31.086  25.280  23.015  1.00  0.00    -0.475 OA
ATOM     17  C   UNL A   1      32.354  25.593  25.544  1.00  0.00     0.025 C 
ATOM     18  C   UNL A   1      32.074  24.313  23.456  1.00  0.00     0.314 C 
BRANCH   9  19
ATOM     19  C   UNL A   1      29.679  29.889  22.752  1.00  0.00     0.040 C 
BRANCH  19  20
ATOM     20  C   UNL A   1      28.322  30.182  23.429  1.00  0.00    -0.013 C 
ATOM     21  C   UNL A   1      27.828  31.606  23.162  1.00  0.00     0.008 C 
ATOM     22  C   UNL A   1      27.276  29.175  22.950  1.00  0.00     0.008 C 
ENDBRANCH  19  20
ENDBRANCH   9  19
BRANCH  18  23
ATOM     23  C   UNL A   1      33.273  24.309  22.491  1.00  0.00     0.429 C 
ATOM     24  F   UNL A   1      32.932  24.657  21.230  1.00  0.00    -0.167 F 
ATOM     25  F   UNL A   1      34.256  25.154  22.874  1.00  0.00    -0.167 F 
ATOM     26  F   UNL A   1      33.829  23.072  22.433  1.00  0.00    -0.167 F 
ENDBRANCH  18  23
ENDBRANCH   5   8
ENDBRANCH   3   4
ENDBRANCH   2   3
ENDBRANCH   1   2
BRANCH   1  27
ATOM     27  C   UNL A   1      36.965  20.566  24.845  1.00  0.00     0.002 C 
BRANCH  27  28
ATOM     28  C   UNL A   1      38.073  19.521  24.977  1.00  0.00     0.021 C 
BRANCH  28  29
ATOM     29  C   UNL A   1      39.273  19.976  25.797  1.00  0.00     0.116 C 
BRANCH  29  30
ATOM     30  N   UNL A   1      40.305  18.954  25.875  1.00  0.00    -0.352 N 
ATOM     31  C   UNL A   1      41.661  19.089  26.041  1.00  0.00     0.251 C 
ATOM     32  H   UNL A   1      39.983  18.027  25.798  1.00  0.00     0.163 HD
ATOM     33  O   UNL A   1      42.404  18.125  25.878  1.00  0.00    -0.269 OA
BRANCH  31  34
ATOM     34  C   UNL A   1      42.228  20.406  26.398  1.00  0.00     0.039 A 
ATOM     35  C   UNL A   1      42.258  20.827  27.727  1.00  0.00     0.014 A 
ATOM     36  C   UNL A   1      42.734  21.232  25.390  1.00  0.00     0.014 A 
ATOM     37  C   UNL A   1      42.623  22.133  28.026  1.00  0.00     0.010 A 
ATOM     38  C   UNL A   1      43.205  22.510  25.710  1.00  0.00     0.010 A 
ATOM     39  C   UNL A   1      43.110  22.988  27.025  1.00  0.00    -0.014 A 
BRANCH  39  40
ATOM     40  C   UNL A   1      43.528  24.364  27.402  1.00  0.00     0.031 A 
ATOM     41  C   UNL A   1      44.925  24.853  27.136  1.00  0.00     0.074 A 
ATOM     42  C   UNL A   1      42.606  25.201  27.918  1.00  0.00     0.049 A 
ATOM     43  N   UNL A   1      45.423  26.053  27.308  1.00  0.00    -0.248 NA
ATOM     44  C   UNL A   1      45.894  23.877  26.614  1.00  0.00     0.031 C 
ATOM     45  C   UNL A   1      41.222  24.834  28.228  1.00  0.00     0.029 A 
ATOM     46  N   UNL A   1      42.672  26.536  28.232  1.00  0.00    -0.354 N 
ATOM     47  C   UNL A   1      46.755  25.973  26.926  1.00  0.00     0.074 A 
ATOM     48  C   UNL A   1      47.005  24.599  26.551  1.00  0.00     0.031 C 
ATOM     49  C   UNL A   1      40.552  25.928  28.611  1.00  0.00     0.029 A 
ATOM     50  C   UNL A   1      41.469  27.062  28.640  1.00  0.00     0.049 A 
ATOM     51  H   UNL A   1      43.500  27.065  28.171  1.00  0.00     0.167 HD
ATOM     52  C   UNL A   1      47.677  26.963  26.872  1.00  0.00     0.037 A 
ATOM     53  C   UNL A   1      41.139  28.316  29.002  1.00  0.00     0.037 A 
ATOM     54  C   UNL A   1      47.415  28.333  27.226  1.00  0.00     0.049 A 
ATOM     55  C   UNL A   1      42.195  29.385  28.973  1.00  0.00     0.074 A 
ATOM     56  C   UNL A   1      48.279  29.414  27.175  1.00  0.00     0.029 A 
ATOM     57  N   UNL A   1      46.201  28.811  27.696  1.00  0.00    -0.354 N 
ATOM     58  N   UNL A   1      43.439  29.302  28.570  1.00  0.00    -0.248 NA
ATOM     59  C   UNL A   1      41.807  30.718  29.455  1.00  0.00     0.031 C 
ATOM     60  C   UNL A   1      47.604  30.534  27.666  1.00  0.00     0.029 A 
ATOM     61  C   UNL A   1      46.303  30.166  27.967  1.00  0.00     0.049 A 
ATOM     62  H   UNL A   1      45.388  28.270  27.819  1.00  0.00     0.167 HD
ATOM     63  C   UNL A   1      43.977  30.570  28.733  1.00  0.00     0.074 A 
ATOM     64  C   UNL A   1      42.921  31.410  29.257  1.00  0.00     0.031 C 
ATOM     65  C   UNL A   1      45.238  30.994  28.474  1.00  0.00     0.037 A 
BRANCH  52  66
ATOM     66  C   UNL A   1      49.064  26.616  26.409  1.00  0.00     0.064 A 
ATOM     67  C   UNL A   1      49.465  26.821  25.081  1.00  0.00     0.173 A 
ATOM     68  C   UNL A   1      50.028  26.160  27.322  1.00  0.00     0.173 A 
ATOM     69  F   UNL A   1      48.582  27.248  24.166  1.00  0.00    -0.203 F 
ATOM     70  C   UNL A   1      50.776  26.573  24.682  1.00  0.00     0.198 A 
ATOM     71  C   UNL A   1      51.344  25.941  26.927  1.00  0.00     0.198 A 
ATOM     72  F   UNL A   1      49.699  25.958  28.607  1.00  0.00    -0.203 F 
ATOM     73  F   UNL A   1      51.129  26.748  23.401  1.00  0.00    -0.200 F 
ATOM     74  C   UNL A   1      51.717  26.144  25.606  1.00  0.00     0.200 A 
ATOM     75  F   UNL A   1      52.256  25.544  27.825  1.00  0.00    -0.200 F 
ATOM     76  F   UNL A   1      52.983  25.927  25.226  1.00  0.00    -0.200 F 
ENDBRANCH  52  66
BRANCH  53  77
ATOM     77  C   UNL A   1      39.740  28.619  29.400  1.00  0.00     0.064 A 
ATOM     78  C   UNL A   1      39.314  28.455  30.724  1.00  0.00     0.173 A 
ATOM     79  C   UNL A   1      38.812  29.122  28.474  1.00  0.00     0.173 A 
ATOM     80  F   UNL A   1      40.158  27.962  31.643  1.00  0.00    -0.203 F 
ATOM     81  C   UNL A   1      38.014  28.780  31.108  1.00  0.00     0.198 A 
ATOM     82  C   UNL A   1      37.523  29.475  28.865  1.00  0.00     0.198 A 
ATOM     83  F   UNL A   1      39.171  29.304  27.195  1.00  0.00    -0.203 F 
ATOM     84  F   UNL A   1      37.624  28.586  32.375  1.00  0.00    -0.200 F 
ATOM     85  C   UNL A   1      37.123  29.300  30.181  1.00  0.00     0.200 A 
ATOM     86  F   UNL A   1      36.673  29.998  27.971  1.00  0.00    -0.200 F 
ATOM     87  F   UNL A   1      35.879  29.630  30.555  1.00  0.00    -0.200 F 
ENDBRANCH  53  77
BRANCH  65  88
ATOM     88  C   UNL A   1      45.561  32.436  28.728  1.00  0.00     0.064 A 
ATOM     89  C   UNL A   1      46.156  32.849  29.928  1.00  0.00     0.173 A 
ATOM     90  C   UNL A   1      45.392  33.389  27.712  1.00  0.00     0.173 A 
ATOM     91  F   UNL A   1      46.327  31.976  30.932  1.00  0.00    -0.203 F 
ATOM     92  C   UNL A   1      46.578  34.164  30.099  1.00  0.00     0.198 A 
ATOM     93  C   UNL A   1      45.839  34.696  27.876  1.00  0.00     0.198 A 
ATOM     94  F   UNL A   1      44.834  33.040  26.543  1.00  0.00    -0.203 F 
ATOM     95  F   UNL A   1      47.134  34.543  31.258  1.00  0.00    -0.200 F 
ATOM     96  C   UNL A   1      46.432  35.082  29.068  1.00  0.00     0.200 A 
ATOM     97  F   UNL A   1      45.715  35.577  26.873  1.00  0.00    -0.200 F 
ATOM     98  F   UNL A   1      46.870  36.340  29.223  1.00  0.00    -0.200 F 
ENDBRANCH  65  88
ENDBRANCH  39  40
ENDBRANCH  31  34
ENDBRANCH  29  30
ENDBRANCH  28  29
ENDBRANCH  27  28
ENDBRANCH   1  27
TORSDOF 16
ENDMDL
MODEL 2
REMARK VINA RESULT:     -12.7      5.559     11.069
REMARK SMILES CC(C)Cc1cc2c(cc1Cl)C=C(C(=O)NCCCCCCNC(=O)c1ccc(-c3c4nc(c(-c5c(F)c(F)c(F)c(F)c5F)c5ccc([nH]5)c(-c5c(F)c(F)c(F)c(F)c5F)c5nc(c(-c6c(F)c(F)c(F)c(F)c6F)c6ccc3[nH]6)C=C5)C=C4)cc1)[C@H](C(F)(F)F)O2
REMARK SMILES IDX 19 1 18 2 17 3 16 4 14 5 15 6 13 8 5 9 6 10 10 11 7 12 9 13
REMARK SMILES IDX 11 14 8 15 94 16 12 17 89 18 4 19 2 20 1 21 3 22 90 23 91 24
REMARK SMILES IDX 92 25 93 26 20 27 21 28 22 29 23 30 24 31 25 33 26 34 27 35
REMARK SMILES IDX 88 36 28 37 87 38 29 39 30 40 31 41 81 42 32 43 86 44 80 45
REMARK SMILES IDX 82 46 33 47 85 48 79 49 78 50 34 52 66 53 46 54 65 55 47 56
REMARK SMILES IDX 50 57 64 58 83 59 48 60 49 61 63 63 84 64 51 65 35 66 36 67
REMARK SMILES IDX 44 68 37 69 38 70 42 71 45 72 39 73 40 74 43 75 41 76 67 77
REMARK SMILES IDX 68 78 76 79 69 80 70 81 74 82 77 83 71 84 72 85 75 86 73 87
REMARK SMILES IDX 52 88 53 89 61 90 54 91 55 92 59 93 62 94 56 95 57 96 60 97
REMARK SMILES IDX 58 98
REMARK H PARENT 16 7 23 32 82 51 50 62
REMARK Flexibility Score: inf
ROOT
ATOM      1  C   UNL A   1      33.067  30.046  27.245  1.00  0.00     0.002 C 
ENDROOT
BRANCH   1   2
ATOM      2  C   UNL A   1      33.857  29.111  26.328  1.00  0.00     0.021 C 
BRANCH   2   3
ATOM      3  C   UNL A   1      33.161  27.785  26.040  1.00  0.00     0.116 C 
BRANCH   3   4
ATOM      4  N   UNL A   1      32.810  27.652  24.638  1.00  0.00    -0.352 N 
ATOM      5  C   UNL A   1      32.477  26.660  23.781  1.00  0.00     0.251 C 
ATOM      6  O   UNL A   1      32.239  27.027  22.625  1.00  0.00    -0.270 OA
ATOM      7  H   UNL A   1      32.816  28.527  24.186  1.00  0.00     0.163 HD
BRANCH   5   8
ATOM      8  C   UNL A   1      32.375  25.211  24.127  1.00  0.00     0.067 C 
ATOM      9  C   UNL A   1      33.362  20.309  24.845  1.00  0.00    -0.025 A 
ATOM     10  C   UNL A   1      32.192  21.075  24.737  1.00  0.00     0.052 A 
ATOM     11  C   UNL A   1      34.601  20.965  24.747  1.00  0.00     0.045 A 
ATOM     12  C   UNL A   1      32.261  22.446  24.518  1.00  0.00     0.128 A 
ATOM     13  C   UNL A   1      34.663  22.343  24.498  1.00  0.00     0.032 A 
ATOM     14  Cl  UNL A   1      36.101  20.123  24.898  1.00  0.00    -0.084 Cl
ATOM     15  C   UNL A   1      33.489  23.087  24.372  1.00  0.00     0.019 A 
ATOM     16  O   UNL A   1      31.070  23.098  24.408  1.00  0.00    -0.475 OA
ATOM     17  C   UNL A   1      33.517  24.504  24.039  1.00  0.00     0.025 C 
ATOM     18  C   UNL A   1      31.115  24.537  24.591  1.00  0.00     0.314 C 
BRANCH   9  19
ATOM     19  C   UNL A   1      33.212  18.813  24.993  1.00  0.00     0.040 C 
BRANCH  19  20
ATOM     20  C   UNL A   1      33.595  18.043  23.710  1.00  0.00    -0.013 C 
ATOM     21  C   UNL A   1      33.978  16.588  23.990  1.00  0.00     0.008 C 
ATOM     22  C   UNL A   1      32.436  18.088  22.713  1.00  0.00     0.008 C 
ENDBRANCH  19  20
ENDBRANCH   9  19
BRANCH  18  23
ATOM     23  C   UNL A   1      30.753  24.892  26.044  1.00  0.00     0.429 C 
ATOM     24  F   UNL A   1      31.830  24.930  26.860  1.00  0.00    -0.167 F 
ATOM     25  F   UNL A   1      30.141  26.093  26.153  1.00  0.00    -0.167 F 
ATOM     26  F   UNL A   1      29.891  23.975  26.554  1.00  0.00    -0.167 F 
ENDBRANCH  18  23
ENDBRANCH   5   8
ENDBRANCH   3   4
ENDBRANCH   2   3
ENDBRANCH   1   2
BRANCH   1  27
ATOM     27  C   UNL A   1      31.749  30.570  26.663  1.00  0.00     0.002 C 
BRANCH  27  28
ATOM     28  C   UNL A   1      31.541  32.081  26.779  1.00  0.00     0.021 C 
BRANCH  28  29
ATOM     29  C   UNL A   1      32.793  32.862  27.153  1.00  0.00     0.116 C 
BRANCH  29  30
ATOM     30  N   UNL A   1      32.483  34.198  27.639  1.00  0.00    -0.352 N 
ATOM     31  C   UNL A   1      33.017  34.891  28.697  1.00  0.00     0.251 C 
ATOM     32  H   UNL A   1      31.787  34.677  27.134  1.00  0.00     0.163 HD
ATOM     33  O   UNL A   1      32.490  35.929  29.087  1.00  0.00    -0.269 OA
BRANCH  31  34
ATOM     34  C   UNL A   1      34.220  34.372  29.381  1.00  0.00     0.039 A 
ATOM     35  C   UNL A   1      35.492  34.647  28.879  1.00  0.00     0.014 A 
ATOM     36  C   UNL A   1      34.075  33.599  30.537  1.00  0.00     0.014 A 
ATOM     37  C   UNL A   1      36.598  34.006  29.422  1.00  0.00     0.010 A 
ATOM     38  C   UNL A   1      35.204  33.044  31.147  1.00  0.00     0.010 A 
ATOM     39  C   UNL A   1      36.471  33.204  30.568  1.00  0.00    -0.014 A 
BRANCH  39  40
ATOM     40  C   UNL A   1      37.691  32.573  31.137  1.00  0.00     0.031 A 
ATOM     41  C   UNL A   1      38.173  32.919  32.519  1.00  0.00     0.074 A 
ATOM     42  C   UNL A   1      38.319  31.619  30.421  1.00  0.00     0.049 A 
ATOM     43  N   UNL A   1      39.157  32.388  33.203  1.00  0.00    -0.248 NA
ATOM     44  C   UNL A   1      37.472  34.000  33.228  1.00  0.00     0.031 C 
ATOM     45  C   UNL A   1      37.944  31.207  29.066  1.00  0.00     0.029 A 
ATOM     46  N   UNL A   1      39.367  30.792  30.740  1.00  0.00    -0.354 N 
ATOM     47  C   UNL A   1      39.195  33.072  34.410  1.00  0.00     0.074 A 
ATOM     48  C   UNL A   1      38.165  34.086  34.355  1.00  0.00     0.031 C 
ATOM     49  C   UNL A   1      38.696  30.159  28.702  1.00  0.00     0.029 A 
ATOM     50  C   UNL A   1      39.650  29.866  29.766  1.00  0.00     0.049 A 
ATOM     51  H   UNL A   1      39.867  30.857  31.585  1.00  0.00     0.167 HD
ATOM     52  C   UNL A   1      40.002  32.856  35.476  1.00  0.00     0.037 A 
ATOM     53  C   UNL A   1      40.575  28.889  29.727  1.00  0.00     0.037 A 
ATOM     54  C   UNL A   1      41.010  31.830  35.533  1.00  0.00     0.049 A 
ATOM     55  C   UNL A   1      41.486  28.700  30.908  1.00  0.00     0.074 A 
ATOM     56  C   UNL A   1      41.857  31.515  36.581  1.00  0.00     0.029 A 
ATOM     57  N   UNL A   1      41.308  30.954  34.499  1.00  0.00    -0.354 N 
ATOM     58  N   UNL A   1      41.482  29.328  32.058  1.00  0.00    -0.248 NA
ATOM     59  C   UNL A   1      42.532  27.676  30.785  1.00  0.00     0.031 C 
ATOM     60  C   UNL A   1      42.703  30.486  36.164  1.00  0.00     0.029 A 
ATOM     61  C   UNL A   1      42.346  30.118  34.876  1.00  0.00     0.049 A 
ATOM     62  H   UNL A   1      40.850  30.929  33.628  1.00  0.00     0.167 HD
ATOM     63  C   UNL A   1      42.510  28.767  32.801  1.00  0.00     0.074 A 
ATOM     64  C   UNL A   1      43.108  27.736  31.979  1.00  0.00     0.031 C 
ATOM     65  C   UNL A   1      42.921  29.085  34.053  1.00  0.00     0.037 A 
BRANCH  52  66
ATOM     66  C   UNL A   1      39.836  33.737  36.682  1.00  0.00     0.064 A 
ATOM     67  C   UNL A   1      40.472  34.983  36.771  1.00  0.00     0.173 A 
ATOM     68  C   UNL A   1      38.960  33.373  37.716  1.00  0.00     0.173 A 
ATOM     69  F   UNL A   1      41.325  35.377  35.813  1.00  0.00    -0.203 F 
ATOM     70  C   UNL A   1      40.247  35.827  37.856  1.00  0.00     0.198 A 
ATOM     71  C   UNL A   1      38.715  34.230  38.784  1.00  0.00     0.198 A 
ATOM     72  F   UNL A   1      38.317  32.196  37.675  1.00  0.00    -0.203 F 
ATOM     73  F   UNL A   1      40.889  37.001  37.933  1.00  0.00    -0.200 F 
ATOM     74  C   UNL A   1      39.361  35.456  38.856  1.00  0.00     0.200 A 
ATOM     75  F   UNL A   1      37.844  33.878  39.740  1.00  0.00    -0.200 F 
ATOM     76  F   UNL A   1      39.128  36.278  39.888  1.00  0.00    -0.200 F 
ENDBRANCH  52  66
BRANCH  53  77
ATOM     77  C   UNL A   1      40.662  28.008  28.533  1.00  0.00     0.064 A 
ATOM     78  C   UNL A   1      41.455  28.360  27.434  1.00  0.00     0.173 A 
ATOM     79  C   UNL A   1      39.990  26.777  28.486  1.00  0.00     0.173 A 
ATOM     80  F   UNL A   1      42.104  29.533  27.423  1.00  0.00    -0.203 F 
ATOM     81  C   UNL A   1      41.572  27.515  26.331  1.00  0.00     0.198 A 
ATOM     82  C   UNL A   1      40.132  25.920  27.397  1.00  0.00     0.198 A 
ATOM     83  F   UNL A   1      39.223  26.390  29.515  1.00  0.00    -0.203 F 
ATOM     84  F   UNL A   1      42.314  27.889  25.280  1.00  0.00    -0.200 F 
ATOM     85  C   UNL A   1      40.920  26.292  26.318  1.00  0.00     0.200 A 
ATOM     86  F   UNL A   1      39.518  24.729  27.399  1.00  0.00    -0.200 F 
ATOM     87  F   UNL A   1      41.048  25.472  25.266  1.00  0.00    -0.200 F 
ENDBRANCH  53  77
BRANCH  65  88
ATOM     88  C   UNL A   1      44.060  28.306  34.638  1.00  0.00     0.064 A 
ATOM     89  C   UNL A   1      43.847  27.088  35.299  1.00  0.00     0.173 A 
ATOM     90  C   UNL A   1      45.384  28.716  34.422  1.00  0.00     0.173 A 
ATOM     91  F   UNL A   1      42.598  26.660  35.540  1.00  0.00    -0.203 F 
ATOM     92  C   UNL A   1      44.920  26.305  35.716  1.00  0.00     0.198 A 
ATOM     93  C   UNL A   1      46.454  27.919  34.817  1.00  0.00     0.198 A 
ATOM     94  F   UNL A   1      45.639  29.870  33.787  1.00  0.00    -0.203 F 
ATOM     95  F   UNL A   1      44.695  25.150  36.357  1.00  0.00    -0.200 F 
ATOM     96  C   UNL A   1      46.221  26.714  35.462  1.00  0.00     0.200 A 
ATOM     97  F   UNL A   1      47.710  28.306  34.553  1.00  0.00    -0.200 F 
ATOM     98  F   UNL A   1      47.252  25.943  35.835  1.00  0.00    -0.200 F 
ENDBRANCH  65  88
ENDBRANCH  39  40
ENDBRANCH  31  34
ENDBRANCH  29  30
ENDBRANCH  28  29
ENDBRANCH  27  28
ENDBRANCH   1  27
TORSDOF 16
ENDMDL
MODEL 3
REMARK VINA RESULT:     -12.5      1.192      1.822
REMARK SMILES CC(C)Cc1cc2c(cc1Cl)C=C(C(=O)NCCCCCCNC(=O)c1ccc(-c3c4nc(c(-c5c(F)c(F)c(F)c(F)c5F)c5ccc([nH]5)c(-c5c(F)c(F)c(F)c(F)c5F)c5nc(c(-c6c(F)c(F)c(F)c(F)c6F)c6ccc3[nH]6)C=C5)C=C4)cc1)[C@H](C(F)(F)F)O2
REMARK SMILES IDX 19 1 18 2 17 3 16 4 14 5 15 6 13 8 5 9 6 10 10 11 7 12 9 13
REMARK SMILES IDX 11 14 8 15 94 16 12 17 89 18 4 19 2 20 1 21 3 22 90 23 91 24
REMARK SMILES IDX 92 25 93 26 20 27 21 28 22 29 23 30 24 31 25 33 26 34 27 35
REMARK SMILES IDX 88 36 28 37 87 38 29 39 30 40 31 41 81 42 32 43 86 44 80 45
REMARK SMILES IDX 82 46 33 47 85 48 79 49 78 50 34 52 66 53 46 54 65 55 47 56
REMARK SMILES IDX 50 57 64 58 83 59 48 60 49 61 63 63 84 64 51 65 35 66 36 67
REMARK SMILES IDX 44 68 37 69 38 70 42 71 45 72 39 73 40 74 43 75 41 76 67 77
REMARK SMILES IDX 68 78 76 79 69 80 70 81 74 82 77 83 71 84 72 85 75 86 73 87
REMARK SMILES IDX 52 88 53 89 61 90 54 91 55 92 59 93 62 94 56 95 57 96 60 97
REMARK SMILES IDX 58 98
REMARK H PARENT 16 7 23 32 82 51 50 62
REMARK Flexibility Score: inf
ROOT
ATOM      1  C   UNL A   1      37.107  21.768  24.270  1.00  0.00     0.002 C 
ENDROOT
BRANCH   1   2
ATOM      2  C   UNL A   1      36.201  22.919  24.710  1.00  0.00     0.021 C 
BRANCH   2   3
ATOM      3  C   UNL A   1      36.359  23.311  26.176  1.00  0.00     0.116 C 
BRANCH   3   4
ATOM      4  N   UNL A   1      35.357  22.680  27.014  1.00  0.00    -0.352 N 
ATOM      5  C   UNL A   1      34.042  22.840  27.292  1.00  0.00     0.251 C 
ATOM      6  O   UNL A   1      33.578  22.028  28.100  1.00  0.00    -0.270 OA
ATOM      7  H   UNL A   1      35.740  21.928  27.521  1.00  0.00     0.163 HD
BRANCH   5   8
ATOM      8  C   UNL A   1      33.151  23.885  26.705  1.00  0.00     0.067 C 
ATOM      9  C   UNL A   1      31.370  28.042  24.456  1.00  0.00    -0.025 A 
ATOM     10  C   UNL A   1      30.821  27.062  25.296  1.00  0.00     0.052 A 
ATOM     11  C   UNL A   1      32.723  27.931  24.095  1.00  0.00     0.045 A 
ATOM     12  C   UNL A   1      31.606  26.018  25.773  1.00  0.00     0.128 A 
ATOM     13  C   UNL A   1      33.515  26.892  24.602  1.00  0.00     0.032 A 
ATOM     14  Cl  UNL A   1      33.489  29.064  23.041  1.00  0.00    -0.084 Cl
ATOM     15  C   UNL A   1      32.959  25.937  25.454  1.00  0.00     0.019 A 
ATOM     16  O   UNL A   1      30.986  25.129  26.598  1.00  0.00    -0.475 OA
ATOM     17  C   UNL A   1      33.770  24.889  26.059  1.00  0.00     0.025 C 
ATOM     18  C   UNL A   1      31.650  23.849  26.764  1.00  0.00     0.314 C 
BRANCH   9  19
ATOM     19  C   UNL A   1      30.483  29.196  24.048  1.00  0.00     0.040 C 
BRANCH  19  20
ATOM     20  C   UNL A   1      29.613  28.875  22.813  1.00  0.00    -0.013 C 
ATOM     21  C   UNL A   1      28.131  28.718  23.163  1.00  0.00     0.008 C 
ATOM     22  C   UNL A   1      29.781  29.973  21.762  1.00  0.00     0.008 C 
ENDBRANCH  19  20
ENDBRANCH   9  19
BRANCH  18  23
ATOM     23  C   UNL A   1      31.043  22.814  25.801  1.00  0.00     0.429 C 
ATOM     24  F   UNL A   1      29.919  22.239  26.287  1.00  0.00    -0.167 F 
ATOM     25  F   UNL A   1      30.718  23.343  24.600  1.00  0.00    -0.167 F 
ATOM     26  F   UNL A   1      31.932  21.818  25.555  1.00  0.00    -0.167 F 
ENDBRANCH  18  23
ENDBRANCH   5   8
ENDBRANCH   3   4
ENDBRANCH   2   3
ENDBRANCH   1   2
BRANCH   1  27
ATOM     27  C   UNL A   1      36.864  20.435  24.988  1.00  0.00     0.002 C 
BRANCH  27  28
ATOM     28  C   UNL A   1      38.046  19.465  24.979  1.00  0.00     0.021 C 
BRANCH  28  29
ATOM     29  C   UNL A   1      39.291  19.983  25.687  1.00  0.00     0.116 C 
BRANCH  29  30
ATOM     30  N   UNL A   1      40.316  18.959  25.817  1.00  0.00    -0.352 N 
ATOM     31  C   UNL A   1      41.665  19.093  26.036  1.00  0.00     0.251 C 
ATOM     32  H   UNL A   1      39.994  18.032  25.738  1.00  0.00     0.163 HD
ATOM     33  O   UNL A   1      42.410  18.126  25.912  1.00  0.00    -0.269 OA
BRANCH  31  34
ATOM     34  C   UNL A   1      42.221  20.412  26.400  1.00  0.00     0.039 A 
ATOM     35  C   UNL A   1      42.219  20.837  27.729  1.00  0.00     0.014 A 
ATOM     36  C   UNL A   1      42.748  21.236  25.401  1.00  0.00     0.014 A 
ATOM     37  C   UNL A   1      42.575  22.145  28.031  1.00  0.00     0.010 A 
ATOM     38  C   UNL A   1      43.208  22.516  25.727  1.00  0.00     0.010 A 
ATOM     39  C   UNL A   1      43.083  22.999  27.038  1.00  0.00    -0.014 A 
BRANCH  39  40
ATOM     40  C   UNL A   1      43.490  24.377  27.420  1.00  0.00     0.031 A 
ATOM     41  C   UNL A   1      44.884  24.877  27.159  1.00  0.00     0.074 A 
ATOM     42  C   UNL A   1      42.560  25.205  27.936  1.00  0.00     0.049 A 
ATOM     43  N   UNL A   1      45.372  26.080  27.336  1.00  0.00    -0.248 NA
ATOM     44  C   UNL A   1      45.861  23.909  26.637  1.00  0.00     0.031 C 
ATOM     45  C   UNL A   1      41.178  24.827  28.241  1.00  0.00     0.029 A 
ATOM     46  N   UNL A   1      42.615  26.540  28.253  1.00  0.00    -0.354 N 
ATOM     47  C   UNL A   1      46.706  26.010  26.957  1.00  0.00     0.074 A 
ATOM     48  C   UNL A   1      46.967  24.639  26.579  1.00  0.00     0.031 C 
ATOM     49  C   UNL A   1      40.498  25.915  28.624  1.00  0.00     0.029 A 
ATOM     50  C   UNL A   1      41.407  27.056  28.659  1.00  0.00     0.049 A 
ATOM     51  H   UNL A   1      43.439  27.075  28.195  1.00  0.00     0.167 HD
ATOM     52  C   UNL A   1      47.621  27.007  26.908  1.00  0.00     0.037 A 
ATOM     53  C   UNL A   1      41.067  28.306  29.024  1.00  0.00     0.037 A 
ATOM     54  C   UNL A   1      47.347  28.375  27.265  1.00  0.00     0.049 A 
ATOM     55  C   UNL A   1      42.115  29.383  29.000  1.00  0.00     0.074 A 
ATOM     56  C   UNL A   1      48.203  29.462  27.219  1.00  0.00     0.029 A 
ATOM     57  N   UNL A   1      46.129  28.843  27.733  1.00  0.00    -0.354 N 
ATOM     58  N   UNL A   1      43.360  29.311  28.600  1.00  0.00    -0.248 NA
ATOM     59  C   UNL A   1      41.715  30.712  29.484  1.00  0.00     0.031 C 
ATOM     60  C   UNL A   1      47.519  30.576  27.711  1.00  0.00     0.029 A 
ATOM     61  C   UNL A   1      46.219  30.198  28.008  1.00  0.00     0.049 A 
ATOM     62  H   UNL A   1      45.319  28.295  27.853  1.00  0.00     0.167 HD
ATOM     63  C   UNL A   1      43.889  30.582  28.768  1.00  0.00     0.074 A 
ATOM     64  C   UNL A   1      42.825  31.413  29.291  1.00  0.00     0.031 C 
ATOM     65  C   UNL A   1      45.147  31.016  28.513  1.00  0.00     0.037 A 
BRANCH  52  66
ATOM     66  C   UNL A   1      49.011  26.672  26.448  1.00  0.00     0.064 A 
ATOM     67  C   UNL A   1      49.965  26.139  27.327  1.00  0.00     0.173 A 
ATOM     68  C   UNL A   1      49.365  26.798  25.095  1.00  0.00     0.173 A 
ATOM     69  F   UNL A   1      49.681  26.005  28.631  1.00  0.00    -0.203 F 
ATOM     70  C   UNL A   1      51.224  25.756  26.872  1.00  0.00     0.198 A 
ATOM     71  C   UNL A   1      50.613  26.388  24.638  1.00  0.00     0.198 A 
ATOM     72  F   UNL A   1      48.486  27.292  24.210  1.00  0.00    -0.203 F 
ATOM     73  F   UNL A   1      52.129  25.276  27.736  1.00  0.00    -0.200 F 
ATOM     74  C   UNL A   1      51.544  25.870  25.527  1.00  0.00     0.200 A 
ATOM     75  F   UNL A   1      50.914  26.481  23.336  1.00  0.00    -0.200 F 
ATOM     76  F   UNL A   1      52.748  25.480  25.087  1.00  0.00    -0.200 F 
ENDBRANCH  52  66
BRANCH  53  77
ATOM     77  C   UNL A   1      39.664  28.598  29.418  1.00  0.00     0.064 A 
ATOM     78  C   UNL A   1      39.231  28.407  30.736  1.00  0.00     0.173 A 
ATOM     79  C   UNL A   1      38.741  29.115  28.496  1.00  0.00     0.173 A 
ATOM     80  F   UNL A   1      40.070  27.901  31.651  1.00  0.00    -0.203 F 
ATOM     81  C   UNL A   1      37.927  28.722  31.117  1.00  0.00     0.198 A 
ATOM     82  C   UNL A   1      37.448  29.458  28.885  1.00  0.00     0.198 A 
ATOM     83  F   UNL A   1      39.107  29.322  27.222  1.00  0.00    -0.203 F 
ATOM     84  F   UNL A   1      37.530  28.504  32.379  1.00  0.00    -0.200 F 
ATOM     85  C   UNL A   1      37.041  29.256  30.195  1.00  0.00     0.200 A 
ATOM     86  F   UNL A   1      36.602  29.994  27.995  1.00  0.00    -0.200 F 
ATOM     87  F   UNL A   1      35.794  29.576  30.568  1.00  0.00    -0.200 F 
ENDBRANCH  53  77
BRANCH  65  88
ATOM     88  C   UNL A   1      45.458  32.460  28.772  1.00  0.00     0.064 A 
ATOM     89  C   UNL A   1      46.122  32.865  29.938  1.00  0.00     0.173 A 
ATOM     90  C   UNL A   1      45.206  33.426  27.786  1.00  0.00     0.173 A 
ATOM     91  F   UNL A   1      46.374  31.978  30.914  1.00  0.00    -0.203 F 
ATOM     92  C   UNL A   1      46.529  34.185  30.105  1.00  0.00     0.198 A 
ATOM     93  C   UNL A   1      45.638  34.739  27.945  1.00  0.00     0.198 A 
ATOM     94  F   UNL A   1      44.580  33.085  26.650  1.00  0.00    -0.203 F 
ATOM     95  F   UNL A   1      47.152  34.555  31.233  1.00  0.00    -0.200 F 
ATOM     96  C   UNL A   1      46.300  35.117  29.103  1.00  0.00     0.200 A 
ATOM     97  F   UNL A   1      45.432  35.634  26.968  1.00  0.00    -0.200 F 
ATOM     98  F   UNL A   1      46.722  36.381  29.252  1.00  0.00    -0.200 F 
ENDBRANCH  65  88
ENDBRANCH  39  40
ENDBRANCH  31  34
ENDBRANCH  29  30
ENDBRANCH  28  29
ENDBRANCH  27  28
ENDBRANCH   1  27
TORSDOF 16
ENDMDL
