MODEL 1
REMARK VINA RESULT:     -11.6      0.000      0.000
REMARK SMILES N#Cc1cc2c(nc1N(CC(=O)NCCCCCCNC(=O)c1ccc(-c3c4nc(c(-c5c(F)c(F)c(F)c(F)c5F)c5ccc([nH]5)c(-c5c(F)c(F)c(F)c(F)c5F)c5nc(c(-c6c(F)c(F)c(F)c(F)c6F)c6ccc3[nH]6)C=C5)C=C4)cc1)CC(F)(F)F)CCC2
REMARK SMILES IDX 16 1 15 2 14 3 13 4 11 5 12 6 10 8 9 9 8 10 3 11 4 12 5 13
REMARK SMILES IDX 7 14 6 15 93 16 91 17 92 18 2 19 1 20 86 21 87 22 88 23
REMARK SMILES IDX 89 24 90 25 17 26 18 27 19 28 20 29 21 30 22 32 23 33 24 34
REMARK SMILES IDX 85 35 25 36 84 37 26 38 27 39 28 40 78 41 29 42 83 43 77 44
REMARK SMILES IDX 79 45 30 46 82 47 76 48 75 49 31 51 63 52 43 53 62 54 44 55
REMARK SMILES IDX 47 56 61 57 80 58 45 59 46 60 60 62 81 63 48 64 32 65 33 66
REMARK SMILES IDX 41 67 34 68 35 69 39 70 42 71 36 72 37 73 40 74 38 75 64 76
REMARK SMILES IDX 65 77 73 78 66 79 67 80 71 81 74 82 68 83 69 84 72 85 70 86
REMARK SMILES IDX 49 87 50 88 58 89 51 90 52 91 56 92 59 93 53 94 54 95 57 96
REMARK SMILES IDX 55 97
REMARK H PARENT 13 7 20 31 79 50 47 61
REMARK Flexibility Score: inf
ROOT
ATOM      1  C   UNL A   1      37.901  21.736  25.196  1.00  0.00     0.002 C 
ENDROOT
BRANCH   1   2
ATOM      2  C   UNL A   1      36.962  22.829  24.674  1.00  0.00     0.021 C 
BRANCH   2   3
ATOM      3  C   UNL A   1      36.255  23.599  25.786  1.00  0.00     0.116 C 
BRANCH   3   4
ATOM      4  N   UNL A   1      35.571  22.701  26.694  1.00  0.00    -0.355 N 
ATOM      5  C   UNL A   1      34.388  22.048  26.509  1.00  0.00     0.239 C 
ATOM      6  O   UNL A   1      33.913  21.410  27.453  1.00  0.00    -0.273 OA
ATOM      7  H   UNL A   1      36.019  22.542  27.556  1.00  0.00     0.163 HD
BRANCH   5   8
ATOM      8  C   UNL A   1      33.675  22.104  25.152  1.00  0.00     0.218 C 
BRANCH   8   9
ATOM      9  N   UNL A   1      32.602  23.134  25.098  1.00  0.00    -0.337 N 
BRANCH   9  10
ATOM     10  C   UNL A   1      32.965  24.436  24.778  1.00  0.00     0.147 A 
ATOM     11  C   UNL A   1      33.219  24.960  23.489  1.00  0.00     0.095 A 
ATOM     12  C   UNL A   1      33.436  26.344  23.303  1.00  0.00     0.029 A 
ATOM     13  C   UNL A   1      33.465  27.163  24.405  1.00  0.00    -0.025 A 
ATOM     14  N   UNL A   1      33.045  25.285  25.843  1.00  0.00    -0.234 NA
ATOM     15  C   UNL A   1      33.297  26.589  25.642  1.00  0.00     0.046 A 
ATOM     16  C   UNL A   1      33.631  28.641  24.506  1.00  0.00     0.038 C 
ATOM     17  C   UNL A   1      33.371  27.622  26.733  1.00  0.00     0.057 C 
ATOM     18  C   UNL A   1      34.028  28.790  25.983  1.00  0.00     0.011 C 
BRANCH  11  19
ATOM     19  C   UNL A   1      33.325  24.169  22.301  1.00  0.00     0.103 C 
ATOM     20  N   UNL A   1      33.432  23.518  21.349  1.00  0.00    -0.192 NA
ENDBRANCH  11  19
ENDBRANCH   9  10
BRANCH   9  21
ATOM     21  C   UNL A   1      31.216  22.612  25.280  1.00  0.00     0.234 C 
BRANCH  21  22
ATOM     22  C   UNL A   1      30.473  23.029  26.564  1.00  0.00     0.405 C 
ATOM     23  F   UNL A   1      29.952  24.274  26.483  1.00  0.00    -0.169 F 
ATOM     24  F   UNL A   1      29.451  22.180  26.821  1.00  0.00    -0.169 F 
ATOM     25  F   UNL A   1      31.287  23.004  27.645  1.00  0.00    -0.169 F 
ENDBRANCH  21  22
ENDBRANCH   9  21
ENDBRANCH   8   9
ENDBRANCH   5   8
ENDBRANCH   3   4
ENDBRANCH   2   3
ENDBRANCH   1   2
BRANCH   1  26
ATOM     26  C   UNL A   1      37.498  20.317  24.782  1.00  0.00     0.002 C 
BRANCH  26  27
ATOM     27  C   UNL A   1      38.494  19.234  25.196  1.00  0.00     0.021 C 
BRANCH  27  28
ATOM     28  C   UNL A   1      39.658  19.755  26.031  1.00  0.00     0.116 C 
BRANCH  28  29
ATOM     29  N   UNL A   1      40.787  18.839  26.003  1.00  0.00    -0.352 N 
ATOM     30  C   UNL A   1      42.128  19.129  26.003  1.00  0.00     0.251 C 
ATOM     31  H   UNL A   1      40.559  17.882  25.981  1.00  0.00     0.163 HD
ATOM     32  O   UNL A   1      42.957  18.269  25.729  1.00  0.00    -0.269 OA
BRANCH  30  33
ATOM     33  C   UNL A   1      42.563  20.502  26.322  1.00  0.00     0.039 A 
ATOM     34  C   UNL A   1      42.924  21.359  25.282  1.00  0.00     0.014 A 
ATOM     35  C   UNL A   1      42.598  20.940  27.649  1.00  0.00     0.014 A 
ATOM     36  C   UNL A   1      43.274  22.677  25.572  1.00  0.00     0.010 A 
ATOM     37  C   UNL A   1      42.866  22.275  27.928  1.00  0.00     0.010 A 
ATOM     38  C   UNL A   1      43.219  23.153  26.893  1.00  0.00    -0.014 A 
BRANCH  38  39
ATOM     39  C   UNL A   1      43.558  24.561  27.211  1.00  0.00     0.031 A 
ATOM     40  C   UNL A   1      44.955  25.065  26.984  1.00  0.00     0.074 A 
ATOM     41  C   UNL A   1      42.617  25.373  27.729  1.00  0.00     0.049 A 
ATOM     42  N   UNL A   1      45.454  26.251  27.223  1.00  0.00    -0.248 NA
ATOM     43  C   UNL A   1      45.926  24.105  26.434  1.00  0.00     0.031 C 
ATOM     44  C   UNL A   1      41.236  24.987  28.021  1.00  0.00     0.029 A 
ATOM     45  N   UNL A   1      42.677  26.694  28.100  1.00  0.00    -0.354 N 
ATOM     46  C   UNL A   1      46.790  26.177  26.852  1.00  0.00     0.074 A 
ATOM     47  C   UNL A   1      47.044  24.816  26.437  1.00  0.00     0.031 C 
ATOM     48  C   UNL A   1      40.571  26.054  28.490  1.00  0.00     0.029 A 
ATOM     49  C   UNL A   1      41.486  27.188  28.574  1.00  0.00     0.049 A 
ATOM     50  H   UNL A   1      43.497  27.235  28.033  1.00  0.00     0.167 HD
ATOM     51  C   UNL A   1      47.712  27.168  26.828  1.00  0.00     0.037 A 
ATOM     52  C   UNL A   1      41.172  28.418  29.026  1.00  0.00     0.037 A 
ATOM     53  C   UNL A   1      47.447  28.525  27.225  1.00  0.00     0.049 A 
ATOM     54  C   UNL A   1      42.228  29.489  29.031  1.00  0.00     0.074 A 
ATOM     55  C   UNL A   1      48.305  29.610  27.198  1.00  0.00     0.029 A 
ATOM     56  N   UNL A   1      46.235  28.983  27.719  1.00  0.00    -0.354 N 
ATOM     57  N   UNL A   1      43.473  29.424  28.623  1.00  0.00    -0.248 NA
ATOM     58  C   UNL A   1      41.839  30.805  29.554  1.00  0.00     0.031 C 
ATOM     59  C   UNL A   1      47.631  30.710  27.734  1.00  0.00     0.029 A 
ATOM     60  C   UNL A   1      46.332  30.329  28.032  1.00  0.00     0.049 A 
ATOM     61  H   UNL A   1      45.425  28.433  27.831  1.00  0.00     0.167 HD
ATOM     62  C   UNL A   1      44.006  30.692  28.817  1.00  0.00     0.074 A 
ATOM     63  C   UNL A   1      42.945  31.512  29.360  1.00  0.00     0.031 C 
ATOM     64  C   UNL A   1      45.263  31.134  28.568  1.00  0.00     0.037 A 
BRANCH  51  65
ATOM     65  C   UNL A   1      49.093  26.830  26.344  1.00  0.00     0.064 A 
ATOM     66  C   UNL A   1      50.053  26.267  27.198  1.00  0.00     0.173 A 
ATOM     67  C   UNL A   1      49.435  26.999  24.994  1.00  0.00     0.173 A 
ATOM     68  F   UNL A   1      49.780  26.096  28.501  1.00  0.00    -0.203 F 
ATOM     69  C   UNL A   1      51.308  25.900  26.723  1.00  0.00     0.198 A 
ATOM     70  C   UNL A   1      50.680  26.600  24.515  1.00  0.00     0.198 A 
ATOM     71  F   UNL A   1      48.553  27.530  24.133  1.00  0.00    -0.203 F 
ATOM     72  F   UNL A   1      52.221  25.398  27.566  1.00  0.00    -0.200 F 
ATOM     73  C   UNL A   1      51.617  26.055  25.380  1.00  0.00     0.200 A 
ATOM     74  F   UNL A   1      50.970  26.734  23.213  1.00  0.00    -0.200 F 
ATOM     75  F   UNL A   1      52.818  25.679  24.919  1.00  0.00    -0.200 F 
ENDBRANCH  51  65
BRANCH  52  76
ATOM     76  C   UNL A   1      39.785  28.704  29.484  1.00  0.00     0.064 A 
ATOM     77  C   UNL A   1      38.819  29.187  28.590  1.00  0.00     0.173 A 
ATOM     78  C   UNL A   1      39.392  28.486  30.813  1.00  0.00     0.173 A 
ATOM     79  F   UNL A   1      39.148  29.432  27.314  1.00  0.00    -0.203 F 
ATOM     80  C   UNL A   1      37.517  29.453  29.012  1.00  0.00     0.198 A 
ATOM     81  C   UNL A   1      38.082  28.721  31.225  1.00  0.00     0.198 A 
ATOM     82  F   UNL A   1      40.277  28.021  31.707  1.00  0.00    -0.203 F 
ATOM     83  F   UNL A   1      36.624  29.952  28.146  1.00  0.00    -0.200 F 
ATOM     84  C   UNL A   1      37.147  29.210  30.326  1.00  0.00     0.200 A 
ATOM     85  F   UNL A   1      37.726  28.468  32.492  1.00  0.00    -0.200 F 
ATOM     86  F   UNL A   1      35.892  29.453  30.727  1.00  0.00    -0.200 F 
ENDBRANCH  52  76
BRANCH  64  87
ATOM     87  C   UNL A   1      45.571  32.573  28.866  1.00  0.00     0.064 A 
ATOM     88  C   UNL A   1      45.320  33.586  27.928  1.00  0.00     0.173 A 
ATOM     89  C   UNL A   1      46.040  32.954  30.134  1.00  0.00     0.173 A 
ATOM     90  F   UNL A   1      44.882  33.275  26.699  1.00  0.00    -0.203 F 
ATOM     91  C   UNL A   1      45.540  34.924  28.245  1.00  0.00     0.198 A 
ATOM     92  C   UNL A   1      46.225  34.295  30.457  1.00  0.00     0.198 A 
ATOM     93  F   UNL A   1      46.285  32.026  31.070  1.00  0.00    -0.203 F 
ATOM     94  F   UNL A   1      45.327  35.871  27.320  1.00  0.00    -0.200 F 
ATOM     95  C   UNL A   1      45.979  35.278  29.511  1.00  0.00     0.200 A 
ATOM     96  F   UNL A   1      46.628  34.636  31.689  1.00  0.00    -0.200 F 
ATOM     97  F   UNL A   1      46.167  36.569  29.820  1.00  0.00    -0.200 F 
ENDBRANCH  64  87
ENDBRANCH  38  39
ENDBRANCH  30  33
ENDBRANCH  28  29
ENDBRANCH  27  28
ENDBRANCH  26  27
ENDBRANCH   1  26
TORSDOF 18
ENDMDL
MODEL 2
REMARK VINA RESULT:     -11.4      3.103      4.855
REMARK SMILES N#Cc1cc2c(nc1N(CC(=O)NCCCCCCNC(=O)c1ccc(-c3c4nc(c(-c5c(F)c(F)c(F)c(F)c5F)c5ccc([nH]5)c(-c5c(F)c(F)c(F)c(F)c5F)c5nc(c(-c6c(F)c(F)c(F)c(F)c6F)c6ccc3[nH]6)C=C5)C=C4)cc1)CC(F)(F)F)CCC2
REMARK SMILES IDX 16 1 15 2 14 3 13 4 11 5 12 6 10 8 9 9 8 10 3 11 4 12 5 13
REMARK SMILES IDX 7 14 6 15 93 16 91 17 92 18 2 19 1 20 86 21 87 22 88 23
REMARK SMILES IDX 89 24 90 25 17 26 18 27 19 28 20 29 21 30 22 32 23 33 24 34
REMARK SMILES IDX 85 35 25 36 84 37 26 38 27 39 28 40 78 41 29 42 83 43 77 44
REMARK SMILES IDX 79 45 30 46 82 47 76 48 75 49 31 51 63 52 43 53 62 54 44 55
REMARK SMILES IDX 47 56 61 57 80 58 45 59 46 60 60 62 81 63 48 64 32 65 33 66
REMARK SMILES IDX 41 67 34 68 35 69 39 70 42 71 36 72 37 73 40 74 38 75 64 76
REMARK SMILES IDX 65 77 73 78 66 79 67 80 71 81 74 82 68 83 69 84 72 85 70 86
REMARK SMILES IDX 49 87 50 88 58 89 51 90 52 91 56 92 59 93 53 94 54 95 57 96
REMARK SMILES IDX 55 97
REMARK H PARENT 13 7 20 31 79 50 47 61
REMARK Flexibility Score: inf
ROOT
ATOM      1  C   UNL A   1      34.242  22.018  24.382  1.00  0.00     0.002 C 
ENDROOT
BRANCH   1   2
ATOM      2  C   UNL A   1      33.164  21.992  23.292  1.00  0.00     0.021 C 
BRANCH   2   3
ATOM      3  C   UNL A   1      32.347  23.278  23.219  1.00  0.00     0.116 C 
BRANCH   3   4
ATOM      4  N   UNL A   1      32.765  24.103  22.104  1.00  0.00    -0.355 N 
ATOM      5  C   UNL A   1      33.110  25.423  22.108  1.00  0.00     0.239 C 
ATOM      6  O   UNL A   1      33.331  25.978  21.029  1.00  0.00    -0.273 OA
ATOM      7  H   UNL A   1      32.804  23.653  21.230  1.00  0.00     0.163 HD
BRANCH   5   8
ATOM      8  C   UNL A   1      33.226  26.189  23.432  1.00  0.00     0.218 C 
BRANCH   8   9
ATOM      9  N   UNL A   1      32.053  27.065  23.705  1.00  0.00    -0.337 N 
BRANCH   9  10
ATOM     10  C   UNL A   1      32.248  28.181  24.507  1.00  0.00     0.147 A 
ATOM     11  C   UNL A   1      31.396  29.304  24.630  1.00  0.00     0.095 A 
ATOM     12  C   UNL A   1      31.653  30.301  25.599  1.00  0.00     0.029 A 
ATOM     13  C   UNL A   1      32.783  30.198  26.372  1.00  0.00    -0.025 A 
ATOM     14  N   UNL A   1      33.378  28.147  25.271  1.00  0.00    -0.234 NA
ATOM     15  C   UNL A   1      33.621  29.131  26.153  1.00  0.00     0.046 A 
ATOM     16  C   UNL A   1      33.279  31.063  27.480  1.00  0.00     0.038 C 
ATOM     17  C   UNL A   1      34.811  29.179  27.071  1.00  0.00     0.057 C 
ATOM     18  C   UNL A   1      34.755  30.639  27.543  1.00  0.00     0.011 C 
BRANCH  11  19
ATOM     19  C   UNL A   1      30.265  29.557  23.791  1.00  0.00     0.103 C 
ATOM     20  N   UNL A   1      29.338  29.772  23.131  1.00  0.00    -0.192 NA
ENDBRANCH  11  19
ENDBRANCH   9  10
BRANCH   9  21
ATOM     21  C   UNL A   1      30.807  26.697  22.972  1.00  0.00     0.234 C 
BRANCH  21  22
ATOM     22  C   UNL A   1      29.718  25.954  23.770  1.00  0.00     0.405 C 
ATOM     23  F   UNL A   1      29.610  24.653  23.417  1.00  0.00    -0.169 F 
ATOM     24  F   UNL A   1      29.990  25.991  25.095  1.00  0.00    -0.169 F 
ATOM     25  F   UNL A   1      28.500  26.518  23.603  1.00  0.00    -0.169 F 
ENDBRANCH  21  22
ENDBRANCH   9  21
ENDBRANCH   8   9
ENDBRANCH   5   8
ENDBRANCH   3   4
ENDBRANCH   2   3
ENDBRANCH   1   2
BRANCH   1  26
ATOM     26  C   UNL A   1      35.612  22.498  23.892  1.00  0.00     0.002 C 
BRANCH  26  27
ATOM     27  C   UNL A   1      36.135  23.744  24.609  1.00  0.00     0.021 C 
BRANCH  27  28
ATOM     28  C   UNL A   1      36.597  23.484  26.037  1.00  0.00     0.116 C 
BRANCH  28  29
ATOM     29  N   UNL A   1      37.722  22.563  26.074  1.00  0.00    -0.352 N 
ATOM     30  C   UNL A   1      39.043  22.832  26.327  1.00  0.00     0.251 C 
ATOM     31  H   UNL A   1      37.507  21.620  25.894  1.00  0.00     0.163 HD
ATOM     32  O   UNL A   1      39.912  22.002  26.082  1.00  0.00    -0.269 OA
BRANCH  30  33
ATOM     33  C   UNL A   1      39.412  24.147  26.885  1.00  0.00     0.039 A 
ATOM     34  C   UNL A   1      39.156  24.409  28.231  1.00  0.00     0.014 A 
ATOM     35  C   UNL A   1      40.021  25.110  26.076  1.00  0.00     0.014 A 
ATOM     36  C   UNL A   1      39.560  25.625  28.780  1.00  0.00     0.010 A 
ATOM     37  C   UNL A   1      40.496  26.287  26.643  1.00  0.00     0.010 A 
ATOM     38  C   UNL A   1      40.260  26.560  27.998  1.00  0.00    -0.014 A 
BRANCH  38  39
ATOM     39  C   UNL A   1      40.723  27.844  28.578  1.00  0.00     0.031 A 
ATOM     40  C   UNL A   1      42.182  28.049  28.874  1.00  0.00     0.074 A 
ATOM     41  C   UNL A   1      39.828  28.809  28.864  1.00  0.00     0.049 A 
ATOM     42  N   UNL A   1      42.779  29.085  29.404  1.00  0.00    -0.248 NA
ATOM     43  C   UNL A   1      43.088  26.935  28.550  1.00  0.00     0.031 C 
ATOM     44  C   UNL A   1      38.384  28.712  28.650  1.00  0.00     0.029 A 
ATOM     45  N   UNL A   1      40.001  30.063  29.394  1.00  0.00    -0.354 N 
ATOM     46  C   UNL A   1      44.124  28.748  29.473  1.00  0.00     0.074 A 
ATOM     47  C   UNL A   1      44.249  27.389  28.997  1.00  0.00     0.031 C 
ATOM     48  C   UNL A   1      37.807  29.869  29.009  1.00  0.00     0.029 A 
ATOM     49  C   UNL A   1      38.832  30.775  29.519  1.00  0.00     0.049 A 
ATOM     50  H   UNL A   1      40.880  30.420  29.659  1.00  0.00     0.167 HD
ATOM     51  C   UNL A   1      45.165  29.518  29.867  1.00  0.00     0.037 A 
ATOM     52  C   UNL A   1      38.614  32.016  29.995  1.00  0.00     0.037 A 
ATOM     53  C   UNL A   1      45.036  30.877  30.321  1.00  0.00     0.049 A 
ATOM     54  C   UNL A   1      39.785  32.835  30.468  1.00  0.00     0.074 A 
ATOM     55  C   UNL A   1      46.036  31.754  30.704  1.00  0.00     0.029 A 
ATOM     56  N   UNL A   1      43.834  31.556  30.454  1.00  0.00    -0.354 N 
ATOM     57  N   UNL A   1      41.060  32.527  30.475  1.00  0.00    -0.248 NA
ATOM     58  C   UNL A   1      39.490  34.173  30.997  1.00  0.00     0.031 C 
ATOM     59  C   UNL A   1      45.434  32.941  31.127  1.00  0.00     0.029 A 
ATOM     60  C   UNL A   1      44.065  32.831  30.945  1.00  0.00     0.049 A 
ATOM     61  H   UNL A   1      42.948  31.187  30.233  1.00  0.00     0.167 HD
ATOM     62  C   UNL A   1      41.719  33.639  30.983  1.00  0.00     0.074 A 
ATOM     63  C   UNL A   1      40.706  34.636  31.255  1.00  0.00     0.031 C 
ATOM     64  C   UNL A   1      43.044  33.815  31.206  1.00  0.00     0.037 A 
BRANCH  51  65
ATOM     65  C   UNL A   1      46.542  28.920  29.811  1.00  0.00     0.064 A 
ATOM     66  C   UNL A   1      47.090  28.239  30.908  1.00  0.00     0.173 A 
ATOM     67  C   UNL A   1      47.289  28.961  28.625  1.00  0.00     0.173 A 
ATOM     68  F   UNL A   1      46.422  28.182  32.070  1.00  0.00    -0.203 F 
ATOM     69  C   UNL A   1      48.341  27.634  30.825  1.00  0.00     0.198 A 
ATOM     70  C   UNL A   1      48.525  28.327  28.533  1.00  0.00     0.198 A 
ATOM     71  F   UNL A   1      46.810  29.596  27.544  1.00  0.00    -0.203 F 
ATOM     72  F   UNL A   1      48.860  27.022  31.897  1.00  0.00    -0.200 F 
ATOM     73  C   UNL A   1      49.052  27.668  29.635  1.00  0.00     0.200 A 
ATOM     74  F   UNL A   1      49.203  28.345  27.378  1.00  0.00    -0.200 F 
ATOM     75  F   UNL A   1      50.246  27.065  29.548  1.00  0.00    -0.200 F 
ENDBRANCH  51  65
BRANCH  52  76
ATOM     76  C   UNL A   1      37.233  32.567  30.016  1.00  0.00     0.064 A 
ATOM     77  C   UNL A   1      36.359  32.275  31.074  1.00  0.00     0.173 A 
ATOM     78  C   UNL A   1      36.762  33.407  28.996  1.00  0.00     0.173 A 
ATOM     79  F   UNL A   1      36.753  31.462  32.063  1.00  0.00    -0.203 F 
ATOM     80  C   UNL A   1      35.065  32.792  31.102  1.00  0.00     0.198 A 
ATOM     81  C   UNL A   1      35.479  33.949  29.042  1.00  0.00     0.198 A 
ATOM     82  F   UNL A   1      37.558  33.720  27.963  1.00  0.00    -0.203 F 
ATOM     83  F   UNL A   1      34.237  32.465  32.104  1.00  0.00    -0.200 F 
ATOM     84  C   UNL A   1      34.629  33.636  30.092  1.00  0.00     0.200 A 
ATOM     85  F   UNL A   1      35.070  34.778  28.072  1.00  0.00    -0.200 F 
ATOM     86  F   UNL A   1      33.390  34.143  30.126  1.00  0.00    -0.200 F 
ENDBRANCH  52  76
BRANCH  64  87
ATOM     87  C   UNL A   1      43.492  35.137  31.760  1.00  0.00     0.064 A 
ATOM     88  C   UNL A   1      43.798  36.219  30.921  1.00  0.00     0.173 A 
ATOM     89  C   UNL A   1      43.531  35.351  33.148  1.00  0.00     0.173 A 
ATOM     90  F   UNL A   1      43.786  36.064  29.589  1.00  0.00    -0.203 F 
ATOM     91  C   UNL A   1      44.139  37.461  31.451  1.00  0.00     0.198 A 
ATOM     92  C   UNL A   1      43.838  36.603  33.672  1.00  0.00     0.198 A 
ATOM     93  F   UNL A   1      43.237  34.352  33.994  1.00  0.00    -0.203 F 
ATOM     94  F   UNL A   1      44.463  38.469  30.630  1.00  0.00    -0.200 F 
ATOM     95  C   UNL A   1      44.147  37.655  32.824  1.00  0.00     0.200 A 
ATOM     96  F   UNL A   1      43.824  36.793  34.999  1.00  0.00    -0.200 F 
ATOM     97  F   UNL A   1      44.453  38.858  33.330  1.00  0.00    -0.200 F 
ENDBRANCH  64  87
ENDBRANCH  38  39
ENDBRANCH  30  33
ENDBRANCH  28  29
ENDBRANCH  27  28
ENDBRANCH  26  27
ENDBRANCH   1  26
TORSDOF 18
ENDMDL
MODEL 3
REMARK VINA RESULT:     -11.4      1.845      2.792
REMARK SMILES N#Cc1cc2c(nc1N(CC(=O)NCCCCCCNC(=O)c1ccc(-c3c4nc(c(-c5c(F)c(F)c(F)c(F)c5F)c5ccc([nH]5)c(-c5c(F)c(F)c(F)c(F)c5F)c5nc(c(-c6c(F)c(F)c(F)c(F)c6F)c6ccc3[nH]6)C=C5)C=C4)cc1)CC(F)(F)F)CCC2
REMARK SMILES IDX 16 1 15 2 14 3 13 4 11 5 12 6 10 8 9 9 8 10 3 11 4 12 5 13
REMARK SMILES IDX 7 14 6 15 93 16 91 17 92 18 2 19 1 20 86 21 87 22 88 23
REMARK SMILES IDX 89 24 90 25 17 26 18 27 19 28 20 29 21 30 22 32 23 33 24 34
REMARK SMILES IDX 85 35 25 36 84 37 26 38 27 39 28 40 78 41 29 42 83 43 77 44
REMARK SMILES IDX 79 45 30 46 82 47 76 48 75 49 31 51 63 52 43 53 62 54 44 55
REMARK SMILES IDX 47 56 61 57 80 58 45 59 46 60 60 62 81 63 48 64 32 65 33 66
REMARK SMILES IDX 41 67 34 68 35 69 39 70 42 71 36 72 37 73 40 74 38 75 64 76
REMARK SMILES IDX 65 77 73 78 66 79 67 80 71 81 74 82 68 83 69 84 72 85 70 86
REMARK SMILES IDX 49 87 50 88 58 89 51 90 52 91 56 92 59 93 53 94 54 95 57 96
REMARK SMILES IDX 55 97
REMARK H PARENT 13 7 20 31 79 50 47 61
REMARK Flexibility Score: inf
ROOT
ATOM      1  C   UNL A   1      36.293  21.972  24.439  1.00  0.00     0.002 C 
ENDROOT
BRANCH   1   2
ATOM      2  C   UNL A   1      35.051  22.770  24.849  1.00  0.00     0.021 C 
BRANCH   2   3
ATOM      3  C   UNL A   1      34.073  22.999  23.700  1.00  0.00     0.116 C 
BRANCH   3   4
ATOM      4  N   UNL A   1      34.323  24.267  23.044  1.00  0.00    -0.355 N 
ATOM      5  C   UNL A   1      33.418  25.139  22.513  1.00  0.00     0.239 C 
ATOM      6  O   UNL A   1      33.838  26.119  21.892  1.00  0.00    -0.273 OA
ATOM      7  H   UNL A   1      35.268  24.533  22.973  1.00  0.00     0.163 HD
BRANCH   5   8
ATOM      8  C   UNL A   1      31.914  24.900  22.693  1.00  0.00     0.218 C 
BRANCH   8   9
ATOM      9  N   UNL A   1      31.364  25.536  23.923  1.00  0.00    -0.337 N 
BRANCH   9  10
ATOM     10  C   UNL A   1      30.928  26.852  23.835  1.00  0.00     0.147 A 
ATOM     11  C   UNL A   1      31.693  28.022  24.049  1.00  0.00     0.095 A 
ATOM     12  C   UNL A   1      31.148  29.299  23.780  1.00  0.00     0.029 A 
ATOM     13  C   UNL A   1      29.840  29.388  23.373  1.00  0.00    -0.025 A 
ATOM     14  N   UNL A   1      29.622  26.998  23.469  1.00  0.00    -0.234 NA
ATOM     15  C   UNL A   1      29.117  28.225  23.262  1.00  0.00     0.046 A 
ATOM     16  C   UNL A   1      29.028  30.576  22.985  1.00  0.00     0.038 C 
ATOM     17  C   UNL A   1      27.707  28.504  22.821  1.00  0.00     0.057 C 
ATOM     18  C   UNL A   1      27.605  30.009  23.110  1.00  0.00     0.011 C 
BRANCH  11  19
ATOM     19  C   UNL A   1      33.020  28.034  24.583  1.00  0.00     0.103 C 
ATOM     20  N   UNL A   1      34.088  28.026  25.032  1.00  0.00    -0.192 NA
ENDBRANCH  11  19
ENDBRANCH   9  10
BRANCH   9  21
ATOM     21  C   UNL A   1      31.233  24.628  25.099  1.00  0.00     0.234 C 
BRANCH  21  22
ATOM     22  C   UNL A   1      32.030  25.001  26.364  1.00  0.00     0.405 C 
ATOM     23  F   UNL A   1      31.938  24.064  27.334  1.00  0.00    -0.169 F 
ATOM     24  F   UNL A   1      33.343  25.152  26.073  1.00  0.00    -0.169 F 
ATOM     25  F   UNL A   1      31.608  26.172  26.896  1.00  0.00    -0.169 F 
ENDBRANCH  21  22
ENDBRANCH   9  21
ENDBRANCH   8   9
ENDBRANCH   5   8
ENDBRANCH   3   4
ENDBRANCH   2   3
ENDBRANCH   1   2
BRANCH   1  26
ATOM     26  C   UNL A   1      36.367  20.571  25.055  1.00  0.00     0.002 C 
BRANCH  26  27
ATOM     27  C   UNL A   1      37.686  19.840  24.800  1.00  0.00     0.021 C 
BRANCH  27  28
ATOM     28  C   UNL A   1      38.852  20.370  25.626  1.00  0.00     0.116 C 
BRANCH  28  29
ATOM     29  N   UNL A   1      39.851  19.339  25.862  1.00  0.00    -0.352 N 
ATOM     30  C   UNL A   1      41.192  19.485  26.107  1.00  0.00     0.251 C 
ATOM     31  H   UNL A   1      39.520  18.413  25.842  1.00  0.00     0.163 HD
ATOM     32  O   UNL A   1      41.952  18.524  26.040  1.00  0.00    -0.269 OA
BRANCH  30  33
ATOM     33  C   UNL A   1      41.718  20.823  26.438  1.00  0.00     0.039 A 
ATOM     34  C   UNL A   1      42.058  21.695  25.403  1.00  0.00     0.014 A 
ATOM     35  C   UNL A   1      41.860  21.213  27.773  1.00  0.00     0.014 A 
ATOM     36  C   UNL A   1      42.494  22.983  25.709  1.00  0.00     0.010 A 
ATOM     37  C   UNL A   1      42.216  22.523  28.074  1.00  0.00     0.010 A 
ATOM     38  C   UNL A   1      42.548  23.416  27.045  1.00  0.00    -0.014 A 
BRANCH  38  39
ATOM     39  C   UNL A   1      42.980  24.794  27.382  1.00  0.00     0.031 A 
ATOM     40  C   UNL A   1      44.398  25.218  27.128  1.00  0.00     0.074 A 
ATOM     41  C   UNL A   1      42.103  25.650  27.943  1.00  0.00     0.049 A 
ATOM     42  N   UNL A   1      44.974  26.366  27.377  1.00  0.00    -0.248 NA
ATOM     43  C   UNL A   1      45.295  24.214  26.532  1.00  0.00     0.031 C 
ATOM     44  C   UNL A   1      40.710  25.341  28.265  1.00  0.00     0.029 A 
ATOM     45  N   UNL A   1      42.253  26.955  28.339  1.00  0.00    -0.354 N 
ATOM     46  C   UNL A   1      46.293  26.220  26.968  1.00  0.00     0.074 A 
ATOM     47  C   UNL A   1      46.453  24.857  26.518  1.00  0.00     0.031 C 
ATOM     48  C   UNL A   1      40.123  26.435  28.774  1.00  0.00     0.029 A 
ATOM     49  C   UNL A   1      41.108  27.510  28.855  1.00  0.00     0.049 A 
ATOM     50  H   UNL A   1      43.103  27.448  28.260  1.00  0.00     0.167 HD
ATOM     51  C   UNL A   1      47.273  27.154  26.939  1.00  0.00     0.037 A 
ATOM     52  C   UNL A   1      40.880  28.746  29.342  1.00  0.00     0.037 A 
ATOM     53  C   UNL A   1      47.101  28.516  27.371  1.00  0.00     0.049 A 
ATOM     54  C   UNL A   1      42.000  29.751  29.339  1.00  0.00     0.074 A 
ATOM     55  C   UNL A   1      48.022  29.548  27.343  1.00  0.00     0.029 A 
ATOM     56  N   UNL A   1      45.932  29.035  27.907  1.00  0.00    -0.354 N 
ATOM     57  N   UNL A   1      43.227  29.621  28.896  1.00  0.00    -0.248 NA
ATOM     58  C   UNL A   1      41.705  31.077  29.900  1.00  0.00     0.031 C 
ATOM     59  C   UNL A   1      47.430  30.674  27.920  1.00  0.00     0.029 A 
ATOM     60  C   UNL A   1      46.119  30.365  28.246  1.00  0.00     0.049 A 
ATOM     61  H   UNL A   1      45.094  28.532  28.030  1.00  0.00     0.167 HD
ATOM     62  C   UNL A   1      43.841  30.850  29.101  1.00  0.00     0.074 A 
ATOM     63  C   UNL A   1      42.846  31.720  29.690  1.00  0.00     0.031 C 
ATOM     64  C   UNL A   1      45.115  31.221  28.827  1.00  0.00     0.037 A 
BRANCH  51  65
ATOM     65  C   UNL A   1      48.617  26.745  26.410  1.00  0.00     0.064 A 
ATOM     66  C   UNL A   1      48.971  26.952  25.068  1.00  0.00     0.173 A 
ATOM     67  C   UNL A   1      49.589  26.211  27.269  1.00  0.00     0.173 A 
ATOM     68  F   UNL A   1      48.074  27.448  24.202  1.00  0.00    -0.203 F 
ATOM     69  C   UNL A   1      50.242  26.627  24.603  1.00  0.00     0.198 A 
ATOM     70  C   UNL A   1      50.870  25.918  26.809  1.00  0.00     0.198 A 
ATOM     71  F   UNL A   1      49.304  25.996  28.563  1.00  0.00    -0.203 F 
ATOM     72  F   UNL A   1      50.545  26.799  23.309  1.00  0.00    -0.200 F 
ATOM     73  C   UNL A   1      51.194  26.122  25.476  1.00  0.00     0.200 A 
ATOM     74  F   UNL A   1      51.794  25.447  27.657  1.00  0.00    -0.200 F 
ATOM     75  F   UNL A   1      52.425  25.831  25.032  1.00  0.00    -0.200 F 
ENDBRANCH  51  65
BRANCH  52  76
ATOM     76  C   UNL A   1      39.526  29.105  29.843  1.00  0.00     0.064 A 
ATOM     77  C   UNL A   1      38.552  29.620  28.976  1.00  0.00     0.173 A 
ATOM     78  C   UNL A   1      39.171  28.926  31.189  1.00  0.00     0.173 A 
ATOM     79  F   UNL A   1      38.846  29.829  27.686  1.00  0.00    -0.203 F 
ATOM     80  C   UNL A   1      37.280  29.953  29.439  1.00  0.00     0.198 A 
ATOM     81  C   UNL A   1      37.889  29.229  31.643  1.00  0.00     0.198 A 
ATOM     82  F   UNL A   1      40.065  28.433  32.059  1.00  0.00    -0.203 F 
ATOM     83  F   UNL A   1      36.380  30.481  28.597  1.00  0.00    -0.200 F 
ATOM     84  C   UNL A   1      36.947  29.749  30.769  1.00  0.00     0.200 A 
ATOM     85  F   UNL A   1      37.568  29.012  32.926  1.00  0.00    -0.200 F 
ATOM     86  F   UNL A   1      35.720  30.057  31.211  1.00  0.00    -0.200 F 
ENDBRANCH  52  76
BRANCH  64  87
ATOM     87  C   UNL A   1      45.517  32.632  29.146  1.00  0.00     0.064 A 
ATOM     88  C   UNL A   1      46.120  32.966  30.368  1.00  0.00     0.173 A 
ATOM     89  C   UNL A   1      45.377  33.646  28.185  1.00  0.00     0.173 A 
ATOM     90  F   UNL A   1      46.267  32.036  31.324  1.00  0.00    -0.203 F 
ATOM     91  C   UNL A   1      46.555  34.264  30.620  1.00  0.00     0.198 A 
ATOM     92  C   UNL A   1      45.845  34.935  28.428  1.00  0.00     0.198 A 
ATOM     93  F   UNL A   1      44.817  33.378  26.996  1.00  0.00    -0.203 F 
ATOM     94  F   UNL A   1      47.095  34.567  31.809  1.00  0.00    -0.200 F 
ATOM     95  C   UNL A   1      46.429  35.243  29.646  1.00  0.00     0.200 A 
ATOM     96  F   UNL A   1      45.742  35.873  27.477  1.00  0.00    -0.200 F 
ATOM     97  F   UNL A   1      46.871  36.486  29.884  1.00  0.00    -0.200 F 
ENDBRANCH  64  87
ENDBRANCH  38  39
ENDBRANCH  30  33
ENDBRANCH  28  29
ENDBRANCH  27  28
ENDBRANCH  26  27
ENDBRANCH   1  26
TORSDOF 18
ENDMDL
