MODEL 1
REMARK VINA RESULT:     -11.5      0.000      0.000
REMARK SMILES CCc1ccsc1CNC(=O)N1[C@@H]2CC[C@H]1[C@H](C(=O)NCCCCCCNC(=O)c1ccc(-c3c4nc(c(-c5c(F)c(F)c(F)c(F)c5F)c5ccc([nH]5)c(-c5c(F)c(F)c(F)c(F)c5F)c5nc(c(-c6c(F)c(F)c(F)c(F)c6F)c6ccc3[nH]6)C=C5)C=C4)cc1)C2
REMARK SMILES IDX 22 1 21 2 20 3 18 4 19 5 17 7 12 8 13 9 16 10 14 11 93 12
REMARK SMILES IDX 15 13 10 14 9 15 11 17 8 18 7 19 3 20 4 21 5 22 6 23 2 24
REMARK SMILES IDX 1 25 23 26 24 27 25 28 26 29 27 30 28 31 29 33 30 34 31 35
REMARK SMILES IDX 92 36 32 37 91 38 33 39 34 40 35 41 85 42 36 43 90 44 84 45
REMARK SMILES IDX 86 46 37 47 89 48 83 49 82 50 38 52 70 53 50 54 69 55 51 56
REMARK SMILES IDX 54 57 68 58 87 59 52 60 53 61 67 63 88 64 55 65 39 66 40 67
REMARK SMILES IDX 48 68 41 69 42 70 46 71 49 72 43 73 44 74 47 75 45 76 71 77
REMARK SMILES IDX 72 78 80 79 73 80 74 81 78 82 81 83 75 84 76 85 79 86 77 87
REMARK SMILES IDX 56 88 57 89 65 90 58 91 59 92 63 93 66 94 60 95 61 96 64 97
REMARK SMILES IDX 62 98
REMARK H PARENT 20 6 9 16 27 32 86 51 54 62
REMARK Flexibility Score: inf
ROOT
ATOM      1  C   UNL A   1      34.516  31.336  27.764  1.00  0.00     0.021 C 
ENDROOT
BRANCH   1   2
ATOM      2  C   UNL A   1      33.330  30.655  27.058  1.00  0.00     0.116 C 
BRANCH   2   3
ATOM      3  N   UNL A   1      32.354  29.742  27.618  1.00  0.00    -0.356 N 
ATOM      4  C   UNL A   1      32.184  28.397  27.356  1.00  0.00     0.225 C 
ATOM      5  O   UNL A   1      31.309  27.817  28.014  1.00  0.00    -0.275 OA
ATOM      6  H   UNL A   1      31.729  30.132  28.271  1.00  0.00     0.163 HD
BRANCH   4   7
ATOM      7  C   UNL A   1      32.965  27.578  26.296  1.00  0.00     0.103 C 
ATOM      8  N   UNL A   1      31.805  25.757  25.510  1.00  0.00    -0.318 N 
ATOM      9  C   UNL A   1      32.213  26.397  24.292  1.00  0.00     0.088 C 
ATOM     10  C   UNL A   1      32.968  26.037  26.343  1.00  0.00     0.099 C 
ATOM     11  C   UNL A   1      33.569  25.687  24.054  1.00  0.00     0.027 C 
ATOM     12  C   UNL A   1      32.477  27.824  24.807  1.00  0.00     0.040 C 
ATOM     13  C   UNL A   1      34.144  25.556  25.473  1.00  0.00     0.028 C 
BRANCH   8  14
ATOM     14  C   UNL A   1      30.577  25.301  25.874  1.00  0.00     0.318 C 
ATOM     15  N   UNL A   1      30.501  24.098  26.543  1.00  0.00    -0.333 N 
ATOM     16  H   UNL A   1      30.202  24.077  27.481  1.00  0.00     0.165 HD
ATOM     17  O   UNL A   1      29.542  25.869  25.528  1.00  0.00    -0.249 OA
BRANCH  15  18
ATOM     18  C   UNL A   1      30.866  22.846  25.866  1.00  0.00     0.165 C 
BRANCH  18  19
ATOM     19  C   UNL A   1      32.273  22.329  26.048  1.00  0.00     0.027 A 
ATOM     20  C   UNL A   1      33.263  21.950  25.119  1.00  0.00    -0.033 A 
ATOM     21  C   UNL A   1      34.521  21.745  25.791  1.00  0.00     0.016 A 
ATOM     22  C   UNL A   1      34.461  21.941  27.144  1.00  0.00     0.065 A 
ATOM     23  S   UNL A   1      32.898  22.352  27.657  1.00  0.00    -0.147 S 
BRANCH  20  24
ATOM     24  C   UNL A   1      33.239  21.712  23.615  1.00  0.00     0.033 C 
ATOM     25  C   UNL A   1      32.210  20.760  23.056  1.00  0.00     0.009 C 
ENDBRANCH  20  24
ENDBRANCH  18  19
ENDBRANCH  15  18
ENDBRANCH   8  14
ENDBRANCH   4   7
ENDBRANCH   2   3
ENDBRANCH   1   2
BRANCH   1  26
ATOM     26  C   UNL A   1      34.541  32.314  28.953  1.00  0.00     0.002 C 
BRANCH  26  27
ATOM     27  C   UNL A   1      34.613  33.844  28.870  1.00  0.00     0.002 C 
BRANCH  27  28
ATOM     28  C   UNL A   1      33.370  34.718  28.834  1.00  0.00     0.021 C 
BRANCH  28  29
ATOM     29  C   UNL A   1      33.479  36.047  29.559  1.00  0.00     0.116 C 
BRANCH  29  30
ATOM     30  N   UNL A   1      32.524  36.197  30.654  1.00  0.00    -0.352 N 
ATOM     31  C   UNL A   1      32.557  35.695  31.937  1.00  0.00     0.251 C 
ATOM     32  H   UNL A   1      31.732  36.743  30.442  1.00  0.00     0.163 HD
ATOM     33  O   UNL A   1      31.590  35.812  32.674  1.00  0.00    -0.269 OA
BRANCH  31  34
ATOM     34  C   UNL A   1      33.771  34.999  32.413  1.00  0.00     0.039 A 
ATOM     35  C   UNL A   1      33.670  33.696  32.908  1.00  0.00     0.014 A 
ATOM     36  C   UNL A   1      35.012  35.632  32.353  1.00  0.00     0.014 A 
ATOM     37  C   UNL A   1      34.830  33.009  33.271  1.00  0.00     0.010 A 
ATOM     38  C   UNL A   1      36.169  34.908  32.591  1.00  0.00     0.010 A 
ATOM     39  C   UNL A   1      36.091  33.596  33.076  1.00  0.00    -0.014 A 
BRANCH  39  40
ATOM     40  C   UNL A   1      37.345  32.877  33.403  1.00  0.00     0.031 A 
ATOM     41  C   UNL A   1      38.057  33.172  34.697  1.00  0.00     0.074 A 
ATOM     42  C   UNL A   1      37.872  32.017  32.510  1.00  0.00     0.049 A 
ATOM     43  N   UNL A   1      39.193  32.699  35.145  1.00  0.00    -0.248 NA
ATOM     44  C   UNL A   1      37.432  34.163  35.590  1.00  0.00     0.031 C 
ATOM     45  C   UNL A   1      37.307  31.712  31.193  1.00  0.00     0.029 A 
ATOM     46  N   UNL A   1      39.002  31.243  32.572  1.00  0.00    -0.354 N 
ATOM     47  C   UNL A   1      39.418  33.347  36.354  1.00  0.00     0.074 A 
ATOM     48  C   UNL A   1      38.351  34.303  36.532  1.00  0.00     0.031 C 
ATOM     49  C   UNL A   1      38.069  30.785  30.591  1.00  0.00     0.029 A 
ATOM     50  C   UNL A   1      39.196  30.461  31.458  1.00  0.00     0.049 A 
ATOM     51  H   UNL A   1      39.617  31.247  33.341  1.00  0.00     0.167 HD
ATOM     52  C   UNL A   1      40.405  33.132  37.254  1.00  0.00     0.037 A 
ATOM     53  C   UNL A   1      40.175  29.581  31.177  1.00  0.00     0.037 A 
ATOM     54  C   UNL A   1      41.443  32.152  37.081  1.00  0.00     0.049 A 
ATOM     55  C   UNL A   1      41.257  29.356  32.201  1.00  0.00     0.074 A 
ATOM     56  C   UNL A   1      42.458  31.805  37.952  1.00  0.00     0.029 A 
ATOM     57  N   UNL A   1      41.591  31.358  35.951  1.00  0.00    -0.354 N 
ATOM     58  N   UNL A   1      41.412  29.912  33.379  1.00  0.00    -0.248 NA
ATOM     59  C   UNL A   1      42.292  28.372  31.861  1.00  0.00     0.031 C 
ATOM     60  C   UNL A   1      43.253  30.838  37.329  1.00  0.00     0.029 A 
ATOM     61  C   UNL A   1      42.696  30.537  36.096  1.00  0.00     0.049 A 
ATOM     62  H   UNL A   1      40.999  31.376  35.165  1.00  0.00     0.167 HD
ATOM     63  C   UNL A   1      42.543  29.326  33.931  1.00  0.00     0.074 A 
ATOM     64  C   UNL A   1      43.017  28.352  32.969  1.00  0.00     0.031 C 
ATOM     65  C   UNL A   1      43.140  29.570  35.124  1.00  0.00     0.037 A 
BRANCH  52  66
ATOM     66  C   UNL A   1      40.395  33.956  38.511  1.00  0.00     0.064 A 
ATOM     67  C   UNL A   1      39.667  33.563  39.644  1.00  0.00     0.173 A 
ATOM     68  C   UNL A   1      41.148  35.137  38.595  1.00  0.00     0.173 A 
ATOM     69  F   UNL A   1      38.918  32.451  39.614  1.00  0.00    -0.203 F 
ATOM     70  C   UNL A   1      39.668  34.335  40.803  1.00  0.00     0.198 A 
ATOM     71  C   UNL A   1      41.175  35.888  39.768  1.00  0.00     0.198 A 
ATOM     72  F   UNL A   1      41.865  35.561  37.543  1.00  0.00    -0.203 F 
ATOM     73  F   UNL A   1      38.921  33.966  41.853  1.00  0.00    -0.200 F 
ATOM     74  C   UNL A   1      40.430  35.492  40.868  1.00  0.00     0.200 A 
ATOM     75  F   UNL A   1      41.923  36.999  39.832  1.00  0.00    -0.200 F 
ATOM     76  F   UNL A   1      40.439  36.227  41.987  1.00  0.00    -0.200 F 
ENDBRANCH  52  66
BRANCH  53  77
ATOM     77  C   UNL A   1      40.164  28.827  29.895  1.00  0.00     0.064 A 
ATOM     78  C   UNL A   1      39.509  27.591  29.791  1.00  0.00     0.173 A 
ATOM     79  C   UNL A   1      40.824  29.309  28.755  1.00  0.00     0.173 A 
ATOM     80  F   UNL A   1      38.877  27.077  30.856  1.00  0.00    -0.203 F 
ATOM     81  C   UNL A   1      39.543  26.852  28.609  1.00  0.00     0.198 A 
ATOM     82  C   UNL A   1      40.829  28.586  27.564  1.00  0.00     0.198 A 
ATOM     83  F   UNL A   1      41.461  30.489  28.795  1.00  0.00    -0.203 F 
ATOM     84  F   UNL A   1      38.960  25.647  28.558  1.00  0.00    -0.200 F 
ATOM     85  C   UNL A   1      40.199  27.353  27.495  1.00  0.00     0.200 A 
ATOM     86  F   UNL A   1      41.450  29.081  26.484  1.00  0.00    -0.200 F 
ATOM     87  F   UNL A   1      40.235  26.641  26.360  1.00  0.00    -0.200 F 
ENDBRANCH  53  77
BRANCH  65  88
ATOM     88  C   UNL A   1      44.348  28.746  35.465  1.00  0.00     0.064 A 
ATOM     89  C   UNL A   1      44.240  27.532  36.159  1.00  0.00     0.173 A 
ATOM     90  C   UNL A   1      45.626  29.164  35.065  1.00  0.00     0.173 A 
ATOM     91  F   UNL A   1      43.041  27.095  36.574  1.00  0.00    -0.203 F 
ATOM     92  C   UNL A   1      45.371  26.786  36.475  1.00  0.00     0.198 A 
ATOM     93  C   UNL A   1      46.752  28.396  35.349  1.00  0.00     0.198 A 
ATOM     94  F   UNL A   1      45.783  30.311  34.388  1.00  0.00    -0.203 F 
ATOM     95  F   UNL A   1      45.250  25.662  37.194  1.00  0.00    -0.200 F 
ATOM     96  C   UNL A   1      46.624  27.214  36.063  1.00  0.00     0.200 A 
ATOM     97  F   UNL A   1      47.959  28.801  34.933  1.00  0.00    -0.200 F 
ATOM     98  F   UNL A   1      47.712  26.492  36.362  1.00  0.00    -0.200 F 
ENDBRANCH  65  88
ENDBRANCH  39  40
ENDBRANCH  31  34
ENDBRANCH  29  30
ENDBRANCH  28  29
ENDBRANCH  27  28
ENDBRANCH  26  27
ENDBRANCH   1  26
TORSDOF 17
ENDMDL
MODEL 2
REMARK VINA RESULT:     -11.2      6.673     12.250
REMARK SMILES CCc1ccsc1CNC(=O)N1[C@@H]2CC[C@H]1[C@H](C(=O)NCCCCCCNC(=O)c1ccc(-c3c4nc(c(-c5c(F)c(F)c(F)c(F)c5F)c5ccc([nH]5)c(-c5c(F)c(F)c(F)c(F)c5F)c5nc(c(-c6c(F)c(F)c(F)c(F)c6F)c6ccc3[nH]6)C=C5)C=C4)cc1)C2
REMARK SMILES IDX 22 1 21 2 20 3 18 4 19 5 17 7 12 8 13 9 16 10 14 11 93 12
REMARK SMILES IDX 15 13 10 14 9 15 11 17 8 18 7 19 3 20 4 21 5 22 6 23 2 24
REMARK SMILES IDX 1 25 23 26 24 27 25 28 26 29 27 30 28 31 29 33 30 34 31 35
REMARK SMILES IDX 92 36 32 37 91 38 33 39 34 40 35 41 85 42 36 43 90 44 84 45
REMARK SMILES IDX 86 46 37 47 89 48 83 49 82 50 38 52 70 53 50 54 69 55 51 56
REMARK SMILES IDX 54 57 68 58 87 59 52 60 53 61 67 63 88 64 55 65 39 66 40 67
REMARK SMILES IDX 48 68 41 69 42 70 46 71 49 72 43 73 44 74 47 75 45 76 71 77
REMARK SMILES IDX 72 78 80 79 73 80 74 81 78 82 81 83 75 84 76 85 79 86 77 87
REMARK SMILES IDX 56 88 57 89 65 90 58 91 59 92 63 93 66 94 60 95 61 96 64 97
REMARK SMILES IDX 62 98
REMARK H PARENT 20 6 9 16 27 32 86 51 54 62
REMARK Flexibility Score: inf
ROOT
ATOM      1  C   UNL A   1      39.461  23.308  26.769  1.00  0.00     0.021 C 
ENDROOT
BRANCH   1   2
ATOM      2  C   UNL A   1      38.076  23.202  26.104  1.00  0.00     0.116 C 
BRANCH   2   3
ATOM      3  N   UNL A   1      37.759  23.143  24.692  1.00  0.00    -0.356 N 
ATOM      4  C   UNL A   1      36.521  23.023  24.092  1.00  0.00     0.225 C 
ATOM      5  O   UNL A   1      36.507  23.056  22.854  1.00  0.00    -0.275 OA
ATOM      6  H   UNL A   1      38.526  23.195  24.078  1.00  0.00     0.163 HD
BRANCH   4   7
ATOM      7  C   UNL A   1      35.174  22.817  24.834  1.00  0.00     0.103 C 
ATOM      8  N   UNL A   1      33.429  23.985  23.903  1.00  0.00    -0.318 N 
ATOM      9  C   UNL A   1      32.881  22.663  24.003  1.00  0.00     0.088 C 
ATOM     10  C   UNL A   1      34.242  24.013  25.112  1.00  0.00     0.099 C 
ATOM     11  C   UNL A   1      32.237  22.743  25.410  1.00  0.00     0.027 C 
ATOM     12  C   UNL A   1      34.176  21.835  24.091  1.00  0.00     0.040 C 
ATOM     13  C   UNL A   1      33.253  23.576  26.208  1.00  0.00     0.028 C 
BRANCH   8  14
ATOM     14  C   UNL A   1      33.436  24.836  22.842  1.00  0.00     0.318 C 
ATOM     15  N   UNL A   1      33.364  26.190  23.092  1.00  0.00    -0.333 N 
ATOM     16  H   UNL A   1      34.134  26.768  22.884  1.00  0.00     0.165 HD
ATOM     17  O   UNL A   1      33.393  24.431  21.681  1.00  0.00    -0.249 OA
BRANCH  15  18
ATOM     18  C   UNL A   1      32.147  26.776  23.671  1.00  0.00     0.165 C 
BRANCH  18  19
ATOM     19  C   UNL A   1      32.292  28.030  24.499  1.00  0.00     0.027 A 
ATOM     20  C   UNL A   1      31.476  29.173  24.624  1.00  0.00    -0.033 A 
ATOM     21  C   UNL A   1      31.936  29.992  25.717  1.00  0.00     0.016 A 
ATOM     22  C   UNL A   1      33.040  29.493  26.353  1.00  0.00     0.065 A 
ATOM     23  S   UNL A   1      33.578  28.047  25.649  1.00  0.00    -0.147 S 
BRANCH  20  24
ATOM     24  C   UNL A   1      30.274  29.682  23.841  1.00  0.00     0.033 C 
ATOM     25  C   UNL A   1      30.189  29.363  22.369  1.00  0.00     0.009 C 
ENDBRANCH  20  24
ENDBRANCH  18  19
ENDBRANCH  15  18
ENDBRANCH   8  14
ENDBRANCH   4   7
ENDBRANCH   2   3
ENDBRANCH   1   2
BRANCH   1  26
ATOM     26  C   UNL A   1      40.405  22.207  27.286  1.00  0.00     0.002 C 
BRANCH  26  27
ATOM     27  C   UNL A   1      41.556  21.557  26.509  1.00  0.00     0.002 C 
BRANCH  27  28
ATOM     28  C   UNL A   1      41.491  20.126  26.001  1.00  0.00     0.021 C 
BRANCH  28  29
ATOM     29  C   UNL A   1      42.639  19.225  26.418  1.00  0.00     0.116 C 
BRANCH  29  30
ATOM     30  N   UNL A   1      43.483  18.799  25.304  1.00  0.00    -0.352 N 
ATOM     31  C   UNL A   1      44.353  19.523  24.519  1.00  0.00     0.251 C 
ATOM     32  H   UNL A   1      43.419  17.842  25.080  1.00  0.00     0.163 HD
ATOM     33  O   UNL A   1      44.870  19.017  23.536  1.00  0.00    -0.269 OA
BRANCH  31  34
ATOM     34  C   UNL A   1      44.648  20.929  24.870  1.00  0.00     0.039 A 
ATOM     35  C   UNL A   1      44.273  21.952  23.994  1.00  0.00     0.014 A 
ATOM     36  C   UNL A   1      45.279  21.234  26.075  1.00  0.00     0.014 A 
ATOM     37  C   UNL A   1      44.471  23.282  24.369  1.00  0.00     0.010 A 
ATOM     38  C   UNL A   1      45.356  22.550  26.501  1.00  0.00     0.010 A 
ATOM     39  C   UNL A   1      44.976  23.590  25.643  1.00  0.00    -0.014 A 
BRANCH  39  40
ATOM     40  C   UNL A   1      45.151  24.992  26.094  1.00  0.00     0.031 A 
ATOM     41  C   UNL A   1      46.508  25.637  26.010  1.00  0.00     0.074 A 
ATOM     42  C   UNL A   1      44.109  25.652  26.637  1.00  0.00     0.049 A 
ATOM     43  N   UNL A   1      46.887  26.827  26.404  1.00  0.00    -0.248 NA
ATOM     44  C   UNL A   1      47.599  24.823  25.446  1.00  0.00     0.031 C 
ATOM     45  C   UNL A   1      42.768  25.098  26.838  1.00  0.00     0.029 A 
ATOM     46  N   UNL A   1      44.015  26.930  27.122  1.00  0.00    -0.354 N 
ATOM     47  C   UNL A   1      48.252  26.889  26.150  1.00  0.00     0.074 A 
ATOM     48  C   UNL A   1      48.653  25.597  25.648  1.00  0.00     0.031 C 
ATOM     49  C   UNL A   1      41.974  26.045  27.363  1.00  0.00     0.029 A 
ATOM     50  C   UNL A   1      42.759  27.256  27.576  1.00  0.00     0.049 A 
ATOM     51  H   UNL A   1      44.775  27.556  27.146  1.00  0.00     0.167 HD
ATOM     52  C   UNL A   1      49.087  27.946  26.286  1.00  0.00     0.037 A 
ATOM     53  C   UNL A   1      42.299  28.407  28.102  1.00  0.00     0.037 A 
ATOM     54  C   UNL A   1      48.668  29.238  26.754  1.00  0.00     0.049 A 
ATOM     55  C   UNL A   1      43.248  29.569  28.233  1.00  0.00     0.074 A 
ATOM     56  C   UNL A   1      49.411  30.398  26.874  1.00  0.00     0.029 A 
ATOM     57  N   UNL A   1      47.380  29.540  27.178  1.00  0.00    -0.354 N 
ATOM     58  N   UNL A   1      44.518  29.643  27.910  1.00  0.00    -0.248 NA
ATOM     59  C   UNL A   1      42.698  30.810  28.791  1.00  0.00     0.031 C 
ATOM     60  C   UNL A   1      48.589  31.387  27.420  1.00  0.00     0.029 A 
ATOM     61  C   UNL A   1      47.315  30.862  27.582  1.00  0.00     0.049 A 
ATOM     62  H   UNL A   1      46.626  28.907  27.191  1.00  0.00     0.167 HD
ATOM     63  C   UNL A   1      44.909  30.944  28.197  1.00  0.00     0.074 A 
ATOM     64  C   UNL A   1      43.734  31.630  28.696  1.00  0.00     0.031 C 
ATOM     65  C   UNL A   1      46.129  31.521  28.066  1.00  0.00     0.037 A 
BRANCH  52  66
ATOM     66  C   UNL A   1      50.527  27.750  25.904  1.00  0.00     0.064 A 
ATOM     67  C   UNL A   1      50.961  27.875  24.575  1.00  0.00     0.173 A 
ATOM     68  C   UNL A   1      51.492  27.465  26.882  1.00  0.00     0.173 A 
ATOM     69  F   UNL A   1      50.079  28.132  23.597  1.00  0.00    -0.203 F 
ATOM     70  C   UNL A   1      52.299  27.694  24.234  1.00  0.00     0.198 A 
ATOM     71  C   UNL A   1      52.836  27.320  26.542  1.00  0.00     0.198 A 
ATOM     72  F   UNL A   1      51.136  27.336  28.168  1.00  0.00    -0.203 F 
ATOM     73  F   UNL A   1      52.678  27.765  22.951  1.00  0.00    -0.200 F 
ATOM     74  C   UNL A   1      53.237  27.426  25.220  1.00  0.00     0.200 A 
ATOM     75  F   UNL A   1      53.743  27.073  27.499  1.00  0.00    -0.200 F 
ATOM     76  F   UNL A   1      54.526  27.263  24.893  1.00  0.00    -0.200 F 
ENDBRANCH  52  66
BRANCH  53  77
ATOM     77  C   UNL A   1      40.874  28.532  28.510  1.00  0.00     0.064 A 
ATOM     78  C   UNL A   1      39.904  28.995  27.610  1.00  0.00     0.173 A 
ATOM     79  C   UNL A   1      40.454  28.214  29.810  1.00  0.00     0.173 A 
ATOM     80  F   UNL A   1      40.255  29.329  26.359  1.00  0.00    -0.203 F 
ATOM     81  C   UNL A   1      38.577  29.169  28.003  1.00  0.00     0.198 A 
ATOM     82  C   UNL A   1      39.121  28.355  30.192  1.00  0.00     0.198 A 
ATOM     83  F   UNL A   1      41.337  27.758  30.710  1.00  0.00    -0.203 F 
ATOM     84  F   UNL A   1      37.685  29.671  27.139  1.00  0.00    -0.200 F 
ATOM     85  C   UNL A   1      38.186  28.844  29.293  1.00  0.00     0.200 A 
ATOM     86  F   UNL A   1      38.743  28.024  31.435  1.00  0.00    -0.200 F 
ATOM     87  F   UNL A   1      36.912  29.013  29.671  1.00  0.00    -0.200 F 
ENDBRANCH  53  77
BRANCH  65  88
ATOM     88  C   UNL A   1      46.241  32.973  28.434  1.00  0.00     0.064 A 
ATOM     89  C   UNL A   1      46.588  33.381  29.730  1.00  0.00     0.173 A 
ATOM     90  C   UNL A   1      46.026  33.966  27.466  1.00  0.00     0.173 A 
ATOM     91  F   UNL A   1      46.791  32.470  30.693  1.00  0.00    -0.203 F 
ATOM     92  C   UNL A   1      46.677  34.731  30.054  1.00  0.00     0.198 A 
ATOM     93  C   UNL A   1      46.154  35.315  27.784  1.00  0.00     0.198 A 
ATOM     94  F   UNL A   1      45.704  33.628  26.209  1.00  0.00    -0.203 F 
ATOM     95  F   UNL A   1      46.948  35.099  31.313  1.00  0.00    -0.200 F 
ATOM     96  C   UNL A   1      46.469  35.696  29.080  1.00  0.00     0.200 A 
ATOM     97  F   UNL A   1      45.971  36.245  26.837  1.00  0.00    -0.200 F 
ATOM     98  F   UNL A   1      46.561  36.996  29.392  1.00  0.00    -0.200 F 
ENDBRANCH  65  88
ENDBRANCH  39  40
ENDBRANCH  31  34
ENDBRANCH  29  30
ENDBRANCH  28  29
ENDBRANCH  27  28
ENDBRANCH  26  27
ENDBRANCH   1  26
TORSDOF 17
ENDMDL
MODEL 3
REMARK VINA RESULT:     -11.1      1.732      2.754
REMARK SMILES CCc1ccsc1CNC(=O)N1[C@@H]2CC[C@H]1[C@H](C(=O)NCCCCCCNC(=O)c1ccc(-c3c4nc(c(-c5c(F)c(F)c(F)c(F)c5F)c5ccc([nH]5)c(-c5c(F)c(F)c(F)c(F)c5F)c5nc(c(-c6c(F)c(F)c(F)c(F)c6F)c6ccc3[nH]6)C=C5)C=C4)cc1)C2
REMARK SMILES IDX 22 1 21 2 20 3 18 4 19 5 17 7 12 8 13 9 16 10 14 11 93 12
REMARK SMILES IDX 15 13 10 14 9 15 11 17 8 18 7 19 3 20 4 21 5 22 6 23 2 24
REMARK SMILES IDX 1 25 23 26 24 27 25 28 26 29 27 30 28 31 29 33 30 34 31 35
REMARK SMILES IDX 92 36 32 37 91 38 33 39 34 40 35 41 85 42 36 43 90 44 84 45
REMARK SMILES IDX 86 46 37 47 89 48 83 49 82 50 38 52 70 53 50 54 69 55 51 56
REMARK SMILES IDX 54 57 68 58 87 59 52 60 53 61 67 63 88 64 55 65 39 66 40 67
REMARK SMILES IDX 48 68 41 69 42 70 46 71 49 72 43 73 44 74 47 75 45 76 71 77
REMARK SMILES IDX 72 78 80 79 73 80 74 81 78 82 81 83 75 84 76 85 79 86 77 87
REMARK SMILES IDX 56 88 57 89 65 90 58 91 59 92 63 93 66 94 60 95 61 96 64 97
REMARK SMILES IDX 62 98
REMARK H PARENT 20 6 9 16 27 32 86 51 54 62
REMARK Flexibility Score: inf
ROOT
ATOM      1  C   UNL A   1      33.048  28.787  26.966  1.00  0.00     0.021 C 
ENDROOT
BRANCH   1   2
ATOM      2  C   UNL A   1      32.033  27.876  27.679  1.00  0.00     0.116 C 
BRANCH   2   3
ATOM      3  N   UNL A   1      30.987  27.063  27.094  1.00  0.00    -0.356 N 
ATOM      4  C   UNL A   1      31.096  26.088  26.124  1.00  0.00     0.225 C 
ATOM      5  O   UNL A   1      30.053  25.486  25.832  1.00  0.00    -0.275 OA
ATOM      6  H   UNL A   1      30.078  27.228  27.433  1.00  0.00     0.163 HD
BRANCH   4   7
ATOM      7  C   UNL A   1      32.392  25.717  25.358  1.00  0.00     0.103 C 
ATOM      8  N   UNL A   1      32.800  23.457  25.289  1.00  0.00    -0.318 N 
ATOM      9  C   UNL A   1      32.925  23.823  23.907  1.00  0.00     0.088 C 
ATOM     10  C   UNL A   1      33.354  24.650  25.916  1.00  0.00     0.099 C 
ATOM     11  C   UNL A   1      34.440  24.139  23.847  1.00  0.00     0.027 C 
ATOM     12  C   UNL A   1      32.136  25.145  23.901  1.00  0.00     0.040 C 
ATOM     13  C   UNL A   1      34.703  24.829  25.196  1.00  0.00     0.028 C 
BRANCH   8  14
ATOM     14  C   UNL A   1      32.091  22.441  25.849  1.00  0.00     0.318 C 
ATOM     15  N   UNL A   1      32.785  21.458  26.524  1.00  0.00    -0.333 N 
ATOM     16  H   UNL A   1      32.678  21.364  27.498  1.00  0.00     0.165 HD
ATOM     17  O   UNL A   1      30.879  22.319  25.678  1.00  0.00    -0.249 OA
BRANCH  15  18
ATOM     18  C   UNL A   1      33.685  20.551  25.797  1.00  0.00     0.165 C 
BRANCH  18  19
ATOM     19  C   UNL A   1      33.063  19.527  24.878  1.00  0.00     0.027 A 
ATOM     20  C   UNL A   1      32.522  19.633  23.581  1.00  0.00    -0.033 A 
ATOM     21  C   UNL A   1      32.263  18.321  23.043  1.00  0.00     0.016 A 
ATOM     22  C   UNL A   1      32.577  17.302  23.901  1.00  0.00     0.065 A 
ATOM     23  S   UNL A   1      33.166  17.879  25.383  1.00  0.00    -0.147 S 
BRANCH  20  24
ATOM     24  C   UNL A   1      32.161  20.821  22.700  1.00  0.00     0.033 C 
ATOM     25  C   UNL A   1      31.780  20.560  21.264  1.00  0.00     0.009 C 
ENDBRANCH  20  24
ENDBRANCH  18  19
ENDBRANCH  15  18
ENDBRANCH   8  14
ENDBRANCH   4   7
ENDBRANCH   2   3
ENDBRANCH   1   2
BRANCH   1  26
ATOM     26  C   UNL A   1      32.851  30.147  26.270  1.00  0.00     0.002 C 
BRANCH  26  27
ATOM     27  C   UNL A   1      31.535  30.926  26.153  1.00  0.00     0.002 C 
BRANCH  27  28
ATOM     28  C   UNL A   1      31.403  32.374  26.597  1.00  0.00     0.021 C 
BRANCH  28  29
ATOM     29  C   UNL A   1      32.655  33.000  27.182  1.00  0.00     0.116 C 
BRANCH  29  30
ATOM     30  N   UNL A   1      32.449  34.352  27.696  1.00  0.00    -0.352 N 
ATOM     31  C   UNL A   1      33.053  35.005  28.748  1.00  0.00     0.251 C 
ATOM     32  H   UNL A   1      31.772  34.879  27.213  1.00  0.00     0.163 HD
ATOM     33  O   UNL A   1      32.645  36.095  29.117  1.00  0.00    -0.269 OA
BRANCH  31  34
ATOM     34  C   UNL A   1      34.195  34.368  29.438  1.00  0.00     0.039 A 
ATOM     35  C   UNL A   1      33.960  33.529  30.531  1.00  0.00     0.014 A 
ATOM     36  C   UNL A   1      35.497  34.588  28.991  1.00  0.00     0.014 A 
ATOM     37  C   UNL A   1      35.031  32.858  31.123  1.00  0.00     0.010 A 
ATOM     38  C   UNL A   1      36.538  33.826  29.494  1.00  0.00     0.010 A 
ATOM     39  C   UNL A   1      36.322  32.970  30.582  1.00  0.00    -0.014 A 
BRANCH  39  40
ATOM     40  C   UNL A   1      37.474  32.233  31.153  1.00  0.00     0.031 A 
ATOM     41  C   UNL A   1      37.964  32.572  32.536  1.00  0.00     0.074 A 
ATOM     42  C   UNL A   1      38.114  31.313  30.405  1.00  0.00     0.049 A 
ATOM     43  N   UNL A   1      38.988  32.090  33.195  1.00  0.00    -0.248 NA
ATOM     44  C   UNL A   1      37.232  33.625  33.262  1.00  0.00     0.031 C 
ATOM     45  C   UNL A   1      37.773  30.959  29.025  1.00  0.00     0.029 A 
ATOM     46  N   UNL A   1      39.187  30.511  30.696  1.00  0.00    -0.354 N 
ATOM     47  C   UNL A   1      39.026  32.791  34.395  1.00  0.00     0.074 A 
ATOM     48  C   UNL A   1      37.980  33.785  34.342  1.00  0.00     0.031 C 
ATOM     49  C   UNL A   1      38.591  29.980  28.606  1.00  0.00     0.029 A 
ATOM     50  C   UNL A   1      39.539  29.668  29.669  1.00  0.00     0.049 A 
ATOM     51  H   UNL A   1      39.661  30.536  31.559  1.00  0.00     0.167 HD
ATOM     52  C   UNL A   1      39.835  32.593  35.461  1.00  0.00     0.037 A 
ATOM     53  C   UNL A   1      40.519  28.747  29.601  1.00  0.00     0.037 A 
ATOM     54  C   UNL A   1      40.849  31.576  35.514  1.00  0.00     0.049 A 
ATOM     55  C   UNL A   1      41.399  28.543  30.807  1.00  0.00     0.074 A 
ATOM     56  C   UNL A   1      41.686  31.244  36.563  1.00  0.00     0.029 A 
ATOM     57  N   UNL A   1      41.160  30.722  34.464  1.00  0.00    -0.354 N 
ATOM     58  N   UNL A   1      41.371  29.153  31.968  1.00  0.00    -0.248 NA
ATOM     59  C   UNL A   1      42.440  27.513  30.695  1.00  0.00     0.031 C 
ATOM     60  C   UNL A   1      42.540  30.224  36.132  1.00  0.00     0.029 A 
ATOM     61  C   UNL A   1      42.192  29.878  34.835  1.00  0.00     0.049 A 
ATOM     62  H   UNL A   1      40.713  30.717  33.588  1.00  0.00     0.167 HD
ATOM     63  C   UNL A   1      42.368  28.563  32.733  1.00  0.00     0.074 A 
ATOM     64  C   UNL A   1      42.963  27.528  31.912  1.00  0.00     0.031 C 
ATOM     65  C   UNL A   1      42.760  28.850  33.999  1.00  0.00     0.037 A 
BRANCH  52  66
ATOM     66  C   UNL A   1      39.640  33.480  36.658  1.00  0.00     0.064 A 
ATOM     67  C   UNL A   1      38.801  33.111  37.721  1.00  0.00     0.173 A 
ATOM     68  C   UNL A   1      40.326  34.700  36.761  1.00  0.00     0.173 A 
ATOM     69  F   UNL A   1      38.110  31.962  37.669  1.00  0.00    -0.203 F 
ATOM     70  C   UNL A   1      38.631  33.940  38.826  1.00  0.00     0.198 A 
ATOM     71  C   UNL A   1      40.180  35.511  37.885  1.00  0.00     0.198 A 
ATOM     72  F   UNL A   1      41.142  35.104  35.777  1.00  0.00    -0.203 F 
ATOM     73  F   UNL A   1      37.782  33.590  39.801  1.00  0.00    -0.200 F 
ATOM     74  C   UNL A   1      39.329  35.136  38.911  1.00  0.00     0.200 A 
ATOM     75  F   UNL A   1      40.866  36.661  37.971  1.00  0.00    -0.200 F 
ATOM     76  F   UNL A   1      39.173  35.928  39.980  1.00  0.00    -0.200 F 
ENDBRANCH  52  66
BRANCH  53  77
ATOM     77  C   UNL A   1      40.700  27.929  28.373  1.00  0.00     0.064 A 
ATOM     78  C   UNL A   1      40.094  26.671  28.248  1.00  0.00     0.173 A 
ATOM     79  C   UNL A   1      41.498  28.373  27.308  1.00  0.00     0.173 A 
ATOM     80  F   UNL A   1      39.334  26.192  29.244  1.00  0.00    -0.203 F 
ATOM     81  C   UNL A   1      40.306  25.875  27.123  1.00  0.00     0.198 A 
ATOM     82  C   UNL A   1      41.682  27.592  26.168  1.00  0.00     0.198 A 
ATOM     83  F   UNL A   1      42.096  29.572  27.369  1.00  0.00    -0.203 F 
ATOM     84  F   UNL A   1      39.763  24.651  27.058  1.00  0.00    -0.200 F 
ATOM     85  C   UNL A   1      41.096  26.338  26.082  1.00  0.00     0.200 A 
ATOM     86  F   UNL A   1      42.432  28.050  25.157  1.00  0.00    -0.200 F 
ATOM     87  F   UNL A   1      41.301  25.572  25.002  1.00  0.00    -0.200 F 
ENDBRANCH  53  77
BRANCH  65  88
ATOM     88  C   UNL A   1      43.859  28.009  34.581  1.00  0.00     0.064 A 
ATOM     89  C   UNL A   1      45.209  28.368  34.452  1.00  0.00     0.173 A 
ATOM     90  C   UNL A   1      43.554  26.845  35.301  1.00  0.00     0.173 A 
ATOM     91  F   UNL A   1      45.554  29.466  33.762  1.00  0.00    -0.203 F 
ATOM     92  C   UNL A   1      46.215  27.571  34.990  1.00  0.00     0.198 A 
ATOM     93  C   UNL A   1      44.560  26.070  35.871  1.00  0.00     0.198 A 
ATOM     94  F   UNL A   1      42.278  26.464  35.463  1.00  0.00    -0.203 F 
ATOM     95  F   UNL A   1      47.500  27.899  34.801  1.00  0.00    -0.200 F 
ATOM     96  C   UNL A   1      45.890  26.428  35.705  1.00  0.00     0.200 A 
ATOM     97  F   UNL A   1      44.243  24.977  36.578  1.00  0.00    -0.200 F 
ATOM     98  F   UNL A   1      46.858  25.664  36.228  1.00  0.00    -0.200 F 
ENDBRANCH  65  88
ENDBRANCH  39  40
ENDBRANCH  31  34
ENDBRANCH  29  30
ENDBRANCH  28  29
ENDBRANCH  27  28
ENDBRANCH  26  27
ENDBRANCH   1  26
TORSDOF 17
ENDMDL
