MODEL 1
REMARK VINA RESULT:     -13.0      0.000      0.000
REMARK SMILES CCCCc1ncc(C[N@H+]2C[C@@H]3c4ccccc4OC[C@]3(C(=O)NCCCCCCNC(=O)c3ccc(-c4c5nc(c(-c6c(F)c(F)c(F)c(F)c6F)c6ccc([nH]6)c(-c6c(F)c(F)c(F)c(F)c6F)c6nc(c(-c7c(F)c(F)c(F)c(F)c7F)c7ccc4[nH]7)C=C6)C=C5)cc3)C2)[nH]1
REMARK SMILES IDX 26 1 25 2 24 3 22 4 23 5 21 7 10 8 11 9 97 10 12 12 13 13
REMARK SMILES IDX 20 14 14 15 18 16 19 17 15 18 17 19 16 20 9 21 8 22 5 23
REMARK SMILES IDX 6 24 98 25 7 26 4 28 3 29 2 30 1 31 27 32 28 33 29 34 30 35
REMARK SMILES IDX 31 36 32 37 33 39 34 40 35 41 96 42 36 43 95 44 37 45 38 46
REMARK SMILES IDX 39 47 89 48 40 49 94 50 88 51 90 52 41 53 93 54 87 55 86 56
REMARK SMILES IDX 42 58 74 59 54 60 73 61 55 62 58 63 72 64 91 65 56 66 57 67
REMARK SMILES IDX 71 69 92 70 59 71 43 72 44 73 52 74 45 75 46 76 50 77 53 78
REMARK SMILES IDX 47 79 48 80 51 81 49 82 75 83 76 84 84 85 77 86 78 87 82 88
REMARK SMILES IDX 85 89 79 90 80 91 83 92 81 93 60 94 61 95 69 96 62 97 63 98
REMARK SMILES IDX 67 99 70 100 64 101 65 102 68 103 66 104
REMARK H PARENT 24 6 10 11 98 27 31 38 90 57 58 68
REMARK Flexibility Score: inf
ROOT
ATOM      1  C   UNL A   1      33.442  28.940  27.062  1.00  0.00     0.021 C 
ENDROOT
BRANCH   1   2
ATOM      2  C   UNL A   1      33.506  27.548  26.456  1.00  0.00     0.116 C 
BRANCH   2   3
ATOM      3  N   UNL A   1      34.181  27.453  25.171  1.00  0.00    -0.355 N 
ATOM      4  C   UNL A   1      33.766  26.652  24.116  1.00  0.00     0.236 C 
ATOM      5  O   UNL A   1      34.026  27.009  22.964  1.00  0.00    -0.274 OA
ATOM      6  H   UNL A   1      34.992  27.995  25.040  1.00  0.00     0.163 HD
BRANCH   4   7
ATOM      7  C   UNL A   1      33.012  25.319  24.499  1.00  0.00     0.144 C 
ATOM      8  N   UNL A   1      30.615  25.514  24.328  1.00  0.00    -0.328 N 
ATOM      9  C   UNL A   1      30.852  24.090  24.208  1.00  0.00     0.272 C 
ATOM     10  C   UNL A   1      31.823  26.123  23.779  1.00  0.00     0.284 C 
ATOM     11  H   UNL A   1      30.477  25.790  25.300  1.00  0.00     0.348 HD
ATOM     12  C   UNL A   1      32.353  24.002  23.849  1.00  0.00     0.103 C 
ATOM     13  C   UNL A   1      32.870  22.631  24.225  1.00  0.00     0.004 A 
ATOM     14  C   UNL A   1      34.494  24.732  24.481  1.00  0.00     0.253 C 
ATOM     15  C   UNL A   1      32.255  21.452  23.776  1.00  0.00     0.008 A 
ATOM     16  C   UNL A   1      34.032  22.527  24.975  1.00  0.00     0.123 A 
ATOM     17  O   UNL A   1      34.658  23.650  25.421  1.00  0.00    -0.492 OA
ATOM     18  C   UNL A   1      32.801  20.204  24.085  1.00  0.00     0.001 A 
ATOM     19  C   UNL A   1      34.586  21.288  25.288  1.00  0.00     0.047 A 
ATOM     20  C   UNL A   1      33.973  20.123  24.833  1.00  0.00     0.004 A 
BRANCH   8  21
ATOM     21  C   UNL A   1      29.337  26.004  23.814  1.00  0.00     0.319 C 
BRANCH  21  22
ATOM     22  C   UNL A   1      29.352  27.428  23.402  1.00  0.00     0.090 A 
ATOM     23  C   UNL A   1      28.567  29.469  23.090  1.00  0.00     0.106 A 
ATOM     24  N   UNL A   1      29.876  29.591  23.024  1.00  0.00    -0.241 NA
ATOM     25  N   UNL A   1      28.217  28.145  23.112  1.00  0.00    -0.341 N 
ATOM     26  C   UNL A   1      30.375  28.333  23.229  1.00  0.00     0.140 A 
ATOM     27  H   UNL A   1      27.319  27.775  22.952  1.00  0.00     0.168 HD
BRANCH  23  28
ATOM     28  C   UNL A   1      27.554  30.555  23.197  1.00  0.00     0.075 C 
BRANCH  28  29
ATOM     29  C   UNL A   1      28.185  31.902  23.577  1.00  0.00     0.008 C 
BRANCH  29  30
ATOM     30  C   UNL A   1      28.661  32.773  22.407  1.00  0.00    -0.003 C 
ATOM     31  C   UNL A   1      27.964  32.466  21.091  1.00  0.00     0.004 C 
ENDBRANCH  29  30
ENDBRANCH  28  29
ENDBRANCH  23  28
ENDBRANCH  21  22
ENDBRANCH   8  21
ENDBRANCH   4   7
ENDBRANCH   2   3
ENDBRANCH   1   2
BRANCH   1  32
ATOM     32  C   UNL A   1      32.064  29.599  27.156  1.00  0.00     0.002 C 
BRANCH  32  33
ATOM     33  C   UNL A   1      31.695  30.646  26.103  1.00  0.00     0.002 C 
BRANCH  33  34
ATOM     34  C   UNL A   1      31.404  32.062  26.592  1.00  0.00     0.021 C 
BRANCH  34  35
ATOM     35  C   UNL A   1      32.550  32.787  27.281  1.00  0.00     0.116 C 
BRANCH  35  36
ATOM     36  N   UNL A   1      32.249  34.166  27.628  1.00  0.00    -0.352 N 
ATOM     37  C   UNL A   1      32.891  35.001  28.514  1.00  0.00     0.251 C 
ATOM     38  H   UNL A   1      31.474  34.558  27.163  1.00  0.00     0.163 HD
ATOM     39  O   UNL A   1      32.443  36.121  28.743  1.00  0.00    -0.269 OA
BRANCH  37  40
ATOM     40  C   UNL A   1      34.101  34.533  29.228  1.00  0.00     0.039 A 
ATOM     41  C   UNL A   1      35.368  34.658  28.656  1.00  0.00     0.014 A 
ATOM     42  C   UNL A   1      33.959  33.934  30.485  1.00  0.00     0.014 A 
ATOM     43  C   UNL A   1      36.456  34.028  29.248  1.00  0.00     0.010 A 
ATOM     44  C   UNL A   1      35.075  33.384  31.125  1.00  0.00     0.010 A 
ATOM     45  C   UNL A   1      36.325  33.381  30.488  1.00  0.00    -0.014 A 
BRANCH  45  46
ATOM     46  C   UNL A   1      37.516  32.720  31.089  1.00  0.00     0.031 A 
ATOM     47  C   UNL A   1      37.982  33.073  32.476  1.00  0.00     0.074 A 
ATOM     48  C   UNL A   1      38.130  31.737  30.403  1.00  0.00     0.049 A 
ATOM     49  N   UNL A   1      38.949  32.539  33.181  1.00  0.00    -0.248 NA
ATOM     50  C   UNL A   1      37.278  34.166  33.166  1.00  0.00     0.031 C 
ATOM     51  C   UNL A   1      37.766  31.305  29.052  1.00  0.00     0.029 A 
ATOM     52  N   UNL A   1      39.155  30.895  30.755  1.00  0.00    -0.354 N 
ATOM     53  C   UNL A   1      38.976  33.233  34.383  1.00  0.00     0.074 A 
ATOM     54  C   UNL A   1      37.952  34.251  34.306  1.00  0.00     0.031 C 
ATOM     55  C   UNL A   1      38.502  30.235  28.720  1.00  0.00     0.029 A 
ATOM     56  C   UNL A   1      39.432  29.942  29.805  1.00  0.00     0.049 A 
ATOM     57  H   UNL A   1      39.644  30.967  31.607  1.00  0.00     0.167 HD
ATOM     58  C   UNL A   1      39.770  33.025  35.461  1.00  0.00     0.037 A 
ATOM     59  C   UNL A   1      40.335  28.943  29.805  1.00  0.00     0.037 A 
ATOM     60  C   UNL A   1      40.774  31.997  35.545  1.00  0.00     0.049 A 
ATOM     61  C   UNL A   1      41.229  28.762  30.999  1.00  0.00     0.074 A 
ATOM     62  C   UNL A   1      41.617  31.701  36.603  1.00  0.00     0.029 A 
ATOM     63  N   UNL A   1      41.067  31.092  34.535  1.00  0.00    -0.354 N 
ATOM     64  N   UNL A   1      41.229  29.416  32.134  1.00  0.00    -0.248 NA
ATOM     65  C   UNL A   1      42.254  27.713  30.908  1.00  0.00     0.031 C 
ATOM     66  C   UNL A   1      42.447  30.645  36.219  1.00  0.00     0.029 A 
ATOM     67  C   UNL A   1      42.090  30.252  34.939  1.00  0.00     0.049 A 
ATOM     68  H   UNL A   1      40.615  31.054  33.662  1.00  0.00     0.167 HD
ATOM     69  C   UNL A   1      42.239  28.851  32.898  1.00  0.00     0.074 A 
ATOM     70  C   UNL A   1      42.821  27.787  32.105  1.00  0.00     0.031 C 
ATOM     71  C   UNL A   1      42.649  29.189  34.143  1.00  0.00     0.037 A 
BRANCH  58  72
ATOM     72  C   UNL A   1      39.591  33.921  36.653  1.00  0.00     0.064 A 
ATOM     73  C   UNL A   1      38.798  33.535  37.745  1.00  0.00     0.173 A 
ATOM     74  C   UNL A   1      40.292  35.133  36.747  1.00  0.00     0.173 A 
ATOM     75  F   UNL A   1      38.102  32.389  37.702  1.00  0.00    -0.203 F 
ATOM     76  C   UNL A   1      38.705  34.335  38.880  1.00  0.00     0.198 A 
ATOM     77  C   UNL A   1      40.216  35.918  37.894  1.00  0.00     0.198 A 
ATOM     78  F   UNL A   1      41.071  35.543  35.735  1.00  0.00    -0.203 F 
ATOM     79  F   UNL A   1      37.921  33.960  39.900  1.00  0.00    -0.200 F 
ATOM     80  C   UNL A   1      39.423  35.520  38.959  1.00  0.00     0.200 A 
ATOM     81  F   UNL A   1      40.922  37.055  37.974  1.00  0.00    -0.200 F 
ATOM     82  F   UNL A   1      39.347  36.280  40.061  1.00  0.00    -0.200 F 
ENDBRANCH  58  72
BRANCH  59  83
ATOM     83  C   UNL A   1      40.414  28.026  28.639  1.00  0.00     0.064 A 
ATOM     84  C   UNL A   1      41.180  28.359  27.513  1.00  0.00     0.173 A 
ATOM     85  C   UNL A   1      39.756  26.786  28.638  1.00  0.00     0.173 A 
ATOM     86  F   UNL A   1      41.812  29.541  27.460  1.00  0.00    -0.203 F 
ATOM     87  C   UNL A   1      41.282  27.489  26.430  1.00  0.00     0.198 A 
ATOM     88  C   UNL A   1      39.884  25.906  27.567  1.00  0.00     0.198 A 
ATOM     89  F   UNL A   1      39.015  26.418  29.693  1.00  0.00    -0.203 F 
ATOM     90  F   UNL A   1      41.997  27.845  25.354  1.00  0.00    -0.200 F 
ATOM     91  C   UNL A   1      40.642  26.259  26.461  1.00  0.00     0.200 A 
ATOM     92  F   UNL A   1      39.278  24.711  27.609  1.00  0.00    -0.200 F 
ATOM     93  F   UNL A   1      40.754  25.416  25.426  1.00  0.00    -0.200 F 
ENDBRANCH  59  83
BRANCH  71  94
ATOM     94  C   UNL A   1      43.768  28.395  34.748  1.00  0.00     0.064 A 
ATOM     95  C   UNL A   1      45.099  28.825  34.659  1.00  0.00     0.173 A 
ATOM     96  C   UNL A   1      43.495  27.245  35.504  1.00  0.00     0.173 A 
ATOM     97  F   UNL A   1      45.410  29.912  33.937  1.00  0.00    -0.203 F 
ATOM     98  C   UNL A   1      46.119  28.130  35.303  1.00  0.00     0.198 A 
ATOM     99  C   UNL A   1      44.513  26.567  36.167  1.00  0.00     0.198 A 
ATOM    100  F   UNL A   1      42.236  26.799  35.624  1.00  0.00    -0.203 F 
ATOM    101  F   UNL A   1      47.387  28.546  35.188  1.00  0.00    -0.200 F 
ATOM    102  C   UNL A   1      45.824  27.010  36.066  1.00  0.00     0.200 A 
ATOM    103  F   UNL A   1      44.225  25.493  36.915  1.00  0.00    -0.200 F 
ATOM    104  F   UNL A   1      46.804  26.354  36.703  1.00  0.00    -0.200 F 
ENDBRANCH  71  94
ENDBRANCH  45  46
ENDBRANCH  37  40
ENDBRANCH  35  36
ENDBRANCH  34  35
ENDBRANCH  33  34
ENDBRANCH  32  33
ENDBRANCH   1  32
TORSDOF 18
ENDMDL
MODEL 2
REMARK VINA RESULT:     -12.8      5.143     10.991
REMARK SMILES CCCCc1ncc(C[N@H+]2C[C@@H]3c4ccccc4OC[C@]3(C(=O)NCCCCCCNC(=O)c3ccc(-c4c5nc(c(-c6c(F)c(F)c(F)c(F)c6F)c6ccc([nH]6)c(-c6c(F)c(F)c(F)c(F)c6F)c6nc(c(-c7c(F)c(F)c(F)c(F)c7F)c7ccc4[nH]7)C=C6)C=C5)cc3)C2)[nH]1
REMARK SMILES IDX 26 1 25 2 24 3 22 4 23 5 21 7 10 8 11 9 97 10 12 12 13 13
REMARK SMILES IDX 20 14 14 15 18 16 19 17 15 18 17 19 16 20 9 21 8 22 5 23
REMARK SMILES IDX 6 24 98 25 7 26 4 28 3 29 2 30 1 31 27 32 28 33 29 34 30 35
REMARK SMILES IDX 31 36 32 37 33 39 34 40 35 41 96 42 36 43 95 44 37 45 38 46
REMARK SMILES IDX 39 47 89 48 40 49 94 50 88 51 90 52 41 53 93 54 87 55 86 56
REMARK SMILES IDX 42 58 74 59 54 60 73 61 55 62 58 63 72 64 91 65 56 66 57 67
REMARK SMILES IDX 71 69 92 70 59 71 43 72 44 73 52 74 45 75 46 76 50 77 53 78
REMARK SMILES IDX 47 79 48 80 51 81 49 82 75 83 76 84 84 85 77 86 78 87 82 88
REMARK SMILES IDX 85 89 79 90 80 91 83 92 81 93 60 94 61 95 69 96 62 97 63 98
REMARK SMILES IDX 67 99 70 100 64 101 65 102 68 103 66 104
REMARK H PARENT 24 6 10 11 98 27 31 38 90 57 58 68
REMARK Flexibility Score: inf
ROOT
ATOM      1  C   UNL A   1      36.474  23.696  25.229  1.00  0.00     0.021 C 
ENDROOT
BRANCH   1   2
ATOM      2  C   UNL A   1      35.161  24.396  24.918  1.00  0.00     0.116 C 
BRANCH   2   3
ATOM      3  N   UNL A   1      34.638  24.183  23.577  1.00  0.00    -0.355 N 
ATOM      4  C   UNL A   1      33.700  24.994  22.954  1.00  0.00     0.236 C 
ATOM      5  O   UNL A   1      33.717  25.082  21.724  1.00  0.00    -0.274 OA
ATOM      6  H   UNL A   1      34.973  23.405  23.075  1.00  0.00     0.163 HD
BRANCH   4   7
ATOM      7  C   UNL A   1      32.661  25.719  23.897  1.00  0.00     0.144 C 
ATOM      8  N   UNL A   1      31.128  24.189  24.956  1.00  0.00    -0.328 N 
ATOM      9  C   UNL A   1      31.116  25.344  25.829  1.00  0.00     0.272 C 
ATOM     10  C   UNL A   1      32.466  24.197  24.372  1.00  0.00     0.284 C 
ATOM     11  H   UNL A   1      30.414  24.260  24.231  1.00  0.00     0.348 HD
ATOM     12  C   UNL A   1      32.403  26.106  25.438  1.00  0.00     0.103 C 
ATOM     13  C   UNL A   1      32.257  27.558  25.840  1.00  0.00     0.004 A 
ATOM     14  C   UNL A   1      33.609  26.969  23.616  1.00  0.00     0.253 C 
ATOM     15  C   UNL A   1      31.917  27.939  27.147  1.00  0.00     0.008 A 
ATOM     16  C   UNL A   1      32.542  28.549  24.913  1.00  0.00     0.123 A 
ATOM     17  O   UNL A   1      32.881  28.215  23.640  1.00  0.00    -0.492 OA
ATOM     18  C   UNL A   1      31.861  29.290  27.501  1.00  0.00     0.001 A 
ATOM     19  C   UNL A   1      32.489  29.898  25.255  1.00  0.00     0.047 A 
ATOM     20  C   UNL A   1      32.156  30.269  26.556  1.00  0.00     0.004 A 
BRANCH   8  21
ATOM     21  C   UNL A   1      30.671  22.929  25.541  1.00  0.00     0.319 C 
BRANCH  21  22
ATOM     22  C   UNL A   1      31.761  21.974  25.858  1.00  0.00     0.090 A 
ATOM     23  C   UNL A   1      33.142  20.280  25.543  1.00  0.00     0.106 A 
ATOM     24  N   UNL A   1      33.678  20.984  26.519  1.00  0.00    -0.241 NA
ATOM     25  N   UNL A   1      31.883  20.741  25.266  1.00  0.00    -0.341 N 
ATOM     26  C   UNL A   1      32.836  22.046  26.714  1.00  0.00     0.140 A 
ATOM     27  H   UNL A   1      31.193  20.276  24.740  1.00  0.00     0.168 HD
BRANCH  23  28
ATOM     28  C   UNL A   1      33.769  19.178  24.762  1.00  0.00     0.075 C 
BRANCH  28  29
ATOM     29  C   UNL A   1      32.781  18.522  23.788  1.00  0.00     0.008 C 
BRANCH  29  30
ATOM     30  C   UNL A   1      33.325  17.338  22.978  1.00  0.00    -0.003 C 
ATOM     31  C   UNL A   1      34.154  16.362  23.799  1.00  0.00     0.004 C 
ENDBRANCH  29  30
ENDBRANCH  28  29
ENDBRANCH  23  28
ENDBRANCH  21  22
ENDBRANCH   8  21
ENDBRANCH   4   7
ENDBRANCH   2   3
ENDBRANCH   1   2
BRANCH   1  32
ATOM     32  C   UNL A   1      36.860  22.508  24.345  1.00  0.00     0.002 C 
BRANCH  32  33
ATOM     33  C   UNL A   1      36.722  21.101  24.931  1.00  0.00     0.002 C 
BRANCH  33  34
ATOM     34  C   UNL A   1      37.926  20.170  24.811  1.00  0.00     0.021 C 
BRANCH  34  35
ATOM     35  C   UNL A   1      39.067  20.413  25.786  1.00  0.00     0.116 C 
BRANCH  35  36
ATOM     36  N   UNL A   1      40.057  19.347  25.809  1.00  0.00    -0.352 N 
ATOM     37  C   UNL A   1      41.407  19.419  26.065  1.00  0.00     0.251 C 
ATOM     38  H   UNL A   1      39.710  18.447  25.615  1.00  0.00     0.163 HD
ATOM     39  O   UNL A   1      42.109  18.417  25.961  1.00  0.00    -0.269 OA
BRANCH  37  40
ATOM     40  C   UNL A   1      42.025  20.716  26.423  1.00  0.00     0.039 A 
ATOM     41  C   UNL A   1      42.314  21.033  27.750  1.00  0.00     0.014 A 
ATOM     42  C   UNL A   1      42.296  21.642  25.410  1.00  0.00     0.014 A 
ATOM     43  C   UNL A   1      42.697  22.328  28.082  1.00  0.00     0.010 A 
ATOM     44  C   UNL A   1      42.774  22.915  25.738  1.00  0.00     0.010 A 
ATOM     45  C   UNL A   1      42.930  23.287  27.081  1.00  0.00    -0.014 A 
BRANCH  45  46
ATOM     46  C   UNL A   1      43.341  24.661  27.479  1.00  0.00     0.031 A 
ATOM     47  C   UNL A   1      44.730  25.168  27.195  1.00  0.00     0.074 A 
ATOM     48  C   UNL A   1      42.425  25.482  28.028  1.00  0.00     0.049 A 
ATOM     49  N   UNL A   1      45.229  26.363  27.400  1.00  0.00    -0.248 NA
ATOM     50  C   UNL A   1      45.688  24.218  26.607  1.00  0.00     0.031 C 
ATOM     51  C   UNL A   1      41.047  25.103  28.348  1.00  0.00     0.029 A 
ATOM     52  N   UNL A   1      42.493  26.807  28.376  1.00  0.00    -0.354 N 
ATOM     53  C   UNL A   1      46.550  26.304  26.979  1.00  0.00     0.074 A 
ATOM     54  C   UNL A   1      46.793  24.949  26.537  1.00  0.00     0.031 C 
ATOM     55  C   UNL A   1      40.382  26.187  28.773  1.00  0.00     0.029 A 
ATOM     56  C   UNL A   1      41.298  27.321  28.816  1.00  0.00     0.049 A 
ATOM     57  H   UNL A   1      43.320  27.339  28.315  1.00  0.00     0.167 HD
ATOM     58  C   UNL A   1      47.471  27.297  26.947  1.00  0.00     0.037 A 
ATOM     59  C   UNL A   1      40.973  28.567  29.212  1.00  0.00     0.037 A 
ATOM     60  C   UNL A   1      47.222  28.651  27.366  1.00  0.00     0.049 A 
ATOM     61  C   UNL A   1      42.026  29.638  29.202  1.00  0.00     0.074 A 
ATOM     62  C   UNL A   1      48.091  29.730  27.355  1.00  0.00     0.029 A 
ATOM     63  N   UNL A   1      46.014  29.115  27.866  1.00  0.00    -0.354 N 
ATOM     64  N   UNL A   1      43.266  29.569  28.785  1.00  0.00    -0.248 NA
ATOM     65  C   UNL A   1      41.639  30.955  29.727  1.00  0.00     0.031 C 
ATOM     66  C   UNL A   1      47.422  30.835  27.886  1.00  0.00     0.029 A 
ATOM     67  C   UNL A   1      46.122  30.459  28.184  1.00  0.00     0.049 A 
ATOM     68  H   UNL A   1      45.202  28.571  27.978  1.00  0.00     0.167 HD
ATOM     69  C   UNL A   1      43.804  30.832  28.981  1.00  0.00     0.074 A 
ATOM     70  C   UNL A   1      42.750  31.655  29.539  1.00  0.00     0.031 C 
ATOM     71  C   UNL A   1      45.060  31.267  28.726  1.00  0.00     0.037 A 
BRANCH  58  72
ATOM     72  C   UNL A   1      48.844  26.970  26.433  1.00  0.00     0.064 A 
ATOM     73  C   UNL A   1      49.834  26.444  27.278  1.00  0.00     0.173 A 
ATOM     74  C   UNL A   1      49.145  27.096  25.068  1.00  0.00     0.173 A 
ATOM     75  F   UNL A   1      49.600  26.311  28.591  1.00  0.00    -0.203 F 
ATOM     76  C   UNL A   1      51.077  26.067  26.775  1.00  0.00     0.198 A 
ATOM     77  C   UNL A   1      50.379  26.695  24.566  1.00  0.00     0.198 A 
ATOM     78  F   UNL A   1      48.230  27.585  24.218  1.00  0.00    -0.203 F 
ATOM     79  F   UNL A   1      52.016  25.591  27.604  1.00  0.00    -0.200 F 
ATOM     80  C   UNL A   1      51.345  26.182  25.419  1.00  0.00     0.200 A 
ATOM     81  F   UNL A   1      50.631  26.792  23.253  1.00  0.00    -0.200 F 
ATOM     82  F   UNL A   1      52.534  25.800  24.934  1.00  0.00    -0.200 F 
ENDBRANCH  58  72
BRANCH  59  83
ATOM     83  C   UNL A   1      39.578  28.864  29.626  1.00  0.00     0.064 A 
ATOM     84  C   UNL A   1      39.167  28.677  30.954  1.00  0.00     0.173 A 
ATOM     85  C   UNL A   1      38.637  29.371  28.717  1.00  0.00     0.173 A 
ATOM     86  F   UNL A   1      40.025  28.178  31.856  1.00  0.00    -0.203 F 
ATOM     87  C   UNL A   1      37.868  28.983  31.354  1.00  0.00     0.198 A 
ATOM     88  C   UNL A   1      37.348  29.704  29.126  1.00  0.00     0.198 A 
ATOM     89  F   UNL A   1      38.981  29.572  27.437  1.00  0.00    -0.203 F 
ATOM     90  F   UNL A   1      37.493  28.769  32.623  1.00  0.00    -0.200 F 
ATOM     91  C   UNL A   1      36.963  29.506  30.443  1.00  0.00     0.200 A 
ATOM     92  F   UNL A   1      36.482  30.225  28.246  1.00  0.00    -0.200 F 
ATOM     93  F   UNL A   1      35.719  29.815  30.833  1.00  0.00    -0.200 F 
ENDBRANCH  59  83
BRANCH  71  94
ATOM     94  C   UNL A   1      45.375  32.703  29.024  1.00  0.00     0.064 A 
ATOM     95  C   UNL A   1      45.968  33.083  30.236  1.00  0.00     0.173 A 
ATOM     96  C   UNL A   1      45.169  33.691  28.051  1.00  0.00     0.173 A 
ATOM     97  F   UNL A   1      46.174  32.175  31.201  1.00  0.00    -0.203 F 
ATOM     98  C   UNL A   1      46.341  34.405  30.464  1.00  0.00     0.198 A 
ATOM     99  C   UNL A   1      45.564  35.007  28.272  1.00  0.00     0.198 A 
ATOM    100  F   UNL A   1      44.610  33.374  26.873  1.00  0.00    -0.203 F 
ATOM    101  F   UNL A   1      46.888  34.752  31.637  1.00  0.00    -0.200 F 
ATOM    102  C   UNL A   1      46.150  35.362  29.478  1.00  0.00     0.200 A 
ATOM    103  F   UNL A   1      45.392  35.928  27.313  1.00  0.00    -0.200 F 
ATOM    104  F   UNL A   1      46.530  36.630  29.691  1.00  0.00    -0.200 F 
ENDBRANCH  71  94
ENDBRANCH  45  46
ENDBRANCH  37  40
ENDBRANCH  35  36
ENDBRANCH  34  35
ENDBRANCH  33  34
ENDBRANCH  32  33
ENDBRANCH   1  32
TORSDOF 18
ENDMDL
MODEL 3
REMARK VINA RESULT:     -12.4      0.790      7.093
REMARK SMILES CCCCc1ncc(C[N@H+]2C[C@@H]3c4ccccc4OC[C@]3(C(=O)NCCCCCCNC(=O)c3ccc(-c4c5nc(c(-c6c(F)c(F)c(F)c(F)c6F)c6ccc([nH]6)c(-c6c(F)c(F)c(F)c(F)c6F)c6nc(c(-c7c(F)c(F)c(F)c(F)c7F)c7ccc4[nH]7)C=C6)C=C5)cc3)C2)[nH]1
REMARK SMILES IDX 26 1 25 2 24 3 22 4 23 5 21 7 10 8 11 9 97 10 12 12 13 13
REMARK SMILES IDX 20 14 14 15 18 16 19 17 15 18 17 19 16 20 9 21 8 22 5 23
REMARK SMILES IDX 6 24 98 25 7 26 4 28 3 29 2 30 1 31 27 32 28 33 29 34 30 35
REMARK SMILES IDX 31 36 32 37 33 39 34 40 35 41 96 42 36 43 95 44 37 45 38 46
REMARK SMILES IDX 39 47 89 48 40 49 94 50 88 51 90 52 41 53 93 54 87 55 86 56
REMARK SMILES IDX 42 58 74 59 54 60 73 61 55 62 58 63 72 64 91 65 56 66 57 67
REMARK SMILES IDX 71 69 92 70 59 71 43 72 44 73 52 74 45 75 46 76 50 77 53 78
REMARK SMILES IDX 47 79 48 80 51 81 49 82 75 83 76 84 84 85 77 86 78 87 82 88
REMARK SMILES IDX 85 89 79 90 80 91 83 92 81 93 60 94 61 95 69 96 62 97 63 98
REMARK SMILES IDX 67 99 70 100 64 101 65 102 68 103 66 104
REMARK H PARENT 24 6 10 11 98 27 31 38 90 57 58 68
REMARK Flexibility Score: inf
ROOT
ATOM      1  C   UNL A   1      33.372  29.157  26.453  1.00  0.00     0.021 C 
ENDROOT
BRANCH   1   2
ATOM      2  C   UNL A   1      33.813  27.752  26.079  1.00  0.00     0.116 C 
BRANCH   2   3
ATOM      3  N   UNL A   1      34.250  27.575  24.703  1.00  0.00    -0.355 N 
ATOM      4  C   UNL A   1      33.662  26.712  23.789  1.00  0.00     0.236 C 
ATOM      5  O   UNL A   1      33.711  26.997  22.590  1.00  0.00    -0.274 OA
ATOM      6  H   UNL A   1      35.021  28.106  24.398  1.00  0.00     0.163 HD
BRANCH   4   7
ATOM      7  C   UNL A   1      32.998  25.408  24.381  1.00  0.00     0.144 C 
ATOM      8  N   UNL A   1      30.617  25.622  24.687  1.00  0.00    -0.328 N 
ATOM      9  C   UNL A   1      30.822  24.191  24.591  1.00  0.00     0.272 C 
ATOM     10  C   UNL A   1      31.689  26.191  23.877  1.00  0.00     0.284 C 
ATOM     11  H   UNL A   1      30.678  25.946  25.652  1.00  0.00     0.348 HD
ATOM     12  C   UNL A   1      32.219  24.070  23.941  1.00  0.00     0.103 C 
ATOM     13  C   UNL A   1      32.799  22.712  24.272  1.00  0.00     0.004 A 
ATOM     14  C   UNL A   1      34.445  24.804  24.093  1.00  0.00     0.253 C 
ATOM     15  C   UNL A   1      32.104  21.520  24.014  1.00  0.00     0.008 A 
ATOM     16  C   UNL A   1      34.088  22.630  24.776  1.00  0.00     0.123 A 
ATOM     17  O   UNL A   1      34.793  23.765  25.032  1.00  0.00    -0.492 OA
ATOM     18  C   UNL A   1      32.699  20.282  24.267  1.00  0.00     0.001 A 
ATOM     19  C   UNL A   1      34.692  21.401  25.031  1.00  0.00     0.047 A 
ATOM     20  C   UNL A   1      33.997  20.223  24.767  1.00  0.00     0.004 A 
BRANCH   8  21
ATOM     21  C   UNL A   1      29.261  26.102  24.418  1.00  0.00     0.319 C 
BRANCH  21  22
ATOM     22  C   UNL A   1      29.194  27.229  23.456  1.00  0.00     0.090 A 
ATOM     23  C   UNL A   1      28.406  29.070  22.524  1.00  0.00     0.106 A 
ATOM     24  N   UNL A   1      29.643  28.965  22.085  1.00  0.00    -0.241 NA
ATOM     25  N   UNL A   1      28.043  27.928  23.188  1.00  0.00    -0.341 N 
ATOM     26  C   UNL A   1      30.147  27.833  22.667  1.00  0.00     0.140 A 
ATOM     27  H   UNL A   1      27.128  27.659  23.430  1.00  0.00     0.168 HD
BRANCH  23  28
ATOM     28  C   UNL A   1      27.496  30.243  22.416  1.00  0.00     0.075 C 
BRANCH  28  29
ATOM     29  C   UNL A   1      27.641  31.202  23.607  1.00  0.00     0.008 C 
BRANCH  29  30
ATOM     30  C   UNL A   1      28.968  31.965  23.694  1.00  0.00    -0.003 C 
ATOM     31  C   UNL A   1      28.924  33.348  23.062  1.00  0.00     0.004 C 
ENDBRANCH  29  30
ENDBRANCH  28  29
ENDBRANCH  23  28
ENDBRANCH  21  22
ENDBRANCH   8  21
ENDBRANCH   4   7
ENDBRANCH   2   3
ENDBRANCH   1   2
BRANCH   1  32
ATOM     32  C   UNL A   1      31.867  29.423  26.523  1.00  0.00     0.002 C 
BRANCH  32  33
ATOM     33  C   UNL A   1      31.335  30.717  25.901  1.00  0.00     0.002 C 
BRANCH  33  34
ATOM     34  C   UNL A   1      31.306  31.960  26.785  1.00  0.00     0.021 C 
BRANCH  34  35
ATOM     35  C   UNL A   1      32.501  32.894  26.677  1.00  0.00     0.116 C 
BRANCH  35  36
ATOM     36  N   UNL A   1      32.351  34.129  27.429  1.00  0.00    -0.352 N 
ATOM     37  C   UNL A   1      33.084  34.591  28.499  1.00  0.00     0.251 C 
ATOM     38  H   UNL A   1      31.622  34.719  27.130  1.00  0.00     0.163 HD
ATOM     39  O   UNL A   1      32.760  35.631  29.066  1.00  0.00    -0.269 OA
BRANCH  37  40
ATOM     40  C   UNL A   1      34.239  33.810  28.999  1.00  0.00     0.039 A 
ATOM     41  C   UNL A   1      34.055  32.585  29.639  1.00  0.00     0.014 A 
ATOM     42  C   UNL A   1      35.529  34.329  28.843  1.00  0.00     0.014 A 
ATOM     43  C   UNL A   1      35.127  31.975  30.280  1.00  0.00     0.010 A 
ATOM     44  C   UNL A   1      36.622  33.662  29.407  1.00  0.00     0.010 A 
ATOM     45  C   UNL A   1      36.424  32.505  30.175  1.00  0.00    -0.014 A 
BRANCH  45  46
ATOM     46  C   UNL A   1      37.545  31.820  30.874  1.00  0.00     0.031 A 
ATOM     47  C   UNL A   1      38.400  30.806  30.162  1.00  0.00     0.074 A 
ATOM     48  C   UNL A   1      37.839  32.178  32.139  1.00  0.00     0.049 A 
ATOM     49  N   UNL A   1      39.464  30.176  30.595  1.00  0.00    -0.248 NA
ATOM     50  C   UNL A   1      38.016  30.448  28.787  1.00  0.00     0.031 C 
ATOM     51  C   UNL A   1      37.084  33.150  32.931  1.00  0.00     0.029 A 
ATOM     52  N   UNL A   1      38.868  31.805  32.967  1.00  0.00    -0.354 N 
ATOM     53  C   UNL A   1      39.867  29.346  29.558  1.00  0.00     0.074 A 
ATOM     54  C   UNL A   1      38.917  29.523  28.482  1.00  0.00     0.031 C 
ATOM     55  C   UNL A   1      37.715  33.352  34.097  1.00  0.00     0.029 A 
ATOM     56  C   UNL A   1      38.882  32.480  34.162  1.00  0.00     0.049 A 
ATOM     57  H   UNL A   1      39.532  31.118  32.726  1.00  0.00     0.167 HD
ATOM     58  C   UNL A   1      40.944  28.525  29.502  1.00  0.00     0.037 A 
ATOM     59  C   UNL A   1      39.739  32.407  35.200  1.00  0.00     0.037 A 
ATOM     60  C   UNL A   1      41.901  28.367  30.565  1.00  0.00     0.049 A 
ATOM     61  C   UNL A   1      40.902  31.459  35.125  1.00  0.00     0.074 A 
ATOM     62  C   UNL A   1      43.033  27.569  30.594  1.00  0.00     0.029 A 
ATOM     63  N   UNL A   1      41.843  29.023  31.787  1.00  0.00    -0.354 N 
ATOM     64  N   UNL A   1      41.278  30.694  34.130  1.00  0.00    -0.248 NA
ATOM     65  C   UNL A   1      41.752  31.355  36.319  1.00  0.00     0.031 C 
ATOM     66  C   UNL A   1      43.636  27.711  31.845  1.00  0.00     0.029 A 
ATOM     67  C   UNL A   1      42.908  28.632  32.581  1.00  0.00     0.049 A 
ATOM     68  H   UNL A   1      41.149  29.669  32.049  1.00  0.00     0.167 HD
ATOM     69  C   UNL A   1      42.414  30.030  34.568  1.00  0.00     0.074 A 
ATOM     70  C   UNL A   1      42.678  30.495  35.915  1.00  0.00     0.031 C 
ATOM     71  C   UNL A   1      43.165  29.114  33.914  1.00  0.00     0.037 A 
BRANCH  58  72
ATOM     72  C   UNL A   1      41.162  27.730  28.247  1.00  0.00     0.064 A 
ATOM     73  C   UNL A   1      41.961  28.219  27.202  1.00  0.00     0.173 A 
ATOM     74  C   UNL A   1      40.644  26.431  28.125  1.00  0.00     0.173 A 
ATOM     75  F   UNL A   1      42.472  29.457  27.266  1.00  0.00    -0.203 F 
ATOM     76  C   UNL A   1      42.225  27.440  26.079  1.00  0.00     0.198 A 
ATOM     77  C   UNL A   1      40.931  25.647  27.012  1.00  0.00     0.198 A 
ATOM     78  F   UNL A   1      39.882  25.914  29.100  1.00  0.00    -0.203 F 
ATOM     79  F   UNL A   1      42.970  27.936  25.081  1.00  0.00    -0.200 F 
ATOM     80  C   UNL A   1      41.719  26.151  25.989  1.00  0.00     0.200 A 
ATOM     81  F   UNL A   1      40.454  24.397  26.935  1.00  0.00    -0.200 F 
ATOM     82  F   UNL A   1      41.990  25.396  24.916  1.00  0.00    -0.200 F 
ENDBRANCH  58  72
BRANCH  59  83
ATOM     83  C   UNL A   1      39.533  33.279  36.384  1.00  0.00     0.064 A 
ATOM     84  C   UNL A   1      38.766  32.842  37.474  1.00  0.00     0.173 A 
ATOM     85  C   UNL A   1      40.122  34.549  36.468  1.00  0.00     0.173 A 
ATOM     86  F   UNL A   1      38.167  31.642  37.433  1.00  0.00    -0.203 F 
ATOM     87  C   UNL A   1      38.595  33.644  38.600  1.00  0.00     0.198 A 
ATOM     88  C   UNL A   1      39.974  35.337  37.607  1.00  0.00     0.198 A 
ATOM     89  F   UNL A   1      40.869  35.012  35.455  1.00  0.00    -0.203 F 
ATOM     90  F   UNL A   1      37.834  33.214  39.616  1.00  0.00    -0.200 F 
ATOM     91  C   UNL A   1      39.207  34.886  38.670  1.00  0.00     0.200 A 
ATOM     92  F   UNL A   1      40.583  36.529  37.678  1.00  0.00    -0.200 F 
ATOM     93  F   UNL A   1      39.056  35.650  39.760  1.00  0.00    -0.200 F 
ENDBRANCH  59  83
BRANCH  71  94
ATOM     94  C   UNL A   1      44.363  28.559  34.625  1.00  0.00     0.064 A 
ATOM     95  C   UNL A   1      45.605  29.207  34.578  1.00  0.00     0.173 A 
ATOM     96  C   UNL A   1      44.243  27.421  35.437  1.00  0.00     0.173 A 
ATOM     97  F   UNL A   1      45.771  30.291  33.805  1.00  0.00    -0.203 F 
ATOM     98  C   UNL A   1      46.686  28.734  35.317  1.00  0.00     0.198 A 
ATOM     99  C   UNL A   1      45.318  26.965  36.193  1.00  0.00     0.198 A 
ATOM    100  F   UNL A   1      43.072  26.771  35.519  1.00  0.00    -0.203 F 
ATOM    101  F   UNL A   1      47.870  29.356  35.241  1.00  0.00    -0.200 F 
ATOM    102  C   UNL A   1      46.538  27.622  36.132  1.00  0.00     0.200 A 
ATOM    103  F   UNL A   1      45.170  25.899  36.991  1.00  0.00    -0.200 F 
ATOM    104  F   UNL A   1      47.574  27.181  36.860  1.00  0.00    -0.200 F 
ENDBRANCH  71  94
ENDBRANCH  45  46
ENDBRANCH  37  40
ENDBRANCH  35  36
ENDBRANCH  34  35
ENDBRANCH  33  34
ENDBRANCH  32  33
ENDBRANCH   1  32
TORSDOF 18
ENDMDL
