MODEL 1
REMARK VINA RESULT:     -12.3      0.000      0.000
REMARK SMILES CCCc1cc(OC(F)(F)F)cc2c1O[C@@H](C(F)(F)F)C(C(=O)NCCCCCCNC(=O)c1ccc(-c3c4nc(c(-c5c(F)c(F)c(F)c(F)c5F)c5ccc([nH]5)c(-c5c(F)c(F)c(F)c(F)c5F)c5nc(c(-c6c(F)c(F)c(F)c(F)c6F)c6ccc3[nH]6)C=C5)C=C4)cc1)=C2
REMARK SMILES IDX 27 1 26 2 25 3 24 4 22 5 23 6 21 8 4 9 5 10 14 11 6 12 13 13
REMARK SMILES IDX 15 14 12 15 97 16 16 17 3 18 2 19 1 20 7 21 8 22 9 23 10 24
REMARK SMILES IDX 11 25 17 26 18 27 19 28 20 29 28 30 29 31 30 32 31 33 32 34
REMARK SMILES IDX 33 36 34 37 35 38 96 39 36 40 95 41 37 42 38 43 39 44 89 45
REMARK SMILES IDX 40 46 94 47 88 48 90 49 41 50 93 51 87 52 86 53 42 55 74 56
REMARK SMILES IDX 54 57 73 58 55 59 58 60 72 61 91 62 56 63 57 64 71 66 92 67
REMARK SMILES IDX 59 68 43 69 44 70 52 71 45 72 46 73 50 74 53 75 47 76 48 77
REMARK SMILES IDX 51 78 49 79 75 80 76 81 84 82 77 83 78 84 82 85 85 86 79 87
REMARK SMILES IDX 80 88 83 89 81 90 60 91 61 92 69 93 62 94 63 95 67 96 70 97
REMARK SMILES IDX 64 98 65 99 68 100 66 101
REMARK H PARENT 24 7 31 35 90 54 58 65
REMARK Flexibility Score: inf
ROOT
ATOM      1  C   UNL A   1      32.254  30.120  27.024  1.00  0.00     0.002 C 
ENDROOT
BRANCH   1   2
ATOM      2  C   UNL A   1      31.792  28.666  27.192  1.00  0.00     0.021 C 
BRANCH   2   3
ATOM      3  C   UNL A   1      32.720  27.664  26.495  1.00  0.00     0.116 C 
BRANCH   3   4
ATOM      4  N   UNL A   1      32.691  27.909  25.066  1.00  0.00    -0.352 N 
ATOM      5  C   UNL A   1      33.098  27.164  24.007  1.00  0.00     0.251 C 
ATOM      6  O   UNL A   1      33.214  27.720  22.919  1.00  0.00    -0.270 OA
ATOM      7  H   UNL A   1      32.305  28.779  24.817  1.00  0.00     0.163 HD
BRANCH   5   8
ATOM      8  C   UNL A   1      33.311  25.698  24.099  1.00  0.00     0.067 C 
ATOM      9  C   UNL A   1      33.487  21.514  24.374  1.00  0.00    -0.002 A 
ATOM     10  C   UNL A   1      34.632  20.913  24.933  1.00  0.00     0.054 A 
ATOM     11  C   UNL A   1      33.416  22.912  24.332  1.00  0.00     0.131 A 
ATOM     12  C   UNL A   1      35.699  21.688  25.392  1.00  0.00     0.130 A 
ATOM     13  C   UNL A   1      34.505  23.694  24.716  1.00  0.00     0.021 A 
ATOM     14  O   UNL A   1      32.225  23.477  23.982  1.00  0.00    -0.475 OA
ATOM     15  C   UNL A   1      35.639  23.078  25.251  1.00  0.00     0.058 A 
ATOM     16  C   UNL A   1      34.419  25.144  24.615  1.00  0.00     0.025 C 
ATOM     17  C   UNL A   1      32.257  24.821  23.431  1.00  0.00     0.314 C 
BRANCH   9  18
ATOM     18  C   UNL A   1      32.376  20.632  23.839  1.00  0.00     0.039 C 
BRANCH  18  19
ATOM     19  C   UNL A   1      32.667  19.122  23.797  1.00  0.00     0.001 C 
ATOM     20  C   UNL A   1      32.154  18.417  22.548  1.00  0.00     0.004 C 
ENDBRANCH  18  19
ENDBRANCH   9  18
BRANCH  12  21
ATOM     21  O   UNL A   1      36.842  21.233  25.983  1.00  0.00    -0.406 OA
BRANCH  21  22
ATOM     22  C   UNL A   1      38.012  21.142  25.187  1.00  0.00     0.573 C 
ATOM     23  F   UNL A   1      39.012  21.892  25.698  1.00  0.00    -0.132 F 
ATOM     24  F   UNL A   1      38.418  19.861  25.071  1.00  0.00    -0.132 F 
ATOM     25  F   UNL A   1      37.729  21.609  23.950  1.00  0.00    -0.132 F 
ENDBRANCH  21  22
ENDBRANCH  12  21
BRANCH  17  26
ATOM     26  C   UNL A   1      30.799  25.334  23.426  1.00  0.00     0.429 C 
ATOM     27  F   UNL A   1      30.594  26.324  22.528  1.00  0.00    -0.167 F 
ATOM     28  F   UNL A   1      29.940  24.341  23.065  1.00  0.00    -0.167 F 
ATOM     29  F   UNL A   1      30.399  25.770  24.642  1.00  0.00    -0.167 F 
ENDBRANCH  17  26
ENDBRANCH   5   8
ENDBRANCH   3   4
ENDBRANCH   2   3
ENDBRANCH   1   2
BRANCH   1  30
ATOM     30  C   UNL A   1      31.361  30.966  26.109  1.00  0.00     0.002 C 
BRANCH  30  31
ATOM     31  C   UNL A   1      31.348  32.462  26.433  1.00  0.00     0.021 C 
BRANCH  31  32
ATOM     32  C   UNL A   1      32.547  32.929  27.252  1.00  0.00     0.116 C 
BRANCH  32  33
ATOM     33  N   UNL A   1      32.412  34.321  27.645  1.00  0.00    -0.352 N 
ATOM     34  C   UNL A   1      33.017  34.988  28.679  1.00  0.00     0.251 C 
ATOM     35  H   UNL A   1      31.801  34.860  27.092  1.00  0.00     0.163 HD
ATOM     36  O   UNL A   1      32.615  36.094  29.023  1.00  0.00    -0.269 OA
BRANCH  34  37
ATOM     37  C   UNL A   1      34.158  34.366  29.383  1.00  0.00     0.039 A 
ATOM     38  C   UNL A   1      33.916  33.637  30.550  1.00  0.00     0.014 A 
ATOM     39  C   UNL A   1      35.462  34.529  28.909  1.00  0.00     0.014 A 
ATOM     40  C   UNL A   1      34.984  33.042  31.224  1.00  0.00     0.010 A 
ATOM     41  C   UNL A   1      36.516  33.880  29.544  1.00  0.00     0.010 A 
ATOM     42  C   UNL A   1      36.289  33.144  30.716  1.00  0.00    -0.014 A 
BRANCH  42  43
ATOM     43  C   UNL A   1      37.438  32.521  31.419  1.00  0.00     0.031 A 
ATOM     44  C   UNL A   1      38.165  31.367  30.784  1.00  0.00     0.074 A 
ATOM     45  C   UNL A   1      37.789  32.955  32.645  1.00  0.00     0.049 A 
ATOM     46  N   UNL A   1      39.138  30.634  31.266  1.00  0.00    -0.248 NA
ATOM     47  C   UNL A   1      37.721  30.963  29.440  1.00  0.00     0.031 C 
ATOM     48  C   UNL A   1      37.133  34.038  33.379  1.00  0.00     0.029 A 
ATOM     49  N   UNL A   1      38.776  32.526  33.496  1.00  0.00    -0.354 N 
ATOM     50  C   UNL A   1      39.402  29.676  30.296  1.00  0.00     0.074 A 
ATOM     51  C   UNL A   1      38.461  29.887  29.220  1.00  0.00     0.031 C 
ATOM     52  C   UNL A   1      37.747  34.200  34.563  1.00  0.00     0.029 A 
ATOM     53  C   UNL A   1      38.814  33.212  34.686  1.00  0.00     0.049 A 
ATOM     54  H   UNL A   1      39.399  31.796  33.275  1.00  0.00     0.167 HD
ATOM     55  C   UNL A   1      40.362  28.719  30.296  1.00  0.00     0.037 A 
ATOM     56  C   UNL A   1      39.616  33.052  35.755  1.00  0.00     0.037 A 
ATOM     57  C   UNL A   1      41.323  28.540  31.351  1.00  0.00     0.049 A 
ATOM     58  C   UNL A   1      40.681  31.989  35.721  1.00  0.00     0.074 A 
ATOM     59  C   UNL A   1      42.375  27.643  31.416  1.00  0.00     0.029 A 
ATOM     60  N   UNL A   1      41.352  29.278  32.525  1.00  0.00    -0.354 N 
ATOM     61  N   UNL A   1      40.966  31.131  34.770  1.00  0.00    -0.248 NA
ATOM     62  C   UNL A   1      41.544  31.876  36.906  1.00  0.00     0.031 C 
ATOM     63  C   UNL A   1      43.016  27.811  32.648  1.00  0.00     0.029 A 
ATOM     64  C   UNL A   1      42.395  28.846  33.327  1.00  0.00     0.049 A 
ATOM     65  H   UNL A   1      40.726  30.003  32.753  1.00  0.00     0.167 HD
ATOM     66  C   UNL A   1      42.060  30.408  35.223  1.00  0.00     0.074 A 
ATOM     67  C   UNL A   1      42.395  30.933  36.531  1.00  0.00     0.031 C 
ATOM     68  C   UNL A   1      42.728  29.398  34.614  1.00  0.00     0.037 A 
BRANCH  55  69
ATOM     69  C   UNL A   1      40.429  27.795  29.116  1.00  0.00     0.064 A 
ATOM     70  C   UNL A   1      39.667  26.619  29.058  1.00  0.00     0.173 A 
ATOM     71  C   UNL A   1      41.223  28.118  28.004  1.00  0.00     0.173 A 
ATOM     72  F   UNL A   1      38.901  26.258  30.099  1.00  0.00    -0.203 F 
ATOM     73  C   UNL A   1      39.711  25.791  27.939  1.00  0.00     0.198 A 
ATOM     74  C   UNL A   1      41.242  27.303  26.876  1.00  0.00     0.198 A 
ATOM     75  F   UNL A   1      41.968  29.234  28.007  1.00  0.00    -0.203 F 
ATOM     76  F   UNL A   1      39.005  24.652  27.922  1.00  0.00    -0.200 F 
ATOM     77  C   UNL A   1      40.491  26.139  26.846  1.00  0.00     0.200 A 
ATOM     78  F   UNL A   1      41.987  27.647  25.816  1.00  0.00    -0.200 F 
ATOM     79  F   UNL A   1      40.521  25.348  25.764  1.00  0.00    -0.200 F 
ENDBRANCH  55  69
BRANCH  56  80
ATOM     80  C   UNL A   1      39.463  33.932  36.944  1.00  0.00     0.064 A 
ATOM     81  C   UNL A   1      40.076  35.194  36.989  1.00  0.00     0.173 A 
ATOM     82  C   UNL A   1      38.730  33.524  38.067  1.00  0.00     0.173 A 
ATOM     83  F   UNL A   1      40.804  35.621  35.948  1.00  0.00    -0.203 F 
ATOM     84  C   UNL A   1      39.988  35.997  38.124  1.00  0.00     0.198 A 
ATOM     85  C   UNL A   1      38.618  34.342  39.190  1.00  0.00     0.198 A 
ATOM     86  F   UNL A   1      38.119  32.330  38.072  1.00  0.00    -0.203 F 
ATOM     87  F   UNL A   1      40.632  37.171  38.162  1.00  0.00    -0.200 F 
ATOM     88  C   UNL A   1      39.257  35.571  39.222  1.00  0.00     0.200 A 
ATOM     89  F   UNL A   1      37.898  33.933  40.244  1.00  0.00    -0.200 F 
ATOM     90  F   UNL A   1      39.176  36.343  40.316  1.00  0.00    -0.200 F 
ENDBRANCH  56  80
BRANCH  68  91
ATOM     91  C   UNL A   1      43.921  28.833  35.327  1.00  0.00     0.064 A 
ATOM     92  C   UNL A   1      45.212  29.338  35.122  1.00  0.00     0.173 A 
ATOM     93  C   UNL A   1      43.759  27.797  36.261  1.00  0.00     0.173 A 
ATOM     94  F   UNL A   1      45.420  30.319  34.231  1.00  0.00    -0.203 F 
ATOM     95  C   UNL A   1      46.304  28.810  35.807  1.00  0.00     0.198 A 
ATOM     96  C   UNL A   1      44.848  27.292  36.966  1.00  0.00     0.198 A 
ATOM     97  F   UNL A   1      42.543  27.284  36.498  1.00  0.00    -0.203 F 
ATOM     98  F   UNL A   1      47.536  29.275  35.561  1.00  0.00    -0.200 F 
ATOM     99  C   UNL A   1      46.119  27.794  36.733  1.00  0.00     0.200 A 
ATOM    100  F   UNL A   1      44.666  26.320  37.871  1.00  0.00    -0.200 F 
ATOM    101  F   UNL A   1      47.170  27.292  37.397  1.00  0.00    -0.200 F 
ENDBRANCH  68  91
ENDBRANCH  42  43
ENDBRANCH  34  37
ENDBRANCH  32  33
ENDBRANCH  31  32
ENDBRANCH  30  31
ENDBRANCH   1  30
TORSDOF 18
ENDMDL
MODEL 2
REMARK VINA RESULT:     -12.2      5.235     10.810
REMARK SMILES CCCc1cc(OC(F)(F)F)cc2c1O[C@@H](C(F)(F)F)C(C(=O)NCCCCCCNC(=O)c1ccc(-c3c4nc(c(-c5c(F)c(F)c(F)c(F)c5F)c5ccc([nH]5)c(-c5c(F)c(F)c(F)c(F)c5F)c5nc(c(-c6c(F)c(F)c(F)c(F)c6F)c6ccc3[nH]6)C=C5)C=C4)cc1)=C2
REMARK SMILES IDX 27 1 26 2 25 3 24 4 22 5 23 6 21 8 4 9 5 10 14 11 6 12 13 13
REMARK SMILES IDX 15 14 12 15 97 16 16 17 3 18 2 19 1 20 7 21 8 22 9 23 10 24
REMARK SMILES IDX 11 25 17 26 18 27 19 28 20 29 28 30 29 31 30 32 31 33 32 34
REMARK SMILES IDX 33 36 34 37 35 38 96 39 36 40 95 41 37 42 38 43 39 44 89 45
REMARK SMILES IDX 40 46 94 47 88 48 90 49 41 50 93 51 87 52 86 53 42 55 74 56
REMARK SMILES IDX 54 57 73 58 55 59 58 60 72 61 91 62 56 63 57 64 71 66 92 67
REMARK SMILES IDX 59 68 43 69 44 70 52 71 45 72 46 73 50 74 53 75 47 76 48 77
REMARK SMILES IDX 51 78 49 79 75 80 76 81 84 82 77 83 78 84 82 85 85 86 79 87
REMARK SMILES IDX 80 88 83 89 81 90 60 91 61 92 69 93 62 94 63 95 67 96 70 97
REMARK SMILES IDX 64 98 65 99 68 100 66 101
REMARK H PARENT 24 7 31 35 90 54 58 65
REMARK Flexibility Score: inf
ROOT
ATOM      1  C   UNL A   1      36.959  21.784  24.264  1.00  0.00     0.002 C 
ENDROOT
BRANCH   1   2
ATOM      2  C   UNL A   1      35.833  22.797  24.509  1.00  0.00     0.021 C 
BRANCH   2   3
ATOM      3  C   UNL A   1      35.183  23.288  23.211  1.00  0.00     0.116 C 
BRANCH   3   4
ATOM      4  N   UNL A   1      33.884  22.657  23.064  1.00  0.00    -0.352 N 
ATOM      5  C   UNL A   1      32.637  23.049  23.425  1.00  0.00     0.251 C 
ATOM      6  O   UNL A   1      31.745  22.206  23.434  1.00  0.00    -0.270 OA
ATOM      7  H   UNL A   1      33.914  21.779  22.621  1.00  0.00     0.163 HD
BRANCH   5   8
ATOM      8  C   UNL A   1      32.298  24.466  23.713  1.00  0.00     0.067 C 
ATOM      9  C   UNL A   1      31.296  28.353  24.935  1.00  0.00    -0.002 A 
ATOM     10  C   UNL A   1      30.702  29.231  24.007  1.00  0.00     0.054 A 
ATOM     11  C   UNL A   1      31.581  27.042  24.532  1.00  0.00     0.131 A 
ATOM     12  C   UNL A   1      30.447  28.823  22.696  1.00  0.00     0.130 A 
ATOM     13  C   UNL A   1      31.402  26.648  23.207  1.00  0.00     0.021 A 
ATOM     14  O   UNL A   1      31.960  26.151  25.493  1.00  0.00    -0.475 OA
ATOM     15  C   UNL A   1      30.829  27.539  22.296  1.00  0.00     0.058 A 
ATOM     16  C   UNL A   1      31.753  25.292  22.806  1.00  0.00     0.025 C 
ATOM     17  C   UNL A   1      32.742  25.002  25.069  1.00  0.00     0.314 C 
BRANCH   9  18
ATOM     18  C   UNL A   1      31.605  28.854  26.332  1.00  0.00     0.039 C 
BRANCH  18  19
ATOM     19  C   UNL A   1      33.045  29.337  26.578  1.00  0.00     0.001 C 
ATOM     20  C   UNL A   1      33.146  30.734  27.178  1.00  0.00     0.004 C 
ENDBRANCH  18  19
ENDBRANCH   9  18
BRANCH  12  21
ATOM     21  O   UNL A   1      29.848  29.560  21.716  1.00  0.00    -0.406 OA
BRANCH  21  22
ATOM     22  C   UNL A   1      28.499  29.955  21.910  1.00  0.00     0.573 C 
ATOM     23  F   UNL A   1      28.413  31.007  22.752  1.00  0.00    -0.132 F 
ATOM     24  F   UNL A   1      27.914  30.265  20.735  1.00  0.00    -0.132 F 
ATOM     25  F   UNL A   1      27.823  28.922  22.459  1.00  0.00    -0.132 F 
ENDBRANCH  21  22
ENDBRANCH  12  21
BRANCH  17  26
ATOM     26  C   UNL A   1      32.759  24.013  26.258  1.00  0.00     0.429 C 
ATOM     27  F   UNL A   1      33.989  23.862  26.797  1.00  0.00    -0.167 F 
ATOM     28  F   UNL A   1      31.976  24.469  27.274  1.00  0.00    -0.167 F 
ATOM     29  F   UNL A   1      32.285  22.792  25.921  1.00  0.00    -0.167 F 
ENDBRANCH  17  26
ENDBRANCH   5   8
ENDBRANCH   3   4
ENDBRANCH   2   3
ENDBRANCH   1   2
BRANCH   1  30
ATOM     30  C   UNL A   1      36.738  20.420  24.930  1.00  0.00     0.002 C 
BRANCH  30  31
ATOM     31  C   UNL A   1      37.971  19.514  24.957  1.00  0.00     0.021 C 
BRANCH  31  32
ATOM     32  C   UNL A   1      39.156  20.103  25.716  1.00  0.00     0.116 C 
BRANCH  32  33
ATOM     33  N   UNL A   1      40.225  19.131  25.869  1.00  0.00    -0.352 N 
ATOM     34  C   UNL A   1      41.558  19.344  26.105  1.00  0.00     0.251 C 
ATOM     35  H   UNL A   1      39.953  18.187  25.795  1.00  0.00     0.163 HD
ATOM     36  O   UNL A   1      42.366  18.433  25.969  1.00  0.00    -0.269 OA
BRANCH  34  37
ATOM     37  C   UNL A   1      42.022  20.685  26.521  1.00  0.00     0.039 A 
ATOM     38  C   UNL A   1      42.355  21.621  25.538  1.00  0.00     0.014 A 
ATOM     39  C   UNL A   1      42.157  21.003  27.874  1.00  0.00     0.014 A 
ATOM     40  C   UNL A   1      42.793  22.891  25.916  1.00  0.00     0.010 A 
ATOM     41  C   UNL A   1      42.527  22.291  28.250  1.00  0.00     0.010 A 
ATOM     42  C   UNL A   1      42.864  23.241  27.274  1.00  0.00    -0.014 A 
BRANCH  42  43
ATOM     43  C   UNL A   1      43.329  24.585  27.698  1.00  0.00     0.031 A 
ATOM     44  C   UNL A   1      42.323  25.647  28.048  1.00  0.00     0.074 A 
ATOM     45  C   UNL A   1      44.647  24.865  27.713  1.00  0.00     0.049 A 
ATOM     46  N   UNL A   1      42.518  26.904  28.361  1.00  0.00    -0.248 NA
ATOM     47  C   UNL A   1      40.904  25.253  28.013  1.00  0.00     0.031 C 
ATOM     48  C   UNL A   1      45.714  23.930  27.354  1.00  0.00     0.029 A 
ATOM     49  N   UNL A   1      45.310  26.024  28.029  1.00  0.00    -0.354 N 
ATOM     50  C   UNL A   1      41.253  27.449  28.537  1.00  0.00     0.074 A 
ATOM     51  C   UNL A   1      40.296  26.406  28.251  1.00  0.00     0.031 C 
ATOM     52  C   UNL A   1      46.900  24.547  27.488  1.00  0.00     0.029 A 
ATOM     53  C   UNL A   1      46.676  25.927  27.905  1.00  0.00     0.049 A 
ATOM     54  H   UNL A   1      44.853  26.847  28.317  1.00  0.00     0.167 HD
ATOM     55  C   UNL A   1      40.923  28.705  28.926  1.00  0.00     0.037 A 
ATOM     56  C   UNL A   1      47.633  26.853  28.100  1.00  0.00     0.037 A 
ATOM     57  C   UNL A   1      41.881  29.728  29.250  1.00  0.00     0.049 A 
ATOM     58  C   UNL A   1      47.236  28.236  28.544  1.00  0.00     0.074 A 
ATOM     59  C   UNL A   1      41.649  31.010  29.715  1.00  0.00     0.029 A 
ATOM     60  N   UNL A   1      43.256  29.581  29.147  1.00  0.00    -0.354 N 
ATOM     61  N   UNL A   1      46.039  28.722  28.772  1.00  0.00    -0.248 NA
ATOM     62  C   UNL A   1      48.324  29.199  28.766  1.00  0.00     0.031 C 
ATOM     63  C   UNL A   1      42.883  31.654  29.856  1.00  0.00     0.029 A 
ATOM     64  C   UNL A   1      43.885  30.755  29.526  1.00  0.00     0.049 A 
ATOM     65  H   UNL A   1      43.717  28.763  28.851  1.00  0.00     0.167 HD
ATOM     66  C   UNL A   1      46.232  30.028  29.201  1.00  0.00     0.074 A 
ATOM     67  C   UNL A   1      47.662  30.257  29.211  1.00  0.00     0.031 C 
ATOM     68  C   UNL A   1      45.310  30.956  29.553  1.00  0.00     0.037 A 
BRANCH  55  69
ATOM     69  C   UNL A   1      39.465  29.044  29.032  1.00  0.00     0.064 A 
ATOM     70  C   UNL A   1      38.707  29.394  27.905  1.00  0.00     0.173 A 
ATOM     71  C   UNL A   1      38.805  28.963  30.268  1.00  0.00     0.173 A 
ATOM     72  F   UNL A   1      39.293  29.497  26.702  1.00  0.00    -0.203 F 
ATOM     73  C   UNL A   1      37.346  29.668  28.013  1.00  0.00     0.198 A 
ATOM     74  C   UNL A   1      37.439  29.210  30.368  1.00  0.00     0.198 A 
ATOM     75  F   UNL A   1      39.483  28.629  31.376  1.00  0.00    -0.203 F 
ATOM     76  F   UNL A   1      36.650  30.039  26.930  1.00  0.00    -0.200 F 
ATOM     77  C   UNL A   1      36.711  29.567  29.243  1.00  0.00     0.200 A 
ATOM     78  F   UNL A   1      36.824  29.100  31.554  1.00  0.00    -0.200 F 
ATOM     79  F   UNL A   1      35.399  29.818  29.343  1.00  0.00    -0.200 F 
ENDBRANCH  55  69
BRANCH  56  80
ATOM     80  C   UNL A   1      49.065  26.504  27.902  1.00  0.00     0.064 A 
ATOM     81  C   UNL A   1      49.892  26.207  28.996  1.00  0.00     0.173 A 
ATOM     82  C   UNL A   1      49.643  26.487  26.625  1.00  0.00     0.173 A 
ATOM     83  F   UNL A   1      49.390  26.230  30.239  1.00  0.00    -0.203 F 
ATOM     84  C   UNL A   1      51.247  25.940  28.823  1.00  0.00     0.198 A 
ATOM     85  C   UNL A   1      50.993  26.189  26.450  1.00  0.00     0.198 A 
ATOM     86  F   UNL A   1      48.895  26.756  25.545  1.00  0.00    -0.203 F 
ATOM     87  F   UNL A   1      52.026  25.719  29.890  1.00  0.00    -0.200 F 
ATOM     88  C   UNL A   1      51.796  25.928  27.550  1.00  0.00     0.200 A 
ATOM     89  F   UNL A   1      51.517  26.164  25.217  1.00  0.00    -0.200 F 
ATOM     90  F   UNL A   1      53.103  25.675  27.383  1.00  0.00    -0.200 F 
ENDBRANCH  56  80
BRANCH  68  91
ATOM     91  C   UNL A   1      45.818  32.284  30.034  1.00  0.00     0.064 A 
ATOM     92  C   UNL A   1      46.009  33.362  29.159  1.00  0.00     0.173 A 
ATOM     93  C   UNL A   1      46.074  32.489  31.399  1.00  0.00     0.173 A 
ATOM     94  F   UNL A   1      45.789  33.211  27.844  1.00  0.00    -0.203 F 
ATOM     95  C   UNL A   1      46.464  34.591  29.628  1.00  0.00     0.198 A 
ATOM     96  C   UNL A   1      46.501  33.727  31.869  1.00  0.00     0.198 A 
ATOM     97  F   UNL A   1      45.900  31.491  32.277  1.00  0.00    -0.203 F 
ATOM     98  F   UNL A   1      46.687  35.594  28.768  1.00  0.00    -0.200 F 
ATOM     99  C   UNL A   1      46.702  34.775  30.983  1.00  0.00     0.200 A 
ATOM    100  F   UNL A   1      46.716  33.907  33.179  1.00  0.00    -0.200 F 
ATOM    101  F   UNL A   1      47.133  35.961  31.433  1.00  0.00    -0.200 F 
ENDBRANCH  68  91
ENDBRANCH  42  43
ENDBRANCH  34  37
ENDBRANCH  32  33
ENDBRANCH  31  32
ENDBRANCH  30  31
ENDBRANCH   1  30
TORSDOF 18
ENDMDL
MODEL 3
REMARK VINA RESULT:     -12.2      1.502      2.444
REMARK SMILES CCCc1cc(OC(F)(F)F)cc2c1O[C@@H](C(F)(F)F)C(C(=O)NCCCCCCNC(=O)c1ccc(-c3c4nc(c(-c5c(F)c(F)c(F)c(F)c5F)c5ccc([nH]5)c(-c5c(F)c(F)c(F)c(F)c5F)c5nc(c(-c6c(F)c(F)c(F)c(F)c6F)c6ccc3[nH]6)C=C5)C=C4)cc1)=C2
REMARK SMILES IDX 27 1 26 2 25 3 24 4 22 5 23 6 21 8 4 9 5 10 14 11 6 12 13 13
REMARK SMILES IDX 15 14 12 15 97 16 16 17 3 18 2 19 1 20 7 21 8 22 9 23 10 24
REMARK SMILES IDX 11 25 17 26 18 27 19 28 20 29 28 30 29 31 30 32 31 33 32 34
REMARK SMILES IDX 33 36 34 37 35 38 96 39 36 40 95 41 37 42 38 43 39 44 89 45
REMARK SMILES IDX 40 46 94 47 88 48 90 49 41 50 93 51 87 52 86 53 42 55 74 56
REMARK SMILES IDX 54 57 73 58 55 59 58 60 72 61 91 62 56 63 57 64 71 66 92 67
REMARK SMILES IDX 59 68 43 69 44 70 52 71 45 72 46 73 50 74 53 75 47 76 48 77
REMARK SMILES IDX 51 78 49 79 75 80 76 81 84 82 77 83 78 84 82 85 85 86 79 87
REMARK SMILES IDX 80 88 83 89 81 90 60 91 61 92 69 93 62 94 63 95 67 96 70 97
REMARK SMILES IDX 64 98 65 99 68 100 66 101
REMARK H PARENT 24 7 31 35 90 54 58 65
REMARK Flexibility Score: inf
ROOT
ATOM      1  C   UNL A   1      32.233  29.946  26.838  1.00  0.00     0.002 C 
ENDROOT
BRANCH   1   2
ATOM      2  C   UNL A   1      31.420  28.826  27.502  1.00  0.00     0.021 C 
BRANCH   2   3
ATOM      3  C   UNL A   1      31.738  27.441  26.927  1.00  0.00     0.116 C 
BRANCH   3   4
ATOM      4  N   UNL A   1      30.639  27.019  26.078  1.00  0.00    -0.352 N 
ATOM      5  C   UNL A   1      30.559  26.100  25.083  1.00  0.00     0.251 C 
ATOM      6  O   UNL A   1      29.583  26.134  24.341  1.00  0.00    -0.270 OA
ATOM      7  H   UNL A   1      29.793  27.488  26.257  1.00  0.00     0.163 HD
BRANCH   5   8
ATOM      8  C   UNL A   1      31.553  25.008  24.925  1.00  0.00     0.067 C 
ATOM      9  C   UNL A   1      34.515  22.140  24.141  1.00  0.00    -0.002 A 
ATOM     10  C   UNL A   1      34.297  20.806  24.537  1.00  0.00     0.054 A 
ATOM     11  C   UNL A   1      33.500  23.080  24.362  1.00  0.00     0.131 A 
ATOM     12  C   UNL A   1      33.116  20.432  25.182  1.00  0.00     0.130 A 
ATOM     13  C   UNL A   1      32.351  22.735  25.073  1.00  0.00     0.021 A 
ATOM     14  O   UNL A   1      33.640  24.311  23.792  1.00  0.00    -0.475 OA
ATOM     15  C   UNL A   1      32.161  21.411  25.473  1.00  0.00     0.058 A 
ATOM     16  C   UNL A   1      31.334  23.747  25.329  1.00  0.00     0.025 C 
ATOM     17  C   UNL A   1      32.927  25.418  24.406  1.00  0.00     0.314 C 
BRANCH   9  18
ATOM     18  C   UNL A   1      35.834  22.512  23.493  1.00  0.00     0.039 C 
BRANCH  18  19
ATOM     19  C   UNL A   1      37.050  22.606  24.432  1.00  0.00     0.001 C 
ATOM     20  C   UNL A   1      36.946  23.698  25.489  1.00  0.00     0.004 C 
ENDBRANCH  18  19
ENDBRANCH   9  18
BRANCH  12  21
ATOM     21  O   UNL A   1      32.769  19.174  25.581  1.00  0.00    -0.406 OA
BRANCH  21  22
ATOM     22  C   UNL A   1      32.629  18.174  24.585  1.00  0.00     0.573 C 
ATOM     23  F   UNL A   1      31.818  17.178  25.001  1.00  0.00    -0.132 F 
ATOM     24  F   UNL A   1      32.151  18.699  23.438  1.00  0.00    -0.132 F 
ATOM     25  F   UNL A   1      33.847  17.645  24.332  1.00  0.00    -0.132 F 
ENDBRANCH  21  22
ENDBRANCH  12  21
BRANCH  17  26
ATOM     26  C   UNL A   1      32.991  26.596  23.407  1.00  0.00     0.429 C 
ATOM     27  F   UNL A   1      34.032  26.501  22.550  1.00  0.00    -0.167 F 
ATOM     28  F   UNL A   1      31.881  26.622  22.620  1.00  0.00    -0.167 F 
ATOM     29  F   UNL A   1      33.055  27.797  24.027  1.00  0.00    -0.167 F 
ENDBRANCH  17  26
ENDBRANCH   5   8
ENDBRANCH   3   4
ENDBRANCH   2   3
ENDBRANCH   1   2
BRANCH   1  30
ATOM     30  C   UNL A   1      31.403  30.897  25.967  1.00  0.00     0.002 C 
BRANCH  30  31
ATOM     31  C   UNL A   1      31.300  32.328  26.502  1.00  0.00     0.021 C 
BRANCH  31  32
ATOM     32  C   UNL A   1      32.557  32.816  27.213  1.00  0.00     0.116 C 
BRANCH  32  33
ATOM     33  N   UNL A   1      32.429  34.203  27.627  1.00  0.00    -0.352 N 
ATOM     34  C   UNL A   1      33.048  34.856  28.662  1.00  0.00     0.251 C 
ATOM     35  H   UNL A   1      31.813  34.751  27.088  1.00  0.00     0.163 HD
ATOM     36  O   UNL A   1      32.652  35.957  29.025  1.00  0.00    -0.269 OA
BRANCH  34  37
ATOM     37  C   UNL A   1      34.195  34.222  29.344  1.00  0.00     0.039 A 
ATOM     38  C   UNL A   1      35.485  34.462  28.862  1.00  0.00     0.014 A 
ATOM     39  C   UNL A   1      33.996  33.370  30.433  1.00  0.00     0.014 A 
ATOM     40  C   UNL A   1      36.579  33.872  29.497  1.00  0.00     0.010 A 
ATOM     41  C   UNL A   1      35.090  32.837  31.107  1.00  0.00     0.010 A 
ATOM     42  C   UNL A   1      36.391  33.070  30.635  1.00  0.00    -0.014 A 
BRANCH  42  43
ATOM     43  C   UNL A   1      37.540  32.431  31.323  1.00  0.00     0.031 A 
ATOM     44  C   UNL A   1      38.254  31.279  30.672  1.00  0.00     0.074 A 
ATOM     45  C   UNL A   1      37.902  32.849  32.552  1.00  0.00     0.049 A 
ATOM     46  N   UNL A   1      39.224  30.534  31.140  1.00  0.00    -0.248 NA
ATOM     47  C   UNL A   1      37.799  30.892  29.326  1.00  0.00     0.031 C 
ATOM     48  C   UNL A   1      37.258  33.929  33.301  1.00  0.00     0.029 A 
ATOM     49  N   UNL A   1      38.891  32.404  33.392  1.00  0.00    -0.354 N 
ATOM     50  C   UNL A   1      39.476  29.583  30.158  1.00  0.00     0.074 A 
ATOM     51  C   UNL A   1      38.530  29.813  29.090  1.00  0.00     0.031 C 
ATOM     52  C   UNL A   1      37.881  34.074  34.483  1.00  0.00     0.029 A 
ATOM     53  C   UNL A   1      38.941  33.077  34.589  1.00  0.00     0.049 A 
ATOM     54  H   UNL A   1      39.507  31.672  33.159  1.00  0.00     0.167 HD
ATOM     55  C   UNL A   1      40.428  28.620  30.142  1.00  0.00     0.037 A 
ATOM     56  C   UNL A   1      39.748  32.900  35.651  1.00  0.00     0.037 A 
ATOM     57  C   UNL A   1      41.395  28.423  31.189  1.00  0.00     0.049 A 
ATOM     58  C   UNL A   1      40.805  31.830  35.599  1.00  0.00     0.074 A 
ATOM     59  C   UNL A   1      42.440  27.517  31.238  1.00  0.00     0.029 A 
ATOM     60  N   UNL A   1      41.437  29.148  32.370  1.00  0.00    -0.354 N 
ATOM     61  N   UNL A   1      41.078  30.980  34.637  1.00  0.00    -0.248 NA
ATOM     62  C   UNL A   1      41.674  31.698  36.777  1.00  0.00     0.031 C 
ATOM     63  C   UNL A   1      43.090  27.667  32.467  1.00  0.00     0.029 A 
ATOM     64  C   UNL A   1      42.481  28.700  33.162  1.00  0.00     0.049 A 
ATOM     65  H   UNL A   1      40.817  29.875  32.610  1.00  0.00     0.167 HD
ATOM     66  C   UNL A   1      42.170  30.244  35.076  1.00  0.00     0.074 A 
ATOM     67  C   UNL A   1      42.517  30.752  36.387  1.00  0.00     0.031 C 
ATOM     68  C   UNL A   1      42.826  29.236  34.452  1.00  0.00     0.037 A 
BRANCH  55  69
ATOM     69  C   UNL A   1      40.481  27.708  28.952  1.00  0.00     0.064 A 
ATOM     70  C   UNL A   1      41.323  27.971  27.860  1.00  0.00     0.173 A 
ATOM     71  C   UNL A   1      39.723  26.527  28.927  1.00  0.00     0.173 A 
ATOM     72  F   UNL A   1      42.059  29.092  27.830  1.00  0.00    -0.203 F 
ATOM     73  C   UNL A   1      41.390  27.095  26.780  1.00  0.00     0.198 A 
ATOM     74  C   UNL A   1      39.815  25.639  27.858  1.00  0.00     0.198 A 
ATOM     75  F   UNL A   1      38.906  26.227  29.947  1.00  0.00    -0.203 F 
ATOM     76  F   UNL A   1      42.171  27.386  25.730  1.00  0.00    -0.200 F 
ATOM     77  C   UNL A   1      40.643  25.925  26.784  1.00  0.00     0.200 A 
ATOM     78  F   UNL A   1      39.102  24.504  27.869  1.00  0.00    -0.200 F 
ATOM     79  F   UNL A   1      40.719  25.077  25.750  1.00  0.00    -0.200 F 
ENDBRANCH  55  69
BRANCH  56  80
ATOM     80  C   UNL A   1      39.610  33.769  36.850  1.00  0.00     0.064 A 
ATOM     81  C   UNL A   1      40.312  34.979  36.947  1.00  0.00     0.173 A 
ATOM     82  C   UNL A   1      38.800  33.397  37.932  1.00  0.00     0.173 A 
ATOM     83  F   UNL A   1      41.115  35.369  35.947  1.00  0.00    -0.203 F 
ATOM     84  C   UNL A   1      40.235  35.767  38.093  1.00  0.00     0.198 A 
ATOM     85  C   UNL A   1      38.699  34.202  39.066  1.00  0.00     0.198 A 
ATOM     86  F   UNL A   1      38.101  32.253  37.888  1.00  0.00    -0.203 F 
ATOM     87  F   UNL A   1      40.962  36.888  38.183  1.00  0.00    -0.200 F 
ATOM     88  C   UNL A   1      39.426  35.379  39.150  1.00  0.00     0.200 A 
ATOM     89  F   UNL A   1      37.906  33.830  40.080  1.00  0.00    -0.200 F 
ATOM     90  F   UNL A   1      39.355  36.135  40.256  1.00  0.00    -0.200 F 
ENDBRANCH  56  80
BRANCH  68  91
ATOM     91  C   UNL A   1      44.020  28.654  35.151  1.00  0.00     0.064 A 
ATOM     92  C   UNL A   1      45.305  29.187  34.986  1.00  0.00     0.173 A 
ATOM     93  C   UNL A   1      43.862  27.573  36.033  1.00  0.00     0.173 A 
ATOM     94  F   UNL A   1      45.508  30.212  34.145  1.00  0.00    -0.203 F 
ATOM     95  C   UNL A   1      46.396  28.643  35.658  1.00  0.00     0.198 A 
ATOM     96  C   UNL A   1      44.951  27.050  36.726  1.00  0.00     0.198 A 
ATOM     97  F   UNL A   1      42.652  27.032  36.231  1.00  0.00    -0.203 F 
ATOM     98  F   UNL A   1      47.625  29.136  35.449  1.00  0.00    -0.200 F 
ATOM     99  C   UNL A   1      46.217  27.580  36.533  1.00  0.00     0.200 A 
ATOM    100  F   UNL A   1      44.773  26.034  37.582  1.00  0.00    -0.200 F 
ATOM    101  F   UNL A   1      47.267  27.063  37.184  1.00  0.00    -0.200 F 
ENDBRANCH  68  91
ENDBRANCH  42  43
ENDBRANCH  34  37
ENDBRANCH  32  33
ENDBRANCH  31  32
ENDBRANCH  30  31
ENDBRANCH   1  30
TORSDOF 18
ENDMDL
