MODEL 1
REMARK VINA RESULT:     -13.7      0.000      0.000
REMARK SMILES COc1cccc(-c2nn(-c3cc4c(cc3C(N)=O)OCO4)cc2C(=O)NCCCCCCNC(=O)c2ccc(-c3c4nc(c(-c5c(F)c(F)c(F)c(F)c5F)c5ccc([nH]5)c(-c5c(F)c(F)c(F)c(F)c5F)c5nc(c(-c6c(F)c(F)c(F)c(F)c6F)c6ccc3[nH]6)C=C5)C=C4)cc2)c1
REMARK SMILES IDX 30 1 29 2 28 3 27 4 25 5 26 6 24 8 8 9 9 10 10 11 23 12 7 13
REMARK SMILES IDX 3 14 4 15 100 16 5 17 6 18 2 19 1 20 11 21 12 22 16 23 13 24
REMARK SMILES IDX 15 25 14 26 22 27 20 28 21 29 17 30 18 31 19 32 31 35 32 36
REMARK SMILES IDX 33 37 34 38 35 39 36 41 37 42 38 43 99 44 39 45 98 46 40 47
REMARK SMILES IDX 41 48 42 49 92 50 43 51 97 52 91 53 93 54 44 55 96 56 90 57
REMARK SMILES IDX 89 58 45 60 77 61 57 62 76 63 58 64 61 65 75 66 94 67 59 68
REMARK SMILES IDX 60 69 74 71 95 72 62 73 46 74 47 75 55 76 48 77 49 78 53 79
REMARK SMILES IDX 56 80 50 81 51 82 54 83 52 84 78 85 79 86 87 87 80 88 81 89
REMARK SMILES IDX 85 90 88 91 82 92 83 93 86 94 84 95 63 96 64 97 72 98 65 99
REMARK SMILES IDX 66 100 70 101 73 102 67 103 68 104 71 105 69 106
REMARK H PARENT 27 7 18 33 18 34 34 40 93 59 61 70
REMARK Flexibility Score: inf
ROOT
ATOM      1  C   UNL A   1      39.978  20.381  26.191  1.00  0.00     0.002 C 
ENDROOT
BRANCH   1   2
ATOM      2  C   UNL A   1      39.544  21.848  26.092  1.00  0.00     0.021 C 
BRANCH   2   3
ATOM      3  C   UNL A   1      38.033  22.014  25.936  1.00  0.00     0.116 C 
BRANCH   3   4
ATOM      4  N   UNL A   1      37.702  22.318  24.563  1.00  0.00    -0.352 N 
ATOM      5  C   UNL A   1      36.594  22.847  23.956  1.00  0.00     0.255 C 
ATOM      6  O   UNL A   1      36.675  22.962  22.733  1.00  0.00    -0.269 OA
ATOM      7  H   UNL A   1      38.424  22.099  23.931  1.00  0.00     0.163 HD
BRANCH   5   8
ATOM      8  C   UNL A   1      35.428  23.294  24.708  1.00  0.00     0.086 A 
ATOM      9  C   UNL A   1      34.175  22.605  24.881  1.00  0.00     0.106 A 
ATOM     10  N   UNL A   1      33.260  23.387  25.496  1.00  0.00    -0.167 NA
ATOM     11  N   UNL A   1      33.874  24.587  25.568  1.00  0.00    -0.239 N 
ATOM     12  C   UNL A   1      35.234  24.446  25.438  1.00  0.00     0.129 A 
BRANCH   9  13
ATOM     13  C   UNL A   1      33.865  21.234  24.475  1.00  0.00     0.007 A 
ATOM     14  C   UNL A   1      34.358  18.861  24.491  1.00  0.00     0.119 A 
ATOM     15  C   UNL A   1      33.157  18.610  23.822  1.00  0.00     0.046 A 
ATOM     16  C   UNL A   1      34.719  20.174  24.808  1.00  0.00     0.056 A 
ATOM     17  C   UNL A   1      32.309  19.659  23.477  1.00  0.00     0.005 A 
ATOM     18  C   UNL A   1      32.667  20.968  23.793  1.00  0.00     0.011 A 
BRANCH  14  19
ATOM     19  O   UNL A   1      35.122  17.752  24.738  1.00  0.00    -0.497 OA
ATOM     20  C   UNL A   1      34.434  16.509  24.678  1.00  0.00     0.278 C 
ENDBRANCH  14  19
ENDBRANCH   9  13
BRANCH  11  21
ATOM     21  C   UNL A   1      33.221  25.792  25.924  1.00  0.00     0.081 A 
ATOM     22  C   UNL A   1      34.013  26.934  26.142  1.00  0.00     0.079 A 
ATOM     23  C   UNL A   1      31.795  25.872  25.965  1.00  0.00     0.069 A 
ATOM     24  C   UNL A   1      33.356  28.137  26.309  1.00  0.00     0.167 A 
ATOM     25  C   UNL A   1      31.182  27.133  26.046  1.00  0.00     0.066 A 
ATOM     26  C   UNL A   1      31.986  28.233  26.232  1.00  0.00     0.166 A 
ATOM     27  O   UNL A   1      33.932  29.347  26.546  1.00  0.00    -0.454 OA
ATOM     28  O   UNL A   1      31.537  29.504  26.411  1.00  0.00    -0.454 OA
ATOM     29  C   UNL A   1      32.763  30.153  26.808  1.00  0.00     0.468 C 
BRANCH  23  30
ATOM     30  C   UNL A   1      30.921  24.658  26.122  1.00  0.00     0.251 C 
ATOM     31  N   UNL A   1      30.360  24.119  24.995  1.00  0.00    -0.366 N 
ATOM     32  O   UNL A   1      30.625  24.158  27.199  1.00  0.00    -0.269 OA
ATOM     33  H   UNL A   1      30.576  24.495  24.110  1.00  0.00     0.159 HD
ATOM     34  H   UNL A   1      29.742  23.356  25.068  1.00  0.00     0.159 HD
ENDBRANCH  23  30
ENDBRANCH  11  21
ENDBRANCH   5   8
ENDBRANCH   3   4
ENDBRANCH   2   3
ENDBRANCH   1   2
BRANCH   1  35
ATOM     35  C   UNL A   1      41.444  20.155  26.599  1.00  0.00     0.002 C 
BRANCH  35  36
ATOM     36  C   UNL A   1      42.094  18.857  26.094  1.00  0.00     0.021 C 
BRANCH  36  37
ATOM     37  C   UNL A   1      43.597  18.813  26.305  1.00  0.00     0.116 C 
BRANCH  37  38
ATOM     38  N   UNL A   1      44.332  18.839  25.042  1.00  0.00    -0.352 N 
ATOM     39  C   UNL A   1      44.580  19.917  24.216  1.00  0.00     0.251 C 
ATOM     40  H   UNL A   1      44.697  17.975  24.741  1.00  0.00     0.163 HD
ATOM     41  O   UNL A   1      44.854  19.763  23.039  1.00  0.00    -0.269 OA
BRANCH  39  42
ATOM     42  C   UNL A   1      44.508  21.272  24.793  1.00  0.00     0.039 A 
ATOM     43  C   UNL A   1      43.447  22.129  24.490  1.00  0.00     0.014 A 
ATOM     44  C   UNL A   1      45.520  21.668  25.663  1.00  0.00     0.014 A 
ATOM     45  C   UNL A   1      43.381  23.360  25.134  1.00  0.00     0.010 A 
ATOM     46  C   UNL A   1      45.364  22.801  26.419  1.00  0.00     0.010 A 
ATOM     47  C   UNL A   1      44.333  23.680  26.117  1.00  0.00    -0.014 A 
BRANCH  47  48
ATOM     48  C   UNL A   1      44.181  24.878  26.933  1.00  0.00     0.031 A 
ATOM     49  C   UNL A   1      45.205  25.924  26.666  1.00  0.00     0.074 A 
ATOM     50  C   UNL A   1      43.100  25.119  27.707  1.00  0.00     0.049 A 
ATOM     51  N   UNL A   1      46.099  26.366  27.486  1.00  0.00    -0.248 NA
ATOM     52  C   UNL A   1      45.350  26.440  25.294  1.00  0.00     0.031 C 
ATOM     53  C   UNL A   1      41.875  24.324  27.842  1.00  0.00     0.029 A 
ATOM     54  N   UNL A   1      42.824  26.208  28.474  1.00  0.00    -0.354 N 
ATOM     55  C   UNL A   1      46.791  27.360  26.802  1.00  0.00     0.074 A 
ATOM     56  C   UNL A   1      46.411  27.239  25.419  1.00  0.00     0.031 C 
ATOM     57  C   UNL A   1      40.911  25.070  28.425  1.00  0.00     0.029 A 
ATOM     58  C   UNL A   1      41.490  26.329  28.851  1.00  0.00     0.049 A 
ATOM     59  H   UNL A   1      43.514  26.860  28.741  1.00  0.00     0.167 HD
ATOM     60  C   UNL A   1      47.414  28.360  27.483  1.00  0.00     0.037 A 
ATOM     61  C   UNL A   1      40.909  27.411  29.430  1.00  0.00     0.037 A 
ATOM     62  C   UNL A   1      47.643  27.988  28.860  1.00  0.00     0.049 A 
ATOM     63  C   UNL A   1      42.001  28.218  30.037  1.00  0.00     0.074 A 
ATOM     64  C   UNL A   1      48.276  26.919  29.469  1.00  0.00     0.029 A 
ATOM     65  N   UNL A   1      46.835  28.531  29.829  1.00  0.00    -0.354 N 
ATOM     66  N   UNL A   1      42.707  27.820  31.060  1.00  0.00    -0.248 NA
ATOM     67  C   UNL A   1      42.629  29.229  29.198  1.00  0.00     0.031 C 
ATOM     68  C   UNL A   1      47.420  26.559  30.552  1.00  0.00     0.029 A 
ATOM     69  C   UNL A   1      46.381  27.488  30.598  1.00  0.00     0.049 A 
ATOM     70  H   UNL A   1      46.622  29.484  29.950  1.00  0.00     0.167 HD
ATOM     71  C   UNL A   1      44.008  28.177  30.744  1.00  0.00     0.074 A 
ATOM     72  C   UNL A   1      43.891  29.100  29.616  1.00  0.00     0.031 C 
ATOM     73  C   UNL A   1      45.076  27.466  31.214  1.00  0.00     0.037 A 
BRANCH  60  74
ATOM     74  C   UNL A   1      47.452  29.793  27.012  1.00  0.00     0.064 A 
ATOM     75  C   UNL A   1      48.643  30.531  27.157  1.00  0.00     0.173 A 
ATOM     76  C   UNL A   1      46.298  30.552  26.716  1.00  0.00     0.173 A 
ATOM     77  F   UNL A   1      49.793  29.917  27.466  1.00  0.00    -0.203 F 
ATOM     78  C   UNL A   1      48.657  31.927  27.088  1.00  0.00     0.198 A 
ATOM     79  C   UNL A   1      46.327  31.939  26.593  1.00  0.00     0.198 A 
ATOM     80  F   UNL A   1      45.079  30.005  26.651  1.00  0.00    -0.203 F 
ATOM     81  F   UNL A   1      49.786  32.594  27.365  1.00  0.00    -0.200 F 
ATOM     82  C   UNL A   1      47.498  32.630  26.811  1.00  0.00     0.200 A 
ATOM     83  F   UNL A   1      45.188  32.601  26.346  1.00  0.00    -0.200 F 
ATOM     84  F   UNL A   1      47.497  33.969  26.807  1.00  0.00    -0.200 F 
ENDBRANCH  60  74
BRANCH  61  85
ATOM     85  C   UNL A   1      39.543  27.956  29.203  1.00  0.00     0.064 A 
ATOM     86  C   UNL A   1      38.639  28.103  30.270  1.00  0.00     0.173 A 
ATOM     87  C   UNL A   1      39.192  28.603  28.002  1.00  0.00     0.173 A 
ATOM     88  F   UNL A   1      38.911  27.558  31.466  1.00  0.00    -0.203 F 
ATOM     89  C   UNL A   1      37.479  28.879  30.153  1.00  0.00     0.198 A 
ATOM     90  C   UNL A   1      38.030  29.369  27.883  1.00  0.00     0.198 A 
ATOM     91  F   UNL A   1      40.015  28.592  26.944  1.00  0.00    -0.203 F 
ATOM     92  F   UNL A   1      36.680  29.053  31.216  1.00  0.00    -0.200 F 
ATOM     93  C   UNL A   1      37.182  29.521  28.964  1.00  0.00     0.200 A 
ATOM     94  F   UNL A   1      37.775  30.013  26.736  1.00  0.00    -0.200 F 
ATOM     95  F   UNL A   1      36.108  30.316  28.870  1.00  0.00    -0.200 F 
ENDBRANCH  61  85
BRANCH  73  96
ATOM     96  C   UNL A   1      44.845  26.427  32.277  1.00  0.00     0.064 A 
ATOM     97  C   UNL A   1      44.713  26.707  33.650  1.00  0.00     0.173 A 
ATOM     98  C   UNL A   1      44.585  25.112  31.866  1.00  0.00     0.173 A 
ATOM     99  F   UNL A   1      44.840  27.954  34.118  1.00  0.00    -0.203 F 
ATOM    100  C   UNL A   1      44.381  25.707  34.565  1.00  0.00     0.198 A 
ATOM    101  C   UNL A   1      44.213  24.125  32.774  1.00  0.00     0.198 A 
ATOM    102  F   UNL A   1      44.641  24.793  30.563  1.00  0.00    -0.203 F 
ATOM    103  F   UNL A   1      44.272  25.999  35.870  1.00  0.00    -0.200 F 
ATOM    104  C   UNL A   1      44.122  24.420  34.125  1.00  0.00     0.200 A 
ATOM    105  F   UNL A   1      43.914  22.895  32.336  1.00  0.00    -0.200 F 
ATOM    106  F   UNL A   1      43.759  23.470  34.997  1.00  0.00    -0.200 F 
ENDBRANCH  73  96
ENDBRANCH  47  48
ENDBRANCH  39  42
ENDBRANCH  37  38
ENDBRANCH  36  37
ENDBRANCH  35  36
ENDBRANCH   1  35
TORSDOF 17
ENDMDL
MODEL 2
REMARK VINA RESULT:     -13.4      2.805      4.219
REMARK SMILES COc1cccc(-c2nn(-c3cc4c(cc3C(N)=O)OCO4)cc2C(=O)NCCCCCCNC(=O)c2ccc(-c3c4nc(c(-c5c(F)c(F)c(F)c(F)c5F)c5ccc([nH]5)c(-c5c(F)c(F)c(F)c(F)c5F)c5nc(c(-c6c(F)c(F)c(F)c(F)c6F)c6ccc3[nH]6)C=C5)C=C4)cc2)c1
REMARK SMILES IDX 30 1 29 2 28 3 27 4 25 5 26 6 24 8 8 9 9 10 10 11 23 12 7 13
REMARK SMILES IDX 3 14 4 15 100 16 5 17 6 18 2 19 1 20 11 21 12 22 16 23 13 24
REMARK SMILES IDX 15 25 14 26 22 27 20 28 21 29 17 30 18 31 19 32 31 35 32 36
REMARK SMILES IDX 33 37 34 38 35 39 36 41 37 42 38 43 99 44 39 45 98 46 40 47
REMARK SMILES IDX 41 48 42 49 92 50 43 51 97 52 91 53 93 54 44 55 96 56 90 57
REMARK SMILES IDX 89 58 45 60 77 61 57 62 76 63 58 64 61 65 75 66 94 67 59 68
REMARK SMILES IDX 60 69 74 71 95 72 62 73 46 74 47 75 55 76 48 77 49 78 53 79
REMARK SMILES IDX 56 80 50 81 51 82 54 83 52 84 78 85 79 86 87 87 80 88 81 89
REMARK SMILES IDX 85 90 88 91 82 92 83 93 86 94 84 95 63 96 64 97 72 98 65 99
REMARK SMILES IDX 66 100 70 101 73 102 67 103 68 104 71 105 69 106
REMARK H PARENT 27 7 18 33 18 34 34 40 93 59 61 70
REMARK Flexibility Score: inf
ROOT
ATOM      1  C   UNL A   1      36.654  21.135  24.826  1.00  0.00     0.002 C 
ENDROOT
BRANCH   1   2
ATOM      2  C   UNL A   1      36.654  22.324  23.858  1.00  0.00     0.021 C 
BRANCH   2   3
ATOM      3  C   UNL A   1      35.722  23.451  24.298  1.00  0.00     0.116 C 
BRANCH   3   4
ATOM      4  N   UNL A   1      35.140  23.146  25.585  1.00  0.00    -0.352 N 
ATOM      5  C   UNL A   1      33.861  23.186  26.075  1.00  0.00     0.255 C 
ATOM      6  O   UNL A   1      33.744  22.848  27.252  1.00  0.00    -0.269 OA
ATOM      7  H   UNL A   1      35.802  22.846  26.249  1.00  0.00     0.163 HD
BRANCH   5   8
ATOM      8  C   UNL A   1      32.717  23.548  25.248  1.00  0.00     0.086 A 
ATOM      9  C   UNL A   1      32.034  22.727  24.282  1.00  0.00     0.106 A 
ATOM     10  N   UNL A   1      31.125  23.438  23.579  1.00  0.00    -0.167 NA
ATOM     11  N   UNL A   1      31.341  24.707  23.987  1.00  0.00    -0.239 N 
ATOM     12  C   UNL A   1      32.004  24.725  25.190  1.00  0.00     0.129 A 
BRANCH   9  13
ATOM     13  C   UNL A   1      32.242  21.298  24.043  1.00  0.00     0.007 A 
ATOM     14  C   UNL A   1      32.553  19.039  24.866  1.00  0.00     0.119 A 
ATOM     15  C   UNL A   1      32.473  18.554  23.558  1.00  0.00     0.046 A 
ATOM     16  C   UNL A   1      32.450  20.413  25.109  1.00  0.00     0.056 A 
ATOM     17  C   UNL A   1      32.278  19.429  22.492  1.00  0.00     0.005 A 
ATOM     18  C   UNL A   1      32.174  20.797  22.733  1.00  0.00     0.011 A 
BRANCH  14  19
ATOM     19  O   UNL A   1      32.787  18.086  25.820  1.00  0.00    -0.497 OA
ATOM     20  C   UNL A   1      32.571  16.741  25.408  1.00  0.00     0.278 C 
ENDBRANCH  14  19
ENDBRANCH   9  13
BRANCH  11  21
ATOM     21  C   UNL A   1      30.787  25.848  23.357  1.00  0.00     0.081 A 
ATOM     22  C   UNL A   1      29.533  26.305  23.803  1.00  0.00     0.079 A 
ATOM     23  C   UNL A   1      31.520  26.571  22.368  1.00  0.00     0.069 A 
ATOM     24  C   UNL A   1      29.090  27.516  23.310  1.00  0.00     0.167 A 
ATOM     25  C   UNL A   1      31.066  27.840  21.971  1.00  0.00     0.066 A 
ATOM     26  C   UNL A   1      29.849  28.269  22.445  1.00  0.00     0.166 A 
ATOM     27  O   UNL A   1      27.906  28.123  23.599  1.00  0.00    -0.454 OA
ATOM     28  O   UNL A   1      29.240  29.432  22.087  1.00  0.00    -0.454 OA
ATOM     29  C   UNL A   1      27.935  29.224  22.664  1.00  0.00     0.468 C 
BRANCH  23  30
ATOM     30  C   UNL A   1      32.650  25.957  21.587  1.00  0.00     0.251 C 
ATOM     31  N   UNL A   1      32.394  25.536  20.309  1.00  0.00    -0.366 N 
ATOM     32  O   UNL A   1      33.766  25.749  22.042  1.00  0.00    -0.269 OA
ATOM     33  H   UNL A   1      31.506  25.687  19.910  1.00  0.00     0.159 HD
ATOM     34  H   UNL A   1      33.098  25.083  19.790  1.00  0.00     0.159 HD
ENDBRANCH  23  30
ENDBRANCH  11  21
ENDBRANCH   5   8
ENDBRANCH   3   4
ENDBRANCH   2   3
ENDBRANCH   1   2
BRANCH   1  35
ATOM     35  C   UNL A   1      38.036  20.727  25.367  1.00  0.00     0.002 C 
BRANCH  35  36
ATOM     36  C   UNL A   1      38.941  21.874  25.841  1.00  0.00     0.021 C 
BRANCH  36  37
ATOM     37  C   UNL A   1      40.108  21.409  26.695  1.00  0.00     0.116 C 
BRANCH  37  38
ATOM     38  N   UNL A   1      41.385  21.531  25.995  1.00  0.00    -0.352 N 
ATOM     39  C   UNL A   1      42.132  22.670  25.764  1.00  0.00     0.251 C 
ATOM     40  H   UNL A   1      41.762  20.692  25.643  1.00  0.00     0.163 HD
ATOM     41  O   UNL A   1      42.954  22.716  24.866  1.00  0.00    -0.269 OA
BRANCH  39  42
ATOM     42  C   UNL A   1      41.914  23.839  26.636  1.00  0.00     0.039 A 
ATOM     43  C   UNL A   1      42.529  23.929  27.887  1.00  0.00     0.014 A 
ATOM     44  C   UNL A   1      41.091  24.860  26.169  1.00  0.00     0.014 A 
ATOM     45  C   UNL A   1      42.363  25.095  28.628  1.00  0.00     0.010 A 
ATOM     46  C   UNL A   1      41.067  26.066  26.818  1.00  0.00     0.010 A 
ATOM     47  C   UNL A   1      41.648  26.171  28.075  1.00  0.00    -0.014 A 
BRANCH  47  48
ATOM     48  C   UNL A   1      41.615  27.462  28.749  1.00  0.00     0.031 A 
ATOM     49  C   UNL A   1      42.720  28.378  28.356  1.00  0.00     0.074 A 
ATOM     50  C   UNL A   1      40.572  27.883  29.499  1.00  0.00     0.049 A 
ATOM     51  N   UNL A   1      43.663  28.830  29.114  1.00  0.00    -0.248 NA
ATOM     52  C   UNL A   1      42.884  28.721  26.933  1.00  0.00     0.031 C 
ATOM     53  C   UNL A   1      39.286  27.219  29.734  1.00  0.00     0.029 A 
ATOM     54  N   UNL A   1      40.405  29.071  30.139  1.00  0.00    -0.354 N 
ATOM     55  C   UNL A   1      44.426  29.675  28.315  1.00  0.00     0.074 A 
ATOM     56  C   UNL A   1      44.013  29.433  26.957  1.00  0.00     0.031 C 
ATOM     57  C   UNL A   1      38.400  28.107  30.236  1.00  0.00     0.029 A 
ATOM     58  C   UNL A   1      39.093  29.351  30.511  1.00  0.00     0.049 A 
ATOM     59  H   UNL A   1      41.153  29.687  30.324  1.00  0.00     0.167 HD
ATOM     60  C   UNL A   1      45.144  30.688  28.872  1.00  0.00     0.037 A 
ATOM     61  C   UNL A   1      38.617  30.538  30.966  1.00  0.00     0.037 A 
ATOM     62  C   UNL A   1      45.365  30.456  30.280  1.00  0.00     0.049 A 
ATOM     63  C   UNL A   1      39.786  31.310  31.468  1.00  0.00     0.074 A 
ATOM     64  C   UNL A   1      45.915  29.411  31.003  1.00  0.00     0.029 A 
ATOM     65  N   UNL A   1      44.625  31.174  31.188  1.00  0.00    -0.354 N 
ATOM     66  N   UNL A   1      40.473  30.970  32.525  1.00  0.00    -0.248 NA
ATOM     67  C   UNL A   1      40.483  32.161  30.514  1.00  0.00     0.031 C 
ATOM     68  C   UNL A   1      45.050  29.252  32.127  1.00  0.00     0.029 A 
ATOM     69  C   UNL A   1      44.097  30.268  32.075  1.00  0.00     0.049 A 
ATOM     70  H   UNL A   1      44.496  32.149  31.201  1.00  0.00     0.167 HD
ATOM     71  C   UNL A   1      41.794  31.174  32.160  1.00  0.00     0.074 A 
ATOM     72  C   UNL A   1      41.737  31.970  30.934  1.00  0.00     0.031 C 
ATOM     73  C   UNL A   1      42.805  30.430  32.699  1.00  0.00     0.037 A 
BRANCH  60  74
ATOM     74  C   UNL A   1      45.297  32.049  28.240  1.00  0.00     0.064 A 
ATOM     75  C   UNL A   1      44.145  32.810  27.961  1.00  0.00     0.173 A 
ATOM     76  C   UNL A   1      46.486  32.498  27.621  1.00  0.00     0.173 A 
ATOM     77  F   UNL A   1      42.956  32.459  28.472  1.00  0.00    -0.203 F 
ATOM     78  C   UNL A   1      44.170  33.887  27.071  1.00  0.00     0.198 A 
ATOM     79  C   UNL A   1      46.517  33.605  26.778  1.00  0.00     0.198 A 
ATOM     80  F   UNL A   1      47.637  31.821  27.708  1.00  0.00    -0.203 F 
ATOM     81  F   UNL A   1      43.025  34.497  26.734  1.00  0.00    -0.200 F 
ATOM     82  C   UNL A   1      45.355  34.280  26.476  1.00  0.00     0.200 A 
ATOM     83  F   UNL A   1      47.673  33.955  26.195  1.00  0.00    -0.200 F 
ATOM     84  F   UNL A   1      45.371  35.271  25.575  1.00  0.00    -0.200 F 
ENDBRANCH  60  74
BRANCH  61  85
ATOM     85  C   UNL A   1      37.300  31.171  30.690  1.00  0.00     0.064 A 
ATOM     86  C   UNL A   1      36.392  31.432  31.732  1.00  0.00     0.173 A 
ATOM     87  C   UNL A   1      37.018  31.789  29.455  1.00  0.00     0.173 A 
ATOM     88  F   UNL A   1      36.603  30.922  32.955  1.00  0.00    -0.203 F 
ATOM     89  C   UNL A   1      35.295  32.285  31.558  1.00  0.00     0.198 A 
ATOM     90  C   UNL A   1      35.918  32.631  29.281  1.00  0.00     0.198 A 
ATOM     91  F   UNL A   1      37.854  31.670  28.414  1.00  0.00    -0.203 F 
ATOM     92  F   UNL A   1      34.494  32.564  32.597  1.00  0.00    -0.200 F 
ATOM     93  C   UNL A   1      35.065  32.893  30.336  1.00  0.00     0.200 A 
ATOM     94  F   UNL A   1      35.730  33.241  28.102  1.00  0.00    -0.200 F 
ATOM     95  F   UNL A   1      34.055  33.761  30.188  1.00  0.00    -0.200 F 
ENDBRANCH  61  85
BRANCH  73  96
ATOM     96  C   UNL A   1      42.504  29.542  33.876  1.00  0.00     0.064 A 
ATOM     97  C   UNL A   1      41.913  28.269  33.784  1.00  0.00     0.173 A 
ATOM     98  C   UNL A   1      42.984  29.934  35.134  1.00  0.00     0.173 A 
ATOM     99  F   UNL A   1      41.522  27.771  32.605  1.00  0.00    -0.203 F 
ATOM    100  C   UNL A   1      41.774  27.452  34.906  1.00  0.00     0.198 A 
ATOM    101  C   UNL A   1      42.881  29.101  36.244  1.00  0.00     0.198 A 
ATOM    102  F   UNL A   1      43.607  31.115  35.277  1.00  0.00    -0.203 F 
ATOM    103  F   UNL A   1      41.197  26.246  34.792  1.00  0.00    -0.200 F 
ATOM    104  C   UNL A   1      42.266  27.864  36.133  1.00  0.00     0.200 A 
ATOM    105  F   UNL A   1      43.406  29.484  37.416  1.00  0.00    -0.200 F 
ATOM    106  F   UNL A   1      42.172  27.062  37.201  1.00  0.00    -0.200 F 
ENDBRANCH  73  96
ENDBRANCH  47  48
ENDBRANCH  39  42
ENDBRANCH  37  38
ENDBRANCH  36  37
ENDBRANCH  35  36
ENDBRANCH   1  35
TORSDOF 17
ENDMDL
MODEL 3
REMARK VINA RESULT:     -13.2      2.256      6.482
REMARK SMILES COc1cccc(-c2nn(-c3cc4c(cc3C(N)=O)OCO4)cc2C(=O)NCCCCCCNC(=O)c2ccc(-c3c4nc(c(-c5c(F)c(F)c(F)c(F)c5F)c5ccc([nH]5)c(-c5c(F)c(F)c(F)c(F)c5F)c5nc(c(-c6c(F)c(F)c(F)c(F)c6F)c6ccc3[nH]6)C=C5)C=C4)cc2)c1
REMARK SMILES IDX 30 1 29 2 28 3 27 4 25 5 26 6 24 8 8 9 9 10 10 11 23 12 7 13
REMARK SMILES IDX 3 14 4 15 100 16 5 17 6 18 2 19 1 20 11 21 12 22 16 23 13 24
REMARK SMILES IDX 15 25 14 26 22 27 20 28 21 29 17 30 18 31 19 32 31 35 32 36
REMARK SMILES IDX 33 37 34 38 35 39 36 41 37 42 38 43 99 44 39 45 98 46 40 47
REMARK SMILES IDX 41 48 42 49 92 50 43 51 97 52 91 53 93 54 44 55 96 56 90 57
REMARK SMILES IDX 89 58 45 60 77 61 57 62 76 63 58 64 61 65 75 66 94 67 59 68
REMARK SMILES IDX 60 69 74 71 95 72 62 73 46 74 47 75 55 76 48 77 49 78 53 79
REMARK SMILES IDX 56 80 50 81 51 82 54 83 52 84 78 85 79 86 87 87 80 88 81 89
REMARK SMILES IDX 85 90 88 91 82 92 83 93 86 94 84 95 63 96 64 97 72 98 65 99
REMARK SMILES IDX 66 100 70 101 73 102 67 103 68 104 71 105 69 106
REMARK H PARENT 27 7 18 33 18 34 34 40 93 59 61 70
REMARK Flexibility Score: inf
ROOT
ATOM      1  C   UNL A   1      37.850  22.887  25.564  1.00  0.00     0.002 C 
ENDROOT
BRANCH   1   2
ATOM      2  C   UNL A   1      37.098  22.298  24.364  1.00  0.00     0.021 C 
BRANCH   2   3
ATOM      3  C   UNL A   1      35.623  22.692  24.333  1.00  0.00     0.116 C 
BRANCH   3   4
ATOM      4  N   UNL A   1      35.077  22.699  25.671  1.00  0.00    -0.352 N 
ATOM      5  C   UNL A   1      33.843  22.998  26.183  1.00  0.00     0.255 C 
ATOM      6  O   UNL A   1      33.748  22.891  27.406  1.00  0.00    -0.269 OA
ATOM      7  H   UNL A   1      35.731  22.433  26.358  1.00  0.00     0.163 HD
BRANCH   5   8
ATOM      8  C   UNL A   1      32.712  23.361  25.340  1.00  0.00     0.086 A 
ATOM      9  C   UNL A   1      32.041  22.540  24.366  1.00  0.00     0.106 A 
ATOM     10  N   UNL A   1      31.143  23.253  23.649  1.00  0.00    -0.167 NA
ATOM     11  N   UNL A   1      31.356  24.521  24.059  1.00  0.00    -0.239 N 
ATOM     12  C   UNL A   1      32.001  24.540  25.271  1.00  0.00     0.129 A 
BRANCH   9  13
ATOM     13  C   UNL A   1      32.249  21.111  24.131  1.00  0.00     0.007 A 
ATOM     14  C   UNL A   1      32.557  18.854  24.961  1.00  0.00     0.119 A 
ATOM     15  C   UNL A   1      32.481  18.366  23.654  1.00  0.00     0.046 A 
ATOM     16  C   UNL A   1      32.452  20.228  25.200  1.00  0.00     0.056 A 
ATOM     17  C   UNL A   1      32.291  19.238  22.585  1.00  0.00     0.005 A 
ATOM     18  C   UNL A   1      32.187  20.607  22.822  1.00  0.00     0.011 A 
BRANCH  14  19
ATOM     19  O   UNL A   1      32.786  17.903  25.918  1.00  0.00    -0.497 OA
ATOM     20  C   UNL A   1      32.735  16.555  25.466  1.00  0.00     0.278 C 
ENDBRANCH  14  19
ENDBRANCH   9  13
BRANCH  11  21
ATOM     21  C   UNL A   1      30.813  25.663  23.420  1.00  0.00     0.081 A 
ATOM     22  C   UNL A   1      29.572  26.146  23.874  1.00  0.00     0.079 A 
ATOM     23  C   UNL A   1      31.546  26.361  22.413  1.00  0.00     0.069 A 
ATOM     24  C   UNL A   1      29.142  27.357  23.370  1.00  0.00     0.167 A 
ATOM     25  C   UNL A   1      31.108  27.632  22.004  1.00  0.00     0.066 A 
ATOM     26  C   UNL A   1      29.903  28.087  22.486  1.00  0.00     0.166 A 
ATOM     27  O   UNL A   1      27.972  27.987  23.664  1.00  0.00    -0.454 OA
ATOM     28  O   UNL A   1      29.309  29.254  22.120  1.00  0.00    -0.454 OA
ATOM     29  C   UNL A   1      28.008  29.075  22.714  1.00  0.00     0.468 C 
BRANCH  23  30
ATOM     30  C   UNL A   1      32.656  25.718  21.628  1.00  0.00     0.251 C 
ATOM     31  N   UNL A   1      32.472  25.537  20.283  1.00  0.00    -0.366 N 
ATOM     32  O   UNL A   1      33.688  25.286  22.124  1.00  0.00    -0.269 OA
ATOM     33  H   UNL A   1      31.653  25.872  19.849  1.00  0.00     0.159 HD
ATOM     34  H   UNL A   1      33.158  25.073  19.750  1.00  0.00     0.159 HD
ENDBRANCH  23  30
ENDBRANCH  11  21
ENDBRANCH   5   8
ENDBRANCH   3   4
ENDBRANCH   2   3
ENDBRANCH   1   2
BRANCH   1  35
ATOM     35  C   UNL A   1      38.967  22.001  26.140  1.00  0.00     0.002 C 
BRANCH  35  36
ATOM     36  C   UNL A   1      39.277  20.713  25.362  1.00  0.00     0.021 C 
BRANCH  36  37
ATOM     37  C   UNL A   1      39.730  19.565  26.248  1.00  0.00     0.116 C 
BRANCH  37  38
ATOM     38  N   UNL A   1      40.999  18.994  25.804  1.00  0.00    -0.352 N 
ATOM     39  C   UNL A   1      42.216  19.627  25.642  1.00  0.00     0.251 C 
ATOM     40  H   UNL A   1      40.985  18.032  25.592  1.00  0.00     0.163 HD
ATOM     41  O   UNL A   1      43.080  19.162  24.920  1.00  0.00    -0.269 OA
BRANCH  39  42
ATOM     42  C   UNL A   1      42.451  20.888  26.369  1.00  0.00     0.039 A 
ATOM     43  C   UNL A   1      42.782  22.061  25.688  1.00  0.00     0.014 A 
ATOM     44  C   UNL A   1      42.316  20.881  27.755  1.00  0.00     0.014 A 
ATOM     45  C   UNL A   1      42.902  23.242  26.413  1.00  0.00     0.010 A 
ATOM     46  C   UNL A   1      42.266  22.066  28.441  1.00  0.00     0.010 A 
ATOM     47  C   UNL A   1      42.618  23.240  27.790  1.00  0.00    -0.014 A 
BRANCH  47  48
ATOM     48  C   UNL A   1      42.557  24.492  28.535  1.00  0.00     0.031 A 
ATOM     49  C   UNL A   1      41.338  25.300  28.261  1.00  0.00     0.074 A 
ATOM     50  C   UNL A   1      43.409  24.802  29.537  1.00  0.00     0.049 A 
ATOM     51  N   UNL A   1      41.286  26.470  27.718  1.00  0.00    -0.248 NA
ATOM     52  C   UNL A   1      40.018  24.686  28.482  1.00  0.00     0.031 C 
ATOM     53  C   UNL A   1      44.473  23.981  30.123  1.00  0.00     0.029 A 
ATOM     54  N   UNL A   1      43.429  25.908  30.328  1.00  0.00    -0.354 N 
ATOM     55  C   UNL A   1      39.942  26.830  27.711  1.00  0.00     0.074 A 
ATOM     56  C   UNL A   1      39.201  25.637  28.024  1.00  0.00     0.031 C 
ATOM     57  C   UNL A   1      44.850  24.503  31.311  1.00  0.00     0.029 A 
ATOM     58  C   UNL A   1      44.178  25.774  31.494  1.00  0.00     0.049 A 
ATOM     59  H   UNL A   1      42.952  26.739  30.096  1.00  0.00     0.167 HD
ATOM     60  C   UNL A   1      39.581  28.142  27.707  1.00  0.00     0.037 A 
ATOM     61  C   UNL A   1      44.196  26.633  32.546  1.00  0.00     0.037 A 
ATOM     62  C   UNL A   1      40.666  28.979  27.252  1.00  0.00     0.049 A 
ATOM     63  C   UNL A   1      43.700  27.943  32.046  1.00  0.00     0.074 A 
ATOM     64  C   UNL A   1      41.450  28.993  26.111  1.00  0.00     0.029 A 
ATOM     65  N   UNL A   1      41.366  29.710  28.181  1.00  0.00    -0.354 N 
ATOM     66  N   UNL A   1      44.355  28.683  31.193  1.00  0.00    -0.248 NA
ATOM     67  C   UNL A   1      42.265  28.181  32.109  1.00  0.00     0.031 C 
ATOM     68  C   UNL A   1      42.774  29.241  26.583  1.00  0.00     0.029 A 
ATOM     69  C   UNL A   1      42.698  29.465  27.958  1.00  0.00     0.049 A 
ATOM     70  H   UNL A   1      40.986  30.296  28.874  1.00  0.00     0.167 HD
ATOM     71  C   UNL A   1      43.386  29.138  30.313  1.00  0.00     0.074 A 
ATOM     72  C   UNL A   1      42.109  28.851  30.965  1.00  0.00     0.031 C 
ATOM     73  C   UNL A   1      43.684  29.424  29.011  1.00  0.00     0.037 A 
BRANCH  60  74
ATOM     74  C   UNL A   1      38.403  28.686  28.477  1.00  0.00     0.064 A 
ATOM     75  C   UNL A   1      37.601  29.684  27.890  1.00  0.00     0.173 A 
ATOM     76  C   UNL A   1      38.219  28.497  29.865  1.00  0.00     0.173 A 
ATOM     77  F   UNL A   1      37.712  29.969  26.585  1.00  0.00    -0.203 F 
ATOM     78  C   UNL A   1      36.740  30.480  28.651  1.00  0.00     0.198 A 
ATOM     79  C   UNL A   1      37.319  29.255  30.610  1.00  0.00     0.198 A 
ATOM     80  F   UNL A   1      38.980  27.660  30.580  1.00  0.00    -0.203 F 
ATOM     81  F   UNL A   1      36.097  31.504  28.072  1.00  0.00    -0.200 F 
ATOM     82  C   UNL A   1      36.604  30.268  30.011  1.00  0.00     0.200 A 
ATOM     83  F   UNL A   1      37.221  29.048  31.931  1.00  0.00    -0.200 F 
ATOM     84  F   UNL A   1      35.828  31.069  30.752  1.00  0.00    -0.200 F 
ENDBRANCH  60  74
BRANCH  61  85
ATOM     85  C   UNL A   1      44.289  26.313  33.996  1.00  0.00     0.064 A 
ATOM     86  C   UNL A   1      43.150  25.920  34.722  1.00  0.00     0.173 A 
ATOM     87  C   UNL A   1      45.528  26.111  34.634  1.00  0.00     0.173 A 
ATOM     88  F   UNL A   1      41.929  26.034  34.177  1.00  0.00    -0.203 F 
ATOM     89  C   UNL A   1      43.250  25.329  35.988  1.00  0.00     0.198 A 
ATOM     90  C   UNL A   1      45.626  25.531  35.900  1.00  0.00     0.198 A 
ATOM     91  F   UNL A   1      46.682  26.381  34.006  1.00  0.00    -0.203 F 
ATOM     92  F   UNL A   1      42.144  24.903  36.616  1.00  0.00    -0.200 F 
ATOM     93  C   UNL A   1      44.488  25.124  36.571  1.00  0.00     0.200 A 
ATOM     94  F   UNL A   1      46.834  25.306  36.436  1.00  0.00    -0.200 F 
ATOM     95  F   UNL A   1      44.589  24.499  37.752  1.00  0.00    -0.200 F 
ENDBRANCH  61  85
BRANCH  73  96
ATOM     96  C   UNL A   1      45.128  29.471  28.590  1.00  0.00     0.064 A 
ATOM     97  C   UNL A   1      45.973  30.583  28.762  1.00  0.00     0.173 A 
ATOM     98  C   UNL A   1      45.721  28.282  28.143  1.00  0.00     0.173 A 
ATOM     99  F   UNL A   1      45.515  31.727  29.284  1.00  0.00    -0.203 F 
ATOM    100  C   UNL A   1      47.333  30.513  28.458  1.00  0.00     0.198 A 
ATOM    101  C   UNL A   1      47.085  28.203  27.878  1.00  0.00     0.198 A 
ATOM    102  F   UNL A   1      44.979  27.170  28.009  1.00  0.00    -0.203 F 
ATOM    103  F   UNL A   1      48.114  31.592  28.621  1.00  0.00    -0.200 F 
ATOM    104  C   UNL A   1      47.889  29.321  28.026  1.00  0.00     0.200 A 
ATOM    105  F   UNL A   1      47.626  27.034  27.510  1.00  0.00    -0.200 F 
ATOM    106  F   UNL A   1      49.203  29.242  27.776  1.00  0.00    -0.200 F 
ENDBRANCH  73  96
ENDBRANCH  47  48
ENDBRANCH  39  42
ENDBRANCH  37  38
ENDBRANCH  36  37
ENDBRANCH  35  36
ENDBRANCH   1  35
TORSDOF 17
ENDMDL
