MODEL 1
REMARK VINA RESULT:     -12.9      0.000      0.000
REMARK SMILES C/C(=N\Nc1ccccc1C(=O)NCCCCCCNC(=O)c1ccc(-c2c3nc(c(-c4c(F)c(F)c(F)c(F)c4F)c4ccc([nH]4)c(-c4c(F)c(F)c(F)c(F)c4F)c4nc(c(-c5c(F)c(F)c(F)c(F)c5F)c5ccc2[nH]5)C=C4)C=C3)cc1)c1ccc(S(C)(=O)=O)cc1
REMARK SMILES IDX 15 1 14 2 13 3 11 4 12 5 10 7 5 8 6 9 7 10 9 11 8 12 4 13
REMARK SMILES IDX 3 15 1 16 2 17 86 18 87 19 95 20 88 21 94 22 89 23 90 24
REMARK SMILES IDX 91 25 92 26 93 27 16 28 17 29 18 30 19 31 20 32 21 33 22 35
REMARK SMILES IDX 23 36 24 37 85 38 25 39 84 40 26 41 27 42 28 43 78 44 29 45
REMARK SMILES IDX 83 46 77 47 79 48 30 49 82 50 76 51 75 52 31 54 63 55 43 56
REMARK SMILES IDX 62 57 44 58 47 59 61 60 80 61 45 62 46 63 60 65 81 66 48 67
REMARK SMILES IDX 32 68 33 69 41 70 34 71 35 72 39 73 42 74 36 75 37 76 40 77
REMARK SMILES IDX 38 78 64 79 65 80 73 81 66 82 67 83 71 84 74 85 68 86 69 87
REMARK SMILES IDX 72 88 70 89 49 90 50 91 58 92 51 93 52 94 56 95 59 96 53 97
REMARK SMILES IDX 54 98 57 99 55 100
REMARK H PARENT 13 6 4 14 20 34 79 53 47 64
REMARK Flexibility Score: inf
ROOT
ATOM      1  C   UNL A   1      33.445  28.125  26.617  1.00  0.00     0.021 C 
ENDROOT
BRANCH   1   2
ATOM      2  C   UNL A   1      33.615  26.935  25.674  1.00  0.00     0.116 C 
BRANCH   2   3
ATOM      3  N   UNL A   1      32.994  25.719  26.161  1.00  0.00    -0.352 N 
ATOM      4  C   UNL A   1      33.431  24.418  26.076  1.00  0.00     0.253 C 
ATOM      5  O   UNL A   1      32.759  23.543  26.625  1.00  0.00    -0.269 OA
ATOM      6  H   UNL A   1      32.131  25.843  26.621  1.00  0.00     0.163 HD
BRANCH   4   7
ATOM      7  C   UNL A   1      34.604  24.015  25.254  1.00  0.00     0.064 A 
ATOM      8  C   UNL A   1      34.576  23.630  23.905  1.00  0.00     0.069 A 
ATOM      9  C   UNL A   1      35.775  23.143  23.330  1.00  0.00     0.028 A 
ATOM     10  C   UNL A   1      36.986  23.159  24.021  1.00  0.00     0.002 A 
ATOM     11  C   UNL A   1      35.844  24.072  25.928  1.00  0.00     0.016 A 
ATOM     12  C   UNL A   1      37.028  23.667  25.310  1.00  0.00     0.001 A 
BRANCH   8  13
ATOM     13  N   UNL A   1      33.534  23.860  22.980  1.00  0.00    -0.277 N 
ATOM     14  H   UNL A   1      33.379  23.159  22.308  1.00  0.00     0.190 HD
BRANCH  13  15
ATOM     15  N   UNL A   1      32.728  24.939  22.921  1.00  0.00    -0.180 NA
ATOM     16  C   UNL A   1      30.692  23.632  23.629  1.00  0.00     0.069 C 
ATOM     17  C   UNL A   1      31.466  24.867  23.237  1.00  0.00     0.065 C 
BRANCH  17  18
ATOM     18  C   UNL A   1      30.712  26.147  23.225  1.00  0.00    -0.002 A 
ATOM     19  C   UNL A   1      29.410  26.179  23.732  1.00  0.00     0.011 A 
ATOM     20  C   UNL A   1      31.250  27.271  22.595  1.00  0.00     0.011 A 
ATOM     21  C   UNL A   1      28.614  27.311  23.556  1.00  0.00     0.021 A 
ATOM     22  C   UNL A   1      30.469  28.418  22.442  1.00  0.00     0.021 A 
ATOM     23  C   UNL A   1      29.144  28.419  22.891  1.00  0.00     0.067 A 
BRANCH  23  24
ATOM     24  S   UNL A   1      28.137  29.865  22.653  1.00  0.00     0.175 S 
ATOM     25  C   UNL A   1      29.030  31.142  23.502  1.00  0.00     0.163 C 
ATOM     26  O   UNL A   1      28.153  30.171  21.231  1.00  0.00    -0.224 OA
ATOM     27  O   UNL A   1      26.891  29.649  23.354  1.00  0.00    -0.224 OA
ENDBRANCH  23  24
ENDBRANCH  17  18
ENDBRANCH  13  15
ENDBRANCH   8  13
ENDBRANCH   4   7
ENDBRANCH   2   3
ENDBRANCH   1   2
BRANCH   1  28
ATOM     28  C   UNL A   1      32.097  28.858  26.528  1.00  0.00     0.002 C 
BRANCH  28  29
ATOM     29  C   UNL A   1      32.110  30.256  25.903  1.00  0.00     0.002 C 
BRANCH  29  30
ATOM     30  C   UNL A   1      31.708  31.420  26.797  1.00  0.00     0.021 C 
BRANCH  30  31
ATOM     31  C   UNL A   1      32.852  32.303  27.255  1.00  0.00     0.116 C 
BRANCH  31  32
ATOM     32  N   UNL A   1      32.456  33.686  27.484  1.00  0.00    -0.352 N 
ATOM     33  C   UNL A   1      32.966  34.593  28.381  1.00  0.00     0.251 C 
ATOM     34  H   UNL A   1      31.720  34.015  26.920  1.00  0.00     0.163 HD
ATOM     35  O   UNL A   1      32.435  35.687  28.540  1.00  0.00    -0.269 OA
BRANCH  33  36
ATOM     36  C   UNL A   1      34.145  34.217  29.187  1.00  0.00     0.039 A 
ATOM     37  C   UNL A   1      33.960  33.512  30.379  1.00  0.00     0.014 A 
ATOM     38  C   UNL A   1      35.432  34.502  28.725  1.00  0.00     0.014 A 
ATOM     39  C   UNL A   1      35.071  33.015  31.061  1.00  0.00     0.010 A 
ATOM     40  C   UNL A   1      36.526  33.918  29.346  1.00  0.00     0.010 A 
ATOM     41  C   UNL A   1      36.359  33.172  30.523  1.00  0.00    -0.014 A 
BRANCH  41  42
ATOM     42  C   UNL A   1      37.561  32.591  31.171  1.00  0.00     0.031 A 
ATOM     43  C   UNL A   1      38.283  31.456  30.499  1.00  0.00     0.074 A 
ATOM     44  C   UNL A   1      37.938  33.008  32.395  1.00  0.00     0.049 A 
ATOM     45  N   UNL A   1      39.244  30.697  30.955  1.00  0.00    -0.248 NA
ATOM     46  C   UNL A   1      37.828  31.099  29.143  1.00  0.00     0.031 C 
ATOM     47  C   UNL A   1      37.292  34.073  33.165  1.00  0.00     0.029 A 
ATOM     48  N   UNL A   1      38.946  32.569  33.218  1.00  0.00    -0.354 N 
ATOM     49  C   UNL A   1      39.488  29.761  29.958  1.00  0.00     0.074 A 
ATOM     50  C   UNL A   1      38.534  30.007  28.900  1.00  0.00     0.031 C 
ATOM     51  C   UNL A   1      37.930  34.216  34.338  1.00  0.00     0.029 A 
ATOM     52  C   UNL A   1      38.995  33.223  34.426  1.00  0.00     0.049 A 
ATOM     53  H   UNL A   1      39.573  31.855  32.966  1.00  0.00     0.167 HD
ATOM     54  C   UNL A   1      40.442  28.802  29.918  1.00  0.00     0.037 A 
ATOM     55  C   UNL A   1      39.798  33.027  35.490  1.00  0.00     0.037 A 
ATOM     56  C   UNL A   1      41.410  28.589  30.960  1.00  0.00     0.049 A 
ATOM     57  C   UNL A   1      40.843  31.944  35.426  1.00  0.00     0.074 A 
ATOM     58  C   UNL A   1      42.456  27.685  30.994  1.00  0.00     0.029 A 
ATOM     59  N   UNL A   1      41.446  29.293  32.156  1.00  0.00    -0.354 N 
ATOM     60  N   UNL A   1      41.104  31.103  34.455  1.00  0.00    -0.248 NA
ATOM     61  C   UNL A   1      41.705  31.783  36.605  1.00  0.00     0.031 C 
ATOM     62  C   UNL A   1      43.093  27.805  32.232  1.00  0.00     0.029 A 
ATOM     63  C   UNL A   1      42.486  28.827  32.944  1.00  0.00     0.049 A 
ATOM     64  H   UNL A   1      40.827  30.016  32.406  1.00  0.00     0.167 HD
ATOM     65  C   UNL A   1      42.183  30.342  34.887  1.00  0.00     0.074 A 
ATOM     66  C   UNL A   1      42.530  30.824  36.208  1.00  0.00     0.031 C 
ATOM     67  C   UNL A   1      42.829  29.337  34.246  1.00  0.00     0.037 A 
BRANCH  54  68
ATOM     68  C   UNL A   1      40.484  27.912  28.708  1.00  0.00     0.064 A 
ATOM     69  C   UNL A   1      41.228  28.251  27.568  1.00  0.00     0.173 A 
ATOM     70  C   UNL A   1      39.793  26.691  28.700  1.00  0.00     0.173 A 
ATOM     71  F   UNL A   1      41.897  29.413  27.518  1.00  0.00    -0.203 F 
ATOM     72  C   UNL A   1      41.252  27.418  26.453  1.00  0.00     0.198 A 
ATOM     73  C   UNL A   1      39.849  25.842  27.597  1.00  0.00     0.198 A 
ATOM     74  F   UNL A   1      39.070  26.314  29.765  1.00  0.00    -0.203 F 
ATOM     75  F   UNL A   1      41.922  27.791  25.354  1.00  0.00    -0.200 F 
ATOM     76  C   UNL A   1      40.570  26.211  26.471  1.00  0.00     0.200 A 
ATOM     77  F   UNL A   1      39.202  24.669  27.623  1.00  0.00    -0.200 F 
ATOM     78  F   UNL A   1      40.601  25.405  25.401  1.00  0.00    -0.200 F 
ENDBRANCH  54  68
BRANCH  55  79
ATOM     79  C   UNL A   1      39.660  33.884  36.697  1.00  0.00     0.064 A 
ATOM     80  C   UNL A   1      38.865  33.480  37.779  1.00  0.00     0.173 A 
ATOM     81  C   UNL A   1      40.311  35.123  36.795  1.00  0.00     0.173 A 
ATOM     82  F   UNL A   1      38.207  32.313  37.726  1.00  0.00    -0.203 F 
ATOM     83  C   UNL A   1      38.706  34.291  38.901  1.00  0.00     0.198 A 
ATOM     84  C   UNL A   1      40.177  35.920  37.931  1.00  0.00     0.198 A 
ATOM     85  F   UNL A   1      41.089  35.555  35.792  1.00  0.00    -0.203 F 
ATOM     86  F   UNL A   1      37.901  33.902  39.898  1.00  0.00    -0.200 F 
ATOM     87  C   UNL A   1      39.368  35.508  38.979  1.00  0.00     0.200 A 
ATOM     88  F   UNL A   1      40.832  37.087  38.009  1.00  0.00    -0.200 F 
ATOM     89  F   UNL A   1      39.219  36.286  40.059  1.00  0.00    -0.200 F 
ENDBRANCH  55  79
BRANCH  67  90
ATOM     90  C   UNL A   1      44.015  28.725  34.932  1.00  0.00     0.064 A 
ATOM     91  C   UNL A   1      45.305  29.256  34.796  1.00  0.00     0.173 A 
ATOM     92  C   UNL A   1      43.840  27.635  35.799  1.00  0.00     0.173 A 
ATOM     93  F   UNL A   1      45.527  30.289  33.969  1.00  0.00    -0.203 F 
ATOM     94  C   UNL A   1      46.380  28.708  35.491  1.00  0.00     0.198 A 
ATOM     95  C   UNL A   1      44.910  27.110  36.516  1.00  0.00     0.198 A 
ATOM     96  F   UNL A   1      42.623  27.095  35.970  1.00  0.00    -0.203 F 
ATOM     97  F   UNL A   1      47.612  29.206  35.318  1.00  0.00    -0.200 F 
ATOM     98  C   UNL A   1      46.180  27.643  36.359  1.00  0.00     0.200 A 
ATOM     99  F   UNL A   1      44.711  26.094  37.367  1.00  0.00    -0.200 F 
ATOM    100  F   UNL A   1      47.213  27.130  37.040  1.00  0.00    -0.200 F 
ENDBRANCH  67  90
ENDBRANCH  41  42
ENDBRANCH  33  36
ENDBRANCH  31  32
ENDBRANCH  30  31
ENDBRANCH  29  30
ENDBRANCH  28  29
ENDBRANCH   1  28
TORSDOF 17
ENDMDL
MODEL 2
REMARK VINA RESULT:     -12.9      0.401      1.612
REMARK SMILES C/C(=N\Nc1ccccc1C(=O)NCCCCCCNC(=O)c1ccc(-c2c3nc(c(-c4c(F)c(F)c(F)c(F)c4F)c4ccc([nH]4)c(-c4c(F)c(F)c(F)c(F)c4F)c4nc(c(-c5c(F)c(F)c(F)c(F)c5F)c5ccc2[nH]5)C=C4)C=C3)cc1)c1ccc(S(C)(=O)=O)cc1
REMARK SMILES IDX 15 1 14 2 13 3 11 4 12 5 10 7 5 8 6 9 7 10 9 11 8 12 4 13
REMARK SMILES IDX 3 15 1 16 2 17 86 18 87 19 95 20 88 21 94 22 89 23 90 24
REMARK SMILES IDX 91 25 92 26 93 27 16 28 17 29 18 30 19 31 20 32 21 33 22 35
REMARK SMILES IDX 23 36 24 37 85 38 25 39 84 40 26 41 27 42 28 43 78 44 29 45
REMARK SMILES IDX 83 46 77 47 79 48 30 49 82 50 76 51 75 52 31 54 63 55 43 56
REMARK SMILES IDX 62 57 44 58 47 59 61 60 80 61 45 62 46 63 60 65 81 66 48 67
REMARK SMILES IDX 32 68 33 69 41 70 34 71 35 72 39 73 42 74 36 75 37 76 40 77
REMARK SMILES IDX 38 78 64 79 65 80 73 81 66 82 67 83 71 84 74 85 68 86 69 87
REMARK SMILES IDX 72 88 70 89 49 90 50 91 58 92 51 93 52 94 56 95 59 96 53 97
REMARK SMILES IDX 54 98 57 99 55 100
REMARK H PARENT 13 6 4 14 20 34 79 53 47 64
REMARK Flexibility Score: inf
ROOT
ATOM      1  C   UNL A   1      33.461  28.234  26.499  1.00  0.00     0.021 C 
ENDROOT
BRANCH   1   2
ATOM      2  C   UNL A   1      33.781  26.992  25.669  1.00  0.00     0.116 C 
BRANCH   2   3
ATOM      3  N   UNL A   1      33.100  25.798  26.131  1.00  0.00    -0.352 N 
ATOM      4  C   UNL A   1      33.463  24.478  26.003  1.00  0.00     0.253 C 
ATOM      5  O   UNL A   1      32.750  23.625  26.537  1.00  0.00    -0.269 OA
ATOM      6  H   UNL A   1      32.251  25.956  26.607  1.00  0.00     0.163 HD
BRANCH   4   7
ATOM      7  C   UNL A   1      34.601  24.034  25.152  1.00  0.00     0.064 A 
ATOM      8  C   UNL A   1      34.536  23.707  23.789  1.00  0.00     0.069 A 
ATOM      9  C   UNL A   1      35.696  23.168  23.182  1.00  0.00     0.028 A 
ATOM     10  C   UNL A   1      36.912  23.080  23.860  1.00  0.00     0.002 A 
ATOM     11  C   UNL A   1      35.848  23.986  25.814  1.00  0.00     0.016 A 
ATOM     12  C   UNL A   1      36.998  23.532  25.167  1.00  0.00     0.001 A 
BRANCH   8  13
ATOM     13  N   UNL A   1      33.503  24.040  22.886  1.00  0.00    -0.277 N 
ATOM     14  H   UNL A   1      33.325  23.396  22.164  1.00  0.00     0.190 HD
BRANCH  13  15
ATOM     15  N   UNL A   1      32.734  25.147  22.909  1.00  0.00    -0.180 NA
ATOM     16  C   UNL A   1      30.626  23.842  23.371  1.00  0.00     0.069 C 
ATOM     17  C   UNL A   1      31.456  25.085  23.156  1.00  0.00     0.065 C 
BRANCH  17  18
ATOM     18  C   UNL A   1      30.741  26.384  23.250  1.00  0.00    -0.002 A 
ATOM     19  C   UNL A   1      29.415  26.406  23.690  1.00  0.00     0.011 A 
ATOM     20  C   UNL A   1      31.347  27.552  22.780  1.00  0.00     0.011 A 
ATOM     21  C   UNL A   1      28.664  27.579  23.602  1.00  0.00     0.021 A 
ATOM     22  C   UNL A   1      30.610  28.736  22.717  1.00  0.00     0.021 A 
ATOM     23  C   UNL A   1      29.262  28.734  23.095  1.00  0.00     0.067 A 
BRANCH  23  24
ATOM     24  S   UNL A   1      28.313  30.233  22.971  1.00  0.00     0.175 S 
ATOM     25  C   UNL A   1      28.315  30.587  21.232  1.00  0.00     0.163 C 
ATOM     26  O   UNL A   1      26.951  29.914  23.367  1.00  0.00    -0.224 OA
ATOM     27  O   UNL A   1      29.058  31.277  23.641  1.00  0.00    -0.224 OA
ENDBRANCH  23  24
ENDBRANCH  17  18
ENDBRANCH  13  15
ENDBRANCH   8  13
ENDBRANCH   4   7
ENDBRANCH   2   3
ENDBRANCH   1   2
BRANCH   1  28
ATOM     28  C   UNL A   1      32.076  28.855  26.262  1.00  0.00     0.002 C 
BRANCH  28  29
ATOM     29  C   UNL A   1      32.041  30.313  25.797  1.00  0.00     0.002 C 
BRANCH  29  30
ATOM     30  C   UNL A   1      31.713  31.369  26.843  1.00  0.00     0.021 C 
BRANCH  30  31
ATOM     31  C   UNL A   1      32.872  32.261  27.241  1.00  0.00     0.116 C 
BRANCH  31  32
ATOM     32  N   UNL A   1      32.483  33.646  27.462  1.00  0.00    -0.352 N 
ATOM     33  C   UNL A   1      32.989  34.554  28.361  1.00  0.00     0.251 C 
ATOM     34  H   UNL A   1      31.754  33.978  26.889  1.00  0.00     0.163 HD
ATOM     35  O   UNL A   1      32.464  35.651  28.511  1.00  0.00    -0.269 OA
BRANCH  33  36
ATOM     36  C   UNL A   1      34.158  34.172  29.180  1.00  0.00     0.039 A 
ATOM     37  C   UNL A   1      33.966  33.389  30.320  1.00  0.00     0.014 A 
ATOM     38  C   UNL A   1      35.445  34.533  28.777  1.00  0.00     0.014 A 
ATOM     39  C   UNL A   1      35.075  32.892  31.006  1.00  0.00     0.010 A 
ATOM     40  C   UNL A   1      36.543  33.953  29.396  1.00  0.00     0.010 A 
ATOM     41  C   UNL A   1      36.371  33.130  30.520  1.00  0.00    -0.014 A 
BRANCH  41  42
ATOM     42  C   UNL A   1      37.575  32.556  31.169  1.00  0.00     0.031 A 
ATOM     43  C   UNL A   1      38.305  31.426  30.496  1.00  0.00     0.074 A 
ATOM     44  C   UNL A   1      37.947  32.973  32.394  1.00  0.00     0.049 A 
ATOM     45  N   UNL A   1      39.270  30.672  30.953  1.00  0.00    -0.248 NA
ATOM     46  C   UNL A   1      37.855  31.069  29.140  1.00  0.00     0.031 C 
ATOM     47  C   UNL A   1      37.293  34.033  33.165  1.00  0.00     0.029 A 
ATOM     48  N   UNL A   1      38.956  32.539  33.219  1.00  0.00    -0.354 N 
ATOM     49  C   UNL A   1      39.522  29.740  29.956  1.00  0.00     0.074 A 
ATOM     50  C   UNL A   1      38.569  29.981  28.896  1.00  0.00     0.031 C 
ATOM     51  C   UNL A   1      37.928  34.178  34.339  1.00  0.00     0.029 A 
ATOM     52  C   UNL A   1      38.999  33.191  34.428  1.00  0.00     0.049 A 
ATOM     53  H   UNL A   1      39.588  31.829  32.967  1.00  0.00     0.167 HD
ATOM     54  C   UNL A   1      40.481  28.786  29.917  1.00  0.00     0.037 A 
ATOM     55  C   UNL A   1      39.800  32.999  35.493  1.00  0.00     0.037 A 
ATOM     56  C   UNL A   1      41.448  28.577  30.960  1.00  0.00     0.049 A 
ATOM     57  C   UNL A   1      40.852  31.922  35.430  1.00  0.00     0.074 A 
ATOM     58  C   UNL A   1      42.500  27.680  30.994  1.00  0.00     0.029 A 
ATOM     59  N   UNL A   1      41.479  29.280  32.157  1.00  0.00    -0.354 N 
ATOM     60  N   UNL A   1      41.120  31.084  34.458  1.00  0.00    -0.248 NA
ATOM     61  C   UNL A   1      41.713  31.764  36.610  1.00  0.00     0.031 C 
ATOM     62  C   UNL A   1      43.134  27.802  32.234  1.00  0.00     0.029 A 
ATOM     63  C   UNL A   1      42.519  28.819  32.946  1.00  0.00     0.049 A 
ATOM     64  H   UNL A   1      40.854  29.999  32.406  1.00  0.00     0.167 HD
ATOM     65  C   UNL A   1      42.203  30.329  34.891  1.00  0.00     0.074 A 
ATOM     66  C   UNL A   1      42.544  30.811  36.213  1.00  0.00     0.031 C 
ATOM     67  C   UNL A   1      42.857  29.329  34.250  1.00  0.00     0.037 A 
BRANCH  54  68
ATOM     68  C   UNL A   1      40.532  27.899  28.705  1.00  0.00     0.064 A 
ATOM     69  C   UNL A   1      39.816  26.693  28.642  1.00  0.00     0.173 A 
ATOM     70  C   UNL A   1      41.285  28.273  27.582  1.00  0.00     0.173 A 
ATOM     71  F   UNL A   1      39.092  26.282  29.693  1.00  0.00    -0.203 F 
ATOM     72  C   UNL A   1      39.879  25.880  27.514  1.00  0.00     0.198 A 
ATOM     73  C   UNL A   1      41.316  27.475  26.441  1.00  0.00     0.198 A 
ATOM     74  F   UNL A   1      41.984  29.417  27.585  1.00  0.00    -0.203 F 
ATOM     75  F   UNL A   1      39.234  24.705  27.501  1.00  0.00    -0.200 F 
ATOM     76  C   UNL A   1      40.621  26.275  26.412  1.00  0.00     0.200 A 
ATOM     77  F   UNL A   1      42.021  27.866  25.371  1.00  0.00    -0.200 F 
ATOM     78  F   UNL A   1      40.674  25.496  25.323  1.00  0.00    -0.200 F 
ENDBRANCH  54  68
BRANCH  55  79
ATOM     79  C   UNL A   1      39.655  33.853  36.702  1.00  0.00     0.064 A 
ATOM     80  C   UNL A   1      40.324  35.081  36.799  1.00  0.00     0.173 A 
ATOM     81  C   UNL A   1      38.853  33.461  37.785  1.00  0.00     0.173 A 
ATOM     82  F   UNL A   1      41.117  35.492  35.799  1.00  0.00    -0.203 F 
ATOM     83  C   UNL A   1      40.217  35.872  37.941  1.00  0.00     0.198 A 
ATOM     84  C   UNL A   1      38.722  34.267  38.914  1.00  0.00     0.198 A 
ATOM     85  F   UNL A   1      38.186  32.298  37.741  1.00  0.00    -0.203 F 
ATOM     86  F   UNL A   1      40.907  37.017  38.027  1.00  0.00    -0.200 F 
ATOM     87  C   UNL A   1      39.411  35.468  38.995  1.00  0.00     0.200 A 
ATOM     88  F   UNL A   1      37.929  33.880  39.922  1.00  0.00    -0.200 F 
ATOM     89  F   UNL A   1      39.305  36.231  40.092  1.00  0.00    -0.200 F 
ENDBRANCH  55  79
BRANCH  67  90
ATOM     90  C   UNL A   1      44.045  28.723  34.938  1.00  0.00     0.064 A 
ATOM     91  C   UNL A   1      45.336  29.249  34.787  1.00  0.00     0.173 A 
ATOM     92  C   UNL A   1      43.872  27.645  35.820  1.00  0.00     0.173 A 
ATOM     93  F   UNL A   1      45.556  30.270  33.944  1.00  0.00    -0.203 F 
ATOM     94  C   UNL A   1      46.413  28.707  35.483  1.00  0.00     0.198 A 
ATOM     95  C   UNL A   1      44.945  27.127  36.538  1.00  0.00     0.198 A 
ATOM     96  F   UNL A   1      42.655  27.111  36.005  1.00  0.00    -0.203 F 
ATOM     97  F   UNL A   1      47.645  29.200  35.296  1.00  0.00    -0.200 F 
ATOM     98  C   UNL A   1      46.215  27.655  36.366  1.00  0.00     0.200 A 
ATOM     99  F   UNL A   1      44.748  26.124  37.404  1.00  0.00    -0.200 F 
ATOM    100  F   UNL A   1      47.251  27.148  37.049  1.00  0.00    -0.200 F 
ENDBRANCH  67  90
ENDBRANCH  41  42
ENDBRANCH  33  36
ENDBRANCH  31  32
ENDBRANCH  30  31
ENDBRANCH  29  30
ENDBRANCH  28  29
ENDBRANCH   1  28
TORSDOF 17
ENDMDL
MODEL 3
REMARK VINA RESULT:     -12.7      5.628     11.078
REMARK SMILES C/C(=N\Nc1ccccc1C(=O)NCCCCCCNC(=O)c1ccc(-c2c3nc(c(-c4c(F)c(F)c(F)c(F)c4F)c4ccc([nH]4)c(-c4c(F)c(F)c(F)c(F)c4F)c4nc(c(-c5c(F)c(F)c(F)c(F)c5F)c5ccc2[nH]5)C=C4)C=C3)cc1)c1ccc(S(C)(=O)=O)cc1
REMARK SMILES IDX 15 1 14 2 13 3 11 4 12 5 10 7 5 8 6 9 7 10 9 11 8 12 4 13
REMARK SMILES IDX 3 15 1 16 2 17 86 18 87 19 95 20 88 21 94 22 89 23 90 24
REMARK SMILES IDX 91 25 92 26 93 27 16 28 17 29 18 30 19 31 20 32 21 33 22 35
REMARK SMILES IDX 23 36 24 37 85 38 25 39 84 40 26 41 27 42 28 43 78 44 29 45
REMARK SMILES IDX 83 46 77 47 79 48 30 49 82 50 76 51 75 52 31 54 63 55 43 56
REMARK SMILES IDX 62 57 44 58 47 59 61 60 80 61 45 62 46 63 60 65 81 66 48 67
REMARK SMILES IDX 32 68 33 69 41 70 34 71 35 72 39 73 42 74 36 75 37 76 40 77
REMARK SMILES IDX 38 78 64 79 65 80 73 81 66 82 67 83 71 84 74 85 68 86 69 87
REMARK SMILES IDX 72 88 70 89 49 90 50 91 58 92 51 93 52 94 56 95 59 96 53 97
REMARK SMILES IDX 54 98 57 99 55 100
REMARK H PARENT 13 6 4 14 20 34 79 53 47 64
REMARK Flexibility Score: inf
ROOT
ATOM      1  C   UNL A   1      36.219  23.408  25.700  1.00  0.00     0.021 C 
ENDROOT
BRANCH   1   2
ATOM      2  C   UNL A   1      34.935  24.224  25.832  1.00  0.00     0.116 C 
BRANCH   2   3
ATOM      3  N   UNL A   1      34.536  24.877  24.601  1.00  0.00    -0.352 N 
ATOM      4  C   UNL A   1      33.842  26.049  24.416  1.00  0.00     0.253 C 
ATOM      5  O   UNL A   1      33.670  26.446  23.262  1.00  0.00    -0.269 OA
ATOM      6  H   UNL A   1      34.802  24.412  23.774  1.00  0.00     0.163 HD
BRANCH   4   7
ATOM      7  C   UNL A   1      33.192  26.785  25.534  1.00  0.00     0.064 A 
ATOM      8  C   UNL A   1      31.908  26.543  26.048  1.00  0.00     0.069 A 
ATOM      9  C   UNL A   1      31.405  27.441  27.021  1.00  0.00     0.028 A 
ATOM     10  C   UNL A   1      32.188  28.460  27.563  1.00  0.00     0.002 A 
ATOM     11  C   UNL A   1      33.992  27.789  26.124  1.00  0.00     0.016 A 
ATOM     12  C   UNL A   1      33.501  28.605  27.144  1.00  0.00     0.001 A 
BRANCH   8  13
ATOM     13  N   UNL A   1      31.125  25.384  25.859  1.00  0.00    -0.277 N 
ATOM     14  H   UNL A   1      30.149  25.505  25.878  1.00  0.00     0.190 HD
BRANCH  13  15
ATOM     15  N   UNL A   1      31.572  24.129  25.654  1.00  0.00    -0.180 NA
ATOM     16  C   UNL A   1      30.653  24.034  23.308  1.00  0.00     0.069 C 
ATOM     17  C   UNL A   1      31.402  23.521  24.514  1.00  0.00     0.065 C 
BRANCH  17  18
ATOM     18  C   UNL A   1      32.029  22.180  24.385  1.00  0.00    -0.002 A 
ATOM     19  C   UNL A   1      32.143  21.597  23.121  1.00  0.00     0.011 A 
ATOM     20  C   UNL A   1      32.379  21.458  25.528  1.00  0.00     0.011 A 
ATOM     21  C   UNL A   1      32.546  20.267  22.993  1.00  0.00     0.021 A 
ATOM     22  C   UNL A   1      32.811  20.136  25.406  1.00  0.00     0.021 A 
ATOM     23  C   UNL A   1      32.858  19.537  24.142  1.00  0.00     0.067 A 
BRANCH  23  24
ATOM     24  S   UNL A   1      33.364  17.838  23.993  1.00  0.00     0.175 S 
ATOM     25  C   UNL A   1      32.529  17.033  25.336  1.00  0.00     0.163 C 
ATOM     26  O   UNL A   1      32.811  17.332  22.748  1.00  0.00    -0.224 OA
ATOM     27  O   UNL A   1      34.785  17.783  24.253  1.00  0.00    -0.224 OA
ENDBRANCH  23  24
ENDBRANCH  17  18
ENDBRANCH  13  15
ENDBRANCH   8  13
ENDBRANCH   4   7
ENDBRANCH   2   3
ENDBRANCH   1   2
BRANCH   1  28
ATOM     28  C   UNL A   1      36.047  21.976  25.172  1.00  0.00     0.002 C 
BRANCH  28  29
ATOM     29  C   UNL A   1      37.226  21.375  24.402  1.00  0.00     0.002 C 
BRANCH  29  30
ATOM     30  C   UNL A   1      37.894  20.146  25.001  1.00  0.00     0.021 C 
BRANCH  30  31
ATOM     31  C   UNL A   1      39.168  20.420  25.775  1.00  0.00     0.116 C 
BRANCH  31  32
ATOM     32  N   UNL A   1      40.037  19.257  25.884  1.00  0.00    -0.352 N 
ATOM     33  C   UNL A   1      41.391  19.208  26.116  1.00  0.00     0.251 C 
ATOM     34  H   UNL A   1      39.594  18.385  25.774  1.00  0.00     0.163 HD
ATOM     35  O   UNL A   1      42.001  18.147  26.053  1.00  0.00    -0.269 OA
BRANCH  33  36
ATOM     36  C   UNL A   1      42.112  20.464  26.405  1.00  0.00     0.039 A 
ATOM     37  C   UNL A   1      42.597  21.231  25.343  1.00  0.00     0.014 A 
ATOM     38  C   UNL A   1      42.245  20.912  27.721  1.00  0.00     0.014 A 
ATOM     39  C   UNL A   1      43.137  22.493  25.598  1.00  0.00     0.010 A 
ATOM     40  C   UNL A   1      42.682  22.206  27.961  1.00  0.00     0.010 A 
ATOM     41  C   UNL A   1      43.137  23.009  26.904  1.00  0.00    -0.014 A 
BRANCH  41  42
ATOM     42  C   UNL A   1      43.625  24.376  27.212  1.00  0.00     0.031 A 
ATOM     43  C   UNL A   1      42.654  25.407  27.718  1.00  0.00     0.074 A 
ATOM     44  C   UNL A   1      44.900  24.716  26.942  1.00  0.00     0.049 A 
ATOM     45  N   UNL A   1      42.823  26.691  27.894  1.00  0.00    -0.248 NA
ATOM     46  C   UNL A   1      41.294  24.933  28.027  1.00  0.00     0.031 C 
ATOM     47  C   UNL A   1      45.925  23.815  26.410  1.00  0.00     0.029 A 
ATOM     48  N   UNL A   1      45.548  25.921  27.058  1.00  0.00    -0.354 N 
ATOM     49  C   UNL A   1      41.590  27.179  28.305  1.00  0.00     0.074 A 
ATOM     50  C   UNL A   1      40.666  26.067  28.293  1.00  0.00     0.031 C 
ATOM     51  C   UNL A   1      47.074  24.493  26.264  1.00  0.00     0.029 A 
ATOM     52  C   UNL A   1      46.857  25.886  26.641  1.00  0.00     0.049 A 
ATOM     53  H   UNL A   1      45.115  26.733  27.407  1.00  0.00     0.167 HD
ATOM     54  C   UNL A   1      41.265  28.437  28.684  1.00  0.00     0.037 A 
ATOM     55  C   UNL A   1      47.771  26.872  26.555  1.00  0.00     0.037 A 
ATOM     56  C   UNL A   1      42.200  29.529  28.727  1.00  0.00     0.049 A 
ATOM     57  C   UNL A   1      47.381  28.266  26.972  1.00  0.00     0.074 A 
ATOM     58  C   UNL A   1      41.990  30.827  29.154  1.00  0.00     0.029 A 
ATOM     59  N   UNL A   1      43.526  29.445  28.326  1.00  0.00    -0.354 N 
ATOM     60  N   UNL A   1      46.228  28.705  27.415  1.00  0.00    -0.248 NA
ATOM     61  C   UNL A   1      48.419  29.302  26.877  1.00  0.00     0.031 C 
ATOM     62  C   UNL A   1      43.174  31.544  28.961  1.00  0.00     0.029 A 
ATOM     63  C   UNL A   1      44.140  30.677  28.475  1.00  0.00     0.049 A 
ATOM     64  H   UNL A   1      43.964  28.631  27.988  1.00  0.00     0.167 HD
ATOM     65  C   UNL A   1      46.412  30.054  27.690  1.00  0.00     0.074 A 
ATOM     66  C   UNL A   1      47.789  30.361  27.366  1.00  0.00     0.031 C 
ATOM     67  C   UNL A   1      45.520  30.956  28.170  1.00  0.00     0.037 A 
BRANCH  54  68
ATOM     68  C   UNL A   1      39.840  28.697  29.085  1.00  0.00     0.064 A 
ATOM     69  C   UNL A   1      39.402  28.529  30.408  1.00  0.00     0.173 A 
ATOM     70  C   UNL A   1      38.907  29.147  28.139  1.00  0.00     0.173 A 
ATOM     71  F   UNL A   1      40.250  28.088  31.349  1.00  0.00    -0.203 F 
ATOM     72  C   UNL A   1      38.078  28.769  30.760  1.00  0.00     0.198 A 
ATOM     73  C   UNL A   1      37.591  29.422  28.503  1.00  0.00     0.198 A 
ATOM     74  F   UNL A   1      39.272  29.329  26.861  1.00  0.00    -0.203 F 
ATOM     75  F   UNL A   1      37.670  28.545  32.017  1.00  0.00    -0.200 F 
ATOM     76  C   UNL A   1      37.175  29.223  29.811  1.00  0.00     0.200 A 
ATOM     77  F   UNL A   1      36.725  29.875  27.587  1.00  0.00    -0.200 F 
ATOM     78  F   UNL A   1      35.902  29.463  30.153  1.00  0.00    -0.200 F 
ENDBRANCH  54  68
BRANCH  55  79
ATOM     79  C   UNL A   1      49.146  26.576  26.074  1.00  0.00     0.064 A 
ATOM     80  C   UNL A   1      50.109  26.034  26.937  1.00  0.00     0.173 A 
ATOM     81  C   UNL A   1      49.531  26.833  24.749  1.00  0.00     0.173 A 
ATOM     82  F   UNL A   1      49.797  25.789  28.218  1.00  0.00    -0.203 F 
ATOM     83  C   UNL A   1      51.409  25.783  26.502  1.00  0.00     0.198 A 
ATOM     84  C   UNL A   1      50.822  26.552  24.306  1.00  0.00     0.198 A 
ATOM     85  F   UNL A   1      48.647  27.345  23.880  1.00  0.00    -0.203 F 
ATOM     86  F   UNL A   1      52.322  25.312  27.362  1.00  0.00    -0.200 F 
ATOM     87  C   UNL A   1      51.763  26.037  25.185  1.00  0.00     0.200 A 
ATOM     88  F   UNL A   1      51.154  26.783  23.029  1.00  0.00    -0.200 F 
ATOM     89  F   UNL A   1      53.012  25.792  24.765  1.00  0.00    -0.200 F 
ENDBRANCH  55  79
BRANCH  67  90
ATOM     90  C   UNL A   1      46.014  32.348  28.432  1.00  0.00     0.064 A 
ATOM     91  C   UNL A   1      46.601  32.708  29.653  1.00  0.00     0.173 A 
ATOM     92  C   UNL A   1      45.963  33.315  27.416  1.00  0.00     0.173 A 
ATOM     93  F   UNL A   1      46.660  31.824  30.661  1.00  0.00    -0.203 F 
ATOM     94  C   UNL A   1      47.107  33.991  29.852  1.00  0.00     0.198 A 
ATOM     95  C   UNL A   1      46.499  34.585  27.606  1.00  0.00     0.198 A 
ATOM     96  F   UNL A   1      45.418  33.018  26.226  1.00  0.00    -0.203 F 
ATOM     97  F   UNL A   1      47.631  34.325  31.039  1.00  0.00    -0.200 F 
ATOM     98  C   UNL A   1      47.066  34.924  28.825  1.00  0.00     0.200 A 
ATOM     99  F   UNL A   1      46.474  35.478  26.608  1.00  0.00    -0.200 F 
ATOM    100  F   UNL A   1      47.570  36.150  29.013  1.00  0.00    -0.200 F 
ENDBRANCH  67  90
ENDBRANCH  41  42
ENDBRANCH  33  36
ENDBRANCH  31  32
ENDBRANCH  30  31
ENDBRANCH  29  30
ENDBRANCH  28  29
ENDBRANCH   1  28
TORSDOF 17
ENDMDL
