MODEL 1
REMARK VINA RESULT:     -11.9      0.000      0.000
REMARK SMILES N#Cc1ccnc(Oc2cccc(C(=O)NCCCCCCNC(=O)c3ccc(-c4c5nc(c(-c6c(F)c(F)c(F)c(F)c6F)c6ccc([nH]6)c(-c6c(F)c(F)c(F)c(F)c6F)c6nc(c(-c7c(F)c(F)c(F)c(F)c7F)c7ccc4[nH]7)C=C6)C=C5)cc3)c2)c1
REMARK SMILES IDX 19 1 18 2 17 3 16 4 14 5 15 6 13 8 9 9 10 10 89 11 11 12
REMARK SMILES IDX 12 13 8 14 7 15 3 16 4 17 90 18 5 19 6 20 2 21 1 22 20 23
REMARK SMILES IDX 21 24 22 25 23 26 24 27 25 29 26 30 27 31 88 32 28 33 87 34
REMARK SMILES IDX 29 35 30 36 31 37 81 38 32 39 86 40 80 41 82 42 33 43 85 44
REMARK SMILES IDX 79 45 78 46 34 48 66 49 46 50 65 51 47 52 50 53 64 54 83 55
REMARK SMILES IDX 48 56 49 57 63 59 84 60 51 61 35 62 36 63 44 64 37 65 38 66
REMARK SMILES IDX 42 67 45 68 39 69 40 70 43 71 41 72 67 73 68 74 76 75 69 76
REMARK SMILES IDX 70 77 74 78 77 79 71 80 72 81 75 82 73 83 52 84 53 85 61 86
REMARK SMILES IDX 54 87 55 88 59 89 62 90 56 91 57 92 60 93 58 94
REMARK H PARENT 16 7 23 28 82 47 50 58
REMARK Flexibility Score: inf
ROOT
ATOM      1  C   UNL A   1      34.393  32.309  29.095  1.00  0.00     0.002 C 
ENDROOT
BRANCH   1   2
ATOM      2  C   UNL A   1      34.702  31.281  27.996  1.00  0.00     0.021 C 
BRANCH   2   3
ATOM      3  C   UNL A   1      33.472  30.952  27.149  1.00  0.00     0.116 C 
BRANCH   3   4
ATOM      4  N   UNL A   1      32.792  29.804  27.706  1.00  0.00    -0.352 N 
ATOM      5  C   UNL A   1      32.247  28.667  27.176  1.00  0.00     0.251 C 
ATOM      6  O   UNL A   1      31.666  27.919  27.965  1.00  0.00    -0.269 OA
ATOM      7  H   UNL A   1      32.700  29.852  28.685  1.00  0.00     0.163 HD
BRANCH   5   8
ATOM      8  C   UNL A   1      32.388  28.244  25.751  1.00  0.00     0.043 A 
ATOM      9  C   UNL A   1      31.617  27.983  23.470  1.00  0.00     0.130 A 
ATOM     10  C   UNL A   1      32.912  27.716  23.036  1.00  0.00     0.047 A 
ATOM     11  C   UNL A   1      31.344  28.127  24.833  1.00  0.00     0.061 A 
ATOM     12  C   UNL A   1      33.952  27.689  23.961  1.00  0.00     0.005 A 
ATOM     13  C   UNL A   1      33.694  27.989  25.300  1.00  0.00     0.014 A 
BRANCH   9  14
ATOM     14  O   UNL A   1      30.626  28.053  22.521  1.00  0.00    -0.439 OA
BRANCH  14  15
ATOM     15  C   UNL A   1      29.556  28.905  22.728  1.00  0.00     0.220 A 
ATOM     16  C   UNL A   1      28.446  31.028  22.835  1.00  0.00     0.059 A 
ATOM     17  C   UNL A   1      27.259  30.371  23.144  1.00  0.00     0.040 A 
ATOM     18  C   UNL A   1      29.609  30.289  22.599  1.00  0.00     0.088 A 
ATOM     19  C   UNL A   1      27.289  28.993  23.219  1.00  0.00     0.116 A 
ATOM     20  N   UNL A   1      28.408  28.260  23.029  1.00  0.00    -0.222 NA
BRANCH  16  21
ATOM     21  C   UNL A   1      28.470  32.458  22.777  1.00  0.00     0.099 C 
ATOM     22  N   UNL A   1      28.476  33.620  22.755  1.00  0.00    -0.192 NA
ENDBRANCH  16  21
ENDBRANCH  14  15
ENDBRANCH   9  14
ENDBRANCH   5   8
ENDBRANCH   3   4
ENDBRANCH   2   3
ENDBRANCH   1   2
BRANCH   1  23
ATOM     23  C   UNL A   1      34.483  33.769  28.632  1.00  0.00     0.002 C 
BRANCH  23  24
ATOM     24  C   UNL A   1      33.191  34.568  28.823  1.00  0.00     0.021 C 
BRANCH  24  25
ATOM     25  C   UNL A   1      33.431  35.982  29.332  1.00  0.00     0.116 C 
BRANCH  25  26
ATOM     26  N   UNL A   1      32.601  36.271  30.492  1.00  0.00    -0.352 N 
ATOM     27  C   UNL A   1      32.657  35.733  31.750  1.00  0.00     0.251 C 
ATOM     28  H   UNL A   1      31.900  36.948  30.353  1.00  0.00     0.163 HD
ATOM     29  O   UNL A   1      31.719  35.866  32.527  1.00  0.00    -0.269 OA
BRANCH  27  30
ATOM     30  C   UNL A   1      33.862  34.988  32.160  1.00  0.00     0.039 A 
ATOM     31  C   UNL A   1      33.736  33.654  32.553  1.00  0.00     0.014 A 
ATOM     32  C   UNL A   1      35.112  35.614  32.164  1.00  0.00     0.014 A 
ATOM     33  C   UNL A   1      34.875  32.937  32.914  1.00  0.00     0.010 A 
ATOM     34  C   UNL A   1      36.254  34.871  32.430  1.00  0.00     0.010 A 
ATOM     35  C   UNL A   1      36.146  33.531  32.829  1.00  0.00    -0.014 A 
BRANCH  35  36
ATOM     36  C   UNL A   1      37.372  32.775  33.184  1.00  0.00     0.031 A 
ATOM     37  C   UNL A   1      38.094  33.080  34.468  1.00  0.00     0.074 A 
ATOM     38  C   UNL A   1      37.856  31.850  32.334  1.00  0.00     0.049 A 
ATOM     39  N   UNL A   1      39.208  32.572  34.932  1.00  0.00    -0.248 NA
ATOM     40  C   UNL A   1      37.503  34.113  35.334  1.00  0.00     0.031 C 
ATOM     41  C   UNL A   1      37.262  31.494  31.045  1.00  0.00     0.029 A 
ATOM     42  N   UNL A   1      38.961  31.043  32.425  1.00  0.00    -0.354 N 
ATOM     43  C   UNL A   1      39.449  33.225  36.133  1.00  0.00     0.074 A 
ATOM     44  C   UNL A   1      38.409  34.217  36.294  1.00  0.00     0.031 C 
ATOM     45  C   UNL A   1      37.989  30.517  30.481  1.00  0.00     0.029 A 
ATOM     46  C   UNL A   1      39.129  30.216  31.341  1.00  0.00     0.049 A 
ATOM     47  H   UNL A   1      39.576  31.055  33.194  1.00  0.00     0.167 HD
ATOM     48  C   UNL A   1      40.433  33.000  37.034  1.00  0.00     0.037 A 
ATOM     49  C   UNL A   1      40.101  29.325  31.068  1.00  0.00     0.037 A 
ATOM     50  C   UNL A   1      41.460  32.004  36.873  1.00  0.00     0.049 A 
ATOM     51  C   UNL A   1      41.210  29.127  32.069  1.00  0.00     0.074 A 
ATOM     52  C   UNL A   1      42.479  31.667  37.745  1.00  0.00     0.029 A 
ATOM     53  N   UNL A   1      41.602  31.190  35.757  1.00  0.00    -0.354 N 
ATOM     54  N   UNL A   1      41.393  29.705  33.231  1.00  0.00    -0.248 NA
ATOM     55  C   UNL A   1      42.245  28.144  31.721  1.00  0.00     0.031 C 
ATOM     56  C   UNL A   1      43.280  30.702  37.127  1.00  0.00     0.029 A 
ATOM     57  C   UNL A   1      42.712  30.374  35.907  1.00  0.00     0.049 A 
ATOM     58  H   UNL A   1      41.003  31.192  34.975  1.00  0.00     0.167 HD
ATOM     59  C   UNL A   1      42.536  29.128  33.770  1.00  0.00     0.074 A 
ATOM     60  C   UNL A   1      42.995  28.145  32.813  1.00  0.00     0.031 C 
ATOM     61  C   UNL A   1      43.149  29.388  34.951  1.00  0.00     0.037 A 
BRANCH  48  62
ATOM     62  C   UNL A   1      40.452  33.847  38.275  1.00  0.00     0.064 A 
ATOM     63  C   UNL A   1      39.683  33.522  39.404  1.00  0.00     0.173 A 
ATOM     64  C   UNL A   1      41.283  34.975  38.355  1.00  0.00     0.173 A 
ATOM     65  F   UNL A   1      38.862  32.461  39.381  1.00  0.00    -0.203 F 
ATOM     66  C   UNL A   1      39.720  34.312  40.550  1.00  0.00     0.198 A 
ATOM     67  C   UNL A   1      41.348  35.740  39.517  1.00  0.00     0.198 A 
ATOM     68  F   UNL A   1      42.045  35.329  37.308  1.00  0.00    -0.203 F 
ATOM     69  F   UNL A   1      38.933  34.014  41.594  1.00  0.00    -0.200 F 
ATOM     70  C   UNL A   1      40.559  35.414  40.609  1.00  0.00     0.200 A 
ATOM     71  F   UNL A   1      42.174  36.793  39.577  1.00  0.00    -0.200 F 
ATOM     72  F   UNL A   1      40.605  36.166  41.717  1.00  0.00    -0.200 F 
ENDBRANCH  48  62
BRANCH  49  73
ATOM     73  C   UNL A   1      40.071  28.546  29.801  1.00  0.00     0.064 A 
ATOM     74  C   UNL A   1      39.465  27.283  29.742  1.00  0.00     0.173 A 
ATOM     75  C   UNL A   1      40.676  29.031  28.632  1.00  0.00     0.173 A 
ATOM     76  F   UNL A   1      38.887  26.766  30.837  1.00  0.00    -0.203 F 
ATOM     77  C   UNL A   1      39.500  26.519  28.577  1.00  0.00     0.198 A 
ATOM     78  C   UNL A   1      40.676  28.284  27.456  1.00  0.00     0.198 A 
ATOM     79  F   UNL A   1      41.263  30.237  28.627  1.00  0.00    -0.203 F 
ATOM     80  F   UNL A   1      38.974  25.287  28.571  1.00  0.00    -0.200 F 
ATOM     81  C   UNL A   1      40.101  27.023  27.433  1.00  0.00     0.200 A 
ATOM     82  F   UNL A   1      41.240  28.783  26.348  1.00  0.00    -0.200 F 
ATOM     83  F   UNL A   1      40.138  26.287  26.314  1.00  0.00    -0.200 F 
ENDBRANCH  49  73
BRANCH  61  84
ATOM     84  C   UNL A   1      44.351  28.556  35.306  1.00  0.00     0.064 A 
ATOM     85  C   UNL A   1      45.654  28.942  34.960  1.00  0.00     0.173 A 
ATOM     86  C   UNL A   1      44.193  27.372  36.044  1.00  0.00     0.173 A 
ATOM     87  F   UNL A   1      45.861  30.060  34.247  1.00  0.00    -0.203 F 
ATOM     88  C   UNL A   1      46.750  28.156  35.305  1.00  0.00     0.198 A 
ATOM     89  C   UNL A   1      45.294  26.609  36.423  1.00  0.00     0.198 A 
ATOM     90  F   UNL A   1      42.970  26.959  36.410  1.00  0.00    -0.203 F 
ATOM     91  F   UNL A   1      47.979  28.512  34.908  1.00  0.00    -0.200 F 
ATOM     92  C   UNL A   1      46.570  26.996  36.044  1.00  0.00     0.200 A 
ATOM     93  F   UNL A   1      45.119  25.501  37.156  1.00  0.00    -0.200 F 
ATOM     94  F   UNL A   1      47.627  26.246  36.384  1.00  0.00    -0.200 F 
ENDBRANCH  61  84
ENDBRANCH  35  36
ENDBRANCH  27  30
ENDBRANCH  25  26
ENDBRANCH  24  25
ENDBRANCH  23  24
ENDBRANCH   1  23
TORSDOF 16
ENDMDL
MODEL 2
REMARK VINA RESULT:     -11.9      1.692      7.592
REMARK SMILES N#Cc1ccnc(Oc2cccc(C(=O)NCCCCCCNC(=O)c3ccc(-c4c5nc(c(-c6c(F)c(F)c(F)c(F)c6F)c6ccc([nH]6)c(-c6c(F)c(F)c(F)c(F)c6F)c6nc(c(-c7c(F)c(F)c(F)c(F)c7F)c7ccc4[nH]7)C=C6)C=C5)cc3)c2)c1
REMARK SMILES IDX 19 1 18 2 17 3 16 4 14 5 15 6 13 8 9 9 10 10 89 11 11 12
REMARK SMILES IDX 12 13 8 14 7 15 3 16 4 17 90 18 5 19 6 20 2 21 1 22 20 23
REMARK SMILES IDX 21 24 22 25 23 26 24 27 25 29 26 30 27 31 88 32 28 33 87 34
REMARK SMILES IDX 29 35 30 36 31 37 81 38 32 39 86 40 80 41 82 42 33 43 85 44
REMARK SMILES IDX 79 45 78 46 34 48 66 49 46 50 65 51 47 52 50 53 64 54 83 55
REMARK SMILES IDX 48 56 49 57 63 59 84 60 51 61 35 62 36 63 44 64 37 65 38 66
REMARK SMILES IDX 42 67 45 68 39 69 40 70 43 71 41 72 67 73 68 74 76 75 69 76
REMARK SMILES IDX 70 77 74 78 77 79 71 80 72 81 75 82 73 83 52 84 53 85 61 86
REMARK SMILES IDX 54 87 55 88 59 89 62 90 56 91 57 92 60 93 58 94
REMARK H PARENT 16 7 23 28 82 47 50 58
REMARK Flexibility Score: inf
ROOT
ATOM      1  C   UNL A   1      32.348  29.893  26.124  1.00  0.00     0.002 C 
ENDROOT
BRANCH   1   2
ATOM      2  C   UNL A   1      31.926  28.907  27.223  1.00  0.00     0.021 C 
BRANCH   2   3
ATOM      3  C   UNL A   1      32.442  27.492  26.959  1.00  0.00     0.116 C 
BRANCH   3   4
ATOM      4  N   UNL A   1      31.341  26.556  27.004  1.00  0.00    -0.352 N 
ATOM      5  C   UNL A   1      30.515  26.007  26.062  1.00  0.00     0.251 C 
ATOM      6  O   UNL A   1      29.612  25.281  26.482  1.00  0.00    -0.269 OA
ATOM      7  H   UNL A   1      31.141  26.245  27.916  1.00  0.00     0.163 HD
BRANCH   5   8
ATOM      8  C   UNL A   1      30.691  26.161  24.587  1.00  0.00     0.043 A 
ATOM      9  C   UNL A   1      30.629  27.392  22.502  1.00  0.00     0.130 A 
ATOM     10  C   UNL A   1      31.390  26.413  21.871  1.00  0.00     0.047 A 
ATOM     11  C   UNL A   1      30.184  27.206  23.814  1.00  0.00     0.061 A 
ATOM     12  C   UNL A   1      31.789  25.289  22.589  1.00  0.00     0.005 A 
ATOM     13  C   UNL A   1      31.473  25.186  23.945  1.00  0.00     0.014 A 
BRANCH   9  14
ATOM     14  O   UNL A   1      30.297  28.511  21.777  1.00  0.00    -0.439 OA
BRANCH  14  15
ATOM     15  C   UNL A   1      29.400  29.418  22.312  1.00  0.00     0.220 A 
ATOM     16  C   UNL A   1      28.618  31.589  22.963  1.00  0.00     0.059 A 
ATOM     17  C   UNL A   1      27.420  31.014  23.376  1.00  0.00     0.040 A 
ATOM     18  C   UNL A   1      29.617  30.789  22.401  1.00  0.00     0.088 A 
ATOM     19  C   UNL A   1      27.277  29.650  23.220  1.00  0.00     0.116 A 
ATOM     20  N   UNL A   1      28.240  28.852  22.711  1.00  0.00    -0.222 NA
BRANCH  16  21
ATOM     21  C   UNL A   1      28.824  32.996  23.132  1.00  0.00     0.099 C 
ATOM     22  N   UNL A   1      29.007  34.138  23.244  1.00  0.00    -0.192 NA
ENDBRANCH  16  21
ENDBRANCH  14  15
ENDBRANCH   9  14
ENDBRANCH   5   8
ENDBRANCH   3   4
ENDBRANCH   2   3
ENDBRANCH   1   2
BRANCH   1  23
ATOM     23  C   UNL A   1      31.220  30.814  25.640  1.00  0.00     0.002 C 
BRANCH  23  24
ATOM     24  C   UNL A   1      31.088  32.115  26.436  1.00  0.00     0.021 C 
BRANCH  24  25
ATOM     25  C   UNL A   1      32.402  32.582  27.045  1.00  0.00     0.116 C 
BRANCH  25  26
ATOM     26  N   UNL A   1      32.345  33.991  27.402  1.00  0.00    -0.352 N 
ATOM     27  C   UNL A   1      33.018  34.660  28.389  1.00  0.00     0.251 C 
ATOM     28  H   UNL A   1      31.736  34.541  26.858  1.00  0.00     0.163 HD
ATOM     29  O   UNL A   1      32.654  35.773  28.748  1.00  0.00    -0.269 OA
BRANCH  27  30
ATOM     30  C   UNL A   1      34.190  34.022  29.019  1.00  0.00     0.039 A 
ATOM     31  C   UNL A   1      35.466  34.508  28.729  1.00  0.00     0.014 A 
ATOM     32  C   UNL A   1      34.023  32.938  29.886  1.00  0.00     0.014 A 
ATOM     33  C   UNL A   1      36.575  33.928  29.344  1.00  0.00     0.010 A 
ATOM     34  C   UNL A   1      35.118  32.427  30.570  1.00  0.00     0.010 A 
ATOM     35  C   UNL A   1      36.407  32.902  30.289  1.00  0.00    -0.014 A 
BRANCH  35  36
ATOM     36  C   UNL A   1      37.573  32.290  30.973  1.00  0.00     0.031 A 
ATOM     37  C   UNL A   1      38.340  31.186  30.300  1.00  0.00     0.074 A 
ATOM     38  C   UNL A   1      37.911  32.698  32.210  1.00  0.00     0.049 A 
ATOM     39  N   UNL A   1      39.351  30.486  30.751  1.00  0.00    -0.248 NA
ATOM     40  C   UNL A   1      37.897  30.794  28.952  1.00  0.00     0.031 C 
ATOM     41  C   UNL A   1      37.219  33.736  32.977  1.00  0.00     0.029 A 
ATOM     42  N   UNL A   1      38.919  32.286  33.044  1.00  0.00    -0.354 N 
ATOM     43  C   UNL A   1      39.657  29.575  29.749  1.00  0.00     0.074 A 
ATOM     44  C   UNL A   1      38.682  29.758  28.697  1.00  0.00     0.031 C 
ATOM     45  C   UNL A   1      37.844  33.903  34.154  1.00  0.00     0.029 A 
ATOM     46  C   UNL A   1      38.944  32.948  34.247  1.00  0.00     0.049 A 
ATOM     47  H   UNL A   1      39.564  31.582  32.803  1.00  0.00     0.167 HD
ATOM     48  C   UNL A   1      40.675  28.686  29.698  1.00  0.00     0.037 A 
ATOM     49  C   UNL A   1      39.757  32.794  35.310  1.00  0.00     0.037 A 
ATOM     50  C   UNL A   1      41.649  28.516  30.745  1.00  0.00     0.049 A 
ATOM     51  C   UNL A   1      40.854  31.763  35.244  1.00  0.00     0.074 A 
ATOM     52  C   UNL A   1      42.743  27.671  30.775  1.00  0.00     0.029 A 
ATOM     53  N   UNL A   1      41.636  29.200  31.953  1.00  0.00    -0.354 N 
ATOM     54  N   UNL A   1      41.173  30.951  34.266  1.00  0.00    -0.248 NA
ATOM     55  C   UNL A   1      41.710  31.634  36.430  1.00  0.00     0.031 C 
ATOM     56  C   UNL A   1      43.351  27.791  32.029  1.00  0.00     0.029 A 
ATOM     57  C   UNL A   1      42.688  28.772  32.747  1.00  0.00     0.049 A 
ATOM     58  H   UNL A   1      40.979  29.887  32.208  1.00  0.00     0.167 HD
ATOM     59  C   UNL A   1      42.288  30.246  34.701  1.00  0.00     0.074 A 
ATOM     60  C   UNL A   1      42.599  30.738  36.026  1.00  0.00     0.031 C 
ATOM     61  C   UNL A   1      42.993  29.281  34.061  1.00  0.00     0.037 A 
BRANCH  48  62
ATOM     62  C   UNL A   1      40.789  27.823  28.473  1.00  0.00     0.064 A 
ATOM     63  C   UNL A   1      40.134  26.585  28.377  1.00  0.00     0.173 A 
ATOM     64  C   UNL A   1      41.529  28.257  27.362  1.00  0.00     0.173 A 
ATOM     65  F   UNL A   1      39.422  26.114  29.412  1.00  0.00    -0.203 F 
ATOM     66  C   UNL A   1      40.242  25.802  27.230  1.00  0.00     0.198 A 
ATOM     67  C   UNL A   1      41.602  27.491  26.202  1.00  0.00     0.198 A 
ATOM     68  F   UNL A   1      42.172  29.435  27.396  1.00  0.00    -0.203 F 
ATOM     69  F   UNL A   1      39.654  24.599  27.184  1.00  0.00    -0.200 F 
ATOM     70  C   UNL A   1      40.967  26.260  26.141  1.00  0.00     0.200 A 
ATOM     71  F   UNL A   1      42.288  27.944  25.144  1.00  0.00    -0.200 F 
ATOM     72  F   UNL A   1      41.059  25.512  25.033  1.00  0.00    -0.200 F 
ENDBRANCH  48  62
BRANCH  49  73
ATOM     73  C   UNL A   1      39.574  33.634  36.524  1.00  0.00     0.064 A 
ATOM     74  C   UNL A   1      38.770  33.202  37.588  1.00  0.00     0.173 A 
ATOM     75  C   UNL A   1      40.171  34.900  36.632  1.00  0.00     0.173 A 
ATOM     76  F   UNL A   1      38.163  32.008  37.527  1.00  0.00    -0.203 F 
ATOM     77  C   UNL A   1      38.537  34.018  38.694  1.00  0.00     0.198 A 
ATOM     78  C   UNL A   1      39.969  35.698  37.756  1.00  0.00     0.198 A 
ATOM     79  F   UNL A   1      40.958  35.360  35.648  1.00  0.00    -0.203 F 
ATOM     80  F   UNL A   1      37.709  33.607  39.663  1.00  0.00    -0.200 F 
ATOM     81  C   UNL A   1      39.142  35.263  38.778  1.00  0.00     0.200 A 
ATOM     82  F   UNL A   1      40.572  36.892  37.842  1.00  0.00    -0.200 F 
ATOM     83  F   UNL A   1      38.915  36.049  39.840  1.00  0.00    -0.200 F 
ENDBRANCH  49  73
BRANCH  61  84
ATOM     84  C   UNL A   1      44.207  28.732  34.758  1.00  0.00     0.064 A 
ATOM     85  C   UNL A   1      44.150  27.586  35.564  1.00  0.00     0.173 A 
ATOM     86  C   UNL A   1      45.459  29.343  34.578  1.00  0.00     0.173 A 
ATOM     87  F   UNL A   1      42.978  26.968  35.778  1.00  0.00    -0.203 F 
ATOM     88  C   UNL A   1      45.290  27.095  36.195  1.00  0.00     0.198 A 
ATOM     89  C   UNL A   1      46.604  28.826  35.176  1.00  0.00     0.198 A 
ATOM     90  F   UNL A   1      45.575  30.436  33.809  1.00  0.00    -0.203 F 
ATOM     91  F   UNL A   1      45.198  26.037  37.012  1.00  0.00    -0.200 F 
ATOM     92  C   UNL A   1      46.517  27.710  35.993  1.00  0.00     0.200 A 
ATOM     93  F   UNL A   1      47.792  29.408  34.960  1.00  0.00    -0.200 F 
ATOM     94  F   UNL A   1      47.615  27.229  36.592  1.00  0.00    -0.200 F 
ENDBRANCH  61  84
ENDBRANCH  35  36
ENDBRANCH  27  30
ENDBRANCH  25  26
ENDBRANCH  24  25
ENDBRANCH  23  24
ENDBRANCH   1  23
TORSDOF 16
ENDMDL
MODEL 3
REMARK VINA RESULT:     -11.8      1.594      2.417
REMARK SMILES N#Cc1ccnc(Oc2cccc(C(=O)NCCCCCCNC(=O)c3ccc(-c4c5nc(c(-c6c(F)c(F)c(F)c(F)c6F)c6ccc([nH]6)c(-c6c(F)c(F)c(F)c(F)c6F)c6nc(c(-c7c(F)c(F)c(F)c(F)c7F)c7ccc4[nH]7)C=C6)C=C5)cc3)c2)c1
REMARK SMILES IDX 19 1 18 2 17 3 16 4 14 5 15 6 13 8 9 9 10 10 89 11 11 12
REMARK SMILES IDX 12 13 8 14 7 15 3 16 4 17 90 18 5 19 6 20 2 21 1 22 20 23
REMARK SMILES IDX 21 24 22 25 23 26 24 27 25 29 26 30 27 31 88 32 28 33 87 34
REMARK SMILES IDX 29 35 30 36 31 37 81 38 32 39 86 40 80 41 82 42 33 43 85 44
REMARK SMILES IDX 79 45 78 46 34 48 66 49 46 50 65 51 47 52 50 53 64 54 83 55
REMARK SMILES IDX 48 56 49 57 63 59 84 60 51 61 35 62 36 63 44 64 37 65 38 66
REMARK SMILES IDX 42 67 45 68 39 69 40 70 43 71 41 72 67 73 68 74 76 75 69 76
REMARK SMILES IDX 70 77 74 78 77 79 71 80 72 81 75 82 73 83 52 84 53 85 61 86
REMARK SMILES IDX 54 87 55 88 59 89 62 90 56 91 57 92 60 93 58 94
REMARK H PARENT 16 7 23 28 82 47 50 58
REMARK Flexibility Score: inf
ROOT
ATOM      1  C   UNL A   1      31.893  30.008  25.845  1.00  0.00     0.002 C 
ENDROOT
BRANCH   1   2
ATOM      2  C   UNL A   1      31.704  29.364  27.227  1.00  0.00     0.021 C 
BRANCH   2   3
ATOM      3  C   UNL A   1      32.625  28.161  27.434  1.00  0.00     0.116 C 
BRANCH   3   4
ATOM      4  N   UNL A   1      31.862  26.938  27.313  1.00  0.00    -0.352 N 
ATOM      5  C   UNL A   1      31.341  26.237  26.261  1.00  0.00     0.251 C 
ATOM      6  O   UNL A   1      30.665  25.246  26.544  1.00  0.00    -0.269 OA
ATOM      7  H   UNL A   1      31.676  26.516  28.183  1.00  0.00     0.163 HD
BRANCH   5   8
ATOM      8  C   UNL A   1      31.609  26.542  24.824  1.00  0.00     0.043 A 
ATOM      9  C   UNL A   1      31.089  27.521  22.670  1.00  0.00     0.130 A 
ATOM     10  C   UNL A   1      32.397  27.330  22.238  1.00  0.00     0.047 A 
ATOM     11  C   UNL A   1      30.672  27.021  23.908  1.00  0.00     0.061 A 
ATOM     12  C   UNL A   1      33.317  26.723  23.088  1.00  0.00     0.005 A 
ATOM     13  C   UNL A   1      32.933  26.368  24.383  1.00  0.00     0.014 A 
BRANCH   9  14
ATOM     14  O   UNL A   1      30.223  28.170  21.823  1.00  0.00    -0.439 OA
BRANCH  14  15
ATOM     15  C   UNL A   1      29.334  29.091  22.347  1.00  0.00     0.220 A 
ATOM     16  C   UNL A   1      28.558  31.281  22.941  1.00  0.00     0.059 A 
ATOM     17  C   UNL A   1      27.372  30.717  23.398  1.00  0.00     0.040 A 
ATOM     18  C   UNL A   1      29.548  30.465  22.384  1.00  0.00     0.088 A 
ATOM     19  C   UNL A   1      27.230  29.348  23.292  1.00  0.00     0.116 A 
ATOM     20  N   UNL A   1      28.185  28.535  22.790  1.00  0.00    -0.222 NA
BRANCH  16  21
ATOM     21  C   UNL A   1      28.763  32.693  23.058  1.00  0.00     0.099 C 
ATOM     22  N   UNL A   1      28.935  33.840  23.124  1.00  0.00    -0.192 NA
ENDBRANCH  16  21
ENDBRANCH  14  15
ENDBRANCH   9  14
ENDBRANCH   5   8
ENDBRANCH   3   4
ENDBRANCH   2   3
ENDBRANCH   1   2
BRANCH   1  23
ATOM     23  C   UNL A   1      31.155  31.342  25.668  1.00  0.00     0.002 C 
BRANCH  23  24
ATOM     24  C   UNL A   1      31.236  32.269  26.883  1.00  0.00     0.021 C 
BRANCH  24  25
ATOM     25  C   UNL A   1      32.614  32.886  27.076  1.00  0.00     0.116 C 
BRANCH  25  26
ATOM     26  N   UNL A   1      32.514  34.257  27.552  1.00  0.00    -0.352 N 
ATOM     27  C   UNL A   1      33.120  34.843  28.631  1.00  0.00     0.251 C 
ATOM     28  H   UNL A   1      31.928  34.846  27.025  1.00  0.00     0.163 HD
ATOM     29  O   UNL A   1      32.718  35.916  29.066  1.00  0.00    -0.269 OA
BRANCH  27  30
ATOM     30  C   UNL A   1      34.265  34.165  29.269  1.00  0.00     0.039 A 
ATOM     31  C   UNL A   1      34.024  33.198  30.246  1.00  0.00     0.014 A 
ATOM     32  C   UNL A   1      35.573  34.497  28.906  1.00  0.00     0.014 A 
ATOM     33  C   UNL A   1      35.101  32.535  30.832  1.00  0.00     0.010 A 
ATOM     34  C   UNL A   1      36.637  33.768  29.419  1.00  0.00     0.010 A 
ATOM     35  C   UNL A   1      36.414  32.795  30.403  1.00  0.00    -0.014 A 
BRANCH  35  36
ATOM     36  C   UNL A   1      37.570  32.080  30.996  1.00  0.00     0.031 A 
ATOM     37  C   UNL A   1      38.045  32.440  32.377  1.00  0.00     0.074 A 
ATOM     38  C   UNL A   1      38.216  31.142  30.277  1.00  0.00     0.049 A 
ATOM     39  N   UNL A   1      39.067  31.972  33.049  1.00  0.00    -0.248 NA
ATOM     40  C   UNL A   1      37.289  33.483  33.089  1.00  0.00     0.031 C 
ATOM     41  C   UNL A   1      37.869  30.734  28.915  1.00  0.00     0.029 A 
ATOM     42  N   UNL A   1      39.302  30.365  30.590  1.00  0.00    -0.354 N 
ATOM     43  C   UNL A   1      39.077  32.666  34.251  1.00  0.00     0.074 A 
ATOM     44  C   UNL A   1      38.006  33.636  34.191  1.00  0.00     0.031 C 
ATOM     45  C   UNL A   1      38.704  29.759  28.522  1.00  0.00     0.029 A 
ATOM     46  C   UNL A   1      39.677  29.511  29.582  1.00  0.00     0.049 A 
ATOM     47  H   UNL A   1      39.768  30.414  31.456  1.00  0.00     0.167 HD
ATOM     48  C   UNL A   1      39.887  32.491  35.321  1.00  0.00     0.037 A 
ATOM     49  C   UNL A   1      40.698  28.636  29.517  1.00  0.00     0.037 A 
ATOM     50  C   UNL A   1      40.945  31.516  35.378  1.00  0.00     0.049 A 
ATOM     51  C   UNL A   1      41.614  28.495  30.705  1.00  0.00     0.074 A 
ATOM     52  C   UNL A   1      41.798  31.230  36.429  1.00  0.00     0.029 A 
ATOM     53  N   UNL A   1      41.300  30.674  34.333  1.00  0.00    -0.354 N 
ATOM     54  N   UNL A   1      41.575  29.111  31.861  1.00  0.00    -0.248 NA
ATOM     55  C   UNL A   1      42.712  27.528  30.580  1.00  0.00     0.031 C 
ATOM     56  C   UNL A   1      42.714  30.267  35.997  1.00  0.00     0.029 A 
ATOM     57  C   UNL A   1      42.380  29.890  34.706  1.00  0.00     0.049 A 
ATOM     58  H   UNL A   1      40.851  30.638  33.458  1.00  0.00     0.167 HD
ATOM     59  C   UNL A   1      42.614  28.578  32.614  1.00  0.00     0.074 A 
ATOM     60  C   UNL A   1      43.255  27.578  31.788  1.00  0.00     0.031 C 
ATOM     61  C   UNL A   1      43.000  28.887  33.877  1.00  0.00     0.037 A 
BRANCH  48  62
ATOM     62  C   UNL A   1      39.668  33.374  36.517  1.00  0.00     0.064 A 
ATOM     63  C   UNL A   1      40.329  34.603  36.660  1.00  0.00     0.173 A 
ATOM     64  C   UNL A   1      38.750  33.007  37.514  1.00  0.00     0.173 A 
ATOM     65  F   UNL A   1      41.225  35.000  35.743  1.00  0.00    -0.203 F 
ATOM     66  C   UNL A   1      40.106  35.415  37.770  1.00  0.00     0.198 A 
ATOM     67  C   UNL A   1      38.500  33.839  38.602  1.00  0.00     0.198 A 
ATOM     68  F   UNL A   1      38.085  31.845  37.426  1.00  0.00    -0.203 F 
ATOM     69  F   UNL A   1      40.792  36.557  37.912  1.00  0.00    -0.200 F 
ATOM     70  C   UNL A   1      39.185  35.037  38.734  1.00  0.00     0.200 A 
ATOM     71  F   UNL A   1      37.595  33.479  39.523  1.00  0.00    -0.200 F 
ATOM     72  F   UNL A   1      38.961  35.824  39.795  1.00  0.00    -0.200 F 
ENDBRANCH  48  62
BRANCH  49  73
ATOM     73  C   UNL A   1      40.911  27.820  28.291  1.00  0.00     0.064 A 
ATOM     74  C   UNL A   1      40.357  26.537  28.171  1.00  0.00     0.173 A 
ATOM     75  C   UNL A   1      41.698  28.290  27.228  1.00  0.00     0.173 A 
ATOM     76  F   UNL A   1      39.611  26.034  29.166  1.00  0.00    -0.203 F 
ATOM     77  C   UNL A   1      40.615  25.741  27.056  1.00  0.00     0.198 A 
ATOM     78  C   UNL A   1      41.922  27.509  26.097  1.00  0.00     0.198 A 
ATOM     79  F   UNL A   1      42.244  29.514  27.284  1.00  0.00    -0.203 F 
ATOM     80  F   UNL A   1      40.131  24.494  27.001  1.00  0.00    -0.200 F 
ATOM     81  C   UNL A   1      41.394  26.230  26.018  1.00  0.00     0.200 A 
ATOM     82  F   UNL A   1      42.658  27.994  25.087  1.00  0.00    -0.200 F 
ATOM     83  F   UNL A   1      41.644  25.464  24.947  1.00  0.00    -0.200 F 
ENDBRANCH  49  73
BRANCH  61  84
ATOM     84  C   UNL A   1      44.134  28.096  34.468  1.00  0.00     0.064 A 
ATOM     85  C   UNL A   1      45.464  28.536  34.404  1.00  0.00     0.173 A 
ATOM     86  C   UNL A   1      43.874  26.894  35.147  1.00  0.00     0.173 A 
ATOM     87  F   UNL A   1      45.770  29.672  33.759  1.00  0.00    -0.203 F 
ATOM     88  C   UNL A   1      46.495  27.786  34.964  1.00  0.00     0.198 A 
ATOM     89  C   UNL A   1      44.902  26.168  35.741  1.00  0.00     0.198 A 
ATOM     90  F   UNL A   1      42.620  26.429  35.247  1.00  0.00    -0.203 F 
ATOM     91  F   UNL A   1      47.764  28.195  34.835  1.00  0.00    -0.200 F 
ATOM     92  C   UNL A   1      46.212  26.608  35.639  1.00  0.00     0.200 A 
ATOM     93  F   UNL A   1      44.623  25.042  36.413  1.00  0.00    -0.200 F 
ATOM     94  F   UNL A   1      47.205  25.893  36.187  1.00  0.00    -0.200 F 
ENDBRANCH  61  84
ENDBRANCH  35  36
ENDBRANCH  27  30
ENDBRANCH  25  26
ENDBRANCH  24  25
ENDBRANCH  23  24
ENDBRANCH   1  23
TORSDOF 16
ENDMDL
