MODEL 1
REMARK VINA RESULT:     -11.4      0.000      0.000
REMARK SMILES C[C@@H](C(=O)NCCCCCCNC(=O)c1ccc(-c2c3nc(c(-c4c(F)c(F)c(F)c(F)c4F)c4ccc([nH]4)c(-c4c(F)c(F)c(F)c(F)c4F)c4nc(c(-c5c(F)c(F)c(F)c(F)c5F)c5ccc2[nH]5)C=C4)C=C3)cc1)N(C)C(=O)NC[C@H]1C[N@@H+]2CCC[C@@H]2CO1
REMARK SMILES IDX 7 1 6 2 5 3 3 4 4 5 2 7 1 8 78 9 79 10 80 11 81 12 82 13
REMARK SMILES IDX 83 15 84 16 85 17 92 18 86 19 91 20 87 21 90 22 88 24 89 25
REMARK SMILES IDX 8 26 9 27 10 28 11 29 12 30 13 31 14 33 15 34 16 35 77 36
REMARK SMILES IDX 17 37 76 38 18 39 19 40 20 41 70 42 21 43 75 44 69 45 71 46
REMARK SMILES IDX 22 47 74 48 68 49 67 50 23 52 55 53 35 54 54 55 36 56 39 57
REMARK SMILES IDX 53 58 72 59 37 60 38 61 52 63 73 64 40 65 24 66 25 67 33 68
REMARK SMILES IDX 26 69 27 70 31 71 34 72 28 73 29 74 32 75 30 76 56 77 57 78
REMARK SMILES IDX 65 79 58 80 59 81 63 82 66 83 60 84 61 85 64 86 62 87 41 88
REMARK SMILES IDX 42 89 50 90 43 91 44 92 48 93 51 94 45 95 46 96 49 97 47 98
REMARK H PARENT 5 6 82 14 86 23 12 32 71 51 39 62
REMARK Flexibility Score: inf
ROOT
ATOM      1  C   UNL A   1      33.451  28.680  27.044  1.00  0.00     0.021 C 
ENDROOT
BRANCH   1   2
ATOM      2  C   UNL A   1      33.767  27.732  25.890  1.00  0.00     0.116 C 
BRANCH   2   3
ATOM      3  N   UNL A   1      33.208  28.220  24.650  1.00  0.00    -0.354 N 
ATOM      4  C   UNL A   1      32.385  27.602  23.755  1.00  0.00     0.242 C 
ATOM      5  O   UNL A   1      31.968  28.303  22.827  1.00  0.00    -0.273 OA
ATOM      6  H   UNL A   1      33.461  29.142  24.415  1.00  0.00     0.163 HD
BRANCH   4   7
ATOM      7  C   UNL A   1      31.929  26.136  23.995  1.00  0.00     0.172 C 
ATOM      8  C   UNL A   1      31.907  25.237  22.756  1.00  0.00     0.042 C 
BRANCH   7   9
ATOM      9  N   UNL A   1      30.651  26.124  24.746  1.00  0.00    -0.316 N 
ATOM     10  C   UNL A   1      29.457  26.229  23.930  1.00  0.00     0.149 C 
BRANCH   9  11
ATOM     11  C   UNL A   1      30.699  25.828  26.086  1.00  0.00     0.317 C 
ATOM     12  O   UNL A   1      30.649  26.705  26.955  1.00  0.00    -0.249 OA
ATOM     13  N   UNL A   1      30.775  24.571  26.558  1.00  0.00    -0.335 N 
ATOM     14  H   UNL A   1      30.871  24.558  27.538  1.00  0.00     0.165 HD
BRANCH  13  15
ATOM     15  C   UNL A   1      30.752  23.231  26.007  1.00  0.00     0.155 C 
BRANCH  15  16
ATOM     16  C   UNL A   1      32.078  22.460  26.157  1.00  0.00     0.192 C 
ATOM     17  C   UNL A   1      32.994  22.418  24.895  1.00  0.00     0.296 C 
ATOM     18  O   UNL A   1      32.733  22.941  27.354  1.00  0.00    -0.364 OA
ATOM     19  N   UNL A   1      34.115  23.368  24.885  1.00  0.00    -0.328 N 
ATOM     20  C   UNL A   1      34.139  22.699  27.322  1.00  0.00     0.225 C 
ATOM     21  C   UNL A   1      35.150  23.026  23.901  1.00  0.00     0.262 C 
ATOM     22  C   UNL A   1      34.761  23.532  26.202  1.00  0.00     0.210 C 
ATOM     23  H   UNL A   1      33.680  24.253  24.622  1.00  0.00     0.348 HD
ATOM     24  C   UNL A   1      36.445  23.530  24.518  1.00  0.00     0.068 C 
ATOM     25  C   UNL A   1      36.242  23.244  25.992  1.00  0.00     0.073 C 
ENDBRANCH  15  16
ENDBRANCH  13  15
ENDBRANCH   9  11
ENDBRANCH   7   9
ENDBRANCH   4   7
ENDBRANCH   2   3
ENDBRANCH   1   2
BRANCH   1  26
ATOM     26  C   UNL A   1      33.190  30.127  26.603  1.00  0.00     0.002 C 
BRANCH  26  27
ATOM     27  C   UNL A   1      31.723  30.568  26.658  1.00  0.00     0.002 C 
BRANCH  27  28
ATOM     28  C   UNL A   1      31.508  32.073  26.835  1.00  0.00     0.021 C 
BRANCH  28  29
ATOM     29  C   UNL A   1      32.776  32.855  27.159  1.00  0.00     0.116 C 
BRANCH  29  30
ATOM     30  N   UNL A   1      32.486  34.218  27.576  1.00  0.00    -0.352 N 
ATOM     31  C   UNL A   1      33.005  34.934  28.624  1.00  0.00     0.251 C 
ATOM     32  H   UNL A   1      31.821  34.693  27.029  1.00  0.00     0.163 HD
ATOM     33  O   UNL A   1      32.498  36.003  28.956  1.00  0.00    -0.269 OA
BRANCH  31  34
ATOM     34  C   UNL A   1      34.166  34.408  29.371  1.00  0.00     0.039 A 
ATOM     35  C   UNL A   1      33.943  33.690  30.548  1.00  0.00     0.014 A 
ATOM     36  C   UNL A   1      35.469  34.626  28.915  1.00  0.00     0.014 A 
ATOM     37  C   UNL A   1      35.025  33.137  31.235  1.00  0.00     0.010 A 
ATOM     38  C   UNL A   1      36.539  34.010  29.559  1.00  0.00     0.010 A 
ATOM     39  C   UNL A   1      36.329  33.263  30.727  1.00  0.00    -0.014 A 
BRANCH  39  40
ATOM     40  C   UNL A   1      37.481  32.612  31.402  1.00  0.00     0.031 A 
ATOM     41  C   UNL A   1      38.183  31.452  30.751  1.00  0.00     0.074 A 
ATOM     42  C   UNL A   1      37.854  33.028  32.627  1.00  0.00     0.049 A 
ATOM     43  N   UNL A   1      39.167  30.719  31.208  1.00  0.00    -0.248 NA
ATOM     44  C   UNL A   1      37.698  31.045  29.423  1.00  0.00     0.031 C 
ATOM     45  C   UNL A   1      37.222  34.112  33.381  1.00  0.00     0.029 A 
ATOM     46  N   UNL A   1      38.852  32.583  33.459  1.00  0.00    -0.354 N 
ATOM     47  C   UNL A   1      39.410  29.763  30.231  1.00  0.00     0.074 A 
ATOM     48  C   UNL A   1      38.434  29.970  29.184  1.00  0.00     0.031 C 
ATOM     49  C   UNL A   1      37.861  34.264  34.552  1.00  0.00     0.029 A 
ATOM     50  C   UNL A   1      38.919  33.263  34.651  1.00  0.00     0.049 A 
ATOM     51  H   UNL A   1      39.461  31.847  33.224  1.00  0.00     0.167 HD
ATOM     52  C   UNL A   1      40.375  28.812  30.201  1.00  0.00     0.037 A 
ATOM     53  C   UNL A   1      39.735  33.093  35.708  1.00  0.00     0.037 A 
ATOM     54  C   UNL A   1      41.355  28.621  31.238  1.00  0.00     0.049 A 
ATOM     55  C   UNL A   1      40.788  32.017  35.655  1.00  0.00     0.074 A 
ATOM     56  C   UNL A   1      42.408  27.725  31.275  1.00  0.00     0.029 A 
ATOM     57  N   UNL A   1      41.397  29.336  32.427  1.00  0.00    -0.354 N 
ATOM     58  N   UNL A   1      41.054  31.166  34.695  1.00  0.00    -0.248 NA
ATOM     59  C   UNL A   1      41.657  31.885  36.832  1.00  0.00     0.031 C 
ATOM     60  C   UNL A   1      43.054  27.858  32.508  1.00  0.00     0.029 A 
ATOM     61  C   UNL A   1      42.443  28.881  33.215  1.00  0.00     0.049 A 
ATOM     62  H   UNL A   1      40.776  30.059  32.673  1.00  0.00     0.167 HD
ATOM     63  C   UNL A   1      42.139  30.420  35.136  1.00  0.00     0.074 A 
ATOM     64  C   UNL A   1      42.491  30.930  36.445  1.00  0.00     0.031 C 
ATOM     65  C   UNL A   1      42.785  29.404  34.514  1.00  0.00     0.037 A 
BRANCH  52  66
ATOM     66  C   UNL A   1      40.420  27.904  29.005  1.00  0.00     0.064 A 
ATOM     67  C   UNL A   1      39.663  26.723  28.946  1.00  0.00     0.173 A 
ATOM     68  C   UNL A   1      41.198  28.237  27.885  1.00  0.00     0.173 A 
ATOM     69  F   UNL A   1      38.909  26.352  29.993  1.00  0.00    -0.203 F 
ATOM     70  C   UNL A   1      39.707  25.897  27.827  1.00  0.00     0.198 A 
ATOM     71  C   UNL A   1      41.213  27.425  26.754  1.00  0.00     0.198 A 
ATOM     72  F   UNL A   1      41.937  29.357  27.884  1.00  0.00    -0.203 F 
ATOM     73  F   UNL A   1      39.015  24.749  27.817  1.00  0.00    -0.200 F 
ATOM     74  C   UNL A   1      40.474  26.252  26.729  1.00  0.00     0.200 A 
ATOM     75  F   UNL A   1      41.943  27.779  25.687  1.00  0.00    -0.200 F 
ATOM     76  F   UNL A   1      40.507  25.460  25.648  1.00  0.00    -0.200 F 
ENDBRANCH  52  66
BRANCH  53  77
ATOM     77  C   UNL A   1      39.603  33.972  36.900  1.00  0.00     0.064 A 
ATOM     78  C   UNL A   1      40.254  35.213  36.955  1.00  0.00     0.173 A 
ATOM     79  C   UNL A   1      38.835  33.588  38.009  1.00  0.00     0.173 A 
ATOM     80  F   UNL A   1      41.016  35.615  35.928  1.00  0.00    -0.203 F 
ATOM     81  C   UNL A   1      40.161  36.024  38.084  1.00  0.00     0.198 A 
ATOM     82  C   UNL A   1      38.718  34.415  39.124  1.00  0.00     0.198 A 
ATOM     83  F   UNL A   1      38.187  32.414  38.005  1.00  0.00    -0.203 F 
ATOM     84  F   UNL A   1      40.836  37.181  38.131  1.00  0.00    -0.200 F 
ATOM     85  C   UNL A   1      39.389  35.628  39.166  1.00  0.00     0.200 A 
ATOM     86  F   UNL A   1      37.957  34.035  40.160  1.00  0.00    -0.200 F 
ATOM     87  F   UNL A   1      39.299  36.410  40.250  1.00  0.00    -0.200 F 
ENDBRANCH  53  77
BRANCH  65  88
ATOM     88  C   UNL A   1      43.964  28.800  35.222  1.00  0.00     0.064 A 
ATOM     89  C   UNL A   1      43.822  27.718  36.104  1.00  0.00     0.173 A 
ATOM     90  C   UNL A   1      45.259  29.288  34.985  1.00  0.00     0.173 A 
ATOM     91  F   UNL A   1      42.605  27.225  36.377  1.00  0.00    -0.203 F 
ATOM     92  C   UNL A   1      44.930  27.166  36.744  1.00  0.00     0.198 A 
ATOM     93  C   UNL A   1      46.367  28.712  35.600  1.00  0.00     0.198 A 
ATOM     94  F   UNL A   1      45.451  30.315  34.145  1.00  0.00    -0.203 F 
ATOM     95  F   UNL A   1      44.764  26.169  37.624  1.00  0.00    -0.200 F 
ATOM     96  C   UNL A   1      46.200  27.658  36.485  1.00  0.00     0.200 A 
ATOM     97  F   UNL A   1      47.595  29.176  35.336  1.00  0.00    -0.200 F 
ATOM     98  F   UNL A   1      47.265  27.120  37.096  1.00  0.00    -0.200 F 
ENDBRANCH  65  88
ENDBRANCH  39  40
ENDBRANCH  31  34
ENDBRANCH  29  30
ENDBRANCH  28  29
ENDBRANCH  27  28
ENDBRANCH  26  27
ENDBRANCH   1  26
TORSDOF 17
ENDMDL
MODEL 2
REMARK VINA RESULT:     -11.3      1.265      7.513
REMARK SMILES C[C@@H](C(=O)NCCCCCCNC(=O)c1ccc(-c2c3nc(c(-c4c(F)c(F)c(F)c(F)c4F)c4ccc([nH]4)c(-c4c(F)c(F)c(F)c(F)c4F)c4nc(c(-c5c(F)c(F)c(F)c(F)c5F)c5ccc2[nH]5)C=C4)C=C3)cc1)N(C)C(=O)NC[C@H]1C[N@@H+]2CCC[C@@H]2CO1
REMARK SMILES IDX 7 1 6 2 5 3 3 4 4 5 2 7 1 8 78 9 79 10 80 11 81 12 82 13
REMARK SMILES IDX 83 15 84 16 85 17 92 18 86 19 91 20 87 21 90 22 88 24 89 25
REMARK SMILES IDX 8 26 9 27 10 28 11 29 12 30 13 31 14 33 15 34 16 35 77 36
REMARK SMILES IDX 17 37 76 38 18 39 19 40 20 41 70 42 21 43 75 44 69 45 71 46
REMARK SMILES IDX 22 47 74 48 68 49 67 50 23 52 55 53 35 54 54 55 36 56 39 57
REMARK SMILES IDX 53 58 72 59 37 60 38 61 52 63 73 64 40 65 24 66 25 67 33 68
REMARK SMILES IDX 26 69 27 70 31 71 34 72 28 73 29 74 32 75 30 76 56 77 57 78
REMARK SMILES IDX 65 79 58 80 59 81 63 82 66 83 60 84 61 85 64 86 62 87 41 88
REMARK SMILES IDX 42 89 50 90 43 91 44 92 48 93 51 94 45 95 46 96 49 97 47 98
REMARK H PARENT 5 6 82 14 86 23 12 32 71 51 39 62
REMARK Flexibility Score: inf
ROOT
ATOM      1  C   UNL A   1      32.820  28.648  27.107  1.00  0.00     0.021 C 
ENDROOT
BRANCH   1   2
ATOM      2  C   UNL A   1      31.405  28.296  27.562  1.00  0.00     0.116 C 
BRANCH   2   3
ATOM      3  N   UNL A   1      31.034  26.971  27.124  1.00  0.00    -0.354 N 
ATOM      4  C   UNL A   1      30.887  26.472  25.863  1.00  0.00     0.242 C 
ATOM      5  O   UNL A   1      30.668  25.259  25.781  1.00  0.00    -0.273 OA
ATOM      6  H   UNL A   1      30.858  26.328  27.848  1.00  0.00     0.163 HD
BRANCH   4   7
ATOM      7  C   UNL A   1      31.112  27.389  24.629  1.00  0.00     0.172 C 
ATOM      8  C   UNL A   1      29.842  27.923  23.959  1.00  0.00     0.042 C 
BRANCH   7   9
ATOM      9  N   UNL A   1      32.040  26.734  23.678  1.00  0.00    -0.316 N 
ATOM     10  C   UNL A   1      31.425  26.231  22.465  1.00  0.00     0.149 C 
BRANCH   9  11
ATOM     11  C   UNL A   1      33.387  26.831  23.929  1.00  0.00     0.317 C 
ATOM     12  O   UNL A   1      34.024  27.866  23.709  1.00  0.00    -0.249 OA
ATOM     13  N   UNL A   1      34.109  25.826  24.455  1.00  0.00    -0.335 N 
ATOM     14  H   UNL A   1      35.066  26.052  24.497  1.00  0.00     0.165 HD
BRANCH  13  15
ATOM     15  C   UNL A   1      33.852  24.498  24.977  1.00  0.00     0.155 C 
BRANCH  15  16
ATOM     16  C   UNL A   1      33.863  23.385  23.912  1.00  0.00     0.192 C 
ATOM     17  C   UNL A   1      34.648  22.088  24.283  1.00  0.00     0.296 C 
ATOM     18  O   UNL A   1      32.496  23.158  23.499  1.00  0.00    -0.364 OA
ATOM     19  N   UNL A   1      33.832  20.958  24.750  1.00  0.00    -0.328 N 
ATOM     20  C   UNL A   1      32.321  21.859  22.934  1.00  0.00     0.225 C 
ATOM     21  C   UNL A   1      34.545  19.675  24.701  1.00  0.00     0.262 C 
ATOM     22  C   UNL A   1      32.558  20.809  24.020  1.00  0.00     0.210 C 
ATOM     23  H   UNL A   1      33.627  21.193  25.722  1.00  0.00     0.348 HD
ATOM     24  C   UNL A   1      33.460  18.645  24.433  1.00  0.00     0.068 C 
ATOM     25  C   UNL A   1      32.530  19.382  23.490  1.00  0.00     0.073 C 
ENDBRANCH  15  16
ENDBRANCH  13  15
ENDBRANCH   9  11
ENDBRANCH   7   9
ENDBRANCH   4   7
ENDBRANCH   2   3
ENDBRANCH   1   2
BRANCH   1  26
ATOM     26  C   UNL A   1      32.950  30.062  26.526  1.00  0.00     0.002 C 
BRANCH  26  27
ATOM     27  C   UNL A   1      31.623  30.749  26.186  1.00  0.00     0.002 C 
BRANCH  27  28
ATOM     28  C   UNL A   1      31.447  32.146  26.786  1.00  0.00     0.021 C 
BRANCH  28  29
ATOM     29  C   UNL A   1      32.755  32.860  27.110  1.00  0.00     0.116 C 
BRANCH  29  30
ATOM     30  N   UNL A   1      32.532  34.200  27.628  1.00  0.00    -0.352 N 
ATOM     31  C   UNL A   1      33.101  34.818  28.711  1.00  0.00     0.251 C 
ATOM     32  H   UNL A   1      31.878  34.741  27.129  1.00  0.00     0.163 HD
ATOM     33  O   UNL A   1      32.648  35.882  29.128  1.00  0.00    -0.269 OA
BRANCH  31  34
ATOM     34  C   UNL A   1      34.252  34.193  29.395  1.00  0.00     0.039 A 
ATOM     35  C   UNL A   1      34.013  33.325  30.463  1.00  0.00     0.014 A 
ATOM     36  C   UNL A   1      35.561  34.464  28.987  1.00  0.00     0.014 A 
ATOM     37  C   UNL A   1      35.085  32.682  31.083  1.00  0.00     0.010 A 
ATOM     38  C   UNL A   1      36.621  33.764  29.554  1.00  0.00     0.010 A 
ATOM     39  C   UNL A   1      36.395  32.869  30.610  1.00  0.00    -0.014 A 
BRANCH  39  40
ATOM     40  C   UNL A   1      37.538  32.129  31.206  1.00  0.00     0.031 A 
ATOM     41  C   UNL A   1      38.035  32.482  32.580  1.00  0.00     0.074 A 
ATOM     42  C   UNL A   1      38.163  31.180  30.483  1.00  0.00     0.049 A 
ATOM     43  N   UNL A   1      39.052  31.991  33.243  1.00  0.00    -0.248 NA
ATOM     44  C   UNL A   1      37.311  33.546  33.293  1.00  0.00     0.031 C 
ATOM     45  C   UNL A   1      37.803  30.780  29.122  1.00  0.00     0.029 A 
ATOM     46  N   UNL A   1      39.239  30.384  30.789  1.00  0.00    -0.354 N 
ATOM     47  C   UNL A   1      39.094  32.691  34.441  1.00  0.00     0.074 A 
ATOM     48  C   UNL A   1      38.039  33.679  34.392  1.00  0.00     0.031 C 
ATOM     49  C   UNL A   1      38.627  29.799  28.719  1.00  0.00     0.029 A 
ATOM     50  C   UNL A   1      39.598  29.530  29.775  1.00  0.00     0.049 A 
ATOM     51  H   UNL A   1      39.709  30.422  31.652  1.00  0.00     0.167 HD
ATOM     52  C   UNL A   1      39.923  32.509  35.498  1.00  0.00     0.037 A 
ATOM     53  C   UNL A   1      40.603  28.637  29.700  1.00  0.00     0.037 A 
ATOM     54  C   UNL A   1      40.960  31.512  35.549  1.00  0.00     0.049 A 
ATOM     55  C   UNL A   1      41.521  28.467  30.883  1.00  0.00     0.074 A 
ATOM     56  C   UNL A   1      41.815  31.210  36.594  1.00  0.00     0.029 A 
ATOM     57  N   UNL A   1      41.288  30.658  34.505  1.00  0.00    -0.354 N 
ATOM     58  N   UNL A   1      41.506  29.084  32.038  1.00  0.00    -0.248 NA
ATOM     59  C   UNL A   1      42.592  27.470  30.750  1.00  0.00     0.031 C 
ATOM     60  C   UNL A   1      42.696  30.212  36.165  1.00  0.00     0.029 A 
ATOM     61  C   UNL A   1      42.351  29.848  34.874  1.00  0.00     0.049 A 
ATOM     62  H   UNL A   1      40.833  30.632  33.633  1.00  0.00     0.167 HD
ATOM     63  C   UNL A   1      42.541  28.532  32.780  1.00  0.00     0.074 A 
ATOM     64  C   UNL A   1      43.154  27.517  31.949  1.00  0.00     0.031 C 
ATOM     65  C   UNL A   1      42.946  28.836  34.038  1.00  0.00     0.037 A 
BRANCH  52  66
ATOM     66  C   UNL A   1      39.743  33.409  36.688  1.00  0.00     0.064 A 
ATOM     67  C   UNL A   1      40.429  34.628  36.801  1.00  0.00     0.173 A 
ATOM     68  C   UNL A   1      38.841  33.069  37.708  1.00  0.00     0.173 A 
ATOM     69  F   UNL A   1      41.310  34.997  35.859  1.00  0.00    -0.203 F 
ATOM     70  C   UNL A   1      40.244  35.456  37.905  1.00  0.00     0.198 A 
ATOM     71  C   UNL A   1      38.633  33.916  38.794  1.00  0.00     0.198 A 
ATOM     72  F   UNL A   1      38.153  31.918  37.648  1.00  0.00    -0.203 F 
ATOM     73  F   UNL A   1      40.950  36.590  38.015  1.00  0.00    -0.200 F 
ATOM     74  C   UNL A   1      39.340  35.104  38.895  1.00  0.00     0.200 A 
ATOM     75  F   UNL A   1      37.748  33.581  39.742  1.00  0.00    -0.200 F 
ATOM     76  F   UNL A   1      39.155  35.907  39.952  1.00  0.00    -0.200 F 
ENDBRANCH  52  66
BRANCH  53  77
ATOM     77  C   UNL A   1      40.784  27.820  28.471  1.00  0.00     0.064 A 
ATOM     78  C   UNL A   1      41.582  28.279  27.412  1.00  0.00     0.173 A 
ATOM     79  C   UNL A   1      40.159  26.574  28.323  1.00  0.00     0.173 A 
ATOM     80  F   UNL A   1      42.184  29.474  27.498  1.00  0.00    -0.203 F 
ATOM     81  C   UNL A   1      41.725  27.534  26.244  1.00  0.00     0.198 A 
ATOM     82  C   UNL A   1      40.329  25.815  27.167  1.00  0.00     0.198 A 
ATOM     83  F   UNL A   1      39.391  26.086  29.308  1.00  0.00    -0.203 F 
ATOM     84  F   UNL A   1      42.451  28.020  25.228  1.00  0.00    -0.200 F 
ATOM     85  C   UNL A   1      41.104  26.300  26.124  1.00  0.00     0.200 A 
ATOM     86  F   UNL A   1      39.741  24.616  27.063  1.00  0.00    -0.200 F 
ATOM     87  F   UNL A   1      41.246  25.583  25.002  1.00  0.00    -0.200 F 
ENDBRANCH  53  77
BRANCH  65  88
ATOM     88  C   UNL A   1      44.084  28.038  34.607  1.00  0.00     0.064 A 
ATOM     89  C   UNL A   1      45.414  28.471  34.509  1.00  0.00     0.173 A 
ATOM     90  C   UNL A   1      43.833  26.839  35.295  1.00  0.00     0.173 A 
ATOM     91  F   UNL A   1      45.709  29.602  33.849  1.00  0.00    -0.203 F 
ATOM     92  C   UNL A   1      46.454  27.720  35.053  1.00  0.00     0.198 A 
ATOM     93  C   UNL A   1      44.871  26.109  35.866  1.00  0.00     0.198 A 
ATOM     94  F   UNL A   1      42.579  26.384  35.425  1.00  0.00    -0.203 F 
ATOM     95  F   UNL A   1      47.721  28.127  34.900  1.00  0.00    -0.200 F 
ATOM     96  C   UNL A   1      46.181  26.546  35.737  1.00  0.00     0.200 A 
ATOM     97  F   UNL A   1      44.605  24.984  36.541  1.00  0.00    -0.200 F 
ATOM     98  F   UNL A   1      47.182  25.829  36.267  1.00  0.00    -0.200 F 
ENDBRANCH  65  88
ENDBRANCH  39  40
ENDBRANCH  31  34
ENDBRANCH  29  30
ENDBRANCH  28  29
ENDBRANCH  27  28
ENDBRANCH  26  27
ENDBRANCH   1  26
TORSDOF 17
ENDMDL
MODEL 3
REMARK VINA RESULT:     -11.2      5.617     10.934
REMARK SMILES C[C@@H](C(=O)NCCCCCCNC(=O)c1ccc(-c2c3nc(c(-c4c(F)c(F)c(F)c(F)c4F)c4ccc([nH]4)c(-c4c(F)c(F)c(F)c(F)c4F)c4nc(c(-c5c(F)c(F)c(F)c(F)c5F)c5ccc2[nH]5)C=C4)C=C3)cc1)N(C)C(=O)NC[C@H]1C[N@@H+]2CCC[C@@H]2CO1
REMARK SMILES IDX 7 1 6 2 5 3 3 4 4 5 2 7 1 8 78 9 79 10 80 11 81 12 82 13
REMARK SMILES IDX 83 15 84 16 85 17 92 18 86 19 91 20 87 21 90 22 88 24 89 25
REMARK SMILES IDX 8 26 9 27 10 28 11 29 12 30 13 31 14 33 15 34 16 35 77 36
REMARK SMILES IDX 17 37 76 38 18 39 19 40 20 41 70 42 21 43 75 44 69 45 71 46
REMARK SMILES IDX 22 47 74 48 68 49 67 50 23 52 55 53 35 54 54 55 36 56 39 57
REMARK SMILES IDX 53 58 72 59 37 60 38 61 52 63 73 64 40 65 24 66 25 67 33 68
REMARK SMILES IDX 26 69 27 70 31 71 34 72 28 73 29 74 32 75 30 76 56 77 57 78
REMARK SMILES IDX 65 79 58 80 59 81 63 82 66 83 60 84 61 85 64 86 62 87 41 88
REMARK SMILES IDX 42 89 50 90 43 91 44 92 48 93 51 94 45 95 46 96 49 97 47 98
REMARK H PARENT 5 6 82 14 86 23 12 32 71 51 39 62
REMARK Flexibility Score: inf
ROOT
ATOM      1  C   UNL A   1      36.614  23.091  25.859  1.00  0.00     0.021 C 
ENDROOT
BRANCH   1   2
ATOM      2  C   UNL A   1      35.169  22.675  26.124  1.00  0.00     0.116 C 
BRANCH   2   3
ATOM      3  N   UNL A   1      34.354  23.818  26.463  1.00  0.00    -0.354 N 
ATOM      4  C   UNL A   1      33.336  24.407  25.772  1.00  0.00     0.242 C 
ATOM      5  O   UNL A   1      32.734  25.313  26.358  1.00  0.00    -0.273 OA
ATOM      6  H   UNL A   1      34.567  24.238  27.327  1.00  0.00     0.163 HD
BRANCH   4   7
ATOM      7  C   UNL A   1      32.914  23.856  24.381  1.00  0.00     0.172 C 
ATOM      8  C   UNL A   1      33.168  24.789  23.193  1.00  0.00     0.042 C 
BRANCH   7   9
ATOM      9  N   UNL A   1      31.520  23.355  24.441  1.00  0.00    -0.316 N 
ATOM     10  C   UNL A   1      30.672  23.766  23.338  1.00  0.00     0.149 C 
BRANCH   9  11
ATOM     11  C   UNL A   1      31.217  22.417  25.397  1.00  0.00     0.317 C 
ATOM     12  O   UNL A   1      30.449  22.659  26.334  1.00  0.00    -0.249 OA
ATOM     13  N   UNL A   1      31.704  21.164  25.377  1.00  0.00    -0.335 N 
ATOM     14  H   UNL A   1      31.435  20.659  26.178  1.00  0.00     0.165 HD
BRANCH  13  15
ATOM     15  C   UNL A   1      32.519  20.360  24.488  1.00  0.00     0.155 C 
BRANCH  15  16
ATOM     16  C   UNL A   1      33.358  19.281  25.200  1.00  0.00     0.192 C 
ATOM     17  C   UNL A   1      32.556  18.174  25.952  1.00  0.00     0.296 C 
ATOM     18  O   UNL A   1      34.324  18.777  24.250  1.00  0.00    -0.364 OA
ATOM     19  N   UNL A   1      32.411  16.894  25.242  1.00  0.00    -0.328 N 
ATOM     20  C   UNL A   1      34.788  17.475  24.604  1.00  0.00     0.225 C 
ATOM     21  C   UNL A   1      32.016  15.789  26.123  1.00  0.00     0.262 C 
ATOM     22  C   UNL A   1      33.623  16.489  24.504  1.00  0.00     0.210 C 
ATOM     23  H   UNL A   1      31.664  17.074  24.571  1.00  0.00     0.348 HD
ATOM     24  C   UNL A   1      32.654  14.558  25.502  1.00  0.00     0.068 C 
ATOM     25  C   UNL A   1      33.978  15.091  24.993  1.00  0.00     0.073 C 
ENDBRANCH  15  16
ENDBRANCH  13  15
ENDBRANCH   9  11
ENDBRANCH   7   9
ENDBRANCH   4   7
ENDBRANCH   2   3
ENDBRANCH   1   2
BRANCH   1  26
ATOM     26  C   UNL A   1      37.337  22.204  24.837  1.00  0.00     0.002 C 
BRANCH  26  27
ATOM     27  C   UNL A   1      36.843  20.755  24.771  1.00  0.00     0.002 C 
BRANCH  27  28
ATOM     28  C   UNL A   1      37.923  19.695  25.001  1.00  0.00     0.021 C 
BRANCH  28  29
ATOM     29  C   UNL A   1      39.144  20.196  25.764  1.00  0.00     0.116 C 
BRANCH  29  30
ATOM     30  N   UNL A   1      40.146  19.156  25.935  1.00  0.00    -0.352 N 
ATOM     31  C   UNL A   1      41.498  19.277  26.128  1.00  0.00     0.251 C 
ATOM     32  H   UNL A   1      39.805  18.234  25.908  1.00  0.00     0.163 HD
ATOM     33  O   UNL A   1      42.227  18.290  26.050  1.00  0.00    -0.269 OA
BRANCH  31  34
ATOM     34  C   UNL A   1      42.086  20.602  26.410  1.00  0.00     0.039 A 
ATOM     35  C   UNL A   1      42.412  21.439  25.340  1.00  0.00     0.014 A 
ATOM     36  C   UNL A   1      42.318  21.018  27.724  1.00  0.00     0.014 A 
ATOM     37  C   UNL A   1      42.914  22.717  25.590  1.00  0.00     0.010 A 
ATOM     38  C   UNL A   1      42.747  22.318  27.973  1.00  0.00     0.010 A 
ATOM     39  C   UNL A   1      43.053  23.180  26.910  1.00  0.00    -0.014 A 
BRANCH  39  40
ATOM     40  C   UNL A   1      43.508  24.565  27.191  1.00  0.00     0.031 A 
ATOM     41  C   UNL A   1      42.544  25.584  27.733  1.00  0.00     0.074 A 
ATOM     42  C   UNL A   1      44.775  24.919  26.903  1.00  0.00     0.049 A 
ATOM     43  N   UNL A   1      42.738  26.854  27.987  1.00  0.00    -0.248 NA
ATOM     44  C   UNL A   1      41.173  25.122  27.999  1.00  0.00     0.031 C 
ATOM     45  C   UNL A   1      45.791  24.034  26.332  1.00  0.00     0.029 A 
ATOM     46  N   UNL A   1      45.424  26.121  27.043  1.00  0.00    -0.354 N 
ATOM     47  C   UNL A   1      41.516  27.341  28.431  1.00  0.00     0.074 A 
ATOM     48  C   UNL A   1      40.573  26.248  28.357  1.00  0.00     0.031 C 
ATOM     49  C   UNL A   1      46.940  24.714  26.192  1.00  0.00     0.029 A 
ATOM     50  C   UNL A   1      46.731  26.093  26.623  1.00  0.00     0.049 A 
ATOM     51  H   UNL A   1      44.993  26.927  27.408  1.00  0.00     0.167 HD
ATOM     52  C   UNL A   1      41.215  28.583  28.883  1.00  0.00     0.037 A 
ATOM     53  C   UNL A   1      47.656  27.071  26.582  1.00  0.00     0.037 A 
ATOM     54  C   UNL A   1      42.163  29.663  28.970  1.00  0.00     0.049 A 
ATOM     55  C   UNL A   1      47.290  28.447  27.074  1.00  0.00     0.074 A 
ATOM     56  C   UNL A   1      41.971  30.940  29.467  1.00  0.00     0.029 A 
ATOM     57  N   UNL A   1      43.482  29.594  28.545  1.00  0.00    -0.354 N 
ATOM     58  N   UNL A   1      46.151  28.876  27.559  1.00  0.00    -0.248 NA
ATOM     59  C   UNL A   1      48.342  29.471  27.016  1.00  0.00     0.031 C 
ATOM     60  C   UNL A   1      43.156  31.661  29.291  1.00  0.00     0.029 A 
ATOM     61  C   UNL A   1      44.107  30.816  28.743  1.00  0.00     0.049 A 
ATOM     62  H   UNL A   1      43.910  28.795  28.160  1.00  0.00     0.167 HD
ATOM     63  C   UNL A   1      46.357  30.208  27.894  1.00  0.00     0.074 A 
ATOM     64  C   UNL A   1      47.736  30.511  27.570  1.00  0.00     0.031 C 
ATOM     65  C   UNL A   1      45.483  31.100  28.422  1.00  0.00     0.037 A 
BRANCH  52  66
ATOM     66  C   UNL A   1      39.800  28.841  29.317  1.00  0.00     0.064 A 
ATOM     67  C   UNL A   1      39.385  28.627  30.641  1.00  0.00     0.173 A 
ATOM     68  C   UNL A   1      38.858  29.349  28.410  1.00  0.00     0.173 A 
ATOM     69  F   UNL A   1      40.242  28.133  31.547  1.00  0.00    -0.203 F 
ATOM     70  C   UNL A   1      38.072  28.881  31.031  1.00  0.00     0.198 A 
ATOM     71  C   UNL A   1      37.555  29.634  28.812  1.00  0.00     0.198 A 
ATOM     72  F   UNL A   1      39.203  29.579  27.134  1.00  0.00    -0.203 F 
ATOM     73  F   UNL A   1      37.686  28.620  32.287  1.00  0.00    -0.200 F 
ATOM     74  C   UNL A   1      37.162  29.393  30.119  1.00  0.00     0.200 A 
ATOM     75  F   UNL A   1      36.681  30.143  27.933  1.00  0.00    -0.200 F 
ATOM     76  F   UNL A   1      35.902  29.647  30.499  1.00  0.00    -0.200 F 
ENDBRANCH  52  66
BRANCH  53  77
ATOM     77  C   UNL A   1      49.024  26.782  26.074  1.00  0.00     0.064 A 
ATOM     78  C   UNL A   1      50.019  26.284  26.928  1.00  0.00     0.173 A 
ATOM     79  C   UNL A   1      49.368  27.006  24.734  1.00  0.00     0.173 A 
ATOM     80  F   UNL A   1      49.745  26.071  28.223  1.00  0.00    -0.203 F 
ATOM     81  C   UNL A   1      51.311  26.045  26.465  1.00  0.00     0.198 A 
ATOM     82  C   UNL A   1      50.652  26.737  24.265  1.00  0.00     0.198 A 
ATOM     83  F   UNL A   1      48.452  27.477  23.874  1.00  0.00    -0.203 F 
ATOM     84  F   UNL A   1      52.256  25.619  27.314  1.00  0.00    -0.200 F 
ATOM     85  C   UNL A   1      51.625  26.266  25.133  1.00  0.00     0.200 A 
ATOM     86  F   UNL A   1      50.946  26.937  22.972  1.00  0.00    -0.200 F 
ATOM     87  F   UNL A   1      52.867  26.034  24.688  1.00  0.00    -0.200 F 
ENDBRANCH  53  77
BRANCH  65  88
ATOM     88  C   UNL A   1      46.000  32.478  28.719  1.00  0.00     0.064 A 
ATOM     89  C   UNL A   1      45.912  33.519  27.784  1.00  0.00     0.173 A 
ATOM     90  C   UNL A   1      46.558  32.769  29.975  1.00  0.00     0.173 A 
ATOM     91  F   UNL A   1      45.401  33.290  26.565  1.00  0.00    -0.203 F 
ATOM     92  C   UNL A   1      46.389  34.794  28.083  1.00  0.00     0.198 A 
ATOM     93  C   UNL A   1      47.003  34.052  30.283  1.00  0.00     0.198 A 
ATOM     94  F   UNL A   1      46.659  31.812  30.908  1.00  0.00    -0.203 F 
ATOM     95  F   UNL A   1      46.343  35.759  27.155  1.00  0.00    -0.200 F 
ATOM     96  C   UNL A   1      46.926  35.060  29.334  1.00  0.00     0.200 A 
ATOM     97  F   UNL A   1      47.505  34.312  31.496  1.00  0.00    -0.200 F 
ATOM     98  F   UNL A   1      47.377  36.289  29.623  1.00  0.00    -0.200 F 
ENDBRANCH  65  88
ENDBRANCH  39  40
ENDBRANCH  31  34
ENDBRANCH  29  30
ENDBRANCH  28  29
ENDBRANCH  27  28
ENDBRANCH  26  27
ENDBRANCH   1  26
TORSDOF 17
ENDMDL
