MODEL 1
REMARK VINA RESULT:     -12.0      0.000      0.000
REMARK SMILES Cc1c(CC(=O)N[C@H](CO)C(=O)NCCCCCCNC(=O)c2ccc(-c3c4nc(c(-c5c(F)c(F)c(F)c(F)c5F)c5ccc([nH]5)c(-c5c(F)c(F)c(F)c(F)c5F)c5nc(c(-c6c(F)c(F)c(F)c(F)c6F)c6ccc3[nH]6)C=C5)C=C4)cc2)cc(-c2ccc(S(C)(=O)=O)cc2)n1-c1cccc(F)c1
REMARK SMILES IDX 15 1 14 2 13 3 11 4 12 5 8 7 7 8 5 9 6 10 4 12 3 13 1 14
REMARK SMILES IDX 2 15 98 16 86 17 87 18 99 19 100 20 105 21 101 22 103 23
REMARK SMILES IDX 102 24 104 25 88 26 89 27 97 28 90 29 96 30 91 31 92 32
REMARK SMILES IDX 93 33 94 34 95 35 9 36 10 37 16 39 17 40 18 41 19 42 20 43
REMARK SMILES IDX 21 44 22 46 23 47 24 48 85 49 25 50 84 51 26 52 27 53 28 54
REMARK SMILES IDX 78 55 29 56 83 57 77 58 79 59 30 60 82 61 76 62 75 63 31 65
REMARK SMILES IDX 63 66 43 67 62 68 44 69 47 70 61 71 80 72 45 73 46 74 60 76
REMARK SMILES IDX 81 77 48 78 32 79 33 80 41 81 34 82 35 83 39 84 42 85 36 86
REMARK SMILES IDX 37 87 40 88 38 89 64 90 65 91 73 92 66 93 67 94 71 95 74 96
REMARK SMILES IDX 68 97 69 98 72 99 70 100 49 101 50 102 58 103 51 104 52 105
REMARK SMILES IDX 56 106 59 107 53 108 54 109 57 110 55 111
REMARK H PARENT 13 6 7 11 10 38 20 45 79 64 47 75
REMARK Flexibility Score: inf
ROOT
ATOM      1  C   UNL A   1      37.150  32.237  33.911  1.00  0.00     0.021 C 
ENDROOT
BRANCH   1   2
ATOM      2  C   UNL A   1      36.949  33.377  32.854  1.00  0.00     0.116 C 
BRANCH   2   3
ATOM      3  N   UNL A   1      36.446  34.653  33.359  1.00  0.00    -0.354 N 
ATOM      4  C   UNL A   1      35.189  35.141  33.191  1.00  0.00     0.244 C 
ATOM      5  O   UNL A   1      34.835  36.194  33.703  1.00  0.00    -0.273 OA
ATOM      6  H   UNL A   1      37.076  35.210  33.869  1.00  0.00     0.163 HD
BRANCH   4   7
ATOM      7  C   UNL A   1      34.315  34.227  32.402  1.00  0.00     0.197 C 
BRANCH   7   8
ATOM      8  N   UNL A   1      33.249  35.108  31.744  1.00  0.00    -0.342 N 
ATOM      9  C   UNL A   1      32.999  35.803  30.563  1.00  0.00     0.225 C 
ATOM     10  O   UNL A   1      31.931  36.442  30.618  1.00  0.00    -0.275 OA
ATOM     11  H   UNL A   1      32.488  35.218  32.358  1.00  0.00     0.164 HD
BRANCH   9  12
ATOM     12  C   UNL A   1      33.799  35.857  29.155  1.00  0.00     0.137 C 
BRANCH  12  13
ATOM     13  C   UNL A   1      34.386  34.528  28.433  1.00  0.00    -0.017 A 
ATOM     14  C   UNL A   1      37.023  34.141  29.648  1.00  0.00     0.065 C 
ATOM     15  C   UNL A   1      35.929  33.650  28.764  1.00  0.00     0.024 A 
ATOM     16  N   UNL A   1      35.778  31.920  28.034  1.00  0.00    -0.313 N 
ATOM     17  C   UNL A   1      33.244  33.275  27.446  1.00  0.00     0.033 A 
ATOM     18  C   UNL A   1      34.092  31.710  27.257  1.00  0.00     0.053 A 
BRANCH  16  19
ATOM     19  C   UNL A   1      36.464  30.734  28.390  1.00  0.00     0.049 A 
ATOM     20  C   UNL A   1      36.196  30.238  29.675  1.00  0.00     0.027 A 
ATOM     21  C   UNL A   1      37.392  30.137  27.550  1.00  0.00     0.065 A 
ATOM     22  C   UNL A   1      36.999  29.255  30.210  1.00  0.00     0.005 A 
ATOM     23  C   UNL A   1      38.197  29.160  28.107  1.00  0.00     0.125 A 
ATOM     24  C   UNL A   1      38.054  28.776  29.444  1.00  0.00     0.039 A 
ATOM     25  F   UNL A   1      39.131  28.577  27.347  1.00  0.00    -0.207 F 
ENDBRANCH  16  19
BRANCH  18  26
ATOM     26  C   UNL A   1      33.435  30.408  27.016  1.00  0.00    -0.001 A 
ATOM     27  C   UNL A   1      33.944  29.192  27.521  1.00  0.00     0.011 A 
ATOM     28  C   UNL A   1      32.248  30.401  26.295  1.00  0.00     0.011 A 
ATOM     29  C   UNL A   1      33.357  27.974  27.179  1.00  0.00     0.021 A 
ATOM     30  C   UNL A   1      31.645  29.192  25.961  1.00  0.00     0.021 A 
ATOM     31  C   UNL A   1      32.226  27.988  26.364  1.00  0.00     0.067 A 
BRANCH  31  32
ATOM     32  S   UNL A   1      31.527  26.454  25.810  1.00  0.00     0.175 S 
ATOM     33  C   UNL A   1      30.607  26.915  24.363  1.00  0.00     0.163 C 
ATOM     34  O   UNL A   1      32.628  25.603  25.408  1.00  0.00    -0.224 OA
ATOM     35  O   UNL A   1      30.570  26.026  26.813  1.00  0.00    -0.224 OA
ENDBRANCH  31  32
ENDBRANCH  18  26
ENDBRANCH  12  13
ENDBRANCH   9  12
ENDBRANCH   7   8
BRANCH   7  36
ATOM     36  C   UNL A   1      33.891  33.030  33.339  1.00  0.00     0.191 C 
BRANCH  36  37
ATOM     37  O   UNL A   1      32.499  33.054  33.662  1.00  0.00    -0.394 OA
ATOM     38  H   UNL A   1      32.334  32.476  34.423  1.00  0.00     0.210 HD
ENDBRANCH  36  37
ENDBRANCH   7  36
ENDBRANCH   4   7
ENDBRANCH   2   3
ENDBRANCH   1   2
BRANCH   1  39
ATOM     39  C   UNL A   1      38.555  31.814  35.656  1.00  0.00     0.002 C 
BRANCH  39  40
ATOM     40  C   UNL A   1      39.299  32.739  36.959  1.00  0.00     0.002 C 
BRANCH  40  41
ATOM     41  C   UNL A   1      39.747  34.239  37.198  1.00  0.00     0.021 C 
BRANCH  41  42
ATOM     42  C   UNL A   1      39.555  35.457  36.242  1.00  0.00     0.116 C 
BRANCH  42  43
ATOM     43  N   UNL A   1      40.640  36.161  35.571  1.00  0.00    -0.352 N 
ATOM     44  C   UNL A   1      41.512  35.684  34.549  1.00  0.00     0.251 C 
ATOM     45  H   UNL A   1      40.791  37.090  35.863  1.00  0.00     0.163 HD
ATOM     46  O   UNL A   1      42.249  36.529  34.030  1.00  0.00    -0.269 OA
BRANCH  44  47
ATOM     47  C   UNL A   1      41.599  34.207  34.017  1.00  0.00     0.039 A 
ATOM     48  C   UNL A   1      42.755  33.445  34.024  1.00  0.00     0.014 A 
ATOM     49  C   UNL A   1      40.609  33.583  33.217  1.00  0.00     0.014 A 
ATOM     50  C   UNL A   1      42.811  32.043  33.495  1.00  0.00     0.010 A 
ATOM     51  C   UNL A   1      40.679  32.156  32.650  1.00  0.00     0.010 A 
ATOM     52  C   UNL A   1      41.755  31.243  32.852  1.00  0.00    -0.014 A 
BRANCH  52  53
ATOM     53  C   UNL A   1      42.196  29.803  31.880  1.00  0.00     0.031 A 
ATOM     54  C   UNL A   1      42.311  28.922  33.074  1.00  0.00     0.074 A 
ATOM     55  C   UNL A   1      42.659  29.178  30.623  1.00  0.00     0.049 A 
ATOM     56  N   UNL A   1      43.181  29.352  33.946  1.00  0.00    -0.248 NA
ATOM     57  C   UNL A   1      41.308  28.028  33.643  1.00  0.00     0.031 C 
ATOM     58  C   UNL A   1      43.067  29.806  29.325  1.00  0.00     0.029 A 
ATOM     59  N   UNL A   1      42.942  27.756  30.167  1.00  0.00    -0.354 N 
ATOM     60  C   UNL A   1      43.074  28.598  35.077  1.00  0.00     0.074 A 
ATOM     61  C   UNL A   1      41.783  27.927  34.900  1.00  0.00     0.031 C 
ATOM     62  C   UNL A   1      43.324  28.919  28.293  1.00  0.00     0.029 A 
ATOM     63  C   UNL A   1      43.229  27.502  28.685  1.00  0.00     0.049 A 
ATOM     64  H   UNL A   1      42.939  27.012  30.811  1.00  0.00     0.167 HD
ATOM     65  C   UNL A   1      44.303  28.091  35.392  1.00  0.00     0.037 A 
ATOM     66  C   UNL A   1      43.514  26.305  27.905  1.00  0.00     0.037 A 
ATOM     67  C   UNL A   1      44.546  26.907  34.605  1.00  0.00     0.049 A 
ATOM     68  C   UNL A   1      44.272  25.473  28.830  1.00  0.00     0.074 A 
ATOM     69  C   UNL A   1      43.702  25.861  34.268  1.00  0.00     0.029 A 
ATOM     70  N   UNL A   1      45.509  26.969  33.624  1.00  0.00    -0.354 N 
ATOM     71  N   UNL A   1      45.507  25.698  29.146  1.00  0.00    -0.248 NA
ATOM     72  C   UNL A   1      43.622  24.348  29.471  1.00  0.00     0.031 C 
ATOM     73  C   UNL A   1      43.828  25.781  32.873  1.00  0.00     0.029 A 
ATOM     74  C   UNL A   1      45.103  26.217  32.551  1.00  0.00     0.049 A 
ATOM     75  H   UNL A   1      46.353  27.471  33.682  1.00  0.00     0.167 HD
ATOM     76  C   UNL A   1      45.500  25.267  30.432  1.00  0.00     0.074 A 
ATOM     77  C   UNL A   1      44.438  24.264  30.517  1.00  0.00     0.031 C 
ATOM     78  C   UNL A   1      45.890  26.174  31.360  1.00  0.00     0.037 A 
BRANCH  65  79
ATOM     79  C   UNL A   1      45.301  29.231  35.571  1.00  0.00     0.064 A 
ATOM     80  C   UNL A   1      45.583  29.656  36.869  1.00  0.00     0.173 A 
ATOM     81  C   UNL A   1      45.801  30.037  34.512  1.00  0.00     0.173 A 
ATOM     82  F   UNL A   1      45.172  28.924  37.914  1.00  0.00    -0.203 F 
ATOM     83  C   UNL A   1      46.274  30.847  37.104  1.00  0.00     0.198 A 
ATOM     84  C   UNL A   1      46.416  31.262  34.751  1.00  0.00     0.198 A 
ATOM     85  F   UNL A   1      45.685  29.658  33.227  1.00  0.00    -0.203 F 
ATOM     86  F   UNL A   1      46.554  31.215  38.361  1.00  0.00    -0.200 F 
ATOM     87  C   UNL A   1      46.658  31.665  36.049  1.00  0.00     0.200 A 
ATOM     88  F   UNL A   1      46.759  32.053  33.722  1.00  0.00    -0.200 F 
ATOM     89  F   UNL A   1      47.275  32.831  36.284  1.00  0.00    -0.200 F 
ENDBRANCH  65  79
BRANCH  66  90
ATOM     90  C   UNL A   1      43.633  25.440  26.477  1.00  0.00     0.064 A 
ATOM     91  C   UNL A   1      44.890  25.245  25.738  1.00  0.00     0.173 A 
ATOM     92  C   UNL A   1      42.722  24.413  26.168  1.00  0.00     0.173 A 
ATOM     93  F   UNL A   1      45.915  26.101  25.866  1.00  0.00    -0.203 F 
ATOM     94  C   UNL A   1      45.194  24.129  24.897  1.00  0.00     0.198 A 
ATOM     95  C   UNL A   1      43.027  23.299  25.308  1.00  0.00     0.198 A 
ATOM     96  F   UNL A   1      41.527  24.401  26.768  1.00  0.00    -0.203 F 
ATOM     97  F   UNL A   1      46.416  23.986  24.348  1.00  0.00    -0.200 F 
ATOM     98  C   UNL A   1      44.264  23.140  24.702  1.00  0.00     0.200 A 
ATOM     99  F   UNL A   1      42.119  22.325  25.132  1.00  0.00    -0.200 F 
ATOM    100  F   UNL A   1      44.560  22.042  23.983  1.00  0.00    -0.200 F 
ENDBRANCH  66  90
BRANCH  78 101
ATOM    101  C   UNL A   1      47.049  27.079  31.012  1.00  0.00     0.064 A 
ATOM    102  C   UNL A   1      46.972  28.384  30.478  1.00  0.00     0.173 A 
ATOM    103  C   UNL A   1      48.336  26.540  31.141  1.00  0.00     0.173 A 
ATOM    104  F   UNL A   1      45.816  29.057  30.426  1.00  0.00    -0.203 F 
ATOM    105  C   UNL A   1      48.105  29.048  29.996  1.00  0.00     0.198 A 
ATOM    106  C   UNL A   1      49.469  27.224  30.709  1.00  0.00     0.198 A 
ATOM    107  F   UNL A   1      48.503  25.336  31.707  1.00  0.00    -0.203 F 
ATOM    108  F   UNL A   1      47.988  30.263  29.436  1.00  0.00    -0.200 F 
ATOM    109  C   UNL A   1      49.352  28.461  30.101  1.00  0.00     0.200 A 
ATOM    110  F   UNL A   1      50.678  26.676  30.890  1.00  0.00    -0.200 F 
ATOM    111  F   UNL A   1      50.441  29.090  29.638  1.00  0.00    -0.200 F 
ENDBRANCH  78 101
ENDBRANCH  52  53
ENDBRANCH  44  47
ENDBRANCH  42  43
ENDBRANCH  41  42
ENDBRANCH  40  41
ENDBRANCH  39  40
ENDBRANCH   1  39
TORSDOF 21
ENDMDL
MODEL 2
REMARK VINA RESULT:     -12.0      7.350     10.804
REMARK SMILES Cc1c(CC(=O)N[C@H](CO)C(=O)NCCCCCCNC(=O)c2ccc(-c3c4nc(c(-c5c(F)c(F)c(F)c(F)c5F)c5ccc([nH]5)c(-c5c(F)c(F)c(F)c(F)c5F)c5nc(c(-c6c(F)c(F)c(F)c(F)c6F)c6ccc3[nH]6)C=C5)C=C4)cc2)cc(-c2ccc(S(C)(=O)=O)cc2)n1-c1cccc(F)c1
REMARK SMILES IDX 15 1 14 2 13 3 11 4 12 5 8 7 7 8 5 9 6 10 4 12 3 13 1 14
REMARK SMILES IDX 2 15 98 16 86 17 87 18 99 19 100 20 105 21 101 22 103 23
REMARK SMILES IDX 102 24 104 25 88 26 89 27 97 28 90 29 96 30 91 31 92 32
REMARK SMILES IDX 93 33 94 34 95 35 9 36 10 37 16 39 17 40 18 41 19 42 20 43
REMARK SMILES IDX 21 44 22 46 23 47 24 48 85 49 25 50 84 51 26 52 27 53 28 54
REMARK SMILES IDX 78 55 29 56 83 57 77 58 79 59 30 60 82 61 76 62 75 63 31 65
REMARK SMILES IDX 63 66 43 67 62 68 44 69 47 70 61 71 80 72 45 73 46 74 60 76
REMARK SMILES IDX 81 77 48 78 32 79 33 80 41 81 34 82 35 83 39 84 42 85 36 86
REMARK SMILES IDX 37 87 40 88 38 89 64 90 65 91 73 92 66 93 67 94 71 95 74 96
REMARK SMILES IDX 68 97 69 98 72 99 70 100 49 101 50 102 58 103 51 104 52 105
REMARK SMILES IDX 56 106 59 107 53 108 54 109 57 110 55 111
REMARK H PARENT 13 6 7 11 10 38 20 45 79 64 47 75
REMARK Flexibility Score: inf
ROOT
ATOM      1  C   UNL A   1      37.895  33.035  34.005  1.00  0.00     0.021 C 
ENDROOT
BRANCH   1   2
ATOM      2  C   UNL A   1      37.203  33.868  32.871  1.00  0.00     0.116 C 
BRANCH   2   3
ATOM      3  N   UNL A   1      36.499  35.078  33.289  1.00  0.00    -0.354 N 
ATOM      4  C   UNL A   1      35.211  35.397  32.996  1.00  0.00     0.244 C 
ATOM      5  O   UNL A   1      34.682  36.407  33.441  1.00  0.00    -0.273 OA
ATOM      6  H   UNL A   1      37.004  35.722  33.836  1.00  0.00     0.163 HD
BRANCH   4   7
ATOM      7  C   UNL A   1      34.535  34.364  32.161  1.00  0.00     0.197 C 
BRANCH   7   8
ATOM      8  N   UNL A   1      33.353  35.060  31.481  1.00  0.00    -0.342 N 
ATOM      9  C   UNL A   1      32.969  35.583  30.248  1.00  0.00     0.225 C 
ATOM     10  O   UNL A   1      31.850  36.126  30.303  1.00  0.00    -0.275 OA
ATOM     11  H   UNL A   1      32.622  35.176  32.130  1.00  0.00     0.164 HD
BRANCH   9  12
ATOM     12  C   UNL A   1      33.678  35.537  28.792  1.00  0.00     0.137 C 
BRANCH  12  13
ATOM     13  C   UNL A   1      34.328  34.183  28.180  1.00  0.00    -0.017 A 
ATOM     14  C   UNL A   1      36.860  33.874  29.620  1.00  0.00     0.065 C 
ATOM     15  C   UNL A   1      35.845  33.335  28.673  1.00  0.00     0.024 A 
ATOM     16  N   UNL A   1      35.762  31.573  28.011  1.00  0.00    -0.313 N 
ATOM     17  C   UNL A   1      33.277  32.878  27.160  1.00  0.00     0.033 A 
ATOM     18  C   UNL A   1      34.146  31.314  27.111  1.00  0.00     0.053 A 
BRANCH  16  19
ATOM     19  C   UNL A   1      36.424  30.410  28.474  1.00  0.00     0.049 A 
ATOM     20  C   UNL A   1      36.103  30.005  29.779  1.00  0.00     0.027 A 
ATOM     21  C   UNL A   1      37.378  29.750  27.714  1.00  0.00     0.065 A 
ATOM     22  C   UNL A   1      36.876  29.057  30.411  1.00  0.00     0.005 A 
ATOM     23  C   UNL A   1      38.151  28.809  28.367  1.00  0.00     0.125 A 
ATOM     24  C   UNL A   1      37.955  28.519  29.720  1.00  0.00     0.039 A 
ATOM     25  F   UNL A   1      39.108  28.169  27.685  1.00  0.00    -0.207 F 
ENDBRANCH  16  19
BRANCH  18  26
ATOM     26  C   UNL A   1      33.518  29.997  26.876  1.00  0.00    -0.001 A 
ATOM     27  C   UNL A   1      32.390  29.551  27.596  1.00  0.00     0.011 A 
ATOM     28  C   UNL A   1      34.048  29.193  25.875  1.00  0.00     0.011 A 
ATOM     29  C   UNL A   1      31.895  28.258  27.421  1.00  0.00     0.021 A 
ATOM     30  C   UNL A   1      33.552  27.906  25.682  1.00  0.00     0.021 A 
ATOM     31  C   UNL A   1      32.513  27.432  26.485  1.00  0.00     0.067 A 
BRANCH  31  32
ATOM     32  S   UNL A   1      31.988  25.744  26.324  1.00  0.00     0.175 S 
ATOM     33  C   UNL A   1      30.278  25.881  25.870  1.00  0.00     0.163 C 
ATOM     34  O   UNL A   1      32.720  25.174  25.211  1.00  0.00    -0.224 OA
ATOM     35  O   UNL A   1      32.039  25.145  27.645  1.00  0.00    -0.224 OA
ENDBRANCH  31  32
ENDBRANCH  18  26
ENDBRANCH  12  13
ENDBRANCH   9  12
ENDBRANCH   7   8
BRANCH   7  36
ATOM     36  C   UNL A   1      34.298  33.090  33.062  1.00  0.00     0.191 C 
BRANCH  36  37
ATOM     37  O   UNL A   1      34.284  33.402  34.458  1.00  0.00    -0.394 OA
ATOM     38  H   UNL A   1      33.792  34.226  34.599  1.00  0.00     0.210 HD
ENDBRANCH  36  37
ENDBRANCH   7  36
ENDBRANCH   4   7
ENDBRANCH   2   3
ENDBRANCH   1   2
BRANCH   1  39
ATOM     39  C   UNL A   1      39.939  32.091  34.366  1.00  0.00     0.002 C 
BRANCH  39  40
ATOM     40  C   UNL A   1      41.445  32.553  35.158  1.00  0.00     0.002 C 
BRANCH  40  41
ATOM     41  C   UNL A   1      42.954  32.769  34.729  1.00  0.00     0.021 C 
BRANCH  41  42
ATOM     42  C   UNL A   1      43.794  31.917  33.729  1.00  0.00     0.116 C 
BRANCH  42  43
ATOM     43  N   UNL A   1      43.238  30.936  32.806  1.00  0.00    -0.352 N 
ATOM     44  C   UNL A   1      42.864  31.110  31.442  1.00  0.00     0.251 C 
ATOM     45  H   UNL A   1      43.101  30.033  33.175  1.00  0.00     0.163 HD
ATOM     46  O   UNL A   1      42.565  30.080  30.828  1.00  0.00    -0.269 OA
BRANCH  44  47
ATOM     47  C   UNL A   1      42.824  32.471  30.656  1.00  0.00     0.039 A 
ATOM     48  C   UNL A   1      43.337  32.649  29.382  1.00  0.00     0.014 A 
ATOM     49  C   UNL A   1      42.531  33.728  31.242  1.00  0.00     0.014 A 
ATOM     50  C   UNL A   1      43.297  33.964  28.662  1.00  0.00     0.010 A 
ATOM     51  C   UNL A   1      42.519  35.081  30.513  1.00  0.00     0.010 A 
ATOM     52  C   UNL A   1      42.797  35.269  29.127  1.00  0.00    -0.014 A 
BRANCH  52  53
ATOM     53  C   UNL A   1      43.302  36.768  28.284  1.00  0.00     0.031 A 
ATOM     54  C   UNL A   1      44.733  36.601  28.657  1.00  0.00     0.074 A 
ATOM     55  C   UNL A   1      42.994  38.065  27.645  1.00  0.00     0.049 A 
ATOM     56  N   UNL A   1      44.923  36.540  29.946  1.00  0.00    -0.248 NA
ATOM     57  C   UNL A   1      45.810  35.996  27.881  1.00  0.00     0.031 C 
ATOM     58  C   UNL A   1      41.682  38.772  27.478  1.00  0.00     0.029 A 
ATOM     59  N   UNL A   1      43.811  39.163  26.985  1.00  0.00    -0.354 N 
ATOM     60  C   UNL A   1      46.221  36.193  30.180  1.00  0.00     0.074 A 
ATOM     61  C   UNL A   1      46.664  35.690  28.877  1.00  0.00     0.031 C 
ATOM     62  C   UNL A   1      41.723  39.921  26.707  1.00  0.00     0.029 A 
ATOM     63  C   UNL A   1      43.076  40.289  26.254  1.00  0.00     0.049 A 
ATOM     64  H   UNL A   1      44.795  39.150  27.026  1.00  0.00     0.167 HD
ATOM     65  C   UNL A   1      46.784  37.117  31.015  1.00  0.00     0.037 A 
ATOM     66  C   UNL A   1      43.516  41.463  25.511  1.00  0.00     0.037 A 
ATOM     67  C   UNL A   1      47.211  38.259  30.243  1.00  0.00     0.049 A 
ATOM     68  C   UNL A   1      44.726  41.872  26.212  1.00  0.00     0.074 A 
ATOM     69  C   UNL A   1      47.835  38.328  29.009  1.00  0.00     0.029 A 
ATOM     70  N   UNL A   1      46.527  39.442  30.407  1.00  0.00    -0.354 N 
ATOM     71  N   UNL A   1      44.719  42.463  27.363  1.00  0.00    -0.248 NA
ATOM     72  C   UNL A   1      46.019  41.580  25.628  1.00  0.00     0.031 C 
ATOM     73  C   UNL A   1      47.023  39.214  28.285  1.00  0.00     0.029 A 
ATOM     74  C   UNL A   1      46.452  40.086  29.198  1.00  0.00     0.049 A 
ATOM     75  H   UNL A   1      46.152  39.772  31.254  1.00  0.00     0.167 HD
ATOM     76  C   UNL A   1      45.860  41.954  27.892  1.00  0.00     0.074 A 
ATOM     77  C   UNL A   1      46.720  41.622  26.756  1.00  0.00     0.031 C 
ATOM     78  C   UNL A   1      45.723  41.307  29.075  1.00  0.00     0.037 A 
BRANCH  65  79
ATOM     79  C   UNL A   1      45.984  37.198  32.311  1.00  0.00     0.064 A 
ATOM     80  C   UNL A   1      46.467  36.509  33.423  1.00  0.00     0.173 A 
ATOM     81  C   UNL A   1      44.674  37.741  32.415  1.00  0.00     0.173 A 
ATOM     82  F   UNL A   1      47.708  36.002  33.405  1.00  0.00    -0.203 F 
ATOM     83  C   UNL A   1      45.673  36.320  34.556  1.00  0.00     0.198 A 
ATOM     84  C   UNL A   1      43.859  37.481  33.512  1.00  0.00     0.198 A 
ATOM     85  F   UNL A   1      44.158  38.520  31.448  1.00  0.00    -0.203 F 
ATOM     86  F   UNL A   1      46.174  35.678  35.619  1.00  0.00    -0.200 F 
ATOM     87  C   UNL A   1      44.360  36.773  34.586  1.00  0.00     0.200 A 
ATOM     88  F   UNL A   1      42.585  37.904  33.516  1.00  0.00    -0.200 F 
ATOM     89  F   UNL A   1      43.586  36.543  35.656  1.00  0.00    -0.200 F 
ENDBRANCH  65  79
BRANCH  66  90
ATOM     90  C   UNL A   1      43.295  42.721  24.429  1.00  0.00     0.064 A 
ATOM     91  C   UNL A   1      44.134  43.929  24.394  1.00  0.00     0.173 A 
ATOM     92  C   UNL A   1      42.695  42.507  23.174  1.00  0.00     0.173 A 
ATOM     93  F   UNL A   1      44.809  44.341  25.478  1.00  0.00    -0.203 F 
ATOM     94  C   UNL A   1      44.389  44.729  23.236  1.00  0.00     0.198 A 
ATOM     95  C   UNL A   1      42.943  43.325  22.015  1.00  0.00     0.198 A 
ATOM     96  F   UNL A   1      41.916  41.435  22.999  1.00  0.00    -0.203 F 
ATOM     97  F   UNL A   1      45.259  45.757  23.281  1.00  0.00    -0.200 F 
ATOM     98  C   UNL A   1      43.807  44.409  22.037  1.00  0.00     0.200 A 
ATOM     99  F   UNL A   1      42.384  42.999  20.838  1.00  0.00    -0.200 F 
ATOM    100  F   UNL A   1      44.100  45.099  20.918  1.00  0.00    -0.200 F 
ENDBRANCH  66  90
BRANCH  78 101
ATOM    101  C   UNL A   1      44.773  41.897  30.091  1.00  0.00     0.064 A 
ATOM    102  C   UNL A   1      43.432  41.514  30.317  1.00  0.00     0.173 A 
ATOM    103  C   UNL A   1      45.230  43.000  30.824  1.00  0.00     0.173 A 
ATOM    104  F   UNL A   1      42.917  40.401  29.778  1.00  0.00    -0.203 F 
ATOM    105  C   UNL A   1      42.581  42.266  31.133  1.00  0.00     0.198 A 
ATOM    106  C   UNL A   1      44.396  43.717  31.677  1.00  0.00     0.198 A 
ATOM    107  F   UNL A   1      46.511  43.383  30.723  1.00  0.00    -0.203 F 
ATOM    108  F   UNL A   1      41.294  41.910  31.276  1.00  0.00    -0.200 F 
ATOM    109  C   UNL A   1      43.062  43.376  31.802  1.00  0.00     0.200 A 
ATOM    110  F   UNL A   1      44.896  44.742  32.380  1.00  0.00    -0.200 F 
ATOM    111  F   UNL A   1      42.251  44.103  32.583  1.00  0.00    -0.200 F 
ENDBRANCH  78 101
ENDBRANCH  52  53
ENDBRANCH  44  47
ENDBRANCH  42  43
ENDBRANCH  41  42
ENDBRANCH  40  41
ENDBRANCH  39  40
ENDBRANCH   1  39
TORSDOF 21
ENDMDL
MODEL 3
REMARK VINA RESULT:     -11.9      7.366     13.340
REMARK SMILES Cc1c(CC(=O)N[C@H](CO)C(=O)NCCCCCCNC(=O)c2ccc(-c3c4nc(c(-c5c(F)c(F)c(F)c(F)c5F)c5ccc([nH]5)c(-c5c(F)c(F)c(F)c(F)c5F)c5nc(c(-c6c(F)c(F)c(F)c(F)c6F)c6ccc3[nH]6)C=C5)C=C4)cc2)cc(-c2ccc(S(C)(=O)=O)cc2)n1-c1cccc(F)c1
REMARK SMILES IDX 15 1 14 2 13 3 11 4 12 5 8 7 7 8 5 9 6 10 4 12 3 13 1 14
REMARK SMILES IDX 2 15 98 16 86 17 87 18 99 19 100 20 105 21 101 22 103 23
REMARK SMILES IDX 102 24 104 25 88 26 89 27 97 28 90 29 96 30 91 31 92 32
REMARK SMILES IDX 93 33 94 34 95 35 9 36 10 37 16 39 17 40 18 41 19 42 20 43
REMARK SMILES IDX 21 44 22 46 23 47 24 48 85 49 25 50 84 51 26 52 27 53 28 54
REMARK SMILES IDX 78 55 29 56 83 57 77 58 79 59 30 60 82 61 76 62 75 63 31 65
REMARK SMILES IDX 63 66 43 67 62 68 44 69 47 70 61 71 80 72 45 73 46 74 60 76
REMARK SMILES IDX 81 77 48 78 32 79 33 80 41 81 34 82 35 83 39 84 42 85 36 86
REMARK SMILES IDX 37 87 40 88 38 89 64 90 65 91 73 92 66 93 67 94 71 95 74 96
REMARK SMILES IDX 68 97 69 98 72 99 70 100 49 101 50 102 58 103 51 104 52 105
REMARK SMILES IDX 56 106 59 107 53 108 54 109 57 110 55 111
REMARK H PARENT 13 6 7 11 10 38 20 45 79 64 47 75
REMARK Flexibility Score: inf
ROOT
ATOM      1  C   UNL A   1      49.370  25.652  38.191  1.00  0.00     0.021 C 
ENDROOT
BRANCH   1   2
ATOM      2  C   UNL A   1      48.484  24.745  39.113  1.00  0.00     0.116 C 
BRANCH   2   3
ATOM      3  N   UNL A   1      47.131  25.223  39.391  1.00  0.00    -0.354 N 
ATOM      4  C   UNL A   1      45.979  24.535  39.180  1.00  0.00     0.244 C 
ATOM      5  O   UNL A   1      44.890  24.991  39.501  1.00  0.00    -0.273 OA
ATOM      6  H   UNL A   1      47.047  26.129  39.767  1.00  0.00     0.163 HD
BRANCH   4   7
ATOM      7  C   UNL A   1      46.213  23.180  38.604  1.00  0.00     0.197 C 
BRANCH   7   8
ATOM      8  N   UNL A   1      45.366  23.098  37.331  1.00  0.00    -0.342 N 
ATOM      9  C   UNL A   1      45.246  22.356  36.158  1.00  0.00     0.225 C 
ATOM     10  O   UNL A   1      44.367  22.816  35.405  1.00  0.00    -0.275 OA
ATOM     11  H   UNL A   1      44.679  23.802  37.346  1.00  0.00     0.164 HD
BRANCH   9  12
ATOM     12  C   UNL A   1      45.980  20.998  35.663  1.00  0.00     0.137 C 
BRANCH  12  13
ATOM     13  C   UNL A   1      46.795  20.028  36.675  1.00  0.00    -0.017 A 
ATOM     14  C   UNL A   1      49.510  21.126  36.711  1.00  0.00     0.065 C 
ATOM     15  C   UNL A   1      48.502  20.171  37.248  1.00  0.00     0.024 A 
ATOM     16  N   UNL A   1      48.679  19.119  38.802  1.00  0.00    -0.313 N 
ATOM     17  C   UNL A   1      45.893  18.824  37.934  1.00  0.00     0.033 A 
ATOM     18  C   UNL A   1      47.039  18.328  39.217  1.00  0.00     0.053 A 
BRANCH  16  19
ATOM     19  C   UNL A   1      49.614  19.233  39.859  1.00  0.00     0.049 A 
ATOM     20  C   UNL A   1      49.541  20.414  40.613  1.00  0.00     0.027 A 
ATOM     21  C   UNL A   1      50.585  18.271  40.093  1.00  0.00     0.065 A 
ATOM     22  C   UNL A   1      50.560  20.738  41.480  1.00  0.00     0.005 A 
ATOM     23  C   UNL A   1      51.606  18.616  40.959  1.00  0.00     0.125 A 
ATOM     24  C   UNL A   1      51.635  19.865  41.587  1.00  0.00     0.039 A 
ATOM     25  F   UNL A   1      52.585  17.735  41.192  1.00  0.00    -0.207 F 
ENDBRANCH  16  19
BRANCH  18  26
ATOM     26  C   UNL A   1      46.657  17.843  40.560  1.00  0.00    -0.001 A 
ATOM     27  C   UNL A   1      47.197  16.669  41.129  1.00  0.00     0.011 A 
ATOM     28  C   UNL A   1      45.759  18.605  41.296  1.00  0.00     0.011 A 
ATOM     29  C   UNL A   1      46.729  16.187  42.351  1.00  0.00     0.021 A 
ATOM     30  C   UNL A   1      45.297  18.140  42.524  1.00  0.00     0.021 A 
ATOM     31  C   UNL A   1      45.748  16.915  43.021  1.00  0.00     0.067 A 
BRANCH  31  32
ATOM     32  S   UNL A   1      45.043  16.268  44.515  1.00  0.00     0.175 S 
ATOM     33  C   UNL A   1      43.635  15.348  43.947  1.00  0.00     0.163 C 
ATOM     34  O   UNL A   1      46.006  15.343  45.076  1.00  0.00    -0.224 OA
ATOM     35  O   UNL A   1      44.544  17.394  45.283  1.00  0.00    -0.224 OA
ENDBRANCH  31  32
ENDBRANCH  18  26
ENDBRANCH  12  13
ENDBRANCH   9  12
ENDBRANCH   7   8
BRANCH   7  36
ATOM     36  C   UNL A   1      46.018  22.121  39.759  1.00  0.00     0.191 C 
BRANCH  36  37
ATOM     37  O   UNL A   1      44.735  22.219  40.381  1.00  0.00    -0.394 OA
ATOM     38  H   UNL A   1      44.180  21.477  40.095  1.00  0.00     0.210 HD
ENDBRANCH  36  37
ENDBRANCH   7  36
ENDBRANCH   4   7
ENDBRANCH   2   3
ENDBRANCH   1   2
BRANCH   1  39
ATOM     39  C   UNL A   1      51.079  27.136  38.464  1.00  0.00     0.002 C 
BRANCH  39  40
ATOM     40  C   UNL A   1      51.455  28.774  37.930  1.00  0.00     0.002 C 
BRANCH  40  41
ATOM     41  C   UNL A   1      50.744  29.898  37.070  1.00  0.00     0.021 C 
BRANCH  41  42
ATOM     42  C   UNL A   1      49.215  30.174  36.936  1.00  0.00     0.116 C 
BRANCH  42  43
ATOM     43  N   UNL A   1      48.174  29.411  37.612  1.00  0.00    -0.352 N 
ATOM     44  C   UNL A   1      47.318  28.406  37.075  1.00  0.00     0.251 C 
ATOM     45  H   UNL A   1      48.043  29.619  38.566  1.00  0.00     0.163 HD
ATOM     46  O   UNL A   1      46.624  27.794  37.893  1.00  0.00    -0.269 OA
BRANCH  44  47
ATOM     47  C   UNL A   1      47.201  27.997  35.561  1.00  0.00     0.039 A 
ATOM     48  C   UNL A   1      46.073  28.204  34.785  1.00  0.00     0.014 A 
ATOM     49  C   UNL A   1      48.098  27.126  34.893  1.00  0.00     0.014 A 
ATOM     50  C   UNL A   1      45.985  27.789  33.346  1.00  0.00     0.010 A 
ATOM     51  C   UNL A   1      47.993  26.677  33.427  1.00  0.00     0.010 A 
ATOM     52  C   UNL A   1      46.972  27.078  32.516  1.00  0.00    -0.014 A 
BRANCH  52  53
ATOM     53  C   UNL A   1      46.449  26.275  31.001  1.00  0.00     0.031 A 
ATOM     54  C   UNL A   1      47.189  27.232  30.134  1.00  0.00     0.074 A 
ATOM     55  C   UNL A   1      45.562  25.353  30.260  1.00  0.00     0.049 A 
ATOM     56  N   UNL A   1      46.829  28.473  30.315  1.00  0.00    -0.248 NA
ATOM     57  C   UNL A   1      48.521  27.090  29.556  1.00  0.00     0.031 C 
ATOM     58  C   UNL A   1      44.400  24.536  30.739  1.00  0.00     0.029 A 
ATOM     59  N   UNL A   1      45.434  24.913  28.811  1.00  0.00    -0.354 N 
ATOM     60  C   UNL A   1      47.689  29.281  29.631  1.00  0.00     0.074 A 
ATOM     61  C   UNL A   1      48.813  28.388  29.340  1.00  0.00     0.031 C 
ATOM     62  C   UNL A   1      43.863  23.666  29.806  1.00  0.00     0.029 A 
ATOM     63  C   UNL A   1      44.485  23.760  28.474  1.00  0.00     0.049 A 
ATOM     64  H   UNL A   1      45.951  25.360  28.103  1.00  0.00     0.167 HD
ATOM     65  C   UNL A   1      46.968  30.100  28.809  1.00  0.00     0.037 A 
ATOM     66  C   UNL A   1      44.131  23.075  27.237  1.00  0.00     0.037 A 
ATOM     67  C   UNL A   1      46.642  29.390  27.596  1.00  0.00     0.049 A 
ATOM     68  C   UNL A   1      44.194  24.134  26.237  1.00  0.00     0.074 A 
ATOM     69  C   UNL A   1      47.407  28.536  26.820  1.00  0.00     0.029 A 
ATOM     70  N   UNL A   1      45.327  29.048  27.381  1.00  0.00    -0.354 N 
ATOM     71  N   UNL A   1      43.294  25.056  26.117  1.00  0.00    -0.248 NA
ATOM     72  C   UNL A   1      45.330  24.199  25.342  1.00  0.00     0.031 C 
ATOM     73  C   UNL A   1      46.595  27.399  26.694  1.00  0.00     0.029 A 
ATOM     74  C   UNL A   1      45.278  27.826  26.760  1.00  0.00     0.049 A 
ATOM     75  H   UNL A   1      44.546  29.592  27.632  1.00  0.00     0.167 HD
ATOM     76  C   UNL A   1      44.075  26.091  25.717  1.00  0.00     0.074 A 
ATOM     77  C   UNL A   1      45.229  25.491  25.046  1.00  0.00     0.031 C 
ATOM     78  C   UNL A   1      44.023  27.202  26.490  1.00  0.00     0.037 A 
BRANCH  65  79
ATOM     79  C   UNL A   1      45.972  30.911  29.632  1.00  0.00     0.064 A 
ATOM     80  C   UNL A   1      46.284  32.241  29.911  1.00  0.00     0.173 A 
ATOM     81  C   UNL A   1      44.857  30.359  30.318  1.00  0.00     0.173 A 
ATOM     82  F   UNL A   1      47.302  32.836  29.273  1.00  0.00    -0.203 F 
ATOM     83  C   UNL A   1      45.563  32.967  30.863  1.00  0.00     0.198 A 
ATOM     84  C   UNL A   1      44.194  31.058  31.322  1.00  0.00     0.198 A 
ATOM     85  F   UNL A   1      44.401  29.125  30.038  1.00  0.00    -0.203 F 
ATOM     86  F   UNL A   1      45.868  34.251  31.090  1.00  0.00    -0.200 F 
ATOM     87  C   UNL A   1      44.545  32.366  31.591  1.00  0.00     0.200 A 
ATOM     88  F   UNL A   1      43.229  30.455  32.034  1.00  0.00    -0.200 F 
ATOM     89  F   UNL A   1      43.891  33.052  32.539  1.00  0.00    -0.200 F 
ENDBRANCH  65  79
BRANCH  66  90
ATOM     90  C   UNL A   1      43.495  21.800  26.359  1.00  0.00     0.064 A 
ATOM     91  C   UNL A   1      44.308  20.728  25.765  1.00  0.00     0.173 A 
ATOM     92  C   UNL A   1      42.178  21.353  26.572  1.00  0.00     0.173 A 
ATOM     93  F   UNL A   1      45.602  20.917  25.466  1.00  0.00    -0.203 F 
ATOM     94  C   UNL A   1      43.865  19.390  25.519  1.00  0.00     0.198 A 
ATOM     95  C   UNL A   1      41.733  20.009  26.308  1.00  0.00     0.198 A 
ATOM     96  F   UNL A   1      41.292  22.181  27.136  1.00  0.00    -0.203 F 
ATOM     97  F   UNL A   1      44.718  18.449  25.070  1.00  0.00    -0.200 F 
ATOM     98  C   UNL A   1      42.577  19.026  25.815  1.00  0.00     0.200 A 
ATOM     99  F   UNL A   1      40.475  19.652  26.614  1.00  0.00    -0.200 F 
ATOM    100  F   UNL A   1      42.166  17.753  25.670  1.00  0.00    -0.200 F 
ENDBRANCH  66  90
BRANCH  78 101
ATOM    101  C   UNL A   1      42.676  27.613  27.037  1.00  0.00     0.064 A 
ATOM    102  C   UNL A   1      41.639  28.262  26.331  1.00  0.00     0.173 A 
ATOM    103  C   UNL A   1      42.461  27.421  28.409  1.00  0.00     0.173 A 
ATOM    104  F   UNL A   1      41.666  28.389  24.999  1.00  0.00    -0.203 F 
ATOM    105  C   UNL A   1      40.520  28.787  26.987  1.00  0.00     0.198 A 
ATOM    106  C   UNL A   1      41.322  27.898  29.052  1.00  0.00     0.198 A 
ATOM    107  F   UNL A   1      43.364  26.748  29.138  1.00  0.00    -0.203 F 
ATOM    108  F   UNL A   1      39.584  29.454  26.295  1.00  0.00    -0.200 F 
ATOM    109  C   UNL A   1      40.370  28.615  28.351  1.00  0.00     0.200 A 
ATOM    110  F   UNL A   1      41.153  27.654  30.358  1.00  0.00    -0.200 F 
ATOM    111  F   UNL A   1      39.302  29.118  28.986  1.00  0.00    -0.200 F 
ENDBRANCH  78 101
ENDBRANCH  52  53
ENDBRANCH  44  47
ENDBRANCH  42  43
ENDBRANCH  41  42
ENDBRANCH  40  41
ENDBRANCH  39  40
ENDBRANCH   1  39
TORSDOF 21
ENDMDL
