MODEL 1
REMARK VINA RESULT:     -11.6      0.000      0.000
REMARK SMILES CCSc1nc(CC(=O)N[C@@H](C(=O)NCCCCCCNC(=O)c2ccc(-c3c4nc(c(-c5c(F)c(F)c(F)c(F)c5F)c5ccc([nH]5)c(-c5c(F)c(F)c(F)c(F)c5F)c5nc(c(-c6c(F)c(F)c(F)c(F)c6F)c6ccc3[nH]6)C=C5)C=C4)cc2)C2=C(C)N=N[C@@H]2C)cs1
REMARK SMILES IDX 16 1 15 2 14 3 12 4 13 5 11 7 10 8 8 9 9 10 7 12 6 13 4 14
REMARK SMILES IDX 5 15 95 16 94 17 3 18 2 19 1 20 87 21 88 22 92 23 89 24
REMARK SMILES IDX 90 25 91 26 93 27 17 28 18 29 19 30 20 31 21 32 22 33 23 35
REMARK SMILES IDX 24 36 25 37 86 38 26 39 85 40 27 41 28 42 29 43 79 44 30 45
REMARK SMILES IDX 84 46 78 47 80 48 31 49 83 50 77 51 76 52 32 54 64 55 44 56
REMARK SMILES IDX 63 57 45 58 48 59 62 60 81 61 46 62 47 63 61 65 82 66 49 67
REMARK SMILES IDX 33 68 34 69 42 70 35 71 36 72 40 73 43 74 37 75 38 76 41 77
REMARK SMILES IDX 39 78 65 79 66 80 74 81 67 82 68 83 72 84 75 85 69 86 70 87
REMARK SMILES IDX 73 88 71 89 50 90 51 91 59 92 52 93 53 94 57 95 60 96 54 97
REMARK SMILES IDX 55 98 58 99 56 100
REMARK H PARENT 14 6 10 11 21 34 80 53 48 64
REMARK Flexibility Score: inf
ROOT
ATOM      1  C   UNL A   1      32.623  28.440  26.996  1.00  0.00     0.021 C 
ENDROOT
BRANCH   1   2
ATOM      2  C   UNL A   1      32.109  27.086  26.529  1.00  0.00     0.116 C 
BRANCH   2   3
ATOM      3  N   UNL A   1      33.141  26.160  26.127  1.00  0.00    -0.354 N 
ATOM      4  C   UNL A   1      33.475  25.740  24.868  1.00  0.00     0.247 C 
ATOM      5  O   UNL A   1      34.679  25.507  24.705  1.00  0.00    -0.272 OA
ATOM      6  H   UNL A   1      33.677  25.778  26.859  1.00  0.00     0.163 HD
BRANCH   4   7
ATOM      7  C   UNL A   1      32.441  25.610  23.673  1.00  0.00     0.202 C 
BRANCH   7   8
ATOM      8  N   UNL A   1      32.980  24.974  22.474  1.00  0.00    -0.340 N 
ATOM      9  C   UNL A   1      32.951  23.661  22.094  1.00  0.00     0.226 C 
ATOM     10  O   UNL A   1      33.651  23.328  21.134  1.00  0.00    -0.275 OA
ATOM     11  H   UNL A   1      33.433  25.581  21.845  1.00  0.00     0.164 HD
BRANCH   9  12
ATOM     12  C   UNL A   1      32.098  22.635  22.820  1.00  0.00     0.157 C 
BRANCH  12  13
ATOM     13  C   UNL A   1      32.844  21.764  23.777  1.00  0.00     0.062 A 
ATOM     14  C   UNL A   1      33.187  19.813  24.784  1.00  0.00     0.150 A 
ATOM     15  N   UNL A   1      32.337  20.500  24.055  1.00  0.00    -0.234 NA
ATOM     16  S   UNL A   1      34.606  20.653  25.244  1.00  0.00    -0.116 S 
ATOM     17  C   UNL A   1      34.055  22.036  24.389  1.00  0.00     0.092 A 
BRANCH  14  18
ATOM     18  S   UNL A   1      32.909  18.125  25.139  1.00  0.00    -0.096 SA
BRANCH  18  19
ATOM     19  C   UNL A   1      32.890  17.389  23.481  1.00  0.00     0.074 C 
ATOM     20  C   UNL A   1      34.234  16.774  23.128  1.00  0.00     0.016 C 
ENDBRANCH  18  19
ENDBRANCH  14  18
ENDBRANCH  12  13
ENDBRANCH   9  12
ENDBRANCH   7   8
BRANCH   7  21
ATOM     21  C   UNL A   1      31.887  26.945  23.237  1.00  0.00     0.011 C 
ATOM     22  C   UNL A   1      32.506  28.120  23.046  1.00  0.00     0.064 C 
ATOM     23  C   UNL A   1      30.472  27.202  22.810  1.00  0.00     0.156 C 
ATOM     24  C   UNL A   1      33.928  28.499  23.260  1.00  0.00     0.069 C 
ATOM     25  N   UNL A   1      31.667  29.094  22.566  1.00  0.00    -0.160 NA
ATOM     26  N   UNL A   1      30.509  28.634  22.401  1.00  0.00    -0.181 NA
ATOM     27  C   UNL A   1      29.427  27.067  23.910  1.00  0.00     0.040 C 
ENDBRANCH   7  21
ENDBRANCH   4   7
ENDBRANCH   2   3
ENDBRANCH   1   2
BRANCH   1  28
ATOM     28  C   UNL A   1      31.549  29.521  27.128  1.00  0.00     0.002 C 
BRANCH  28  29
ATOM     29  C   UNL A   1      31.545  30.588  26.027  1.00  0.00     0.002 C 
BRANCH  29  30
ATOM     30  C   UNL A   1      31.406  32.037  26.500  1.00  0.00     0.021 C 
BRANCH  30  31
ATOM     31  C   UNL A   1      32.663  32.640  27.116  1.00  0.00     0.116 C 
BRANCH  31  32
ATOM     32  N   UNL A   1      32.454  34.004  27.571  1.00  0.00    -0.352 N 
ATOM     33  C   UNL A   1      33.060  34.696  28.589  1.00  0.00     0.251 C 
ATOM     34  H   UNL A   1      31.773  34.510  27.072  1.00  0.00     0.163 HD
ATOM     35  O   UNL A   1      32.615  35.784  28.938  1.00  0.00    -0.269 OA
BRANCH  33  36
ATOM     36  C   UNL A   1      34.236  34.127  29.281  1.00  0.00     0.039 A 
ATOM     37  C   UNL A   1      34.026  33.255  30.355  1.00  0.00     0.014 A 
ATOM     38  C   UNL A   1      35.537  34.468  28.901  1.00  0.00     0.014 A 
ATOM     39  C   UNL A   1      35.120  32.686  31.010  1.00  0.00     0.010 A 
ATOM     40  C   UNL A   1      36.624  33.842  29.505  1.00  0.00     0.010 A 
ATOM     41  C   UNL A   1      36.427  32.950  30.570  1.00  0.00    -0.014 A 
BRANCH  41  42
ATOM     42  C   UNL A   1      37.599  32.309  31.219  1.00  0.00     0.031 A 
ATOM     43  C   UNL A   1      38.344  31.208  30.515  1.00  0.00     0.074 A 
ATOM     44  C   UNL A   1      37.953  32.677  32.465  1.00  0.00     0.049 A 
ATOM     45  N   UNL A   1      39.347  30.483  30.943  1.00  0.00    -0.248 NA
ATOM     46  C   UNL A   1      37.885  30.858  29.162  1.00  0.00     0.031 C 
ATOM     47  C   UNL A   1      37.278  33.699  33.268  1.00  0.00     0.029 A 
ATOM     48  N   UNL A   1      38.960  32.226  33.280  1.00  0.00    -0.354 N 
ATOM     49  C   UNL A   1      39.625  29.584  29.921  1.00  0.00     0.074 A 
ATOM     50  C   UNL A   1      38.654  29.818  28.875  1.00  0.00     0.031 C 
ATOM     51  C   UNL A   1      37.903  33.811  34.451  1.00  0.00     0.029 A 
ATOM     52  C   UNL A   1      38.994  32.843  34.508  1.00  0.00     0.049 A 
ATOM     53  H   UNL A   1      39.599  31.526  33.012  1.00  0.00     0.167 HD
ATOM     54  C   UNL A   1      40.616  28.663  29.854  1.00  0.00     0.037 A 
ATOM     55  C   UNL A   1      39.808  32.644  35.561  1.00  0.00     0.037 A 
ATOM     56  C   UNL A   1      41.596  28.452  30.887  1.00  0.00     0.049 A 
ATOM     57  C   UNL A   1      40.898  31.612  35.461  1.00  0.00     0.074 A 
ATOM     58  C   UNL A   1      42.678  27.590  30.886  1.00  0.00     0.029 A 
ATOM     59  N   UNL A   1      41.610  29.111  32.107  1.00  0.00    -0.354 N 
ATOM     60  N   UNL A   1      41.197  30.819  34.460  1.00  0.00    -0.248 NA
ATOM     61  C   UNL A   1      41.770  31.452  36.633  1.00  0.00     0.031 C 
ATOM     62  C   UNL A   1      43.316  27.689  32.126  1.00  0.00     0.029 A 
ATOM     63  C   UNL A   1      42.668  28.656  32.877  1.00  0.00     0.049 A 
ATOM     64  H   UNL A   1      40.964  29.801  32.385  1.00  0.00     0.167 HD
ATOM     65  C   UNL A   1      42.307  30.089  34.869  1.00  0.00     0.074 A 
ATOM     66  C   UNL A   1      42.637  30.546  36.202  1.00  0.00     0.031 C 
ATOM     67  C   UNL A   1      42.989  29.127  34.201  1.00  0.00     0.037 A 
BRANCH  54  68
ATOM     68  C   UNL A   1      40.693  27.810  28.619  1.00  0.00     0.064 A 
ATOM     69  C   UNL A   1      39.995  26.597  28.517  1.00  0.00     0.173 A 
ATOM     70  C   UNL A   1      41.435  28.233  27.507  1.00  0.00     0.173 A 
ATOM     71  F   UNL A   1      39.278  26.141  29.555  1.00  0.00    -0.203 F 
ATOM     72  C   UNL A   1      40.060  25.827  27.358  1.00  0.00     0.198 A 
ATOM     73  C   UNL A   1      41.472  27.477  26.338  1.00  0.00     0.198 A 
ATOM     74  F   UNL A   1      42.118  29.388  27.548  1.00  0.00    -0.203 F 
ATOM     75  F   UNL A   1      39.424  24.648  27.302  1.00  0.00    -0.200 F 
ATOM     76  C   UNL A   1      40.792  26.271  26.267  1.00  0.00     0.200 A 
ATOM     77  F   UNL A   1      42.169  27.915  25.280  1.00  0.00    -0.200 F 
ATOM     78  F   UNL A   1      40.845  25.534  25.149  1.00  0.00    -0.200 F 
ENDBRANCH  54  68
BRANCH  55  79
ATOM     79  C   UNL A   1      39.635  33.451  36.798  1.00  0.00     0.064 A 
ATOM     80  C   UNL A   1      38.736  33.056  37.798  1.00  0.00     0.173 A 
ATOM     81  C   UNL A   1      40.355  34.638  37.002  1.00  0.00     0.173 A 
ATOM     82  F   UNL A   1      38.011  31.938  37.641  1.00  0.00    -0.203 F 
ATOM     83  C   UNL A   1      38.544  33.829  38.941  1.00  0.00     0.198 A 
ATOM     84  C   UNL A   1      40.185  35.394  38.160  1.00  0.00     0.198 A 
ATOM     85  F   UNL A   1      41.233  35.058  36.079  1.00  0.00    -0.203 F 
ATOM     86  F   UNL A   1      37.639  33.454  39.856  1.00  0.00    -0.200 F 
ATOM     87  C   UNL A   1      39.271  34.994  39.124  1.00  0.00     0.200 A 
ATOM     88  F   UNL A   1      40.902  36.511  38.339  1.00  0.00    -0.200 F 
ATOM     89  F   UNL A   1      39.087  35.737  40.224  1.00  0.00    -0.200 F 
ENDBRANCH  55  79
BRANCH  67  90
ATOM     90  C   UNL A   1      44.185  28.530  34.884  1.00  0.00     0.064 A 
ATOM     91  C   UNL A   1      45.460  29.106  34.779  1.00  0.00     0.173 A 
ATOM     92  C   UNL A   1      44.044  27.388  35.688  1.00  0.00     0.173 A 
ATOM     93  F   UNL A   1      45.650  30.188  34.011  1.00  0.00    -0.203 F 
ATOM     94  C   UNL A   1      46.554  28.545  35.432  1.00  0.00     0.198 A 
ATOM     95  C   UNL A   1      45.134  26.850  36.366  1.00  0.00     0.198 A 
ATOM     96  F   UNL A   1      42.845  26.803  35.829  1.00  0.00    -0.203 F 
ATOM     97  F   UNL A   1      47.771  29.082  35.277  1.00  0.00    -0.200 F 
ATOM     98  C   UNL A   1      46.389  27.423  36.231  1.00  0.00     0.200 A 
ATOM     99  F   UNL A   1      44.969  25.775  37.150  1.00  0.00    -0.200 F 
ATOM    100  F   UNL A   1      47.441  26.890  36.865  1.00  0.00    -0.200 F 
ENDBRANCH  67  90
ENDBRANCH  41  42
ENDBRANCH  33  36
ENDBRANCH  31  32
ENDBRANCH  30  31
ENDBRANCH  29  30
ENDBRANCH  28  29
ENDBRANCH   1  28
TORSDOF 19
ENDMDL
MODEL 2
REMARK VINA RESULT:     -11.4      4.996      9.947
REMARK SMILES CCSc1nc(CC(=O)N[C@@H](C(=O)NCCCCCCNC(=O)c2ccc(-c3c4nc(c(-c5c(F)c(F)c(F)c(F)c5F)c5ccc([nH]5)c(-c5c(F)c(F)c(F)c(F)c5F)c5nc(c(-c6c(F)c(F)c(F)c(F)c6F)c6ccc3[nH]6)C=C5)C=C4)cc2)C2=C(C)N=N[C@@H]2C)cs1
REMARK SMILES IDX 16 1 15 2 14 3 12 4 13 5 11 7 10 8 8 9 9 10 7 12 6 13 4 14
REMARK SMILES IDX 5 15 95 16 94 17 3 18 2 19 1 20 87 21 88 22 92 23 89 24
REMARK SMILES IDX 90 25 91 26 93 27 17 28 18 29 19 30 20 31 21 32 22 33 23 35
REMARK SMILES IDX 24 36 25 37 86 38 26 39 85 40 27 41 28 42 29 43 79 44 30 45
REMARK SMILES IDX 84 46 78 47 80 48 31 49 83 50 77 51 76 52 32 54 64 55 44 56
REMARK SMILES IDX 63 57 45 58 48 59 62 60 81 61 46 62 47 63 61 65 82 66 49 67
REMARK SMILES IDX 33 68 34 69 42 70 35 71 36 72 40 73 43 74 37 75 38 76 41 77
REMARK SMILES IDX 39 78 65 79 66 80 74 81 67 82 68 83 72 84 75 85 69 86 70 87
REMARK SMILES IDX 73 88 71 89 50 90 51 91 59 92 52 93 53 94 57 95 60 96 54 97
REMARK SMILES IDX 55 98 58 99 56 100
REMARK H PARENT 14 6 10 11 21 34 80 53 48 64
REMARK Flexibility Score: inf
ROOT
ATOM      1  C   UNL A   1      36.215  22.615  23.449  1.00  0.00     0.021 C 
ENDROOT
BRANCH   1   2
ATOM      2  C   UNL A   1      35.267  23.745  23.826  1.00  0.00     0.116 C 
BRANCH   2   3
ATOM      3  N   UNL A   1      34.007  23.728  23.122  1.00  0.00    -0.354 N 
ATOM      4  C   UNL A   1      32.879  24.464  23.364  1.00  0.00     0.247 C 
ATOM      5  O   UNL A   1      32.230  24.762  22.352  1.00  0.00    -0.272 OA
ATOM      6  H   UNL A   1      33.951  23.101  22.365  1.00  0.00     0.163 HD
BRANCH   4   7
ATOM      7  C   UNL A   1      32.439  24.966  24.802  1.00  0.00     0.202 C 
BRANCH   7   8
ATOM      8  N   UNL A   1      31.379  24.174  25.421  1.00  0.00    -0.340 N 
ATOM      9  C   UNL A   1      31.398  22.879  25.855  1.00  0.00     0.226 C 
ATOM     10  O   UNL A   1      30.319  22.361  26.159  1.00  0.00    -0.275 OA
ATOM     11  H   UNL A   1      30.523  24.644  25.543  1.00  0.00     0.164 HD
BRANCH   9  12
ATOM     12  C   UNL A   1      32.690  22.086  25.959  1.00  0.00     0.157 C 
BRANCH  12  13
ATOM     13  C   UNL A   1      32.723  20.831  25.150  1.00  0.00     0.062 A 
ATOM     14  C   UNL A   1      32.786  18.616  24.981  1.00  0.00     0.150 A 
ATOM     15  N   UNL A   1      32.943  19.626  25.807  1.00  0.00    -0.234 NA
ATOM     16  S   UNL A   1      32.440  19.040  23.359  1.00  0.00    -0.116 S 
ATOM     17  C   UNL A   1      32.483  20.701  23.793  1.00  0.00     0.092 A 
BRANCH  14  18
ATOM     18  S   UNL A   1      32.818  16.968  25.560  1.00  0.00    -0.096 SA
BRANCH  18  19
ATOM     19  C   UNL A   1      34.099  16.226  24.512  1.00  0.00     0.074 C 
ATOM     20  C   UNL A   1      35.340  15.869  25.314  1.00  0.00     0.016 C 
ENDBRANCH  18  19
ENDBRANCH  14  18
ENDBRANCH  12  13
ENDBRANCH   9  12
ENDBRANCH   7   8
BRANCH   7  21
ATOM     21  C   UNL A   1      31.955  26.397  24.795  1.00  0.00     0.011 C 
ATOM     22  C   UNL A   1      30.743  26.901  24.518  1.00  0.00     0.064 C 
ATOM     23  C   UNL A   1      32.760  27.589  25.220  1.00  0.00     0.156 C 
ATOM     24  C   UNL A   1      29.500  26.217  24.071  1.00  0.00     0.069 C 
ATOM     25  N   UNL A   1      30.675  28.260  24.699  1.00  0.00    -0.160 NA
ATOM     26  N   UNL A   1      31.778  28.704  25.107  1.00  0.00    -0.181 NA
ATOM     27  C   UNL A   1      33.944  27.927  24.324  1.00  0.00     0.040 C 
ENDBRANCH   7  21
ENDBRANCH   4   7
ENDBRANCH   2   3
ENDBRANCH   1   2
BRANCH   1  28
ATOM     28  C   UNL A   1      37.011  22.032  24.618  1.00  0.00     0.002 C 
BRANCH  28  29
ATOM     29  C   UNL A   1      36.705  20.569  24.961  1.00  0.00     0.002 C 
BRANCH  29  30
ATOM     30  C   UNL A   1      37.910  19.626  25.003  1.00  0.00     0.021 C 
BRANCH  30  31
ATOM     31  C   UNL A   1      39.108  20.141  25.792  1.00  0.00     0.116 C 
BRANCH  31  32
ATOM     32  N   UNL A   1      40.190  19.174  25.846  1.00  0.00    -0.352 N 
ATOM     33  C   UNL A   1      41.530  19.362  26.075  1.00  0.00     0.251 C 
ATOM     34  H   UNL A   1      39.922  18.239  25.695  1.00  0.00     0.163 HD
ATOM     35  O   UNL A   1      42.316  18.438  25.897  1.00  0.00    -0.269 OA
BRANCH  33  36
ATOM     36  C   UNL A   1      42.033  20.680  26.517  1.00  0.00     0.039 A 
ATOM     37  C   UNL A   1      42.550  21.557  25.557  1.00  0.00     0.014 A 
ATOM     38  C   UNL A   1      42.028  21.044  27.866  1.00  0.00     0.014 A 
ATOM     39  C   UNL A   1      43.010  22.817  25.946  1.00  0.00     0.010 A 
ATOM     40  C   UNL A   1      42.415  22.328  28.241  1.00  0.00     0.010 A 
ATOM     41  C   UNL A   1      42.918  23.224  27.286  1.00  0.00    -0.014 A 
BRANCH  41  42
ATOM     42  C   UNL A   1      43.349  24.582  27.707  1.00  0.00     0.031 A 
ATOM     43  C   UNL A   1      42.325  25.630  28.045  1.00  0.00     0.074 A 
ATOM     44  C   UNL A   1      44.661  24.887  27.725  1.00  0.00     0.049 A 
ATOM     45  N   UNL A   1      42.502  26.886  28.368  1.00  0.00    -0.248 NA
ATOM     46  C   UNL A   1      40.913  25.218  27.988  1.00  0.00     0.031 C 
ATOM     47  C   UNL A   1      45.746  23.969  27.371  1.00  0.00     0.029 A 
ATOM     48  N   UNL A   1      45.305  26.056  28.042  1.00  0.00    -0.354 N 
ATOM     49  C   UNL A   1      41.229  27.416  28.535  1.00  0.00     0.074 A 
ATOM     50  C   UNL A   1      40.287  26.362  28.227  1.00  0.00     0.031 C 
ATOM     51  C   UNL A   1      46.921  24.604  27.511  1.00  0.00     0.029 A 
ATOM     52  C   UNL A   1      46.672  25.982  27.924  1.00  0.00     0.049 A 
ATOM     53  H   UNL A   1      44.833  26.872  28.327  1.00  0.00     0.167 HD
ATOM     54  C   UNL A   1      40.879  28.663  28.931  1.00  0.00     0.037 A 
ATOM     55  C   UNL A   1      47.616  26.923  28.118  1.00  0.00     0.037 A 
ATOM     56  C   UNL A   1      41.820  29.701  29.262  1.00  0.00     0.049 A 
ATOM     57  C   UNL A   1      47.198  28.301  28.554  1.00  0.00     0.074 A 
ATOM     58  C   UNL A   1      41.567  30.976  29.736  1.00  0.00     0.029 A 
ATOM     59  N   UNL A   1      43.197  29.581  29.150  1.00  0.00    -0.354 N 
ATOM     60  N   UNL A   1      45.994  28.768  28.780  1.00  0.00    -0.248 NA
ATOM     61  C   UNL A   1      48.272  29.280  28.772  1.00  0.00     0.031 C 
ATOM     62  C   UNL A   1      42.788  31.645  29.861  1.00  0.00     0.029 A 
ATOM     63  C   UNL A   1      43.805  30.770  29.522  1.00  0.00     0.049 A 
ATOM     64  H   UNL A   1      43.672  28.773  28.850  1.00  0.00     0.167 HD
ATOM     65  C   UNL A   1      46.166  30.083  29.194  1.00  0.00     0.074 A 
ATOM     66  C   UNL A   1      47.592  30.333  29.203  1.00  0.00     0.031 C 
ATOM     67  C   UNL A   1      45.228  31.001  29.534  1.00  0.00     0.037 A 
BRANCH  54  68
ATOM     68  C   UNL A   1      39.413  28.977  29.032  1.00  0.00     0.064 A 
ATOM     69  C   UNL A   1      38.729  28.917  30.255  1.00  0.00     0.173 A 
ATOM     70  C   UNL A   1      38.694  29.389  27.900  1.00  0.00     0.173 A 
ATOM     71  F   UNL A   1      39.367  28.520  31.367  1.00  0.00    -0.203 F 
ATOM     72  C   UNL A   1      37.374  29.231  30.336  1.00  0.00     0.198 A 
ATOM     73  C   UNL A   1      37.347  29.732  27.990  1.00  0.00     0.198 A 
ATOM     74  F   UNL A   1      39.300  29.469  26.705  1.00  0.00    -0.203 F 
ATOM     75  F   UNL A   1      36.730  29.119  31.507  1.00  0.00    -0.200 F 
ATOM     76  C   UNL A   1      36.686  29.646  29.206  1.00  0.00     0.200 A 
ATOM     77  F   UNL A   1      36.689  30.147  26.898  1.00  0.00    -0.200 F 
ATOM     78  F   UNL A   1      35.385  29.957  29.287  1.00  0.00    -0.200 F 
ENDBRANCH  54  68
BRANCH  55  79
ATOM     79  C   UNL A   1      49.051  26.589  27.917  1.00  0.00     0.064 A 
ATOM     80  C   UNL A   1      49.604  26.529  26.631  1.00  0.00     0.173 A 
ATOM     81  C   UNL A   1      49.895  26.312  29.003  1.00  0.00     0.173 A 
ATOM     82  F   UNL A   1      48.834  26.767  25.559  1.00  0.00    -0.203 F 
ATOM     83  C   UNL A   1      50.940  26.180  26.436  1.00  0.00     0.198 A 
ATOM     84  C   UNL A   1      51.237  25.994  28.809  1.00  0.00     0.198 A 
ATOM     85  F   UNL A   1      49.416  26.362  30.255  1.00  0.00    -0.203 F 
ATOM     86  F   UNL A   1      51.428  26.079  25.193  1.00  0.00    -0.200 F 
ATOM     87  C   UNL A   1      51.756  25.918  27.525  1.00  0.00     0.200 A 
ATOM     88  F   UNL A   1      52.026  25.757  29.866  1.00  0.00    -0.200 F 
ATOM     89  F   UNL A   1      53.040  25.584  27.338  1.00  0.00    -0.200 F 
ENDBRANCH  55  79
BRANCH  67  90
ATOM     90  C   UNL A   1      45.713  32.348  29.983  1.00  0.00     0.064 A 
ATOM     91  C   UNL A   1      46.025  32.612  31.324  1.00  0.00     0.173 A 
ATOM     92  C   UNL A   1      45.906  33.379  29.049  1.00  0.00     0.173 A 
ATOM     93  F   UNL A   1      45.844  31.666  32.257  1.00  0.00    -0.203 F 
ATOM     94  C   UNL A   1      46.487  33.865  31.718  1.00  0.00     0.198 A 
ATOM     95  C   UNL A   1      46.399  34.620  29.441  1.00  0.00     0.198 A 
ATOM     96  F   UNL A   1      45.629  33.176  27.751  1.00  0.00    -0.203 F 
ATOM     97  F   UNL A   1      46.732  34.110  33.012  1.00  0.00    -0.200 F 
ATOM     98  C   UNL A   1      46.682  34.864  30.775  1.00  0.00     0.200 A 
ATOM     99  F   UNL A   1      46.601  35.578  28.526  1.00  0.00    -0.200 F 
ATOM    100  F   UNL A   1      47.135  36.067  31.155  1.00  0.00    -0.200 F 
ENDBRANCH  67  90
ENDBRANCH  41  42
ENDBRANCH  33  36
ENDBRANCH  31  32
ENDBRANCH  30  31
ENDBRANCH  29  30
ENDBRANCH  28  29
ENDBRANCH   1  28
TORSDOF 19
ENDMDL
MODEL 3
REMARK VINA RESULT:     -11.3      0.811      2.353
REMARK SMILES CCSc1nc(CC(=O)N[C@@H](C(=O)NCCCCCCNC(=O)c2ccc(-c3c4nc(c(-c5c(F)c(F)c(F)c(F)c5F)c5ccc([nH]5)c(-c5c(F)c(F)c(F)c(F)c5F)c5nc(c(-c6c(F)c(F)c(F)c(F)c6F)c6ccc3[nH]6)C=C5)C=C4)cc2)C2=C(C)N=N[C@@H]2C)cs1
REMARK SMILES IDX 16 1 15 2 14 3 12 4 13 5 11 7 10 8 8 9 9 10 7 12 6 13 4 14
REMARK SMILES IDX 5 15 95 16 94 17 3 18 2 19 1 20 87 21 88 22 92 23 89 24
REMARK SMILES IDX 90 25 91 26 93 27 17 28 18 29 19 30 20 31 21 32 22 33 23 35
REMARK SMILES IDX 24 36 25 37 86 38 26 39 85 40 27 41 28 42 29 43 79 44 30 45
REMARK SMILES IDX 84 46 78 47 80 48 31 49 83 50 77 51 76 52 32 54 64 55 44 56
REMARK SMILES IDX 63 57 45 58 48 59 62 60 81 61 46 62 47 63 61 65 82 66 49 67
REMARK SMILES IDX 33 68 34 69 42 70 35 71 36 72 40 73 43 74 37 75 38 76 41 77
REMARK SMILES IDX 39 78 65 79 66 80 74 81 67 82 68 83 72 84 75 85 69 86 70 87
REMARK SMILES IDX 73 88 71 89 50 90 51 91 59 92 52 93 53 94 57 95 60 96 54 97
REMARK SMILES IDX 55 98 58 99 56 100
REMARK H PARENT 14 6 10 11 21 34 80 53 48 64
REMARK Flexibility Score: inf
ROOT
ATOM      1  C   UNL A   1      32.733  28.712  26.610  1.00  0.00     0.021 C 
ENDROOT
BRANCH   1   2
ATOM      2  C   UNL A   1      32.135  27.326  26.425  1.00  0.00     0.116 C 
BRANCH   2   3
ATOM      3  N   UNL A   1      33.084  26.310  26.037  1.00  0.00    -0.354 N 
ATOM      4  C   UNL A   1      33.363  25.828  24.787  1.00  0.00     0.247 C 
ATOM      5  O   UNL A   1      34.543  25.497  24.613  1.00  0.00    -0.272 OA
ATOM      6  H   UNL A   1      33.601  25.909  26.773  1.00  0.00     0.163 HD
BRANCH   4   7
ATOM      7  C   UNL A   1      32.302  25.744  23.612  1.00  0.00     0.202 C 
BRANCH   7   8
ATOM      8  N   UNL A   1      32.765  25.022  22.430  1.00  0.00    -0.340 N 
ATOM      9  C   UNL A   1      32.768  23.680  22.173  1.00  0.00     0.226 C 
ATOM     10  O   UNL A   1      33.398  23.287  21.186  1.00  0.00    -0.275 OA
ATOM     11  H   UNL A   1      33.130  25.586  21.711  1.00  0.00     0.164 HD
BRANCH   9  12
ATOM     12  C   UNL A   1      32.034  22.691  23.063  1.00  0.00     0.157 C 
BRANCH  12  13
ATOM     13  C   UNL A   1      32.894  21.622  23.655  1.00  0.00     0.062 A 
ATOM     14  C   UNL A   1      34.742  20.952  24.692  1.00  0.00     0.150 A 
ATOM     15  N   UNL A   1      34.183  21.956  24.055  1.00  0.00    -0.234 NA
ATOM     16  S   UNL A   1      33.798  19.527  24.789  1.00  0.00    -0.116 S 
ATOM     17  C   UNL A   1      32.535  20.315  23.932  1.00  0.00     0.092 A 
BRANCH  14  18
ATOM     18  S   UNL A   1      36.294  21.135  25.474  1.00  0.00    -0.096 SA
BRANCH  18  19
ATOM     19  C   UNL A   1      37.024  22.512  24.546  1.00  0.00     0.074 C 
ATOM     20  C   UNL A   1      37.354  23.685  25.453  1.00  0.00     0.016 C 
ENDBRANCH  18  19
ENDBRANCH  14  18
ENDBRANCH  12  13
ENDBRANCH   9  12
ENDBRANCH   7   8
BRANCH   7  21
ATOM     21  C   UNL A   1      31.856  27.105  23.134  1.00  0.00     0.011 C 
ATOM     22  C   UNL A   1      32.569  28.218  22.897  1.00  0.00     0.064 C 
ATOM     23  C   UNL A   1      30.463  27.465  22.710  1.00  0.00     0.156 C 
ATOM     24  C   UNL A   1      34.020  28.484  23.087  1.00  0.00     0.069 C 
ATOM     25  N   UNL A   1      31.808  29.242  22.391  1.00  0.00    -0.160 NA
ATOM     26  N   UNL A   1      30.614  28.874  22.250  1.00  0.00    -0.181 NA
ATOM     27  C   UNL A   1      29.423  27.455  23.822  1.00  0.00     0.040 C 
ENDBRANCH   7  21
ENDBRANCH   4   7
ENDBRANCH   2   3
ENDBRANCH   1   2
BRANCH   1  28
ATOM     28  C   UNL A   1      31.739  29.784  27.060  1.00  0.00     0.002 C 
BRANCH  28  29
ATOM     29  C   UNL A   1      31.408  30.858  26.018  1.00  0.00     0.002 C 
BRANCH  29  30
ATOM     30  C   UNL A   1      31.335  32.296  26.539  1.00  0.00     0.021 C 
BRANCH  30  31
ATOM     31  C   UNL A   1      32.637  32.844  27.111  1.00  0.00     0.116 C 
BRANCH  31  32
ATOM     32  N   UNL A   1      32.480  34.181  27.656  1.00  0.00    -0.352 N 
ATOM     33  C   UNL A   1      33.101  34.776  28.725  1.00  0.00     0.251 C 
ATOM     34  H   UNL A   1      31.828  34.749  27.186  1.00  0.00     0.163 HD
ATOM     35  O   UNL A   1      32.698  35.856  29.143  1.00  0.00    -0.269 OA
BRANCH  33  36
ATOM     36  C   UNL A   1      34.243  34.111  29.389  1.00  0.00     0.039 A 
ATOM     37  C   UNL A   1      35.540  34.430  28.972  1.00  0.00     0.014 A 
ATOM     38  C   UNL A   1      34.046  33.158  30.391  1.00  0.00     0.014 A 
ATOM     39  C   UNL A   1      36.636  33.834  29.597  1.00  0.00     0.010 A 
ATOM     40  C   UNL A   1      35.140  32.622  31.065  1.00  0.00     0.010 A 
ATOM     41  C   UNL A   1      36.446  32.949  30.670  1.00  0.00    -0.014 A 
BRANCH  41  42
ATOM     42  C   UNL A   1      37.602  32.350  31.385  1.00  0.00     0.031 A 
ATOM     43  C   UNL A   1      38.346  31.191  30.782  1.00  0.00     0.074 A 
ATOM     44  C   UNL A   1      37.942  32.812  32.604  1.00  0.00     0.049 A 
ATOM     45  N   UNL A   1      39.335  30.492  31.280  1.00  0.00    -0.248 NA
ATOM     46  C   UNL A   1      37.903  30.739  29.453  1.00  0.00     0.031 C 
ATOM     47  C   UNL A   1      37.266  33.900  33.314  1.00  0.00     0.029 A 
ATOM     48  N   UNL A   1      38.932  32.417  33.467  1.00  0.00    -0.354 N 
ATOM     49  C   UNL A   1      39.619  29.513  30.337  1.00  0.00     0.074 A 
ATOM     50  C   UNL A   1      38.666  29.672  29.261  1.00  0.00     0.031 C 
ATOM     51  C   UNL A   1      37.874  34.099  34.494  1.00  0.00     0.029 A 
ATOM     52  C   UNL A   1      38.955  33.129  34.643  1.00  0.00     0.049 A 
ATOM     53  H   UNL A   1      39.568  31.692  33.265  1.00  0.00     0.167 HD
ATOM     54  C   UNL A   1      40.601  28.580  30.357  1.00  0.00     0.037 A 
ATOM     55  C   UNL A   1      39.752  33.006  35.721  1.00  0.00     0.037 A 
ATOM     56  C   UNL A   1      41.563  28.443  31.419  1.00  0.00     0.049 A 
ATOM     57  C   UNL A   1      40.832  31.959  35.718  1.00  0.00     0.074 A 
ATOM     58  C   UNL A   1      42.636  27.573  31.502  1.00  0.00     0.029 A 
ATOM     59  N   UNL A   1      41.567  29.196  32.583  1.00  0.00    -0.354 N 
ATOM     60  N   UNL A   1      41.137  31.087  34.788  1.00  0.00    -0.248 NA
ATOM     61  C   UNL A   1      41.685  31.884  36.913  1.00  0.00     0.031 C 
ATOM     62  C   UNL A   1      43.257  27.764  32.740  1.00  0.00     0.029 A 
ATOM     63  C   UNL A   1      42.608  28.792  33.403  1.00  0.00     0.049 A 
ATOM     64  H   UNL A   1      40.924  29.911  32.796  1.00  0.00     0.167 HD
ATOM     65  C   UNL A   1      42.233  30.381  35.270  1.00  0.00     0.074 A 
ATOM     66  C   UNL A   1      42.549  30.939  36.568  1.00  0.00     0.031 C 
ATOM     67  C   UNL A   1      42.915  29.364  34.690  1.00  0.00     0.037 A 
BRANCH  54  68
ATOM     68  C   UNL A   1      40.686  27.632  29.195  1.00  0.00     0.064 A 
ATOM     69  C   UNL A   1      41.626  27.808  28.168  1.00  0.00     0.173 A 
ATOM     70  C   UNL A   1      39.850  26.508  29.130  1.00  0.00     0.173 A 
ATOM     71  F   UNL A   1      42.444  28.872  28.176  1.00  0.00    -0.203 F 
ATOM     72  C   UNL A   1      41.707  26.909  27.107  1.00  0.00     0.198 A 
ATOM     73  C   UNL A   1      39.955  25.594  28.085  1.00  0.00     0.198 A 
ATOM     74  F   UNL A   1      38.936  26.287  30.088  1.00  0.00    -0.203 F 
ATOM     75  F   UNL A   1      42.581  27.125  26.113  1.00  0.00    -0.200 F 
ATOM     76  C   UNL A   1      40.877  25.799  27.070  1.00  0.00     0.200 A 
ATOM     77  F   UNL A   1      39.161  24.514  28.059  1.00  0.00    -0.200 F 
ATOM     78  F   UNL A   1      40.963  24.929  26.054  1.00  0.00    -0.200 F 
ENDBRANCH  54  68
BRANCH  55  79
ATOM     79  C   UNL A   1      39.569  33.909  36.888  1.00  0.00     0.064 A 
ATOM     80  C   UNL A   1      40.158  35.180  36.915  1.00  0.00     0.173 A 
ATOM     81  C   UNL A   1      38.814  33.517  38.004  1.00  0.00     0.173 A 
ATOM     82  F   UNL A   1      40.905  35.594  35.881  1.00  0.00    -0.203 F 
ATOM     83  C   UNL A   1      40.020  36.015  38.023  1.00  0.00     0.198 A 
ATOM     84  C   UNL A   1      38.651  34.365  39.097  1.00  0.00     0.198 A 
ATOM     85  F   UNL A   1      38.224  32.312  38.026  1.00  0.00    -0.203 F 
ATOM     86  F   UNL A   1      40.638  37.204  38.043  1.00  0.00    -0.200 F 
ATOM     87  C   UNL A   1      39.263  35.609  39.110  1.00  0.00     0.200 A 
ATOM     88  F   UNL A   1      37.905  33.974  40.139  1.00  0.00    -0.200 F 
ATOM     89  F   UNL A   1      39.129  36.413  40.175  1.00  0.00    -0.200 F 
ENDBRANCH  55  79
BRANCH  67  90
ATOM     90  C   UNL A   1      44.095  28.811  35.436  1.00  0.00     0.064 A 
ATOM     91  C   UNL A   1      43.959  27.770  36.366  1.00  0.00     0.173 A 
ATOM     92  C   UNL A   1      45.385  29.305  35.188  1.00  0.00     0.173 A 
ATOM     93  F   UNL A   1      42.746  27.274  36.650  1.00  0.00    -0.203 F 
ATOM     94  C   UNL A   1      45.067  27.261  37.038  1.00  0.00     0.198 A 
ATOM     95  C   UNL A   1      46.494  28.772  35.837  1.00  0.00     0.198 A 
ATOM     96  F   UNL A   1      45.571  30.296  34.302  1.00  0.00    -0.203 F 
ATOM     97  F   UNL A   1      44.907  26.301  37.959  1.00  0.00    -0.200 F 
ATOM     98  C   UNL A   1      46.334  27.757  36.767  1.00  0.00     0.200 A 
ATOM     99  F   UNL A   1      47.719  29.241  35.561  1.00  0.00    -0.200 F 
ATOM    100  F   UNL A   1      47.400  27.260  37.408  1.00  0.00    -0.200 F 
ENDBRANCH  67  90
ENDBRANCH  41  42
ENDBRANCH  33  36
ENDBRANCH  31  32
ENDBRANCH  30  31
ENDBRANCH  29  30
ENDBRANCH  28  29
ENDBRANCH   1  28
TORSDOF 19
ENDMDL
