MODEL 1
REMARK VINA RESULT:     -12.7      0.000      0.000
REMARK SMILES O=C(NCCCCCCNC(=O)[C@@H](c1ccccc1)[C@H](C(=O)c1ccccc1)c1ccccc1)c1ccc(-c2c3nc(c(-c4c(F)c(F)c(F)c(F)c4F)c4ccc([nH]4)c(-c4c(F)c(F)c(F)c(F)c4F)c4nc(c(-c5c(F)c(F)c(F)c(F)c5F)c5ccc2[nH]5)C=C4)C=C3)cc1
REMARK SMILES IDX 7 1 6 2 5 3 4 4 3 5 1 6 2 7 35 9 36 10 97 11 37 12 96 13
REMARK SMILES IDX 38 14 39 15 40 16 90 17 41 18 95 19 89 20 91 21 42 22 94 23
REMARK SMILES IDX 88 24 87 25 43 27 75 28 55 29 74 30 56 31 59 32 73 33 92 34
REMARK SMILES IDX 57 35 58 36 72 38 93 39 60 40 44 41 45 42 53 43 46 44 47 45
REMARK SMILES IDX 51 46 54 47 48 48 49 49 52 50 50 51 76 52 77 53 85 54 78 55
REMARK SMILES IDX 79 56 83 57 86 58 80 59 81 60 84 61 82 62 61 63 62 64 70 65
REMARK SMILES IDX 63 66 64 67 68 68 71 69 65 70 66 71 69 72 67 73 8 74 9 75
REMARK SMILES IDX 10 76 11 77 12 79 13 80 14 81 15 82 19 83 16 84 18 85 17 86
REMARK SMILES IDX 20 87 29 88 30 89 34 90 31 91 33 92 32 93 21 94 22 95 23 96
REMARK SMILES IDX 24 97 28 98 25 99 27 100 26 101
REMARK H PARENT 3 8 91 26 59 37 10 78
REMARK Flexibility Score: inf
ROOT
ATOM      1  C   UNL A   1      36.849  21.835  24.241  1.00  0.00     0.002 C 
ENDROOT
BRANCH   1   2
ATOM      2  C   UNL A   1      36.774  20.507  25.003  1.00  0.00     0.002 C 
BRANCH   2   3
ATOM      3  C   UNL A   1      38.043  19.655  24.920  1.00  0.00     0.021 C 
BRANCH   3   4
ATOM      4  C   UNL A   1      39.162  20.121  25.844  1.00  0.00     0.116 C 
BRANCH   4   5
ATOM      5  N   UNL A   1      40.225  19.134  25.922  1.00  0.00    -0.352 N 
ATOM      6  O   UNL A   1      42.368  18.434  25.844  1.00  0.00    -0.269 OA
ATOM      7  C   UNL A   1      41.572  19.339  26.064  1.00  0.00     0.251 C 
ATOM      8  H   UNL A   1      39.939  18.194  25.866  1.00  0.00     0.163 HD
BRANCH   7   9
ATOM      9  C   UNL A   1      42.058  20.666  26.486  1.00  0.00     0.039 A 
ATOM     10  C   UNL A   1      42.412  21.627  25.532  1.00  0.00     0.014 A 
ATOM     11  C   UNL A   1      42.125  20.960  27.849  1.00  0.00     0.014 A 
ATOM     12  C   UNL A   1      42.919  22.854  25.942  1.00  0.00     0.010 A 
ATOM     13  C   UNL A   1      42.572  22.215  28.258  1.00  0.00     0.010 A 
ATOM     14  C   UNL A   1      42.981  23.165  27.308  1.00  0.00    -0.014 A 
BRANCH  14  15
ATOM     15  C   UNL A   1      43.405  24.514  27.746  1.00  0.00     0.031 A 
ATOM     16  C   UNL A   1      42.388  25.560  28.089  1.00  0.00     0.074 A 
ATOM     17  C   UNL A   1      44.719  24.799  27.777  1.00  0.00     0.049 A 
ATOM     18  N   UNL A   1      42.567  26.824  28.375  1.00  0.00    -0.248 NA
ATOM     19  C   UNL A   1      40.983  25.130  28.103  1.00  0.00     0.031 C 
ATOM     20  C   UNL A   1      45.791  23.856  27.457  1.00  0.00     0.029 A 
ATOM     21  N   UNL A   1      45.376  25.967  28.070  1.00  0.00    -0.354 N 
ATOM     22  C   UNL A   1      41.299  27.349  28.575  1.00  0.00     0.074 A 
ATOM     23  C   UNL A   1      40.357  26.270  28.361  1.00  0.00     0.031 C 
ATOM     24  C   UNL A   1      46.973  24.480  27.570  1.00  0.00     0.029 A 
ATOM     25  C   UNL A   1      46.736  25.879  27.909  1.00  0.00     0.049 A 
ATOM     26  H   UNL A   1      44.918  26.786  28.367  1.00  0.00     0.167 HD
ATOM     27  C   UNL A   1      40.960  28.618  28.907  1.00  0.00     0.037 A 
ATOM     28  C   UNL A   1      47.685  26.830  27.984  1.00  0.00     0.037 A 
ATOM     29  C   UNL A   1      41.911  29.677  29.122  1.00  0.00     0.049 A 
ATOM     30  C   UNL A   1      47.284  28.236  28.321  1.00  0.00     0.074 A 
ATOM     31  C   UNL A   1      41.677  30.986  29.506  1.00  0.00     0.029 A 
ATOM     32  N   UNL A   1      43.285  29.549  28.959  1.00  0.00    -0.354 N 
ATOM     33  N   UNL A   1      46.086  28.718  28.546  1.00  0.00    -0.248 NA
ATOM     34  C   UNL A   1      48.360  29.229  28.417  1.00  0.00     0.031 C 
ATOM     35  C   UNL A   1      42.901  31.662  29.525  1.00  0.00     0.029 A 
ATOM     36  C   UNL A   1      43.907  30.761  29.209  1.00  0.00     0.049 A 
ATOM     37  H   UNL A   1      43.749  28.719  28.705  1.00  0.00     0.167 HD
ATOM     38  C   UNL A   1      46.263  30.062  28.833  1.00  0.00     0.074 A 
ATOM     39  C   UNL A   1      47.687  30.320  28.756  1.00  0.00     0.031 C 
ATOM     40  C   UNL A   1      45.329  30.996  29.137  1.00  0.00     0.037 A 
BRANCH  27  41
ATOM     41  C   UNL A   1      39.497  28.935  29.022  1.00  0.00     0.064 A 
ATOM     42  C   UNL A   1      38.812  28.847  30.244  1.00  0.00     0.173 A 
ATOM     43  C   UNL A   1      38.771  29.348  27.894  1.00  0.00     0.173 A 
ATOM     44  F   UNL A   1      39.455  28.447  31.351  1.00  0.00    -0.203 F 
ATOM     45  C   UNL A   1      37.448  29.122  30.323  1.00  0.00     0.198 A 
ATOM     46  C   UNL A   1      37.415  29.651  27.982  1.00  0.00     0.198 A 
ATOM     47  F   UNL A   1      39.377  29.456  26.702  1.00  0.00    -0.203 F 
ATOM     48  F   UNL A   1      36.805  28.975  31.489  1.00  0.00    -0.200 F 
ATOM     49  C   UNL A   1      36.752  29.528  29.194  1.00  0.00     0.200 A 
ATOM     50  F   UNL A   1      36.746  30.054  26.893  1.00  0.00    -0.200 F 
ATOM     51  F   UNL A   1      35.440  29.790  29.273  1.00  0.00    -0.200 F 
ENDBRANCH  27  41
BRANCH  28  52
ATOM     52  C   UNL A   1      49.098  26.460  27.721  1.00  0.00     0.064 A 
ATOM     53  C   UNL A   1      49.594  26.392  26.414  1.00  0.00     0.173 A 
ATOM     54  C   UNL A   1      49.996  26.236  28.775  1.00  0.00     0.173 A 
ATOM     55  F   UNL A   1      48.768  26.585  25.374  1.00  0.00    -0.203 F 
ATOM     56  C   UNL A   1      50.937  26.112  26.169  1.00  0.00     0.198 A 
ATOM     57  C   UNL A   1      51.343  25.983  28.531  1.00  0.00     0.198 A 
ATOM     58  F   UNL A   1      49.570  26.302  30.046  1.00  0.00    -0.203 F 
ATOM     59  F   UNL A   1      51.383  26.034  24.908  1.00  0.00    -0.200 F 
ATOM     60  C   UNL A   1      51.812  25.919  27.228  1.00  0.00     0.200 A 
ATOM     61  F   UNL A   1      52.190  25.817  29.557  1.00  0.00    -0.200 F 
ATOM     62  F   UNL A   1      53.108  25.672  26.991  1.00  0.00    -0.200 F 
ENDBRANCH  28  52
BRANCH  40  63
ATOM     63  C   UNL A   1      45.815  32.379  29.455  1.00  0.00     0.064 A 
ATOM     64  C   UNL A   1      45.910  33.372  28.471  1.00  0.00     0.173 A 
ATOM     65  C   UNL A   1      46.122  32.729  30.780  1.00  0.00     0.173 A 
ATOM     66  F   UNL A   1      45.644  33.080  27.190  1.00  0.00    -0.203 F 
ATOM     67  C   UNL A   1      46.304  34.666  28.801  1.00  0.00     0.198 A 
ATOM     68  C   UNL A   1      46.490  34.029  31.109  1.00  0.00     0.198 A 
ATOM     69  F   UNL A   1      46.043  31.812  31.757  1.00  0.00    -0.203 F 
ATOM     70  F   UNL A   1      46.417  35.595  27.840  1.00  0.00    -0.200 F 
ATOM     71  C   UNL A   1      46.583  34.996  30.119  1.00  0.00     0.200 A 
ATOM     72  F   UNL A   1      46.748  34.349  32.384  1.00  0.00    -0.200 F 
ATOM     73  F   UNL A   1      46.945  36.247  30.435  1.00  0.00    -0.200 F 
ENDBRANCH  40  63
ENDBRANCH  14  15
ENDBRANCH   7   9
ENDBRANCH   4   5
ENDBRANCH   3   4
ENDBRANCH   2   3
ENDBRANCH   1   2
BRANCH   1  74
ATOM     74  C   UNL A   1      37.383  23.015  25.061  1.00  0.00     0.021 C 
BRANCH  74  75
ATOM     75  C   UNL A   1      36.287  23.961  25.547  1.00  0.00     0.116 C 
BRANCH  75  76
ATOM     76  N   UNL A   1      35.420  23.286  26.486  1.00  0.00    -0.356 N 
ATOM     77  C   UNL A   1      34.082  23.422  26.686  1.00  0.00     0.228 C 
ATOM     78  H   UNL A   1      35.865  22.630  27.067  1.00  0.00     0.163 HD
ATOM     79  O   UNL A   1      33.619  22.917  27.715  1.00  0.00    -0.274 OA
BRANCH  77  80
ATOM     80  C   UNL A   1      33.159  24.138  25.684  1.00  0.00     0.124 C 
BRANCH  80  81
ATOM     81  C   UNL A   1      33.006  25.620  26.061  1.00  0.00    -0.035 A 
ATOM     82  C   UNL A   1      31.777  26.046  26.600  1.00  0.00     0.004 A 
ATOM     83  C   UNL A   1      34.008  26.585  25.869  1.00  0.00     0.004 A 
ATOM     84  C   UNL A   1      31.551  27.391  26.898  1.00  0.00     0.000 A 
ATOM     85  C   UNL A   1      33.777  27.931  26.162  1.00  0.00     0.000 A 
ATOM     86  C   UNL A   1      32.548  28.335  26.669  1.00  0.00     0.000 A 
ENDBRANCH  80  81
BRANCH  80  87
ATOM     87  C   UNL A   1      33.454  23.774  24.192  1.00  0.00     0.108 C 
BRANCH  87  88
ATOM     88  C   UNL A   1      33.030  22.351  23.770  1.00  0.00    -0.036 A 
ATOM     89  C   UNL A   1      33.133  21.246  24.632  1.00  0.00     0.004 A 
ATOM     90  C   UNL A   1      32.450  22.127  22.506  1.00  0.00     0.004 A 
ATOM     91  C   UNL A   1      32.676  19.981  24.246  1.00  0.00     0.000 A 
ATOM     92  C   UNL A   1      32.031  20.856  22.106  1.00  0.00     0.000 A 
ATOM     93  C   UNL A   1      32.137  19.782  22.980  1.00  0.00     0.000 A 
ENDBRANCH  87  88
BRANCH  87  94
ATOM     94  C   UNL A   1      33.046  24.810  23.103  1.00  0.00     0.171 C 
ATOM     95  O   UNL A   1      33.822  25.058  22.174  1.00  0.00    -0.293 OA
BRANCH  94  96
ATOM     96  C   UNL A   1      31.774  25.599  23.134  1.00  0.00     0.018 A 
ATOM     97  C   UNL A   1      31.879  26.978  22.887  1.00  0.00     0.012 A 
ATOM     98  C   UNL A   1      30.523  25.064  23.454  1.00  0.00     0.012 A 
ATOM     99  C   UNL A   1      30.781  27.820  23.068  1.00  0.00     0.001 A 
ATOM    100  C   UNL A   1      29.434  25.914  23.674  1.00  0.00     0.001 A 
ATOM    101  C   UNL A   1      29.568  27.291  23.497  1.00  0.00     0.000 A 
ENDBRANCH  94  96
ENDBRANCH  87  94
ENDBRANCH  80  87
ENDBRANCH  77  80
ENDBRANCH  75  76
ENDBRANCH  74  75
ENDBRANCH   1  74
TORSDOF 18
ENDMDL
MODEL 2
REMARK VINA RESULT:     -12.6      5.239     10.327
REMARK SMILES O=C(NCCCCCCNC(=O)[C@@H](c1ccccc1)[C@H](C(=O)c1ccccc1)c1ccccc1)c1ccc(-c2c3nc(c(-c4c(F)c(F)c(F)c(F)c4F)c4ccc([nH]4)c(-c4c(F)c(F)c(F)c(F)c4F)c4nc(c(-c5c(F)c(F)c(F)c(F)c5F)c5ccc2[nH]5)C=C4)C=C3)cc1
REMARK SMILES IDX 7 1 6 2 5 3 4 4 3 5 1 6 2 7 35 9 36 10 97 11 37 12 96 13
REMARK SMILES IDX 38 14 39 15 40 16 90 17 41 18 95 19 89 20 91 21 42 22 94 23
REMARK SMILES IDX 88 24 87 25 43 27 75 28 55 29 74 30 56 31 59 32 73 33 92 34
REMARK SMILES IDX 57 35 58 36 72 38 93 39 60 40 44 41 45 42 53 43 46 44 47 45
REMARK SMILES IDX 51 46 54 47 48 48 49 49 52 50 50 51 76 52 77 53 85 54 78 55
REMARK SMILES IDX 79 56 83 57 86 58 80 59 81 60 84 61 82 62 61 63 62 64 70 65
REMARK SMILES IDX 63 66 64 67 68 68 71 69 65 70 66 71 69 72 67 73 8 74 9 75
REMARK SMILES IDX 10 76 11 77 12 79 13 80 14 81 15 82 19 83 16 84 18 85 17 86
REMARK SMILES IDX 20 87 29 88 30 89 34 90 31 91 33 92 32 93 21 94 22 95 23 96
REMARK SMILES IDX 24 97 28 98 25 99 27 100 26 101
REMARK H PARENT 3 8 91 26 59 37 10 78
REMARK Flexibility Score: inf
ROOT
ATOM      1  C   UNL A   1      31.858  29.629  26.963  1.00  0.00     0.002 C 
ENDROOT
BRANCH   1   2
ATOM      2  C   UNL A   1      31.559  30.844  26.077  1.00  0.00     0.002 C 
BRANCH   2   3
ATOM      3  C   UNL A   1      31.389  32.160  26.840  1.00  0.00     0.021 C 
BRANCH   3   4
ATOM      4  C   UNL A   1      32.703  32.859  27.169  1.00  0.00     0.116 C 
BRANCH   4   5
ATOM      5  N   UNL A   1      32.477  34.223  27.611  1.00  0.00    -0.352 N 
ATOM      6  O   UNL A   1      32.546  35.928  29.088  1.00  0.00    -0.269 OA
ATOM      7  C   UNL A   1      33.030  34.878  28.680  1.00  0.00     0.251 C 
ATOM      8  H   UNL A   1      31.844  34.747  27.070  1.00  0.00     0.163 HD
BRANCH   7   9
ATOM      9  C   UNL A   1      34.217  34.304  29.340  1.00  0.00     0.039 A 
ATOM     10  C   UNL A   1      34.072  33.447  30.437  1.00  0.00     0.014 A 
ATOM     11  C   UNL A   1      35.483  34.601  28.832  1.00  0.00     0.014 A 
ATOM     12  C   UNL A   1      35.200  32.956  31.084  1.00  0.00     0.010 A 
ATOM     13  C   UNL A   1      36.611  34.054  29.441  1.00  0.00     0.010 A 
ATOM     14  C   UNL A   1      36.476  33.237  30.576  1.00  0.00    -0.014 A 
BRANCH  14  15
ATOM     15  C   UNL A   1      37.674  32.618  31.187  1.00  0.00     0.031 A 
ATOM     16  C   UNL A   1      38.388  31.494  30.500  1.00  0.00     0.074 A 
ATOM     17  C   UNL A   1      38.076  33.046  32.398  1.00  0.00     0.049 A 
ATOM     18  N   UNL A   1      39.375  30.753  30.934  1.00  0.00    -0.248 NA
ATOM     19  C   UNL A   1      37.924  31.151  29.148  1.00  0.00     0.031 C 
ATOM     20  C   UNL A   1      37.449  34.130  33.156  1.00  0.00     0.029 A 
ATOM     21  N   UNL A   1      39.091  32.611  33.211  1.00  0.00    -0.354 N 
ATOM     22  C   UNL A   1      39.632  29.838  29.924  1.00  0.00     0.074 A 
ATOM     23  C   UNL A   1      38.686  30.105  28.861  1.00  0.00     0.031 C 
ATOM     24  C   UNL A   1      38.091  34.276  34.324  1.00  0.00     0.029 A 
ATOM     25  C   UNL A   1      39.131  33.258  34.421  1.00  0.00     0.049 A 
ATOM     26  H   UNL A   1      39.727  31.906  32.952  1.00  0.00     0.167 HD
ATOM     27  C   UNL A   1      40.575  28.866  29.895  1.00  0.00     0.037 A 
ATOM     28  C   UNL A   1      39.893  33.028  35.506  1.00  0.00     0.037 A 
ATOM     29  C   UNL A   1      41.512  28.618  30.959  1.00  0.00     0.049 A 
ATOM     30  C   UNL A   1      40.909  31.925  35.463  1.00  0.00     0.074 A 
ATOM     31  C   UNL A   1      42.537  27.689  31.012  1.00  0.00     0.029 A 
ATOM     32  N   UNL A   1      41.530  29.301  32.169  1.00  0.00    -0.354 N 
ATOM     33  N   UNL A   1      41.173  31.087  34.490  1.00  0.00    -0.248 NA
ATOM     34  C   UNL A   1      41.733  31.734  36.663  1.00  0.00     0.031 C 
ATOM     35  C   UNL A   1      43.140  27.774  32.271  1.00  0.00     0.029 A 
ATOM     36  C   UNL A   1      42.530  28.795  32.984  1.00  0.00     0.049 A 
ATOM     37  H   UNL A   1      40.923  30.037  32.412  1.00  0.00     0.167 HD
ATOM     38  C   UNL A   1      42.207  30.284  34.947  1.00  0.00     0.074 A 
ATOM     39  C   UNL A   1      42.526  30.739  36.287  1.00  0.00     0.031 C 
ATOM     40  C   UNL A   1      42.839  29.268  34.311  1.00  0.00     0.037 A 
BRANCH  27  41
ATOM     41  C   UNL A   1      40.613  27.976  28.686  1.00  0.00     0.064 A 
ATOM     42  C   UNL A   1      41.394  28.285  27.560  1.00  0.00     0.173 A 
ATOM     43  C   UNL A   1      39.867  26.787  28.657  1.00  0.00     0.173 A 
ATOM     44  F   UNL A   1      42.118  29.413  27.531  1.00  0.00    -0.203 F 
ATOM     45  C   UNL A   1      41.396  27.457  26.440  1.00  0.00     0.198 A 
ATOM     46  C   UNL A   1      39.894  25.948  27.547  1.00  0.00     0.198 A 
ATOM     47  F   UNL A   1      39.109  26.440  29.707  1.00  0.00    -0.203 F 
ATOM     48  F   UNL A   1      42.104  27.803  25.356  1.00  0.00    -0.200 F 
ATOM     49  C   UNL A   1      40.650  26.288  26.435  1.00  0.00     0.200 A 
ATOM     50  F   UNL A   1      39.183  24.812  27.549  1.00  0.00    -0.200 F 
ATOM     51  F   UNL A   1      40.652  25.495  25.355  1.00  0.00    -0.200 F 
ENDBRANCH  27  41
BRANCH  28  52
ATOM     52  C   UNL A   1      39.699  33.868  36.714  1.00  0.00     0.064 A 
ATOM     53  C   UNL A   1      40.286  35.134  36.813  1.00  0.00     0.173 A 
ATOM     54  C   UNL A   1      38.864  33.448  37.761  1.00  0.00     0.173 A 
ATOM     55  F   UNL A   1      41.102  35.571  35.843  1.00  0.00    -0.203 F 
ATOM     56  C   UNL A   1      40.048  35.951  37.917  1.00  0.00     0.198 A 
ATOM     57  C   UNL A   1      38.606  34.275  38.850  1.00  0.00     0.198 A 
ATOM     58  F   UNL A   1      38.270  32.247  37.705  1.00  0.00    -0.203 F 
ATOM     59  F   UNL A   1      40.638  37.151  37.998  1.00  0.00    -0.200 F 
ATOM     60  C   UNL A   1      39.200  35.525  38.929  1.00  0.00     0.200 A 
ATOM     61  F   UNL A   1      37.770  33.869  39.816  1.00  0.00    -0.200 F 
ATOM     62  F   UNL A   1      38.954  36.321  39.978  1.00  0.00    -0.200 F 
ENDBRANCH  28  52
BRANCH  40  63
ATOM     63  C   UNL A   1      43.970  28.599  35.035  1.00  0.00     0.064 A 
ATOM     64  C   UNL A   1      45.285  29.076  34.949  1.00  0.00     0.173 A 
ATOM     65  C   UNL A   1      43.716  27.508  35.881  1.00  0.00     0.173 A 
ATOM     66  F   UNL A   1      45.578  30.105  34.141  1.00  0.00    -0.203 F 
ATOM     67  C   UNL A   1      46.308  28.478  35.679  1.00  0.00     0.198 A 
ATOM     68  C   UNL A   1      44.737  26.930  36.628  1.00  0.00     0.198 A 
ATOM     69  F   UNL A   1      42.472  27.018  35.998  1.00  0.00    -0.203 F 
ATOM     70  F   UNL A   1      47.565  28.930  35.561  1.00  0.00    -0.200 F 
ATOM     71  C   UNL A   1      46.033  27.414  36.525  1.00  0.00     0.200 A 
ATOM     72  F   UNL A   1      44.466  25.909  37.453  1.00  0.00    -0.200 F 
ATOM     73  F   UNL A   1      47.018  26.851  37.239  1.00  0.00    -0.200 F 
ENDBRANCH  40  63
ENDBRANCH  14  15
ENDBRANCH   7   9
ENDBRANCH   4   5
ENDBRANCH   3   4
ENDBRANCH   2   3
ENDBRANCH   1   2
BRANCH   1  74
ATOM     74  C   UNL A   1      33.346  29.388  27.239  1.00  0.00     0.021 C 
BRANCH  74  75
ATOM     75  C   UNL A   1      33.925  28.212  26.457  1.00  0.00     0.116 C 
BRANCH  75  76
ATOM     76  N   UNL A   1      34.008  28.534  25.051  1.00  0.00    -0.356 N 
ATOM     77  C   UNL A   1      33.823  27.739  23.963  1.00  0.00     0.228 C 
ATOM     78  H   UNL A   1      34.232  29.471  24.850  1.00  0.00     0.163 HD
ATOM     79  O   UNL A   1      34.194  28.190  22.874  1.00  0.00    -0.274 OA
BRANCH  77  80
ATOM     80  C   UNL A   1      33.158  26.354  24.049  1.00  0.00     0.124 C 
BRANCH  80  81
ATOM     81  C   UNL A   1      34.220  25.263  24.260  1.00  0.00    -0.035 A 
ATOM     82  C   UNL A   1      34.502  24.392  23.191  1.00  0.00     0.004 A 
ATOM     83  C   UNL A   1      34.905  25.059  25.470  1.00  0.00     0.004 A 
ATOM     84  C   UNL A   1      35.404  23.338  23.340  1.00  0.00     0.000 A 
ATOM     85  C   UNL A   1      35.803  23.999  25.619  1.00  0.00     0.000 A 
ATOM     86  C   UNL A   1      36.047  23.135  24.558  1.00  0.00     0.000 A 
ENDBRANCH  80  81
BRANCH  80  87
ATOM     87  C   UNL A   1      31.875  26.330  24.944  1.00  0.00     0.108 C 
BRANCH  87  88
ATOM     88  C   UNL A   1      30.613  26.933  24.292  1.00  0.00    -0.036 A 
ATOM     89  C   UNL A   1      29.365  26.288  24.326  1.00  0.00     0.004 A 
ATOM     90  C   UNL A   1      30.661  28.207  23.693  1.00  0.00     0.004 A 
ATOM     91  C   UNL A   1      28.223  26.890  23.787  1.00  0.00     0.000 A 
ATOM     92  C   UNL A   1      29.529  28.791  23.119  1.00  0.00     0.000 A 
ATOM     93  C   UNL A   1      28.306  28.135  23.173  1.00  0.00     0.000 A 
ENDBRANCH  87  88
BRANCH  87  94
ATOM     94  C   UNL A   1      31.529  24.997  25.672  1.00  0.00     0.171 C 
ATOM     95  O   UNL A   1      31.188  25.021  26.860  1.00  0.00    -0.293 OA
BRANCH  94  96
ATOM     96  C   UNL A   1      31.646  23.645  25.041  1.00  0.00     0.018 A 
ATOM     97  C   UNL A   1      32.243  22.635  25.815  1.00  0.00     0.012 A 
ATOM     98  C   UNL A   1      31.263  23.352  23.729  1.00  0.00     0.012 A 
ATOM     99  C   UNL A   1      32.554  21.396  25.253  1.00  0.00     0.001 A 
ATOM    100  C   UNL A   1      31.612  22.124  23.156  1.00  0.00     0.001 A 
ATOM    101  C   UNL A   1      32.270  21.155  23.912  1.00  0.00     0.000 A 
ENDBRANCH  94  96
ENDBRANCH  87  94
ENDBRANCH  80  87
ENDBRANCH  77  80
ENDBRANCH  75  76
ENDBRANCH  74  75
ENDBRANCH   1  74
TORSDOF 18
ENDMDL
MODEL 3
REMARK VINA RESULT:     -12.3      5.202     10.387
REMARK SMILES O=C(NCCCCCCNC(=O)[C@@H](c1ccccc1)[C@H](C(=O)c1ccccc1)c1ccccc1)c1ccc(-c2c3nc(c(-c4c(F)c(F)c(F)c(F)c4F)c4ccc([nH]4)c(-c4c(F)c(F)c(F)c(F)c4F)c4nc(c(-c5c(F)c(F)c(F)c(F)c5F)c5ccc2[nH]5)C=C4)C=C3)cc1
REMARK SMILES IDX 7 1 6 2 5 3 4 4 3 5 1 6 2 7 35 9 36 10 97 11 37 12 96 13
REMARK SMILES IDX 38 14 39 15 40 16 90 17 41 18 95 19 89 20 91 21 42 22 94 23
REMARK SMILES IDX 88 24 87 25 43 27 75 28 55 29 74 30 56 31 59 32 73 33 92 34
REMARK SMILES IDX 57 35 58 36 72 38 93 39 60 40 44 41 45 42 53 43 46 44 47 45
REMARK SMILES IDX 51 46 54 47 48 48 49 49 52 50 50 51 76 52 77 53 85 54 78 55
REMARK SMILES IDX 79 56 83 57 86 58 80 59 81 60 84 61 82 62 61 63 62 64 70 65
REMARK SMILES IDX 63 66 64 67 68 68 71 69 65 70 66 71 69 72 67 73 8 74 9 75
REMARK SMILES IDX 10 76 11 77 12 79 13 80 14 81 15 82 19 83 16 84 18 85 17 86
REMARK SMILES IDX 20 87 29 88 30 89 34 90 31 91 33 92 32 93 21 94 22 95 23 96
REMARK SMILES IDX 24 97 28 98 25 99 27 100 26 101
REMARK H PARENT 3 8 91 26 59 37 10 78
REMARK Flexibility Score: inf
ROOT
ATOM      1  C   UNL A   1      32.431  29.991  26.880  1.00  0.00     0.002 C 
ENDROOT
BRANCH   1   2
ATOM      2  C   UNL A   1      31.532  30.897  26.031  1.00  0.00     0.002 C 
BRANCH   2   3
ATOM      3  C   UNL A   1      31.371  32.319  26.572  1.00  0.00     0.021 C 
BRANCH   3   4
ATOM      4  C   UNL A   1      32.618  32.865  27.258  1.00  0.00     0.116 C 
BRANCH   4   5
ATOM      5  N   UNL A   1      32.437  34.250  27.655  1.00  0.00    -0.352 N 
ATOM      6  O   UNL A   1      32.583  36.004  29.066  1.00  0.00    -0.269 OA
ATOM      7  C   UNL A   1      33.030  34.928  28.687  1.00  0.00     0.251 C 
ATOM      8  H   UNL A   1      31.806  34.771  27.109  1.00  0.00     0.163 HD
BRANCH   7   9
ATOM      9  C   UNL A   1      34.217  34.348  29.342  1.00  0.00     0.039 A 
ATOM     10  C   UNL A   1      34.071  33.482  30.432  1.00  0.00     0.014 A 
ATOM     11  C   UNL A   1      35.483  34.647  28.837  1.00  0.00     0.014 A 
ATOM     12  C   UNL A   1      35.198  32.984  31.074  1.00  0.00     0.010 A 
ATOM     13  C   UNL A   1      36.610  34.094  29.441  1.00  0.00     0.010 A 
ATOM     14  C   UNL A   1      36.475  33.268  30.569  1.00  0.00    -0.014 A 
BRANCH  14  15
ATOM     15  C   UNL A   1      37.672  32.642  31.175  1.00  0.00     0.031 A 
ATOM     16  C   UNL A   1      38.379  31.517  30.482  1.00  0.00     0.074 A 
ATOM     17  C   UNL A   1      38.080  33.066  32.385  1.00  0.00     0.049 A 
ATOM     18  N   UNL A   1      39.364  30.771  30.912  1.00  0.00    -0.248 NA
ATOM     19  C   UNL A   1      37.910  31.179  29.131  1.00  0.00     0.031 C 
ATOM     20  C   UNL A   1      37.460  34.150  33.148  1.00  0.00     0.029 A 
ATOM     21  N   UNL A   1      39.095  32.624  33.194  1.00  0.00    -0.354 N 
ATOM     22  C   UNL A   1      39.615  29.858  29.899  1.00  0.00     0.074 A 
ATOM     23  C   UNL A   1      38.667  30.131  28.839  1.00  0.00     0.031 C 
ATOM     24  C   UNL A   1      38.106  34.291  34.314  1.00  0.00     0.029 A 
ATOM     25  C   UNL A   1      39.142  33.268  34.405  1.00  0.00     0.049 A 
ATOM     26  H   UNL A   1      39.727  31.917  32.932  1.00  0.00     0.167 HD
ATOM     27  C   UNL A   1      40.553  28.881  29.864  1.00  0.00     0.037 A 
ATOM     28  C   UNL A   1      39.906  33.033  35.488  1.00  0.00     0.037 A 
ATOM     29  C   UNL A   1      41.493  28.627  30.925  1.00  0.00     0.049 A 
ATOM     30  C   UNL A   1      40.918  31.925  35.439  1.00  0.00     0.074 A 
ATOM     31  C   UNL A   1      42.514  27.694  30.972  1.00  0.00     0.029 A 
ATOM     32  N   UNL A   1      41.518  29.307  32.137  1.00  0.00    -0.354 N 
ATOM     33  N   UNL A   1      41.175  31.089  34.463  1.00  0.00    -0.248 NA
ATOM     34  C   UNL A   1      41.744  31.728  36.636  1.00  0.00     0.031 C 
ATOM     35  C   UNL A   1      43.122  27.774  32.229  1.00  0.00     0.029 A 
ATOM     36  C   UNL A   1      42.518  28.795  32.947  1.00  0.00     0.049 A 
ATOM     37  H   UNL A   1      40.914  30.045  32.383  1.00  0.00     0.167 HD
ATOM     38  C   UNL A   1      42.207  30.281  34.915  1.00  0.00     0.074 A 
ATOM     39  C   UNL A   1      42.532  30.731  36.254  1.00  0.00     0.031 C 
ATOM     40  C   UNL A   1      42.833  29.263  34.275  1.00  0.00     0.037 A 
BRANCH  27  41
ATOM     41  C   UNL A   1      40.585  27.995  28.653  1.00  0.00     0.064 A 
ATOM     42  C   UNL A   1      41.333  28.323  27.511  1.00  0.00     0.173 A 
ATOM     43  C   UNL A   1      39.865  26.790  28.639  1.00  0.00     0.173 A 
ATOM     44  F   UNL A   1      42.030  29.467  27.467  1.00  0.00    -0.203 F 
ATOM     45  C   UNL A   1      41.327  27.497  26.389  1.00  0.00     0.198 A 
ATOM     46  C   UNL A   1      39.886  25.952  27.526  1.00  0.00     0.198 A 
ATOM     47  F   UNL A   1      39.139  26.423  29.705  1.00  0.00    -0.203 F 
ATOM     48  F   UNL A   1      42.003  27.861  25.290  1.00  0.00    -0.200 F 
ATOM     49  C   UNL A   1      40.609  26.311  26.399  1.00  0.00     0.200 A 
ATOM     50  F   UNL A   1      39.200  24.801  27.542  1.00  0.00    -0.200 F 
ATOM     51  F   UNL A   1      40.603  25.520  25.317  1.00  0.00    -0.200 F 
ENDBRANCH  27  41
BRANCH  28  52
ATOM     52  C   UNL A   1      39.719  33.870  36.698  1.00  0.00     0.064 A 
ATOM     53  C   UNL A   1      40.312  35.134  36.799  1.00  0.00     0.173 A 
ATOM     54  C   UNL A   1      38.886  33.451  37.747  1.00  0.00     0.173 A 
ATOM     55  F   UNL A   1      41.126  35.570  35.827  1.00  0.00    -0.203 F 
ATOM     56  C   UNL A   1      40.080  35.949  37.905  1.00  0.00     0.198 A 
ATOM     57  C   UNL A   1      38.635  34.276  38.839  1.00  0.00     0.198 A 
ATOM     58  F   UNL A   1      38.287  32.252  37.690  1.00  0.00    -0.203 F 
ATOM     59  F   UNL A   1      40.675  37.147  37.987  1.00  0.00    -0.200 F 
ATOM     60  C   UNL A   1      39.234  35.523  38.919  1.00  0.00     0.200 A 
ATOM     61  F   UNL A   1      37.800  33.871  39.806  1.00  0.00    -0.200 F 
ATOM     62  F   UNL A   1      38.995  36.318  39.971  1.00  0.00    -0.200 F 
ENDBRANCH  28  52
BRANCH  40  63
ATOM     63  C   UNL A   1      43.963  28.588  34.993  1.00  0.00     0.064 A 
ATOM     64  C   UNL A   1      43.761  27.444  35.776  1.00  0.00     0.173 A 
ATOM     65  C   UNL A   1      45.277  29.057  34.833  1.00  0.00     0.173 A 
ATOM     66  F   UNL A   1      42.522  26.971  35.972  1.00  0.00    -0.203 F 
ATOM     67  C   UNL A   1      44.834  26.797  36.383  1.00  0.00     0.198 A 
ATOM     68  C   UNL A   1      46.349  28.392  35.420  1.00  0.00     0.198 A 
ATOM     69  F   UNL A   1      45.521  30.147  34.089  1.00  0.00    -0.203 F 
ATOM     70  F   UNL A   1      44.617  25.722  37.153  1.00  0.00    -0.200 F 
ATOM     71  C   UNL A   1      46.127  27.264  36.196  1.00  0.00     0.200 A 
ATOM     72  F   UNL A   1      47.598  28.838  35.228  1.00  0.00    -0.200 F 
ATOM     73  F   UNL A   1      47.160  26.629  36.767  1.00  0.00    -0.200 F 
ENDBRANCH  40  63
ENDBRANCH  14  15
ENDBRANCH   7   9
ENDBRANCH   4   5
ENDBRANCH   3   4
ENDBRANCH   2   3
ENDBRANCH   1   2
BRANCH   1  74
ATOM     74  C   UNL A   1      31.730  28.760  27.465  1.00  0.00     0.021 C 
BRANCH  74  75
ATOM     75  C   UNL A   1      32.331  27.438  26.994  1.00  0.00     0.116 C 
BRANCH  75  76
ATOM     76  N   UNL A   1      31.314  26.413  26.941  1.00  0.00    -0.356 N 
ATOM     77  C   UNL A   1      31.270  25.268  26.209  1.00  0.00     0.228 C 
ATOM     78  H   UNL A   1      30.536  26.567  27.522  1.00  0.00     0.163 HD
ATOM     79  O   UNL A   1      30.182  24.684  26.152  1.00  0.00    -0.274 OA
BRANCH  77  80
ATOM     80  C   UNL A   1      32.507  24.685  25.501  1.00  0.00     0.124 C 
BRANCH  80  81
ATOM     81  C   UNL A   1      32.762  23.243  25.968  1.00  0.00    -0.035 A 
ATOM     82  C   UNL A   1      33.424  23.049  27.195  1.00  0.00     0.004 A 
ATOM     83  C   UNL A   1      32.405  22.105  25.227  1.00  0.00     0.004 A 
ATOM     84  C   UNL A   1      33.747  21.766  27.642  1.00  0.00     0.000 A 
ATOM     85  C   UNL A   1      32.735  20.823  25.673  1.00  0.00     0.000 A 
ATOM     86  C   UNL A   1      33.412  20.654  26.875  1.00  0.00     0.000 A 
ENDBRANCH  80  81
BRANCH  80  87
ATOM     87  C   UNL A   1      32.552  24.993  23.967  1.00  0.00     0.108 C 
BRANCH  87  88
ATOM     88  C   UNL A   1      32.219  26.450  23.583  1.00  0.00    -0.036 A 
ATOM     89  C   UNL A   1      30.906  26.881  23.327  1.00  0.00     0.004 A 
ATOM     90  C   UNL A   1      33.234  27.425  23.544  1.00  0.00     0.004 A 
ATOM     91  C   UNL A   1      30.626  28.224  23.048  1.00  0.00     0.000 A 
ATOM     92  C   UNL A   1      32.960  28.757  23.226  1.00  0.00     0.000 A 
ATOM     93  C   UNL A   1      31.653  29.159  22.985  1.00  0.00     0.000 A 
ENDBRANCH  87  88
BRANCH  87  94
ATOM     94  C   UNL A   1      33.788  24.486  23.167  1.00  0.00     0.171 C 
ATOM     95  O   UNL A   1      33.729  24.412  21.935  1.00  0.00    -0.293 OA
BRANCH  94  96
ATOM     96  C   UNL A   1      35.057  24.008  23.802  1.00  0.00     0.018 A 
ATOM     97  C   UNL A   1      35.664  22.879  23.228  1.00  0.00     0.012 A 
ATOM     98  C   UNL A   1      35.623  24.570  24.949  1.00  0.00     0.012 A 
ATOM     99  C   UNL A   1      36.746  22.257  23.852  1.00  0.00     0.001 A 
ATOM    100  C   UNL A   1      36.682  23.922  25.595  1.00  0.00     0.001 A 
ATOM    101  C   UNL A   1      37.231  22.760  25.056  1.00  0.00     0.000 A 
ENDBRANCH  94  96
ENDBRANCH  87  94
ENDBRANCH  80  87
ENDBRANCH  77  80
ENDBRANCH  75  76
ENDBRANCH  74  75
ENDBRANCH   1  74
TORSDOF 18
ENDMDL
