MODEL 1
REMARK VINA RESULT:     -11.9      0.000      0.000
REMARK SMILES Cc1cc(F)ccc1CCNc1ccc(Cl)c(C(=O)NCCCCCCNC(=O)c2ccc(-c3c4nc(c(-c5c(F)c(F)c(F)c(F)c5F)c5ccc([nH]5)c(-c5c(F)c(F)c(F)c(F)c5F)c5nc(c(-c6c(F)c(F)c(F)c(F)c6F)c6ccc3[nH]6)C=C5)C=C4)cc2)n1
REMARK SMILES IDX 22 1 21 2 20 3 18 4 19 5 17 7 12 8 13 9 93 10 14 11 15 12
REMARK SMILES IDX 16 13 11 14 10 16 9 17 8 18 1 19 2 20 3 21 4 22 7 23 5 24
REMARK SMILES IDX 6 25 23 26 24 27 25 28 26 29 27 30 28 31 29 33 30 34 31 35
REMARK SMILES IDX 92 36 32 37 91 38 33 39 34 40 35 41 85 42 36 43 90 44 84 45
REMARK SMILES IDX 86 46 37 47 89 48 83 49 82 50 38 52 70 53 50 54 69 55 51 56
REMARK SMILES IDX 54 57 68 58 87 59 52 60 53 61 67 63 88 64 55 65 39 66 40 67
REMARK SMILES IDX 48 68 41 69 42 70 46 71 49 72 43 73 44 74 47 75 45 76 71 77
REMARK SMILES IDX 72 78 80 79 73 80 74 81 78 82 81 83 75 84 76 85 79 86 77 87
REMARK SMILES IDX 56 88 57 89 65 90 58 91 59 92 63 93 66 94 60 95 61 96 64 97
REMARK SMILES IDX 62 98
REMARK H PARENT 20 6 11 15 27 32 86 51 54 62
REMARK Flexibility Score: inf
ROOT
ATOM      1  C   UNL A   1      38.746  23.992  26.469  1.00  0.00     0.021 C 
ENDROOT
BRANCH   1   2
ATOM      2  C   UNL A   1      37.400  23.647  25.846  1.00  0.00     0.116 C 
BRANCH   2   3
ATOM      3  N   UNL A   1      37.414  23.420  24.420  1.00  0.00    -0.351 N 
ATOM      4  C   UNL A   1      36.410  22.954  23.589  1.00  0.00     0.271 C 
ATOM      5  O   UNL A   1      36.636  22.955  22.379  1.00  0.00    -0.267 OA
ATOM      6  H   UNL A   1      38.265  23.628  23.971  1.00  0.00     0.163 HD
BRANCH   4   7
ATOM      7  C   UNL A   1      35.117  22.379  24.101  1.00  0.00     0.149 A 
ATOM      8  C   UNL A   1      32.909  22.924  24.622  1.00  0.00     0.126 A 
ATOM      9  C   UNL A   1      32.626  21.601  24.919  1.00  0.00     0.048 A 
ATOM     10  N   UNL A   1      34.100  23.299  24.130  1.00  0.00    -0.224 NA
ATOM     11  C   UNL A   1      33.655  20.671  24.904  1.00  0.00     0.027 A 
ATOM     12  C   UNL A   1      34.946  21.084  24.584  1.00  0.00     0.072 A 
ATOM     13  Cl  UNL A   1      36.211  19.995  25.011  1.00  0.00    -0.082 Cl
BRANCH   8  14
ATOM     14  N   UNL A   1      31.999  23.930  24.893  1.00  0.00    -0.370 N 
ATOM     15  H   UNL A   1      31.285  24.152  24.253  1.00  0.00     0.162 HD
BRANCH  14  16
ATOM     16  C   UNL A   1      32.131  24.658  26.162  1.00  0.00     0.119 C 
BRANCH  16  17
ATOM     17  C   UNL A   1      33.260  25.709  26.121  1.00  0.00     0.057 C 
BRANCH  17  18
ATOM     18  C   UNL A   1      32.732  27.120  25.934  1.00  0.00    -0.043 A 
ATOM     19  C   UNL A   1      33.286  27.228  23.415  1.00  0.00     0.045 C 
ATOM     20  C   UNL A   1      32.814  27.826  24.713  1.00  0.00    -0.045 A 
ATOM     21  C   UNL A   1      32.382  29.164  24.672  1.00  0.00     0.043 A 
ATOM     22  C   UNL A   1      31.890  29.787  25.813  1.00  0.00     0.123 A 
ATOM     23  C   UNL A   1      32.186  27.765  27.063  1.00  0.00     0.007 A 
ATOM     24  F   UNL A   1      31.509  31.070  25.752  1.00  0.00    -0.207 F 
ATOM     25  C   UNL A   1      31.780  29.096  27.007  1.00  0.00     0.039 A 
ENDBRANCH  17  18
ENDBRANCH  16  17
ENDBRANCH  14  16
ENDBRANCH   8  14
ENDBRANCH   4   7
ENDBRANCH   2   3
ENDBRANCH   1   2
BRANCH   1  26
ATOM     26  C   UNL A   1      39.607  22.812  26.938  1.00  0.00     0.002 C 
BRANCH  26  27
ATOM     27  C   UNL A   1      39.631  21.543  26.070  1.00  0.00     0.002 C 
BRANCH  27  28
ATOM     28  C   UNL A   1      40.267  20.278  26.661  1.00  0.00     0.021 C 
BRANCH  28  29
ATOM     29  C   UNL A   1      41.503  20.547  27.491  1.00  0.00     0.116 C 
BRANCH  29  30
ATOM     30  N   UNL A   1      42.733  20.479  26.708  1.00  0.00    -0.352 N 
ATOM     31  C   UNL A   1      43.418  21.521  26.117  1.00  0.00     0.251 C 
ATOM     32  H   UNL A   1      43.121  19.583  26.588  1.00  0.00     0.163 HD
ATOM     33  O   UNL A   1      44.251  21.322  25.245  1.00  0.00    -0.269 OA
BRANCH  31  34
ATOM     34  C   UNL A   1      43.144  22.890  26.585  1.00  0.00     0.039 A 
ATOM     35  C   UNL A   1      42.926  23.951  25.696  1.00  0.00     0.014 A 
ATOM     36  C   UNL A   1      43.161  23.104  27.958  1.00  0.00     0.014 A 
ATOM     37  C   UNL A   1      42.706  25.231  26.205  1.00  0.00     0.010 A 
ATOM     38  C   UNL A   1      42.760  24.301  28.460  1.00  0.00     0.010 A 
ATOM     39  C   UNL A   1      42.636  25.383  27.589  1.00  0.00    -0.014 A 
BRANCH  39  40
ATOM     40  C   UNL A   1      42.588  26.644  28.300  1.00  0.00     0.031 A 
ATOM     41  C   UNL A   1      41.399  27.492  28.241  1.00  0.00     0.074 A 
ATOM     42  C   UNL A   1      43.581  26.800  29.203  1.00  0.00     0.049 A 
ATOM     43  N   UNL A   1      41.388  28.738  28.554  1.00  0.00    -0.248 NA
ATOM     44  C   UNL A   1      40.097  26.992  27.814  1.00  0.00     0.031 C 
ATOM     45  C   UNL A   1      43.679  27.678  30.354  1.00  0.00     0.029 A 
ATOM     46  N   UNL A   1      44.826  26.149  29.168  1.00  0.00    -0.354 N 
ATOM     47  C   UNL A   1      40.069  29.104  28.716  1.00  0.00     0.074 A 
ATOM     48  C   UNL A   1      39.310  28.034  28.109  1.00  0.00     0.031 C 
ATOM     49  C   UNL A   1      44.974  27.764  30.715  1.00  0.00     0.029 A 
ATOM     50  C   UNL A   1      45.748  27.058  29.704  1.00  0.00     0.049 A 
ATOM     51  H   UNL A   1      45.012  25.241  28.836  1.00  0.00     0.167 HD
ATOM     52  C   UNL A   1      39.791  30.168  29.528  1.00  0.00     0.037 A 
ATOM     53  C   UNL A   1      46.653  27.627  28.851  1.00  0.00     0.037 A 
ATOM     54  C   UNL A   1      41.043  30.731  30.049  1.00  0.00     0.049 A 
ATOM     55  C   UNL A   1      46.415  29.109  28.728  1.00  0.00     0.074 A 
ATOM     56  C   UNL A   1      41.696  30.552  31.259  1.00  0.00     0.029 A 
ATOM     57  N   UNL A   1      41.980  31.273  29.173  1.00  0.00    -0.354 N 
ATOM     58  N   UNL A   1      45.243  29.677  28.838  1.00  0.00    -0.248 NA
ATOM     59  C   UNL A   1      47.500  30.067  28.567  1.00  0.00     0.031 C 
ATOM     60  C   UNL A   1      43.052  30.927  31.085  1.00  0.00     0.029 A 
ATOM     61  C   UNL A   1      43.222  31.346  29.775  1.00  0.00     0.049 A 
ATOM     62  H   UNL A   1      41.785  31.565  28.253  1.00  0.00     0.167 HD
ATOM     63  C   UNL A   1      45.405  31.037  28.855  1.00  0.00     0.074 A 
ATOM     64  C   UNL A   1      46.833  31.230  28.661  1.00  0.00     0.031 C 
ATOM     65  C   UNL A   1      44.372  31.905  29.078  1.00  0.00     0.037 A 
BRANCH  52  66
ATOM     66  C   UNL A   1      38.433  30.482  30.130  1.00  0.00     0.064 A 
ATOM     67  C   UNL A   1      37.395  31.013  29.327  1.00  0.00     0.173 A 
ATOM     68  C   UNL A   1      38.089  30.324  31.486  1.00  0.00     0.173 A 
ATOM     69  F   UNL A   1      37.520  31.120  27.998  1.00  0.00    -0.203 F 
ATOM     70  C   UNL A   1      36.177  31.453  29.853  1.00  0.00     0.198 A 
ATOM     71  C   UNL A   1      36.885  30.799  32.021  1.00  0.00     0.198 A 
ATOM     72  F   UNL A   1      38.877  29.654  32.333  1.00  0.00    -0.203 F 
ATOM     73  F   UNL A   1      35.246  31.964  29.035  1.00  0.00    -0.200 F 
ATOM     74  C   UNL A   1      35.932  31.375  31.206  1.00  0.00     0.200 A 
ATOM     75  F   UNL A   1      36.652  30.687  33.337  1.00  0.00    -0.200 F 
ATOM     76  F   UNL A   1      34.777  31.822  31.716  1.00  0.00    -0.200 F 
ENDBRANCH  52  66
BRANCH  53  77
ATOM     77  C   UNL A   1      47.054  26.690  27.752  1.00  0.00     0.064 A 
ATOM     78  C   UNL A   1      46.491  26.913  26.475  1.00  0.00     0.173 A 
ATOM     79  C   UNL A   1      48.234  25.935  27.804  1.00  0.00     0.173 A 
ATOM     80  F   UNL A   1      45.361  27.630  26.362  1.00  0.00    -0.203 F 
ATOM     81  C   UNL A   1      47.153  26.536  25.308  1.00  0.00     0.198 A 
ATOM     82  C   UNL A   1      48.883  25.535  26.628  1.00  0.00     0.198 A 
ATOM     83  F   UNL A   1      48.824  25.676  28.979  1.00  0.00    -0.203 F 
ATOM     84  F   UNL A   1      46.657  26.894  24.114  1.00  0.00    -0.200 F 
ATOM     85  C   UNL A   1      48.364  25.871  25.385  1.00  0.00     0.200 A 
ATOM     86  F   UNL A   1      50.056  24.889  26.700  1.00  0.00    -0.200 F 
ATOM     87  F   UNL A   1      49.043  25.583  24.266  1.00  0.00    -0.200 F 
ENDBRANCH  53  77
BRANCH  65  88
ATOM     88  C   UNL A   1      44.393  33.393  28.815  1.00  0.00     0.064 A 
ATOM     89  C   UNL A   1      44.162  33.965  27.555  1.00  0.00     0.173 A 
ATOM     90  C   UNL A   1      44.505  34.317  29.885  1.00  0.00     0.173 A 
ATOM     91  F   UNL A   1      43.881  33.215  26.482  1.00  0.00    -0.203 F 
ATOM     92  C   UNL A   1      44.147  35.349  27.362  1.00  0.00     0.198 A 
ATOM     93  C   UNL A   1      44.412  35.694  29.701  1.00  0.00     0.198 A 
ATOM     94  F   UNL A   1      44.674  33.919  31.155  1.00  0.00    -0.203 F 
ATOM     95  F   UNL A   1      43.990  35.840  26.125  1.00  0.00    -0.200 F 
ATOM     96  C   UNL A   1      44.261  36.212  28.433  1.00  0.00     0.200 A 
ATOM     97  F   UNL A   1      44.450  36.511  30.763  1.00  0.00    -0.200 F 
ATOM     98  F   UNL A   1      44.197  37.536  28.249  1.00  0.00    -0.200 F 
ENDBRANCH  65  88
ENDBRANCH  39  40
ENDBRANCH  31  34
ENDBRANCH  29  30
ENDBRANCH  28  29
ENDBRANCH  27  28
ENDBRANCH  26  27
ENDBRANCH   1  26
TORSDOF 17
ENDMDL
MODEL 2
REMARK VINA RESULT:     -11.8      3.948      9.679
REMARK SMILES Cc1cc(F)ccc1CCNc1ccc(Cl)c(C(=O)NCCCCCCNC(=O)c2ccc(-c3c4nc(c(-c5c(F)c(F)c(F)c(F)c5F)c5ccc([nH]5)c(-c5c(F)c(F)c(F)c(F)c5F)c5nc(c(-c6c(F)c(F)c(F)c(F)c6F)c6ccc3[nH]6)C=C5)C=C4)cc2)n1
REMARK SMILES IDX 22 1 21 2 20 3 18 4 19 5 17 7 12 8 13 9 93 10 14 11 15 12
REMARK SMILES IDX 16 13 11 14 10 16 9 17 8 18 1 19 2 20 3 21 4 22 7 23 5 24
REMARK SMILES IDX 6 25 23 26 24 27 25 28 26 29 27 30 28 31 29 33 30 34 31 35
REMARK SMILES IDX 92 36 32 37 91 38 33 39 34 40 35 41 85 42 36 43 90 44 84 45
REMARK SMILES IDX 86 46 37 47 89 48 83 49 82 50 38 52 70 53 50 54 69 55 51 56
REMARK SMILES IDX 54 57 68 58 87 59 52 60 53 61 67 63 88 64 55 65 39 66 40 67
REMARK SMILES IDX 48 68 41 69 42 70 46 71 49 72 43 73 44 74 47 75 45 76 71 77
REMARK SMILES IDX 72 78 80 79 73 80 74 81 78 82 81 83 75 84 76 85 79 86 77 87
REMARK SMILES IDX 56 88 57 89 65 90 58 91 59 92 63 93 66 94 60 95 61 96 64 97
REMARK SMILES IDX 62 98
REMARK H PARENT 20 6 11 15 27 32 86 51 54 62
REMARK Flexibility Score: inf
ROOT
ATOM      1  C   UNL A   1      33.289  29.512  24.787  1.00  0.00     0.021 C 
ENDROOT
BRANCH   1   2
ATOM      2  C   UNL A   1      33.641  28.046  24.571  1.00  0.00     0.116 C 
BRANCH   2   3
ATOM      3  N   UNL A   1      33.919  27.667  23.206  1.00  0.00    -0.351 N 
ATOM      4  C   UNL A   1      33.224  26.815  22.366  1.00  0.00     0.271 C 
ATOM      5  O   UNL A   1      33.605  26.743  21.197  1.00  0.00    -0.267 OA
ATOM      6  H   UNL A   1      34.724  28.076  22.813  1.00  0.00     0.163 HD
BRANCH   4   7
ATOM      7  C   UNL A   1      32.102  25.929  22.836  1.00  0.00     0.149 A 
ATOM      8  C   UNL A   1      31.460  23.699  23.075  1.00  0.00     0.126 A 
ATOM      9  C   UNL A   1      30.277  24.078  23.688  1.00  0.00     0.048 A 
ATOM     10  N   UNL A   1      32.402  24.595  22.740  1.00  0.00    -0.224 NA
ATOM     11  C   UNL A   1      29.965  25.427  23.774  1.00  0.00     0.027 A 
ATOM     12  C   UNL A   1      30.848  26.370  23.252  1.00  0.00     0.072 A 
ATOM     13  Cl  UNL A   1      30.203  27.947  23.002  1.00  0.00    -0.082 Cl
BRANCH   8  14
ATOM     14  N   UNL A   1      31.689  22.384  22.710  1.00  0.00    -0.370 N 
ATOM     15  H   UNL A   1      31.023  21.881  22.189  1.00  0.00     0.162 HD
BRANCH  14  16
ATOM     16  C   UNL A   1      32.954  21.762  23.122  1.00  0.00     0.119 C 
BRANCH  16  17
ATOM     17  C   UNL A   1      33.256  21.982  24.619  1.00  0.00     0.057 C 
BRANCH  17  18
ATOM     18  C   UNL A   1      34.744  22.007  24.913  1.00  0.00    -0.043 A 
ATOM     19  C   UNL A   1      34.883  24.577  25.122  1.00  0.00     0.045 C 
ATOM     20  C   UNL A   1      35.487  23.199  25.070  1.00  0.00    -0.045 A 
ATOM     21  C   UNL A   1      36.880  23.113  25.245  1.00  0.00     0.043 A 
ATOM     22  C   UNL A   1      37.520  21.879  25.254  1.00  0.00     0.123 A 
ATOM     23  C   UNL A   1      35.416  20.769  24.973  1.00  0.00     0.007 A 
ATOM     24  F   UNL A   1      38.851  21.827  25.395  1.00  0.00    -0.207 F 
ATOM     25  C   UNL A   1      36.799  20.705  25.128  1.00  0.00     0.039 A 
ENDBRANCH  17  18
ENDBRANCH  16  17
ENDBRANCH  14  16
ENDBRANCH   8  14
ENDBRANCH   4   7
ENDBRANCH   2   3
ENDBRANCH   1   2
BRANCH   1  26
ATOM     26  C   UNL A   1      31.967  29.801  25.508  1.00  0.00     0.002 C 
BRANCH  26  27
ATOM     27  C   UNL A   1      32.026  30.498  26.878  1.00  0.00     0.002 C 
BRANCH  27  28
ATOM     28  C   UNL A   1      33.372  30.527  27.615  1.00  0.00     0.021 C 
BRANCH  28  29
ATOM     29  C   UNL A   1      34.129  31.827  27.454  1.00  0.00     0.116 C 
BRANCH  29  30
ATOM     30  N   UNL A   1      33.833  32.785  28.514  1.00  0.00    -0.352 N 
ATOM     31  C   UNL A   1      34.532  32.995  29.684  1.00  0.00     0.251 C 
ATOM     32  H   UNL A   1      33.038  33.350  28.378  1.00  0.00     0.163 HD
ATOM     33  O   UNL A   1      34.035  33.597  30.625  1.00  0.00    -0.269 OA
BRANCH  31  34
ATOM     34  C   UNL A   1      35.918  32.502  29.766  1.00  0.00     0.039 A 
ATOM     35  C   UNL A   1      36.944  33.029  28.971  1.00  0.00     0.014 A 
ATOM     36  C   UNL A   1      36.161  31.446  30.635  1.00  0.00     0.014 A 
ATOM     37  C   UNL A   1      38.228  32.492  29.073  1.00  0.00     0.010 A 
ATOM     38  C   UNL A   1      37.439  31.051  30.878  1.00  0.00     0.010 A 
ATOM     39  C   UNL A   1      38.449  31.499  30.026  1.00  0.00    -0.014 A 
BRANCH  39  40
ATOM     40  C   UNL A   1      39.656  30.711  30.161  1.00  0.00     0.031 A 
ATOM     41  C   UNL A   1      39.733  29.357  29.615  1.00  0.00     0.074 A 
ATOM     42  C   UNL A   1      40.733  31.425  30.559  1.00  0.00     0.049 A 
ATOM     43  N   UNL A   1      40.611  28.489  29.965  1.00  0.00    -0.248 NA
ATOM     44  C   UNL A   1      38.801  28.863  28.608  1.00  0.00     0.031 C 
ATOM     45  C   UNL A   1      42.151  31.139  30.438  1.00  0.00     0.029 A 
ATOM     46  N   UNL A   1      40.692  32.634  31.274  1.00  0.00    -0.354 N 
ATOM     47  C   UNL A   1      40.597  27.491  29.014  1.00  0.00     0.074 A 
ATOM     48  C   UNL A   1      39.368  27.695  28.282  1.00  0.00     0.031 C 
ATOM     49  C   UNL A   1      42.819  31.927  31.303  1.00  0.00     0.029 A 
ATOM     50  C   UNL A   1      41.822  32.627  32.102  1.00  0.00     0.049 A 
ATOM     51  H   UNL A   1      40.009  33.341  31.208  1.00  0.00     0.167 HD
ATOM     52  C   UNL A   1      41.732  26.748  28.843  1.00  0.00     0.037 A 
ATOM     53  C   UNL A   1      41.628  32.475  33.447  1.00  0.00     0.037 A 
ATOM     54  C   UNL A   1      42.760  27.193  29.792  1.00  0.00     0.049 A 
ATOM     55  C   UNL A   1      42.208  31.171  33.928  1.00  0.00     0.074 A 
ATOM     56  C   UNL A   1      43.838  28.053  29.641  1.00  0.00     0.029 A 
ATOM     57  N   UNL A   1      42.542  27.073  31.162  1.00  0.00    -0.354 N 
ATOM     58  N   UNL A   1      42.287  30.089  33.199  1.00  0.00    -0.248 NA
ATOM     59  C   UNL A   1      42.826  31.022  35.238  1.00  0.00     0.031 C 
ATOM     60  C   UNL A   1      44.223  28.503  30.929  1.00  0.00     0.029 A 
ATOM     61  C   UNL A   1      43.390  27.909  31.863  1.00  0.00     0.049 A 
ATOM     62  H   UNL A   1      41.876  26.475  31.574  1.00  0.00     0.167 HD
ATOM     63  C   UNL A   1      43.022  29.149  33.873  1.00  0.00     0.074 A 
ATOM     64  C   UNL A   1      43.318  29.775  35.151  1.00  0.00     0.031 C 
ATOM     65  C   UNL A   1      43.382  27.951  33.319  1.00  0.00     0.037 A 
BRANCH  52  66
ATOM     66  C   UNL A   1      42.046  25.893  27.629  1.00  0.00     0.064 A 
ATOM     67  C   UNL A   1      41.456  24.614  27.478  1.00  0.00     0.173 A 
ATOM     68  C   UNL A   1      42.938  26.241  26.597  1.00  0.00     0.173 A 
ATOM     69  F   UNL A   1      40.503  24.177  28.310  1.00  0.00    -0.203 F 
ATOM     70  C   UNL A   1      41.817  23.727  26.459  1.00  0.00     0.198 A 
ATOM     71  C   UNL A   1      43.328  25.341  25.598  1.00  0.00     0.198 A 
ATOM     72  F   UNL A   1      43.421  27.483  26.482  1.00  0.00    -0.203 F 
ATOM     73  F   UNL A   1      41.231  22.523  26.388  1.00  0.00    -0.200 F 
ATOM     74  C   UNL A   1      42.777  24.078  25.535  1.00  0.00     0.200 A 
ATOM     75  F   UNL A   1      44.242  25.711  24.689  1.00  0.00    -0.200 F 
ATOM     76  F   UNL A   1      43.144  23.219  24.575  1.00  0.00    -0.200 F 
ENDBRANCH  52  66
BRANCH  53  77
ATOM     77  C   UNL A   1      40.351  33.110  33.905  1.00  0.00     0.064 A 
ATOM     78  C   UNL A   1      39.273  32.248  34.210  1.00  0.00     0.173 A 
ATOM     79  C   UNL A   1      40.308  34.400  34.454  1.00  0.00     0.173 A 
ATOM     80  F   UNL A   1      39.257  31.000  33.713  1.00  0.00    -0.203 F 
ATOM     81  C   UNL A   1      38.292  32.602  35.136  1.00  0.00     0.198 A 
ATOM     82  C   UNL A   1      39.305  34.760  35.363  1.00  0.00     0.198 A 
ATOM     83  F   UNL A   1      41.291  35.276  34.204  1.00  0.00    -0.203 F 
ATOM     84  F   UNL A   1      37.369  31.702  35.507  1.00  0.00    -0.200 F 
ATOM     85  C   UNL A   1      38.325  33.849  35.733  1.00  0.00     0.200 A 
ATOM     86  F   UNL A   1      39.334  35.969  35.944  1.00  0.00    -0.200 F 
ATOM     87  F   UNL A   1      37.434  34.160  36.684  1.00  0.00    -0.200 F 
ENDBRANCH  53  77
BRANCH  65  88
ATOM     88  C   UNL A   1      43.913  26.752  34.071  1.00  0.00     0.064 A 
ATOM     89  C   UNL A   1      45.267  26.568  34.389  1.00  0.00     0.173 A 
ATOM     90  C   UNL A   1      43.026  25.799  34.634  1.00  0.00     0.173 A 
ATOM     91  F   UNL A   1      46.196  27.474  34.059  1.00  0.00    -0.203 F 
ATOM     92  C   UNL A   1      45.711  25.466  35.124  1.00  0.00     0.198 A 
ATOM     93  C   UNL A   1      43.465  24.745  35.431  1.00  0.00     0.198 A 
ATOM     94  F   UNL A   1      41.698  25.873  34.462  1.00  0.00    -0.203 F 
ATOM     95  F   UNL A   1      47.023  25.305  35.341  1.00  0.00    -0.200 F 
ATOM     96  C   UNL A   1      44.812  24.562  35.653  1.00  0.00     0.200 A 
ATOM     97  F   UNL A   1      42.570  23.922  35.996  1.00  0.00    -0.200 F 
ATOM     98  F   UNL A   1      45.239  23.535  36.397  1.00  0.00    -0.200 F 
ENDBRANCH  65  88
ENDBRANCH  39  40
ENDBRANCH  31  34
ENDBRANCH  29  30
ENDBRANCH  28  29
ENDBRANCH  27  28
ENDBRANCH  26  27
ENDBRANCH   1  26
TORSDOF 17
ENDMDL
MODEL 3
REMARK VINA RESULT:     -11.8      3.976      9.528
REMARK SMILES Cc1cc(F)ccc1CCNc1ccc(Cl)c(C(=O)NCCCCCCNC(=O)c2ccc(-c3c4nc(c(-c5c(F)c(F)c(F)c(F)c5F)c5ccc([nH]5)c(-c5c(F)c(F)c(F)c(F)c5F)c5nc(c(-c6c(F)c(F)c(F)c(F)c6F)c6ccc3[nH]6)C=C5)C=C4)cc2)n1
REMARK SMILES IDX 22 1 21 2 20 3 18 4 19 5 17 7 12 8 13 9 93 10 14 11 15 12
REMARK SMILES IDX 16 13 11 14 10 16 9 17 8 18 1 19 2 20 3 21 4 22 7 23 5 24
REMARK SMILES IDX 6 25 23 26 24 27 25 28 26 29 27 30 28 31 29 33 30 34 31 35
REMARK SMILES IDX 92 36 32 37 91 38 33 39 34 40 35 41 85 42 36 43 90 44 84 45
REMARK SMILES IDX 86 46 37 47 89 48 83 49 82 50 38 52 70 53 50 54 69 55 51 56
REMARK SMILES IDX 54 57 68 58 87 59 52 60 53 61 67 63 88 64 55 65 39 66 40 67
REMARK SMILES IDX 48 68 41 69 42 70 46 71 49 72 43 73 44 74 47 75 45 76 71 77
REMARK SMILES IDX 72 78 80 79 73 80 74 81 78 82 81 83 75 84 76 85 79 86 77 87
REMARK SMILES IDX 56 88 57 89 65 90 58 91 59 92 63 93 66 94 60 95 61 96 64 97
REMARK SMILES IDX 62 98
REMARK H PARENT 20 6 11 15 27 32 86 51 54 62
REMARK Flexibility Score: inf
ROOT
ATOM      1  C   UNL A   1      32.481  29.171  25.435  1.00  0.00     0.021 C 
ENDROOT
BRANCH   1   2
ATOM      2  C   UNL A   1      32.936  29.063  23.986  1.00  0.00     0.116 C 
BRANCH   2   3
ATOM      3  N   UNL A   1      31.922  29.329  22.993  1.00  0.00    -0.351 N 
ATOM      4  C   UNL A   1      30.929  28.501  22.500  1.00  0.00     0.271 C 
ATOM      5  O   UNL A   1      30.107  29.003  21.732  1.00  0.00    -0.267 OA
ATOM      6  H   UNL A   1      31.938  30.236  22.609  1.00  0.00     0.163 HD
BRANCH   4   7
ATOM      7  C   UNL A   1      30.866  27.026  22.792  1.00  0.00     0.149 A 
ATOM      8  C   UNL A   1      31.918  24.990  22.351  1.00  0.00     0.126 A 
ATOM      9  C   UNL A   1      31.054  24.329  23.209  1.00  0.00     0.048 A 
ATOM     10  N   UNL A   1      31.893  26.325  22.213  1.00  0.00    -0.224 NA
ATOM     11  C   UNL A   1      30.006  25.033  23.784  1.00  0.00     0.027 A 
ATOM     12  C   UNL A   1      29.849  26.386  23.496  1.00  0.00     0.072 A 
ATOM     13  Cl  UNL A   1      28.313  27.063  23.879  1.00  0.00    -0.082 Cl
BRANCH   8  14
ATOM     14  N   UNL A   1      32.794  24.293  21.538  1.00  0.00    -0.370 N 
ATOM     15  H   UNL A   1      33.089  24.665  20.676  1.00  0.00     0.162 HD
BRANCH  14  16
ATOM     16  C   UNL A   1      33.271  22.983  21.999  1.00  0.00     0.119 C 
BRANCH  16  17
ATOM     17  C   UNL A   1      34.542  23.092  22.867  1.00  0.00     0.057 C 
BRANCH  17  18
ATOM     18  C   UNL A   1      34.271  22.801  24.332  1.00  0.00    -0.043 A 
ATOM     19  C   UNL A   1      34.382  25.273  25.070  1.00  0.00     0.045 C 
ATOM     20  C   UNL A   1      34.271  23.795  25.336  1.00  0.00    -0.045 A 
ATOM     21  C   UNL A   1      34.103  23.405  26.677  1.00  0.00     0.043 A 
ATOM     22  C   UNL A   1      33.950  22.066  27.013  1.00  0.00     0.123 A 
ATOM     23  C   UNL A   1      34.067  21.455  24.700  1.00  0.00     0.007 A 
ATOM     24  F   UNL A   1      33.819  21.719  28.301  1.00  0.00    -0.207 F 
ATOM     25  C   UNL A   1      33.922  21.087  26.036  1.00  0.00     0.039 A 
ENDBRANCH  17  18
ENDBRANCH  16  17
ENDBRANCH  14  16
ENDBRANCH   8  14
ENDBRANCH   4   7
ENDBRANCH   2   3
ENDBRANCH   1   2
BRANCH   1  26
ATOM     26  C   UNL A   1      33.332  28.435  26.477  1.00  0.00     0.002 C 
BRANCH  26  27
ATOM     27  C   UNL A   1      34.740  28.977  26.776  1.00  0.00     0.002 C 
BRANCH  27  28
ATOM     28  C   UNL A   1      34.874  30.453  27.174  1.00  0.00     0.021 C 
BRANCH  28  29
ATOM     29  C   UNL A   1      34.008  30.850  28.349  1.00  0.00     0.116 C 
BRANCH  29  30
ATOM     30  N   UNL A   1      34.369  32.151  28.901  1.00  0.00    -0.352 N 
ATOM     31  C   UNL A   1      35.428  32.454  29.731  1.00  0.00     0.251 C 
ATOM     32  H   UNL A   1      33.787  32.905  28.650  1.00  0.00     0.163 HD
ATOM     33  O   UNL A   1      35.460  33.497  30.369  1.00  0.00    -0.269 OA
BRANCH  31  34
ATOM     34  C   UNL A   1      36.546  31.499  29.812  1.00  0.00     0.039 A 
ATOM     35  C   UNL A   1      36.464  30.317  30.560  1.00  0.00     0.014 A 
ATOM     36  C   UNL A   1      37.719  31.843  29.151  1.00  0.00     0.014 A 
ATOM     37  C   UNL A   1      37.572  29.472  30.622  1.00  0.00     0.010 A 
ATOM     38  C   UNL A   1      38.729  30.939  29.051  1.00  0.00     0.010 A 
ATOM     39  C   UNL A   1      38.695  29.808  29.867  1.00  0.00    -0.014 A 
BRANCH  39  40
ATOM     40  C   UNL A   1      39.986  29.156  29.937  1.00  0.00     0.031 A 
ATOM     41  C   UNL A   1      40.189  27.830  29.355  1.00  0.00     0.074 A 
ATOM     42  C   UNL A   1      40.994  29.976  30.310  1.00  0.00     0.049 A 
ATOM     43  N   UNL A   1      41.171  27.058  29.649  1.00  0.00    -0.248 NA
ATOM     44  C   UNL A   1      39.277  27.256  28.373  1.00  0.00     0.031 C 
ATOM     45  C   UNL A   1      42.428  29.852  30.128  1.00  0.00     0.029 A 
ATOM     46  N   UNL A   1      40.849  31.159  31.056  1.00  0.00    -0.354 N 
ATOM     47  C   UNL A   1      41.228  26.084  28.676  1.00  0.00     0.074 A 
ATOM     48  C   UNL A   1      39.955  26.165  27.997  1.00  0.00     0.031 C 
ATOM     49  C   UNL A   1      43.040  30.691  30.986  1.00  0.00     0.029 A 
ATOM     50  C   UNL A   1      42.006  31.261  31.839  1.00  0.00     0.049 A 
ATOM     51  H   UNL A   1      40.091  31.787  31.033  1.00  0.00     0.167 HD
ATOM     52  C   UNL A   1      42.430  25.475  28.443  1.00  0.00     0.037 A 
ATOM     53  C   UNL A   1      41.885  31.062  33.186  1.00  0.00     0.037 A 
ATOM     54  C   UNL A   1      43.441  26.012  29.362  1.00  0.00     0.049 A 
ATOM     55  C   UNL A   1      42.624  29.820  33.613  1.00  0.00     0.074 A 
ATOM     56  C   UNL A   1      44.410  26.989  29.191  1.00  0.00     0.029 A 
ATOM     57  N   UNL A   1      43.293  25.841  30.736  1.00  0.00    -0.354 N 
ATOM     58  N   UNL A   1      42.792  28.768  32.855  1.00  0.00    -0.248 NA
ATOM     59  C   UNL A   1      43.308  29.715  34.893  1.00  0.00     0.031 C 
ATOM     60  C   UNL A   1      44.795  27.453  30.474  1.00  0.00     0.029 A 
ATOM     61  C   UNL A   1      44.072  26.752  31.425  1.00  0.00     0.049 A 
ATOM     62  H   UNL A   1      42.714  25.165  31.158  1.00  0.00     0.167 HD
ATOM     63  C   UNL A   1      43.653  27.902  33.477  1.00  0.00     0.074 A 
ATOM     64  C   UNL A   1      43.930  28.532  34.757  1.00  0.00     0.031 C 
ATOM     65  C   UNL A   1      44.119  26.763  32.880  1.00  0.00     0.037 A 
BRANCH  52  66
ATOM     66  C   UNL A   1      42.786  24.684  27.196  1.00  0.00     0.064 A 
ATOM     67  C   UNL A   1      42.202  23.416  26.959  1.00  0.00     0.173 A 
ATOM     68  C   UNL A   1      43.713  25.085  26.217  1.00  0.00     0.173 A 
ATOM     69  F   UNL A   1      41.221  22.938  27.733  1.00  0.00    -0.203 F 
ATOM     70  C   UNL A   1      42.598  22.584  25.908  1.00  0.00     0.198 A 
ATOM     71  C   UNL A   1      44.138  24.238  25.185  1.00  0.00     0.198 A 
ATOM     72  F   UNL A   1      44.200  26.330  26.184  1.00  0.00    -0.203 F 
ATOM     73  F   UNL A   1      42.016  21.386  25.753  1.00  0.00    -0.200 F 
ATOM     74  C   UNL A   1      43.589  22.981  25.037  1.00  0.00     0.200 A 
ATOM     75  F   UNL A   1      45.083  24.654  24.330  1.00  0.00    -0.200 F 
ATOM     76  F   UNL A   1      43.990  22.173  24.047  1.00  0.00    -0.200 F 
ENDBRANCH  52  66
BRANCH  53  77
ATOM     77  C   UNL A   1      40.565  31.541  33.708  1.00  0.00     0.064 A 
ATOM     78  C   UNL A   1      40.364  32.939  33.772  1.00  0.00     0.173 A 
ATOM     79  C   UNL A   1      39.419  30.734  33.706  1.00  0.00     0.173 A 
ATOM     80  F   UNL A   1      41.424  33.765  33.778  1.00  0.00    -0.203 F 
ATOM     81  C   UNL A   1      39.091  33.500  33.681  1.00  0.00     0.198 A 
ATOM     82  C   UNL A   1      38.140  31.302  33.640  1.00  0.00     0.198 A 
ATOM     83  F   UNL A   1      39.529  29.399  33.652  1.00  0.00    -0.203 F 
ATOM     84  F   UNL A   1      38.953  34.832  33.599  1.00  0.00    -0.200 F 
ATOM     85  C   UNL A   1      37.981  32.680  33.587  1.00  0.00     0.200 A 
ATOM     86  F   UNL A   1      37.062  30.510  33.549  1.00  0.00    -0.200 F 
ATOM     87  F   UNL A   1      36.765  33.216  33.413  1.00  0.00    -0.200 F 
ENDBRANCH  53  77
BRANCH  65  88
ATOM     88  C   UNL A   1      44.809  25.616  33.581  1.00  0.00     0.064 A 
ATOM     89  C   UNL A   1      44.127  24.582  34.242  1.00  0.00     0.173 A 
ATOM     90  C   UNL A   1      46.213  25.443  33.479  1.00  0.00     0.173 A 
ATOM     91  F   UNL A   1      42.790  24.532  34.277  1.00  0.00    -0.203 F 
ATOM     92  C   UNL A   1      44.802  23.515  34.840  1.00  0.00     0.198 A 
ATOM     93  C   UNL A   1      46.874  24.339  34.011  1.00  0.00     0.198 A 
ATOM     94  F   UNL A   1      46.993  26.321  32.831  1.00  0.00    -0.203 F 
ATOM     95  F   UNL A   1      44.106  22.592  35.517  1.00  0.00    -0.200 F 
ATOM     96  C   UNL A   1      46.171  23.388  34.716  1.00  0.00     0.200 A 
ATOM     97  F   UNL A   1      48.193  24.196  33.814  1.00  0.00    -0.200 F 
ATOM     98  F   UNL A   1      46.807  22.338  35.251  1.00  0.00    -0.200 F 
ENDBRANCH  65  88
ENDBRANCH  39  40
ENDBRANCH  31  34
ENDBRANCH  29  30
ENDBRANCH  28  29
ENDBRANCH  27  28
ENDBRANCH  26  27
ENDBRANCH   1  26
TORSDOF 17
ENDMDL
