MODEL 1
REMARK VINA RESULT:     -10.0      0.000      0.000
REMARK SMILES NS(=O)(=O)c1ccc(-n2nc(C(=O)NCCCCCCCCCCC(=O)NCCCCCCNC(=O)c3ccc(-c4c5nc(c(-c6c(F)c(F)c(F)c(F)c6F)c6ccc([nH]6)c(-c6c(F)c(F)c(F)c(F)c6F)c6nc(c(-c7c(F)c(F)c(F)c(F)c7F)c7ccc4[nH]7)C=C6)C=C5)cc3)cc2-c2ccccc2)cc1
REMARK SMILES IDX 22 1 21 2 20 3 19 4 18 5 17 6 16 7 15 8 14 9 12 10 13 11
REMARK SMILES IDX 11 13 9 14 10 15 101 16 100 17 8 18 5 19 6 20 109 21 7 22
REMARK SMILES IDX 108 23 2 24 3 25 4 26 1 27 102 30 103 31 107 32 104 33
REMARK SMILES IDX 106 34 105 35 23 36 24 37 25 38 26 39 27 40 28 42 29 43
REMARK SMILES IDX 30 44 31 45 32 46 33 47 34 48 35 49 36 51 37 52 38 53 99 54
REMARK SMILES IDX 39 55 98 56 40 57 41 58 42 59 92 60 43 61 97 62 91 63 93 64
REMARK SMILES IDX 44 65 96 66 90 67 89 68 45 70 77 71 57 72 76 73 58 74 61 75
REMARK SMILES IDX 75 76 94 77 59 78 60 79 74 81 95 82 62 83 46 84 47 85 55 86
REMARK SMILES IDX 48 87 49 88 53 89 56 90 50 91 51 92 54 93 52 94 78 95 79 96
REMARK SMILES IDX 87 97 80 98 81 99 85 100 88 101 82 102 83 103 86 104 84 105
REMARK SMILES IDX 63 106 64 107 72 108 65 109 66 110 70 111 73 112 67 113
REMARK SMILES IDX 68 114 71 115 69 116
REMARK H PARENT 14 12 1 28 1 29 27 41 34 50 93 69 61 80
REMARK Flexibility Score: inf
ROOT
ATOM      1  C   UNL A   1      33.274  27.137  23.757  1.00  0.00     0.001 C 
ENDROOT
BRANCH   1   2
ATOM      2  C   UNL A   1      32.494  28.317  24.352  1.00  0.00     0.000 C 
BRANCH   2   3
ATOM      3  C   UNL A   1      31.655  27.924  25.559  1.00  0.00     0.000 C 
BRANCH   3   4
ATOM      4  C   UNL A   1      31.990  28.743  26.805  1.00  0.00     0.000 C 
BRANCH   4   5
ATOM      5  C   UNL A   1      31.816  30.257  26.613  1.00  0.00     0.000 C 
BRANCH   5   6
ATOM      6  C   UNL A   1      33.115  31.059  26.781  1.00  0.00     0.002 C 
BRANCH   6   7
ATOM      7  C   UNL A   1      33.135  31.931  28.038  1.00  0.00     0.021 C 
BRANCH   7   8
ATOM      8  C   UNL A   1      33.754  33.296  27.764  1.00  0.00     0.116 C 
BRANCH   8   9
ATOM      9  N   UNL A   1      33.329  34.261  28.739  1.00  0.00    -0.351 N 
ATOM     10  C   UNL A   1      33.889  34.708  29.909  1.00  0.00     0.271 C 
ATOM     11  O   UNL A   1      33.197  35.510  30.546  1.00  0.00    -0.267 OA
ATOM     12  H   UNL A   1      32.466  34.685  28.527  1.00  0.00     0.163 HD
BRANCH  10  13
ATOM     13  C   UNL A   1      35.239  34.293  30.349  1.00  0.00     0.151 A 
ATOM     14  N   UNL A   1      36.765  33.814  31.784  1.00  0.00    -0.232 N 
ATOM     15  N   UNL A   1      35.429  33.925  31.633  1.00  0.00    -0.162 NA
ATOM     16  C   UNL A   1      37.444  33.926  30.590  1.00  0.00     0.075 A 
ATOM     17  C   UNL A   1      36.468  34.185  29.657  1.00  0.00     0.065 A 
BRANCH  14  18
ATOM     18  C   UNL A   1      37.326  33.516  33.039  1.00  0.00     0.065 A 
ATOM     19  C   UNL A   1      38.028  33.068  35.669  1.00  0.00     0.082 A 
ATOM     20  C   UNL A   1      37.507  32.015  34.911  1.00  0.00     0.024 A 
ATOM     21  C   UNL A   1      38.245  34.331  35.104  1.00  0.00     0.024 A 
ATOM     22  C   UNL A   1      37.145  32.241  33.590  1.00  0.00     0.030 A 
ATOM     23  C   UNL A   1      37.921  34.550  33.768  1.00  0.00     0.030 A 
BRANCH  19  24
ATOM     24  S   UNL A   1      38.350  32.751  37.374  1.00  0.00     0.238 S 
ATOM     25  O   UNL A   1      37.326  31.857  37.867  1.00  0.00    -0.207 OA
ATOM     26  O   UNL A   1      38.676  34.001  38.012  1.00  0.00    -0.207 OA
BRANCH  24  27
ATOM     27  N   UNL A   1      39.775  31.862  37.379  1.00  0.00    -0.225 NA
ATOM     28  H   UNL A   1      40.563  32.484  37.559  1.00  0.00     0.137 HD
ATOM     29  H   UNL A   1      39.898  31.411  36.471  1.00  0.00     0.137 HD
ENDBRANCH  24  27
ENDBRANCH  19  24
ENDBRANCH  14  18
BRANCH  16  30
ATOM     30  C   UNL A   1      38.863  33.685  30.349  1.00  0.00     0.000 A 
ATOM     31  C   UNL A   1      39.693  34.706  29.869  1.00  0.00     0.010 A 
ATOM     32  C   UNL A   1      39.417  32.436  30.652  1.00  0.00     0.010 A 
ATOM     33  C   UNL A   1      41.051  34.471  29.667  1.00  0.00     0.001 A 
ATOM     34  C   UNL A   1      40.778  32.204  30.455  1.00  0.00     0.001 A 
ATOM     35  C   UNL A   1      41.594  33.221  29.960  1.00  0.00     0.000 A 
ENDBRANCH  16  30
ENDBRANCH  10  13
ENDBRANCH   8   9
ENDBRANCH   7   8
ENDBRANCH   6   7
ENDBRANCH   5   6
ENDBRANCH   4   5
ENDBRANCH   3   4
ENDBRANCH   2   3
ENDBRANCH   1   2
BRANCH   1  36
ATOM     36  C   UNL A   1      33.862  26.198  24.802  1.00  0.00     0.010 C 
BRANCH  36  37
ATOM     37  C   UNL A   1      34.281  24.819  24.291  1.00  0.00     0.100 C 
BRANCH  37  38
ATOM     38  C   UNL A   1      34.427  23.768  25.374  1.00  0.00     0.219 C 
ATOM     39  O   UNL A   1      33.790  23.859  26.424  1.00  0.00    -0.275 OA
ATOM     40  N   UNL A   1      35.242  22.690  25.209  1.00  0.00    -0.356 N 
ATOM     41  H   UNL A   1      35.224  22.046  25.953  1.00  0.00     0.163 HD
BRANCH  40  42
ATOM     42  C   UNL A   1      36.133  22.333  24.122  1.00  0.00     0.116 C 
BRANCH  42  43
ATOM     43  C   UNL A   1      37.295  21.460  24.616  1.00  0.00     0.021 C 
BRANCH  43  44
ATOM     44  C   UNL A   1      38.080  22.059  25.785  1.00  0.00     0.002 C 
BRANCH  44  45
ATOM     45  C   UNL A   1      39.461  21.438  26.043  1.00  0.00     0.002 C 
BRANCH  45  46
ATOM     46  C   UNL A   1      39.674  19.997  25.555  1.00  0.00     0.021 C 
BRANCH  46  47
ATOM     47  C   UNL A   1      40.570  19.167  26.459  1.00  0.00     0.116 C 
BRANCH  47  48
ATOM     48  N   UNL A   1      41.873  18.872  25.850  1.00  0.00    -0.352 N 
ATOM     49  C   UNL A   1      42.922  19.722  25.552  1.00  0.00     0.251 C 
ATOM     50  H   UNL A   1      42.022  17.926  25.618  1.00  0.00     0.163 HD
ATOM     51  O   UNL A   1      43.789  19.397  24.750  1.00  0.00    -0.269 OA
BRANCH  49  52
ATOM     52  C   UNL A   1      42.990  21.031  26.223  1.00  0.00     0.039 A 
ATOM     53  C   UNL A   1      43.275  22.217  25.542  1.00  0.00     0.014 A 
ATOM     54  C   UNL A   1      42.744  21.047  27.588  1.00  0.00     0.014 A 
ATOM     55  C   UNL A   1      43.260  23.412  26.259  1.00  0.00     0.010 A 
ATOM     56  C   UNL A   1      42.448  22.219  28.209  1.00  0.00     0.010 A 
ATOM     57  C   UNL A   1      42.841  23.393  27.597  1.00  0.00    -0.014 A 
BRANCH  57  58
ATOM     58  C   UNL A   1      42.735  24.592  28.407  1.00  0.00     0.031 A 
ATOM     59  C   UNL A   1      41.489  25.353  28.177  1.00  0.00     0.074 A 
ATOM     60  C   UNL A   1      43.568  24.838  29.445  1.00  0.00     0.049 A 
ATOM     61  N   UNL A   1      41.371  26.500  27.600  1.00  0.00    -0.248 NA
ATOM     62  C   UNL A   1      40.207  24.692  28.467  1.00  0.00     0.031 C 
ATOM     63  C   UNL A   1      44.634  23.986  29.992  1.00  0.00     0.029 A 
ATOM     64  N   UNL A   1      43.564  25.887  30.308  1.00  0.00    -0.354 N 
ATOM     65  C   UNL A   1      40.017  26.809  27.657  1.00  0.00     0.074 A 
ATOM     66  C   UNL A   1      39.338  25.586  27.990  1.00  0.00     0.031 C 
ATOM     67  C   UNL A   1      45.006  24.443  31.208  1.00  0.00     0.029 A 
ATOM     68  C   UNL A   1      44.338  25.706  31.450  1.00  0.00     0.049 A 
ATOM     69  H   UNL A   1      43.052  26.711  30.139  1.00  0.00     0.167 HD
ATOM     70  C   UNL A   1      39.614  28.108  27.714  1.00  0.00     0.037 A 
ATOM     71  C   UNL A   1      44.393  26.536  32.522  1.00  0.00     0.037 A 
ATOM     72  C   UNL A   1      40.687  28.995  27.326  1.00  0.00     0.049 A 
ATOM     73  C   UNL A   1      43.875  27.855  32.076  1.00  0.00     0.074 A 
ATOM     74  C   UNL A   1      41.463  29.144  26.192  1.00  0.00     0.029 A 
ATOM     75  N   UNL A   1      41.373  29.640  28.327  1.00  0.00    -0.354 N 
ATOM     76  N   UNL A   1      44.489  28.616  31.212  1.00  0.00    -0.248 NA
ATOM     77  C   UNL A   1      42.447  28.097  32.220  1.00  0.00     0.031 C 
ATOM     78  C   UNL A   1      42.775  29.429  26.675  1.00  0.00     0.029 A 
ATOM     79  C   UNL A   1      42.714  29.517  28.066  1.00  0.00     0.049 A 
ATOM     80  H   UNL A   1      40.973  30.108  29.096  1.00  0.00     0.167 HD
ATOM     81  C   UNL A   1      43.479  29.111  30.400  1.00  0.00     0.074 A 
ATOM     82  C   UNL A   1      42.238  28.822  31.117  1.00  0.00     0.031 C 
ATOM     83  C   UNL A   1      43.723  29.434  29.095  1.00  0.00     0.037 A 
BRANCH  70  84
ATOM     84  C   UNL A   1      38.426  28.594  28.513  1.00  0.00     0.064 A 
ATOM     85  C   UNL A   1      37.598  29.583  27.945  1.00  0.00     0.173 A 
ATOM     86  C   UNL A   1      38.255  28.381  29.899  1.00  0.00     0.173 A 
ATOM     87  F   UNL A   1      37.682  29.878  26.639  1.00  0.00    -0.203 F 
ATOM     88  C   UNL A   1      36.749  30.371  28.726  1.00  0.00     0.198 A 
ATOM     89  C   UNL A   1      37.365  29.131  30.665  1.00  0.00     0.198 A 
ATOM     90  F   UNL A   1      39.025  27.541  30.600  1.00  0.00    -0.203 F 
ATOM     91  F   UNL A   1      36.102  31.401  28.167  1.00  0.00    -0.200 F 
ATOM     92  C   UNL A   1      36.641  30.151  30.087  1.00  0.00     0.200 A 
ATOM     93  F   UNL A   1      37.303  28.925  31.988  1.00  0.00    -0.200 F 
ATOM     94  F   UNL A   1      35.894  30.959  30.850  1.00  0.00    -0.200 F 
ENDBRANCH  70  84
BRANCH  71  95
ATOM     95  C   UNL A   1      44.541  26.186  33.956  1.00  0.00     0.064 A 
ATOM     96  C   UNL A   1      45.748  26.413  34.637  1.00  0.00     0.173 A 
ATOM     97  C   UNL A   1      43.417  25.899  34.756  1.00  0.00     0.173 A 
ATOM     98  F   UNL A   1      46.856  26.737  33.955  1.00  0.00    -0.203 F 
ATOM     99  C   UNL A   1      45.820  26.387  36.035  1.00  0.00     0.198 A 
ATOM    100  C   UNL A   1      43.490  25.870  36.150  1.00  0.00     0.198 A 
ATOM    101  F   UNL A   1      42.204  25.745  34.205  1.00  0.00    -0.203 F 
ATOM    102  F   UNL A   1      46.975  26.676  36.652  1.00  0.00    -0.200 F 
ATOM    103  C   UNL A   1      44.688  26.128  36.790  1.00  0.00     0.200 A 
ATOM    104  F   UNL A   1      42.378  25.661  36.869  1.00  0.00    -0.200 F 
ATOM    105  F   UNL A   1      44.739  26.172  38.129  1.00  0.00    -0.200 F 
ENDBRANCH  71  95
BRANCH  83 106
ATOM    106  C   UNL A   1      45.158  29.495  28.646  1.00  0.00     0.064 A 
ATOM    107  C   UNL A   1      45.866  28.409  28.100  1.00  0.00     0.173 A 
ATOM    108  C   UNL A   1      45.795  30.741  28.643  1.00  0.00     0.173 A 
ATOM    109  F   UNL A   1      45.296  27.204  27.975  1.00  0.00    -0.203 F 
ATOM    110  C   UNL A   1      47.165  28.560  27.615  1.00  0.00     0.198 A 
ATOM    111  C   UNL A   1      47.078  30.898  28.126  1.00  0.00     0.198 A 
ATOM    112  F   UNL A   1      45.150  31.825  29.104  1.00  0.00    -0.203 F 
ATOM    113  F   UNL A   1      47.823  27.506  27.111  1.00  0.00    -0.200 F 
ATOM    114  C   UNL A   1      47.766  29.807  27.623  1.00  0.00     0.200 A 
ATOM    115  F   UNL A   1      47.637  32.116  28.093  1.00  0.00    -0.200 F 
ATOM    116  F   UNL A   1      49.000  29.963  27.122  1.00  0.00    -0.200 F 
ENDBRANCH  83 106
ENDBRANCH  57  58
ENDBRANCH  49  52
ENDBRANCH  47  48
ENDBRANCH  46  47
ENDBRANCH  45  46
ENDBRANCH  44  45
ENDBRANCH  43  44
ENDBRANCH  42  43
ENDBRANCH  40  42
ENDBRANCH  37  38
ENDBRANCH  36  37
ENDBRANCH   1  36
TORSDOF 28
ENDMDL
MODEL 2
REMARK VINA RESULT:      -9.3      4.103      8.264
REMARK SMILES NS(=O)(=O)c1ccc(-n2nc(C(=O)NCCCCCCCCCCC(=O)NCCCCCCNC(=O)c3ccc(-c4c5nc(c(-c6c(F)c(F)c(F)c(F)c6F)c6ccc([nH]6)c(-c6c(F)c(F)c(F)c(F)c6F)c6nc(c(-c7c(F)c(F)c(F)c(F)c7F)c7ccc4[nH]7)C=C6)C=C5)cc3)cc2-c2ccccc2)cc1
REMARK SMILES IDX 22 1 21 2 20 3 19 4 18 5 17 6 16 7 15 8 14 9 12 10 13 11
REMARK SMILES IDX 11 13 9 14 10 15 101 16 100 17 8 18 5 19 6 20 109 21 7 22
REMARK SMILES IDX 108 23 2 24 3 25 4 26 1 27 102 30 103 31 107 32 104 33
REMARK SMILES IDX 106 34 105 35 23 36 24 37 25 38 26 39 27 40 28 42 29 43
REMARK SMILES IDX 30 44 31 45 32 46 33 47 34 48 35 49 36 51 37 52 38 53 99 54
REMARK SMILES IDX 39 55 98 56 40 57 41 58 42 59 92 60 43 61 97 62 91 63 93 64
REMARK SMILES IDX 44 65 96 66 90 67 89 68 45 70 77 71 57 72 76 73 58 74 61 75
REMARK SMILES IDX 75 76 94 77 59 78 60 79 74 81 95 82 62 83 46 84 47 85 55 86
REMARK SMILES IDX 48 87 49 88 53 89 56 90 50 91 51 92 54 93 52 94 78 95 79 96
REMARK SMILES IDX 87 97 80 98 81 99 85 100 88 101 82 102 83 103 86 104 84 105
REMARK SMILES IDX 63 106 64 107 72 108 65 109 66 110 70 111 73 112 67 113
REMARK SMILES IDX 68 114 71 115 69 116
REMARK H PARENT 14 12 1 28 1 29 27 41 34 50 93 69 61 80
REMARK Flexibility Score: inf
ROOT
ATOM      1  C   UNL A   1      35.902  22.886  24.602  1.00  0.00     0.001 C 
ENDROOT
BRANCH   1   2
ATOM      2  C   UNL A   1      35.643  23.984  25.641  1.00  0.00     0.000 C 
BRANCH   2   3
ATOM      3  C   UNL A   1      34.451  23.682  26.537  1.00  0.00     0.000 C 
BRANCH   3   4
ATOM      4  C   UNL A   1      34.308  22.194  26.854  1.00  0.00     0.000 C 
BRANCH   4   5
ATOM      5  C   UNL A   1      32.971  21.592  26.396  1.00  0.00     0.000 C 
BRANCH   5   6
ATOM      6  C   UNL A   1      33.119  20.299  25.580  1.00  0.00     0.002 C 
BRANCH   6   7
ATOM      7  C   UNL A   1      32.802  20.477  24.094  1.00  0.00     0.021 C 
BRANCH   7   8
ATOM      8  C   UNL A   1      32.287  21.880  23.794  1.00  0.00     0.116 C 
BRANCH   8   9
ATOM      9  N   UNL A   1      32.849  22.387  22.573  1.00  0.00    -0.351 N 
ATOM     10  C   UNL A   1      32.913  23.646  22.032  1.00  0.00     0.271 C 
ATOM     11  O   UNL A   1      33.419  23.705  20.907  1.00  0.00    -0.267 OA
ATOM     12  H   UNL A   1      33.270  21.694  22.014  1.00  0.00     0.163 HD
BRANCH  10  13
ATOM     13  C   UNL A   1      32.452  24.846  22.764  1.00  0.00     0.151 A 
ATOM     14  N   UNL A   1      31.454  26.735  22.986  1.00  0.00    -0.232 N 
ATOM     15  N   UNL A   1      31.510  25.635  22.209  1.00  0.00    -0.162 NA
ATOM     16  C   UNL A   1      32.204  26.611  24.135  1.00  0.00     0.075 A 
ATOM     17  C   UNL A   1      32.810  25.382  24.024  1.00  0.00     0.065 A 
BRANCH  14  18
ATOM     18  C   UNL A   1      30.619  27.816  22.647  1.00  0.00     0.065 A 
ATOM     19  C   UNL A   1      29.074  30.088  22.401  1.00  0.00     0.082 A 
ATOM     20  C   UNL A   1      30.398  30.109  21.952  1.00  0.00     0.024 A 
ATOM     21  C   UNL A   1      28.505  28.922  22.928  1.00  0.00     0.024 A 
ATOM     22  C   UNL A   1      31.180  28.969  22.083  1.00  0.00     0.030 A 
ATOM     23  C   UNL A   1      29.274  27.766  23.024  1.00  0.00     0.030 A 
BRANCH  19  24
ATOM     24  S   UNL A   1      28.173  31.602  22.322  1.00  0.00     0.238 S 
ATOM     25  O   UNL A   1      27.395  31.600  21.103  1.00  0.00    -0.207 OA
ATOM     26  O   UNL A   1      29.062  32.677  22.684  1.00  0.00    -0.207 OA
BRANCH  24  27
ATOM     27  N   UNL A   1      27.060  31.501  23.576  1.00  0.00    -0.225 NA
ATOM     28  H   UNL A   1      27.546  31.272  24.444  1.00  0.00     0.137 HD
ATOM     29  H   UNL A   1      26.377  30.772  23.367  1.00  0.00     0.137 HD
ENDBRANCH  24  27
ENDBRANCH  19  24
ENDBRANCH  14  18
BRANCH  16  30
ATOM     30  C   UNL A   1      32.240  27.519  25.276  1.00  0.00     0.000 A 
ATOM     31  C   UNL A   1      31.633  27.171  26.490  1.00  0.00     0.010 A 
ATOM     32  C   UNL A   1      32.935  28.730  25.179  1.00  0.00     0.010 A 
ATOM     33  C   UNL A   1      31.698  28.037  27.580  1.00  0.00     0.001 A 
ATOM     34  C   UNL A   1      33.003  29.592  26.273  1.00  0.00     0.001 A 
ATOM     35  C   UNL A   1      32.382  29.246  27.472  1.00  0.00     0.000 A 
ENDBRANCH  16  30
ENDBRANCH  10  13
ENDBRANCH   8   9
ENDBRANCH   7   8
ENDBRANCH   6   7
ENDBRANCH   5   6
ENDBRANCH   4   5
ENDBRANCH   3   4
ENDBRANCH   2   3
ENDBRANCH   1   2
BRANCH   1  36
ATOM     36  C   UNL A   1      37.347  22.404  24.560  1.00  0.00     0.010 C 
BRANCH  36  37
ATOM     37  C   UNL A   1      37.824  21.637  25.794  1.00  0.00     0.100 C 
BRANCH  37  38
ATOM     38  C   UNL A   1      39.289  21.836  26.127  1.00  0.00     0.219 C 
ATOM     39  O   UNL A   1      40.121  20.977  25.829  1.00  0.00    -0.275 OA
ATOM     40  N   UNL A   1      39.729  22.968  26.741  1.00  0.00    -0.356 N 
ATOM     41  H   UNL A   1      40.704  23.014  26.865  1.00  0.00     0.163 HD
BRANCH  40  42
ATOM     42  C   UNL A   1      39.001  24.118  27.241  1.00  0.00     0.116 C 
BRANCH  42  43
ATOM     43  C   UNL A   1      39.932  25.089  27.981  1.00  0.00     0.021 C 
BRANCH  43  44
ATOM     44  C   UNL A   1      39.965  26.501  27.393  1.00  0.00     0.002 C 
BRANCH  44  45
ATOM     45  C   UNL A   1      41.251  26.875  26.640  1.00  0.00     0.002 C 
BRANCH  45  46
ATOM     46  C   UNL A   1      41.658  25.965  25.472  1.00  0.00     0.021 C 
BRANCH  46  47
ATOM     47  C   UNL A   1      43.071  26.208  24.966  1.00  0.00     0.116 C 
BRANCH  47  48
ATOM     48  N   UNL A   1      44.016  25.174  25.407  1.00  0.00    -0.352 N 
ATOM     49  C   UNL A   1      44.902  25.182  26.468  1.00  0.00     0.251 C 
ATOM     50  H   UNL A   1      44.019  24.351  24.865  1.00  0.00     0.163 HD
ATOM     51  O   UNL A   1      45.849  24.405  26.506  1.00  0.00    -0.269 OA
BRANCH  49  52
ATOM     52  C   UNL A   1      44.689  26.139  27.566  1.00  0.00     0.039 A 
ATOM     53  C   UNL A   1      45.133  27.463  27.515  1.00  0.00     0.014 A 
ATOM     54  C   UNL A   1      44.005  25.672  28.678  1.00  0.00     0.014 A 
ATOM     55  C   UNL A   1      44.832  28.305  28.583  1.00  0.00     0.010 A 
ATOM     56  C   UNL A   1      43.471  26.553  29.565  1.00  0.00     0.010 A 
ATOM     57  C   UNL A   1      43.994  27.830  29.603  1.00  0.00    -0.014 A 
BRANCH  57  58
ATOM     58  C   UNL A   1      43.576  28.650  30.725  1.00  0.00     0.031 A 
ATOM     59  C   UNL A   1      42.280  29.327  30.511  1.00  0.00     0.074 A 
ATOM     60  C   UNL A   1      44.184  28.585  31.932  1.00  0.00     0.049 A 
ATOM     61  N   UNL A   1      42.080  30.588  30.336  1.00  0.00    -0.248 NA
ATOM     62  C   UNL A   1      41.086  28.494  30.298  1.00  0.00     0.031 C 
ATOM     63  C   UNL A   1      45.267  27.694  32.371  1.00  0.00     0.029 A 
ATOM     64  N   UNL A   1      43.879  29.255  33.074  1.00  0.00    -0.354 N 
ATOM     65  C   UNL A   1      40.703  30.735  30.215  1.00  0.00     0.074 A 
ATOM     66  C   UNL A   1      40.177  29.417  29.978  1.00  0.00     0.031 C 
ATOM     67  C   UNL A   1      45.366  27.721  33.719  1.00  0.00     0.029 A 
ATOM     68  C   UNL A   1      44.480  28.752  34.224  1.00  0.00     0.049 A 
ATOM     69  H   UNL A   1      43.280  30.036  33.087  1.00  0.00     0.167 HD
ATOM     70  C   UNL A   1      40.100  31.887  30.615  1.00  0.00     0.037 A 
ATOM     71  C   UNL A   1      44.233  29.149  35.498  1.00  0.00     0.037 A 
ATOM     72  C   UNL A   1      41.070  32.947  30.771  1.00  0.00     0.049 A 
ATOM     73  C   UNL A   1      43.596  30.488  35.418  1.00  0.00     0.074 A 
ATOM     74  C   UNL A   1      41.984  33.558  29.933  1.00  0.00     0.029 A 
ATOM     75  N   UNL A   1      41.479  33.254  32.046  1.00  0.00    -0.354 N 
ATOM     76  N   UNL A   1      44.214  31.558  34.999  1.00  0.00    -0.248 NA
ATOM     77  C   UNL A   1      42.143  30.535  35.340  1.00  0.00     0.031 C 
ATOM     78  C   UNL A   1      43.143  33.769  30.739  1.00  0.00     0.029 A 
ATOM     79  C   UNL A   1      42.847  33.352  32.038  1.00  0.00     0.049 A 
ATOM     80  H   UNL A   1      40.894  33.381  32.828  1.00  0.00     0.167 HD
ATOM     81  C   UNL A   1      43.282  32.216  34.210  1.00  0.00     0.074 A 
ATOM     82  C   UNL A   1      42.003  31.581  34.522  1.00  0.00     0.031 C 
ATOM     83  C   UNL A   1      43.679  33.001  33.164  1.00  0.00     0.037 A 
BRANCH  70  84
ATOM     84  C   UNL A   1      38.738  31.950  31.270  1.00  0.00     0.064 A 
ATOM     85  C   UNL A   1      37.767  32.804  30.713  1.00  0.00     0.173 A 
ATOM     86  C   UNL A   1      38.456  31.475  32.571  1.00  0.00     0.173 A 
ATOM     87  F   UNL A   1      37.936  33.325  29.488  1.00  0.00    -0.203 F 
ATOM     88  C   UNL A   1      36.658  33.237  31.444  1.00  0.00     0.198 A 
ATOM     89  C   UNL A   1      37.319  31.865  33.276  1.00  0.00     0.198 A 
ATOM     90  F   UNL A   1      39.318  30.728  33.269  1.00  0.00    -0.203 F 
ATOM     91  F   UNL A   1      35.848  34.172  30.929  1.00  0.00    -0.200 F 
ATOM     92  C   UNL A   1      36.441  32.774  32.729  1.00  0.00     0.200 A 
ATOM     93  F   UNL A   1      37.146  31.433  34.533  1.00  0.00    -0.200 F 
ATOM     94  F   UNL A   1      35.427  33.252  33.463  1.00  0.00    -0.200 F 
ENDBRANCH  70  84
BRANCH  71  95
ATOM     95  C   UNL A   1      44.203  28.328  36.732  1.00  0.00     0.064 A 
ATOM     96  C   UNL A   1      43.378  27.194  36.830  1.00  0.00     0.173 A 
ATOM     97  C   UNL A   1      45.194  28.465  37.724  1.00  0.00     0.173 A 
ATOM     98  F   UNL A   1      42.439  26.962  35.902  1.00  0.00    -0.203 F 
ATOM     99  C   UNL A   1      43.556  26.240  37.840  1.00  0.00     0.198 A 
ATOM    100  C   UNL A   1      45.368  27.515  38.732  1.00  0.00     0.198 A 
ATOM    101  F   UNL A   1      46.081  29.471  37.673  1.00  0.00    -0.203 F 
ATOM    102  F   UNL A   1      42.794  25.137  37.859  1.00  0.00    -0.200 F 
ATOM    103  C   UNL A   1      44.559  26.396  38.781  1.00  0.00     0.200 A 
ATOM    104  F   UNL A   1      46.371  27.656  39.612  1.00  0.00    -0.200 F 
ATOM    105  F   UNL A   1      44.776  25.448  39.705  1.00  0.00    -0.200 F 
ENDBRANCH  71  95
BRANCH  83 106
ATOM    106  C   UNL A   1      45.140  33.345  33.063  1.00  0.00     0.064 A 
ATOM    107  C   UNL A   1      45.766  34.374  33.789  1.00  0.00     0.173 A 
ATOM    108  C   UNL A   1      45.963  32.507  32.301  1.00  0.00     0.173 A 
ATOM    109  F   UNL A   1      45.067  35.160  34.617  1.00  0.00    -0.203 F 
ATOM    110  C   UNL A   1      47.144  34.578  33.719  1.00  0.00     0.198 A 
ATOM    111  C   UNL A   1      47.343  32.689  32.261  1.00  0.00     0.198 A 
ATOM    112  F   UNL A   1      45.430  31.476  31.627  1.00  0.00    -0.203 F 
ATOM    113  F   UNL A   1      47.714  35.574  34.412  1.00  0.00    -0.200 F 
ATOM    114  C   UNL A   1      47.931  33.729  32.960  1.00  0.00     0.200 A 
ATOM    115  F   UNL A   1      48.105  31.836  31.561  1.00  0.00    -0.200 F 
ATOM    116  F   UNL A   1      49.261  33.899  32.921  1.00  0.00    -0.200 F 
ENDBRANCH  83 106
ENDBRANCH  57  58
ENDBRANCH  49  52
ENDBRANCH  47  48
ENDBRANCH  46  47
ENDBRANCH  45  46
ENDBRANCH  44  45
ENDBRANCH  43  44
ENDBRANCH  42  43
ENDBRANCH  40  42
ENDBRANCH  37  38
ENDBRANCH  36  37
ENDBRANCH   1  36
TORSDOF 28
ENDMDL
MODEL 3
REMARK VINA RESULT:      -8.4      4.019     11.108
REMARK SMILES NS(=O)(=O)c1ccc(-n2nc(C(=O)NCCCCCCCCCCC(=O)NCCCCCCNC(=O)c3ccc(-c4c5nc(c(-c6c(F)c(F)c(F)c(F)c6F)c6ccc([nH]6)c(-c6c(F)c(F)c(F)c(F)c6F)c6nc(c(-c7c(F)c(F)c(F)c(F)c7F)c7ccc4[nH]7)C=C6)C=C5)cc3)cc2-c2ccccc2)cc1
REMARK SMILES IDX 22 1 21 2 20 3 19 4 18 5 17 6 16 7 15 8 14 9 12 10 13 11
REMARK SMILES IDX 11 13 9 14 10 15 101 16 100 17 8 18 5 19 6 20 109 21 7 22
REMARK SMILES IDX 108 23 2 24 3 25 4 26 1 27 102 30 103 31 107 32 104 33
REMARK SMILES IDX 106 34 105 35 23 36 24 37 25 38 26 39 27 40 28 42 29 43
REMARK SMILES IDX 30 44 31 45 32 46 33 47 34 48 35 49 36 51 37 52 38 53 99 54
REMARK SMILES IDX 39 55 98 56 40 57 41 58 42 59 92 60 43 61 97 62 91 63 93 64
REMARK SMILES IDX 44 65 96 66 90 67 89 68 45 70 77 71 57 72 76 73 58 74 61 75
REMARK SMILES IDX 75 76 94 77 59 78 60 79 74 81 95 82 62 83 46 84 47 85 55 86
REMARK SMILES IDX 48 87 49 88 53 89 56 90 50 91 51 92 54 93 52 94 78 95 79 96
REMARK SMILES IDX 87 97 80 98 81 99 85 100 88 101 82 102 83 103 86 104 84 105
REMARK SMILES IDX 63 106 64 107 72 108 65 109 66 110 70 111 73 112 67 113
REMARK SMILES IDX 68 114 71 115 69 116
REMARK H PARENT 14 12 1 28 1 29 27 41 34 50 93 69 61 80
REMARK Flexibility Score: inf
ROOT
ATOM      1  C   UNL A   1      43.264  25.627  25.025  1.00  0.00     0.001 C 
ENDROOT
BRANCH   1   2
ATOM      2  C   UNL A   1      44.100  24.349  25.166  1.00  0.00     0.000 C 
BRANCH   2   3
ATOM      3  C   UNL A   1      43.250  23.090  25.250  1.00  0.00     0.000 C 
BRANCH   3   4
ATOM      4  C   UNL A   1      43.838  22.038  26.190  1.00  0.00     0.000 C 
BRANCH   4   5
ATOM      5  C   UNL A   1      43.039  21.856  27.489  1.00  0.00     0.000 C 
BRANCH   5   6
ATOM      6  C   UNL A   1      42.158  23.061  27.851  1.00  0.00     0.002 C 
BRANCH   6   7
ATOM      7  C   UNL A   1      40.687  22.698  28.066  1.00  0.00     0.021 C 
BRANCH   7   8
ATOM      8  C   UNL A   1      39.992  22.370  26.750  1.00  0.00     0.116 C 
BRANCH   8   9
ATOM      9  N   UNL A   1      40.384  21.075  26.268  1.00  0.00    -0.351 N 
ATOM     10  C   UNL A   1      39.680  20.044  25.698  1.00  0.00     0.271 C 
ATOM     11  O   UNL A   1      40.342  19.027  25.466  1.00  0.00    -0.267 OA
ATOM     12  H   UNL A   1      41.346  20.890  26.367  1.00  0.00     0.163 HD
BRANCH  10  13
ATOM     13  C   UNL A   1      38.248  20.162  25.348  1.00  0.00     0.151 A 
ATOM     14  N   UNL A   1      36.350  21.157  25.193  1.00  0.00    -0.232 N 
ATOM     15  N   UNL A   1      37.673  21.382  25.327  1.00  0.00    -0.162 NA
ATOM     16  C   UNL A   1      36.061  19.833  24.946  1.00  0.00     0.075 A 
ATOM     17  C   UNL A   1      37.277  19.195  24.995  1.00  0.00     0.065 A 
BRANCH  14  18
ATOM     18  C   UNL A   1      35.432  22.223  25.214  1.00  0.00     0.065 A 
ATOM     19  C   UNL A   1      33.982  24.562  25.402  1.00  0.00     0.082 A 
ATOM     20  C   UNL A   1      34.561  24.213  24.178  1.00  0.00     0.024 A 
ATOM     21  C   UNL A   1      34.082  23.723  26.518  1.00  0.00     0.024 A 
ATOM     22  C   UNL A   1      35.299  23.040  24.085  1.00  0.00     0.030 A 
ATOM     23  C   UNL A   1      34.788  22.527  26.417  1.00  0.00     0.030 A 
BRANCH  19  24
ATOM     24  S   UNL A   1      33.164  26.122  25.489  1.00  0.00     0.238 S 
ATOM     25  O   UNL A   1      34.068  27.070  26.104  1.00  0.00    -0.207 OA
ATOM     26  O   UNL A   1      31.820  25.902  25.958  1.00  0.00    -0.207 OA
BRANCH  24  27
ATOM     27  N   UNL A   1      33.007  26.611  23.890  1.00  0.00    -0.225 NA
ATOM     28  H   UNL A   1      32.082  27.016  23.748  1.00  0.00     0.137 HD
ATOM     29  H   UNL A   1      33.123  25.804  23.275  1.00  0.00     0.137 HD
ENDBRANCH  24  27
ENDBRANCH  19  24
ENDBRANCH  14  18
BRANCH  16  30
ATOM     30  C   UNL A   1      34.771  19.259  24.577  1.00  0.00     0.000 A 
ATOM     31  C   UNL A   1      34.656  17.903  24.248  1.00  0.00     0.010 A 
ATOM     32  C   UNL A   1      33.621  20.057  24.605  1.00  0.00     0.010 A 
ATOM     33  C   UNL A   1      33.413  17.361  23.923  1.00  0.00     0.001 A 
ATOM     34  C   UNL A   1      32.378  19.513  24.286  1.00  0.00     0.001 A 
ATOM     35  C   UNL A   1      32.275  18.166  23.942  1.00  0.00     0.000 A 
ENDBRANCH  16  30
ENDBRANCH  10  13
ENDBRANCH   8   9
ENDBRANCH   7   8
ENDBRANCH   6   7
ENDBRANCH   5   6
ENDBRANCH   4   5
ENDBRANCH   3   4
ENDBRANCH   2   3
ENDBRANCH   1   2
BRANCH   1  36
ATOM     36  C   UNL A   1      41.856  25.508  25.594  1.00  0.00     0.010 C 
BRANCH  36  37
ATOM     37  C   UNL A   1      41.322  26.751  26.306  1.00  0.00     0.100 C 
BRANCH  37  38
ATOM     38  C   UNL A   1      40.641  26.471  27.631  1.00  0.00     0.219 C 
ATOM     39  O   UNL A   1      39.412  26.407  27.701  1.00  0.00    -0.275 OA
ATOM     40  N   UNL A   1      41.360  26.260  28.767  1.00  0.00    -0.356 N 
ATOM     41  H   UNL A   1      40.819  26.039  29.559  1.00  0.00     0.163 HD
BRANCH  40  42
ATOM     42  C   UNL A   1      42.789  26.309  29.006  1.00  0.00     0.116 C 
BRANCH  42  43
ATOM     43  C   UNL A   1      43.100  26.789  30.430  1.00  0.00     0.021 C 
BRANCH  43  44
ATOM     44  C   UNL A   1      44.353  26.163  31.047  1.00  0.00     0.002 C 
BRANCH  44  45
ATOM     45  C   UNL A   1      45.691  26.677  30.492  1.00  0.00     0.002 C 
BRANCH  45  46
ATOM     46  C   UNL A   1      46.607  25.640  29.824  1.00  0.00     0.021 C 
BRANCH  46  47
ATOM     47  C   UNL A   1      46.176  25.253  28.420  1.00  0.00     0.116 C 
BRANCH  47  48
ATOM     48  N   UNL A   1      47.130  25.689  27.393  1.00  0.00    -0.352 N 
ATOM     49  C   UNL A   1      47.087  26.791  26.559  1.00  0.00     0.251 C 
ATOM     50  H   UNL A   1      47.919  25.111  27.281  1.00  0.00     0.163 HD
ATOM     51  O   UNL A   1      47.766  26.838  25.540  1.00  0.00    -0.269 OA
BRANCH  49  52
ATOM     52  C   UNL A   1      46.214  27.921  26.917  1.00  0.00     0.039 A 
ATOM     53  C   UNL A   1      44.890  28.024  26.482  1.00  0.00     0.014 A 
ATOM     54  C   UNL A   1      46.763  28.901  27.732  1.00  0.00     0.014 A 
ATOM     55  C   UNL A   1      44.129  29.105  26.923  1.00  0.00     0.010 A 
ATOM     56  C   UNL A   1      45.950  29.776  28.381  1.00  0.00     0.010 A 
ATOM     57  C   UNL A   1      44.679  29.974  27.878  1.00  0.00    -0.014 A 
BRANCH  57  58
ATOM     58  C   UNL A   1      43.945  31.091  28.441  1.00  0.00     0.031 A 
ATOM     59  C   UNL A   1      44.347  32.401  27.890  1.00  0.00     0.074 A 
ATOM     60  C   UNL A   1      42.834  30.918  29.195  1.00  0.00     0.049 A 
ATOM     61  N   UNL A   1      44.988  33.340  28.499  1.00  0.00    -0.248 NA
ATOM     62  C   UNL A   1      44.170  32.634  26.448  1.00  0.00     0.031 C 
ATOM     63  C   UNL A   1      42.132  29.670  29.527  1.00  0.00     0.029 A 
ATOM     64  N   UNL A   1      42.028  31.860  29.749  1.00  0.00    -0.354 N 
ATOM     65  C   UNL A   1      45.097  34.376  27.580  1.00  0.00     0.074 A 
ATOM     66  C   UNL A   1      44.783  33.810  26.295  1.00  0.00     0.031 C 
ATOM     67  C   UNL A   1      40.905  29.951  30.020  1.00  0.00     0.029 A 
ATOM     68  C   UNL A   1      40.800  31.386  30.201  1.00  0.00     0.049 A 
ATOM     69  H   UNL A   1      42.291  32.805  29.826  1.00  0.00     0.167 HD
ATOM     70  C   UNL A   1      45.147  35.667  28.007  1.00  0.00     0.037 A 
ATOM     71  C   UNL A   1      39.769  32.138  30.662  1.00  0.00     0.037 A 
ATOM     72  C   UNL A   1      45.456  35.729  29.418  1.00  0.00     0.049 A 
ATOM     73  C   UNL A   1      40.333  33.459  31.040  1.00  0.00     0.074 A 
ATOM     74  C   UNL A   1      46.503  35.286  30.203  1.00  0.00     0.029 A 
ATOM     75  N   UNL A   1      44.417  35.960  30.287  1.00  0.00    -0.354 N 
ATOM     76  N   UNL A   1      41.160  33.634  32.035  1.00  0.00    -0.248 NA
ATOM     77  C   UNL A   1      40.360  34.493  30.016  1.00  0.00     0.031 C 
ATOM     78  C   UNL A   1      45.892  34.810  31.402  1.00  0.00     0.029 A 
ATOM     79  C   UNL A   1      44.522  35.061  31.317  1.00  0.00     0.049 A 
ATOM     80  H   UNL A   1      43.721  36.649  30.189  1.00  0.00     0.167 HD
ATOM     81  C   UNL A   1      42.101  34.533  31.555  1.00  0.00     0.074 A 
ATOM     82  C   UNL A   1      41.512  35.087  30.338  1.00  0.00     0.031 C 
ATOM     83  C   UNL A   1      43.385  34.519  32.022  1.00  0.00     0.037 A 
BRANCH  70  84
ATOM     84  C   UNL A   1      44.509  36.829  27.279  1.00  0.00     0.064 A 
ATOM     85  C   UNL A   1      45.283  37.984  27.054  1.00  0.00     0.173 A 
ATOM     86  C   UNL A   1      43.117  36.983  27.087  1.00  0.00     0.173 A 
ATOM     87  F   UNL A   1      46.614  37.957  27.218  1.00  0.00    -0.203 F 
ATOM     88  C   UNL A   1      44.698  39.221  26.771  1.00  0.00     0.198 A 
ATOM     89  C   UNL A   1      42.543  38.206  26.749  1.00  0.00     0.198 A 
ATOM     90  F   UNL A   1      42.241  36.007  27.345  1.00  0.00    -0.203 F 
ATOM     91  F   UNL A   1      45.462  40.319  26.723  1.00  0.00    -0.200 F 
ATOM     92  C   UNL A   1      43.327  39.332  26.628  1.00  0.00     0.200 A 
ATOM     93  F   UNL A   1      41.209  38.300  26.651  1.00  0.00    -0.200 F 
ATOM     94  F   UNL A   1      42.757  40.530  26.442  1.00  0.00    -0.200 F 
ENDBRANCH  70  84
BRANCH  71  95
ATOM     95  C   UNL A   1      38.313  31.917  30.489  1.00  0.00     0.064 A 
ATOM     96  C   UNL A   1      37.395  32.334  31.467  1.00  0.00     0.173 A 
ATOM     97  C   UNL A   1      37.773  31.564  29.236  1.00  0.00     0.173 A 
ATOM     98  F   UNL A   1      37.828  32.731  32.672  1.00  0.00    -0.203 F 
ATOM     99  C   UNL A   1      36.023  32.421  31.198  1.00  0.00     0.198 A 
ATOM    100  C   UNL A   1      36.405  31.649  28.970  1.00  0.00     0.198 A 
ATOM    101  F   UNL A   1      38.574  31.229  28.213  1.00  0.00    -0.203 F 
ATOM    102  F   UNL A   1      35.186  32.888  32.136  1.00  0.00    -0.200 F 
ATOM    103  C   UNL A   1      35.532  32.092  29.946  1.00  0.00     0.200 A 
ATOM    104  F   UNL A   1      35.949  31.369  27.740  1.00  0.00    -0.200 F 
ATOM    105  F   UNL A   1      34.230  32.244  29.665  1.00  0.00    -0.200 F 
ENDBRANCH  71  95
BRANCH  83 106
ATOM    106  C   UNL A   1      43.675  33.695  33.248  1.00  0.00     0.064 A 
ATOM    107  C   UNL A   1      44.097  32.354  33.222  1.00  0.00     0.173 A 
ATOM    108  C   UNL A   1      43.656  34.336  34.492  1.00  0.00     0.173 A 
ATOM    109  F   UNL A   1      44.236  31.695  32.065  1.00  0.00    -0.203 F 
ATOM    110  C   UNL A   1      44.440  31.678  34.393  1.00  0.00     0.198 A 
ATOM    111  C   UNL A   1      44.034  33.672  35.656  1.00  0.00     0.198 A 
ATOM    112  F   UNL A   1      43.312  35.632  34.574  1.00  0.00    -0.203 F 
ATOM    113  F   UNL A   1      44.827  30.395  34.341  1.00  0.00    -0.200 F 
ATOM    114  C   UNL A   1      44.415  32.341  35.607  1.00  0.00     0.200 A 
ATOM    115  F   UNL A   1      44.053  34.333  36.822  1.00  0.00    -0.200 F 
ATOM    116  F   UNL A   1      44.782  31.706  36.729  1.00  0.00    -0.200 F 
ENDBRANCH  83 106
ENDBRANCH  57  58
ENDBRANCH  49  52
ENDBRANCH  47  48
ENDBRANCH  46  47
ENDBRANCH  45  46
ENDBRANCH  44  45
ENDBRANCH  43  44
ENDBRANCH  42  43
ENDBRANCH  40  42
ENDBRANCH  37  38
ENDBRANCH  36  37
ENDBRANCH   1  36
TORSDOF 28
ENDMDL
