MODEL 1
REMARK VINA RESULT:     -11.1      0.000      0.000
REMARK SMILES CCCCNC(=O)[C@@H](C)Oc1ccc(N)cc1C(=O)NCCCCCCNC(=O)c1ccc(-c2c3nc(c(-c4c(F)c(F)c(F)c(F)c4F)c4ccc([nH]4)c(-c4c(F)c(F)c(F)c(F)c4F)c4nc(c(-c5c(F)c(F)c(F)c(F)c5F)c5ccc2[nH]5)C=C4)C=C3)cc1
REMARK SMILES IDX 21 1 20 2 18 3 19 4 17 6 11 7 12 8 13 9 16 10 14 11 10 12
REMARK SMILES IDX 8 13 9 14 6 15 5 16 7 18 4 19 3 20 2 21 1 22 15 23 22 26
REMARK SMILES IDX 23 27 24 28 25 29 26 30 27 31 28 32 29 34 30 35 31 36 92 37
REMARK SMILES IDX 32 38 91 39 33 40 34 41 35 42 85 43 36 44 90 45 84 46 86 47
REMARK SMILES IDX 37 48 89 49 83 50 82 51 38 53 70 54 50 55 69 56 51 57 54 58
REMARK SMILES IDX 68 59 87 60 52 61 53 62 67 64 88 65 55 66 39 67 40 68 48 69
REMARK SMILES IDX 41 70 42 71 46 72 49 73 43 74 44 75 47 76 45 77 71 78 72 79
REMARK SMILES IDX 80 80 73 81 74 82 78 83 81 84 75 85 76 86 79 87 77 88 56 89
REMARK SMILES IDX 57 90 65 91 58 92 59 93 63 94 66 95 60 96 61 97 64 98 62 99
REMARK H PARENT 20 5 5 17 15 24 15 25 27 33 86 52 54 63
REMARK Flexibility Score: inf
ROOT
ATOM      1  C   UNL A   1      34.029  28.249  26.572  1.00  0.00     0.116 C 
ENDROOT
BRANCH   1   2
ATOM      2  N   UNL A   1      34.343  27.355  25.507  1.00  0.00    -0.352 N 
ATOM      3  C   UNL A   1      33.771  26.145  25.201  1.00  0.00     0.255 C 
ATOM      4  O   UNL A   1      34.360  25.515  24.313  1.00  0.00    -0.269 OA
ATOM      5  H   UNL A   1      35.071  27.644  24.910  1.00  0.00     0.163 HD
BRANCH   3   6
ATOM      6  C   UNL A   1      32.511  25.541  25.797  1.00  0.00     0.083 A 
ATOM      7  C   UNL A   1      31.160  25.936  25.701  1.00  0.00     0.133 A 
ATOM      8  C   UNL A   1      30.164  24.969  25.903  1.00  0.00     0.049 A 
ATOM      9  C   UNL A   1      30.460  23.728  26.470  1.00  0.00     0.029 A 
ATOM     10  C   UNL A   1      32.767  24.299  26.438  1.00  0.00     0.043 A 
ATOM     11  C   UNL A   1      31.757  23.430  26.852  1.00  0.00     0.032 A 
BRANCH   7  12
ATOM     12  O   UNL A   1      30.734  27.171  25.313  1.00  0.00    -0.480 OA
BRANCH  12  13
ATOM     13  C   UNL A   1      30.656  27.479  23.906  1.00  0.00     0.258 C 
ATOM     14  C   UNL A   1      30.485  26.264  22.968  1.00  0.00     0.064 C 
BRANCH  13  15
ATOM     15  C   UNL A   1      31.492  28.580  23.192  1.00  0.00     0.260 C 
ATOM     16  N   UNL A   1      30.918  29.720  22.703  1.00  0.00    -0.353 N 
ATOM     17  H   UNL A   1      31.526  30.482  22.569  1.00  0.00     0.163 HD
ATOM     18  O   UNL A   1      32.721  28.477  23.107  1.00  0.00    -0.271 OA
BRANCH  16  19
ATOM     19  C   UNL A   1      29.531  29.952  22.358  1.00  0.00     0.116 C 
BRANCH  19  20
ATOM     20  C   UNL A   1      28.682  30.502  23.493  1.00  0.00     0.021 C 
BRANCH  20  21
ATOM     21  C   UNL A   1      27.869  31.744  23.119  1.00  0.00    -0.002 C 
ATOM     22  C   UNL A   1      28.723  32.920  22.658  1.00  0.00     0.004 C 
ENDBRANCH  20  21
ENDBRANCH  19  20
ENDBRANCH  16  19
ENDBRANCH  13  15
ENDBRANCH  12  13
ENDBRANCH   7  12
BRANCH  11  23
ATOM     23  N   UNL A   1      32.059  22.233  27.474  1.00  0.00    -0.399 N 
ATOM     24  H   UNL A   1      31.369  21.759  27.992  1.00  0.00     0.156 HD
ATOM     25  H   UNL A   1      32.966  21.856  27.401  1.00  0.00     0.156 HD
ENDBRANCH  11  23
ENDBRANCH   3   6
ENDBRANCH   1   2
BRANCH   1  26
ATOM     26  C   UNL A   1      33.497  29.611  26.163  1.00  0.00     0.021 C 
BRANCH  26  27
ATOM     27  C   UNL A   1      32.209  30.064  26.834  1.00  0.00     0.002 C 
BRANCH  27  28
ATOM     28  C   UNL A   1      31.329  31.034  26.040  1.00  0.00     0.002 C 
BRANCH  28  29
ATOM     29  C   UNL A   1      31.254  32.483  26.533  1.00  0.00     0.021 C 
BRANCH  29  30
ATOM     30  C   UNL A   1      32.493  33.038  27.230  1.00  0.00     0.116 C 
BRANCH  30  31
ATOM     31  N   UNL A   1      32.311  34.391  27.723  1.00  0.00    -0.352 N 
ATOM     32  C   UNL A   1      32.975  35.074  28.704  1.00  0.00     0.251 C 
ATOM     33  H   UNL A   1      31.593  34.900  27.280  1.00  0.00     0.163 HD
ATOM     34  O   UNL A   1      32.565  36.186  29.056  1.00  0.00    -0.269 OA
BRANCH  32  35
ATOM     35  C   UNL A   1      34.161  34.498  29.369  1.00  0.00     0.039 A 
ATOM     36  C   UNL A   1      33.989  33.869  30.606  1.00  0.00     0.014 A 
ATOM     37  C   UNL A   1      35.440  34.605  28.815  1.00  0.00     0.014 A 
ATOM     38  C   UNL A   1      35.084  33.300  31.258  1.00  0.00     0.010 A 
ATOM     39  C   UNL A   1      36.522  33.979  29.434  1.00  0.00     0.010 A 
ATOM     40  C   UNL A   1      36.356  33.321  30.664  1.00  0.00    -0.014 A 
BRANCH  40  41
ATOM     41  C   UNL A   1      37.513  32.652  31.313  1.00  0.00     0.031 A 
ATOM     42  C   UNL A   1      38.199  31.494  30.641  1.00  0.00     0.074 A 
ATOM     43  C   UNL A   1      37.911  33.055  32.536  1.00  0.00     0.049 A 
ATOM     44  N   UNL A   1      39.185  30.751  31.076  1.00  0.00    -0.248 NA
ATOM     45  C   UNL A   1      37.698  31.105  29.312  1.00  0.00     0.031 C 
ATOM     46  C   UNL A   1      37.300  34.137  33.310  1.00  0.00     0.029 A 
ATOM     47  N   UNL A   1      38.918  32.595  33.349  1.00  0.00    -0.354 N 
ATOM     48  C   UNL A   1      39.408  29.798  30.090  1.00  0.00     0.074 A 
ATOM     49  C   UNL A   1      38.432  30.032  29.048  1.00  0.00     0.031 C 
ATOM     50  C   UNL A   1      37.953  34.268  34.476  1.00  0.00     0.029 A 
ATOM     51  C   UNL A   1      39.003  33.257  34.550  1.00  0.00     0.049 A 
ATOM     52  H   UNL A   1      39.522  31.861  33.095  1.00  0.00     0.167 HD
ATOM     53  C   UNL A   1      40.353  28.829  30.051  1.00  0.00     0.037 A 
ATOM     54  C   UNL A   1      39.826  33.063  35.598  1.00  0.00     0.037 A 
ATOM     55  C   UNL A   1      41.348  28.626  31.070  1.00  0.00     0.049 A 
ATOM     56  C   UNL A   1      40.865  31.974  35.522  1.00  0.00     0.074 A 
ATOM     57  C   UNL A   1      42.400  27.725  31.079  1.00  0.00     0.029 A 
ATOM     58  N   UNL A   1      41.416  29.330  32.263  1.00  0.00    -0.354 N 
ATOM     59  N   UNL A   1      41.121  31.140  34.545  1.00  0.00    -0.248 NA
ATOM     60  C   UNL A   1      41.735  31.806  36.696  1.00  0.00     0.031 C 
ATOM     61  C   UNL A   1      43.071  27.846  32.299  1.00  0.00     0.029 A 
ATOM     62  C   UNL A   1      42.473  28.861  33.028  1.00  0.00     0.049 A 
ATOM     63  H   UNL A   1      40.804  30.053  32.527  1.00  0.00     0.167 HD
ATOM     64  C   UNL A   1      42.200  30.375  34.970  1.00  0.00     0.074 A 
ATOM     65  C   UNL A   1      42.560  30.855  36.286  1.00  0.00     0.031 C 
ATOM     66  C   UNL A   1      42.833  29.363  34.328  1.00  0.00     0.037 A 
BRANCH  53  67
ATOM     67  C   UNL A   1      40.370  27.905  28.868  1.00  0.00     0.064 A 
ATOM     68  C   UNL A   1      41.124  28.191  27.721  1.00  0.00     0.173 A 
ATOM     69  C   UNL A   1      39.692  26.678  28.920  1.00  0.00     0.173 A 
ATOM     70  F   UNL A   1      41.783  29.355  27.619  1.00  0.00    -0.203 F 
ATOM     71  C   UNL A   1      41.189  27.287  26.664  1.00  0.00     0.198 A 
ATOM     72  C   UNL A   1      39.782  25.764  27.874  1.00  0.00     0.198 A 
ATOM     73  F   UNL A   1      38.962  26.352  29.998  1.00  0.00    -0.203 F 
ATOM     74  F   UNL A   1      41.892  27.594  25.565  1.00  0.00    -0.200 F 
ATOM     75  C   UNL A   1      40.527  26.071  26.745  1.00  0.00     0.200 A 
ATOM     76  F   UNL A   1      39.154  24.583  27.960  1.00  0.00    -0.200 F 
ATOM     77  F   UNL A   1      40.608  25.193  25.735  1.00  0.00    -0.200 F 
ENDBRANCH  53  67
BRANCH  54  78
ATOM     78  C   UNL A   1      39.716  33.914  36.813  1.00  0.00     0.064 A 
ATOM     79  C   UNL A   1      38.918  33.522  37.897  1.00  0.00     0.173 A 
ATOM     80  C   UNL A   1      40.366  35.154  36.897  1.00  0.00     0.173 A 
ATOM     81  F   UNL A   1      38.258  32.355  37.855  1.00  0.00    -0.203 F 
ATOM     82  C   UNL A   1      38.743  34.354  39.001  1.00  0.00     0.198 A 
ATOM     83  C   UNL A   1      40.217  35.971  38.017  1.00  0.00     0.198 A 
ATOM     84  F   UNL A   1      41.144  35.576  35.891  1.00  0.00    -0.203 F 
ATOM     85  F   UNL A   1      37.920  33.984  39.992  1.00  0.00    -0.200 F 
ATOM     86  C   UNL A   1      39.395  35.576  39.061  1.00  0.00     0.200 A 
ATOM     87  F   UNL A   1      40.860  37.145  38.077  1.00  0.00    -0.200 F 
ATOM     88  F   UNL A   1      39.220  36.379  40.120  1.00  0.00    -0.200 F 
ENDBRANCH  54  78
BRANCH  66  89
ATOM     89  C   UNL A   1      44.012  28.740  35.017  1.00  0.00     0.064 A 
ATOM     90  C   UNL A   1      43.871  27.625  35.857  1.00  0.00     0.173 A 
ATOM     91  C   UNL A   1      45.305  29.245  34.805  1.00  0.00     0.173 A 
ATOM     92  F   UNL A   1      42.656  27.114  36.103  1.00  0.00    -0.203 F 
ATOM     93  C   UNL A   1      44.978  27.056  36.480  1.00  0.00     0.198 A 
ATOM     94  C   UNL A   1      46.412  28.653  35.404  1.00  0.00     0.198 A 
ATOM     95  F   UNL A   1      45.494  30.304  34.005  1.00  0.00    -0.203 F 
ATOM     96  F   UNL A   1      44.814  26.023  37.319  1.00  0.00    -0.200 F 
ATOM     97  C   UNL A   1      46.247  27.565  36.248  1.00  0.00     0.200 A 
ATOM     98  F   UNL A   1      47.639  29.136  35.166  1.00  0.00    -0.200 F 
ATOM     99  F   UNL A   1      47.312  27.011  36.844  1.00  0.00    -0.200 F 
ENDBRANCH  66  89
ENDBRANCH  40  41
ENDBRANCH  32  35
ENDBRANCH  30  31
ENDBRANCH  29  30
ENDBRANCH  28  29
ENDBRANCH  27  28
ENDBRANCH  26  27
ENDBRANCH   1  26
TORSDOF 20
ENDMDL
MODEL 2
REMARK VINA RESULT:     -10.9      5.548     10.781
REMARK SMILES CCCCNC(=O)[C@@H](C)Oc1ccc(N)cc1C(=O)NCCCCCCNC(=O)c1ccc(-c2c3nc(c(-c4c(F)c(F)c(F)c(F)c4F)c4ccc([nH]4)c(-c4c(F)c(F)c(F)c(F)c4F)c4nc(c(-c5c(F)c(F)c(F)c(F)c5F)c5ccc2[nH]5)C=C4)C=C3)cc1
REMARK SMILES IDX 21 1 20 2 18 3 19 4 17 6 11 7 12 8 13 9 16 10 14 11 10 12
REMARK SMILES IDX 8 13 9 14 6 15 5 16 7 18 4 19 3 20 2 21 1 22 15 23 22 26
REMARK SMILES IDX 23 27 24 28 25 29 26 30 27 31 28 32 29 34 30 35 31 36 92 37
REMARK SMILES IDX 32 38 91 39 33 40 34 41 35 42 85 43 36 44 90 45 84 46 86 47
REMARK SMILES IDX 37 48 89 49 83 50 82 51 38 53 70 54 50 55 69 56 51 57 54 58
REMARK SMILES IDX 68 59 87 60 52 61 53 62 67 64 88 65 55 66 39 67 40 68 48 69
REMARK SMILES IDX 41 70 42 71 46 72 49 73 43 74 44 75 47 76 45 77 71 78 72 79
REMARK SMILES IDX 80 80 73 81 74 82 78 83 81 84 75 85 76 86 79 87 77 88 56 89
REMARK SMILES IDX 57 90 65 91 58 92 59 93 63 94 66 95 60 96 61 97 64 98 62 99
REMARK H PARENT 20 5 5 17 15 24 15 25 27 33 86 52 54 63
REMARK Flexibility Score: inf
ROOT
ATOM      1  C   UNL A   1      35.280  23.425  23.833  1.00  0.00     0.116 C 
ENDROOT
BRANCH   1   2
ATOM      2  N   UNL A   1      34.189  22.882  23.094  1.00  0.00    -0.352 N 
ATOM      3  C   UNL A   1      32.848  22.917  23.386  1.00  0.00     0.255 C 
ATOM      4  O   UNL A   1      32.148  22.218  22.642  1.00  0.00    -0.269 OA
ATOM      5  H   UNL A   1      34.431  22.416  22.260  1.00  0.00     0.163 HD
BRANCH   3   6
ATOM      6  C   UNL A   1      32.160  23.727  24.471  1.00  0.00     0.083 A 
ATOM      7  C   UNL A   1      32.136  25.116  24.714  1.00  0.00     0.133 A 
ATOM      8  C   UNL A   1      31.061  25.652  25.438  1.00  0.00     0.049 A 
ATOM      9  C   UNL A   1      30.187  24.832  26.155  1.00  0.00     0.029 A 
ATOM     10  C   UNL A   1      31.298  22.927  25.268  1.00  0.00     0.043 A 
ATOM     11  C   UNL A   1      30.375  23.461  26.168  1.00  0.00     0.032 A 
BRANCH   7  12
ATOM     12  O   UNL A   1      33.028  26.013  24.205  1.00  0.00    -0.480 OA
BRANCH  12  13
ATOM     13  C   UNL A   1      32.664  26.783  23.041  1.00  0.00     0.258 C 
ATOM     14  C   UNL A   1      33.112  26.193  21.686  1.00  0.00     0.064 C 
BRANCH  13  15
ATOM     15  C   UNL A   1      32.678  28.337  22.967  1.00  0.00     0.260 C 
ATOM     16  N   UNL A   1      31.526  29.065  22.853  1.00  0.00    -0.353 N 
ATOM     17  H   UNL A   1      31.585  30.007  23.133  1.00  0.00     0.163 HD
ATOM     18  O   UNL A   1      33.739  28.960  23.076  1.00  0.00    -0.271 OA
BRANCH  16  19
ATOM     19  C   UNL A   1      30.230  28.631  22.374  1.00  0.00     0.116 C 
BRANCH  19  20
ATOM     20  C   UNL A   1      29.058  29.093  23.223  1.00  0.00     0.021 C 
BRANCH  20  21
ATOM     21  C   UNL A   1      28.131  30.088  22.520  1.00  0.00    -0.002 C 
ATOM     22  C   UNL A   1      27.648  31.219  23.421  1.00  0.00     0.004 C 
ENDBRANCH  20  21
ENDBRANCH  19  20
ENDBRANCH  16  19
ENDBRANCH  13  15
ENDBRANCH  12  13
ENDBRANCH   7  12
BRANCH  11  23
ATOM     23  N   UNL A   1      29.561  22.637  26.924  1.00  0.00    -0.399 N 
ATOM     24  H   UNL A   1      29.426  22.823  27.881  1.00  0.00     0.156 HD
ATOM     25  H   UNL A   1      29.117  21.865  26.504  1.00  0.00     0.156 HD
ENDBRANCH  11  23
ENDBRANCH   3   6
ENDBRANCH   1   2
BRANCH   1  26
ATOM     26  C   UNL A   1      36.607  22.701  23.690  1.00  0.00     0.021 C 
BRANCH  26  27
ATOM     27  C   UNL A   1      37.068  21.891  24.892  1.00  0.00     0.002 C 
BRANCH  27  28
ATOM     28  C   UNL A   1      36.811  20.382  24.837  1.00  0.00     0.002 C 
BRANCH  28  29
ATOM     29  C   UNL A   1      38.021  19.454  24.990  1.00  0.00     0.021 C 
BRANCH  29  30
ATOM     30  C   UNL A   1      39.220  20.007  25.756  1.00  0.00     0.116 C 
BRANCH  30  31
ATOM     31  N   UNL A   1      40.305  19.051  25.885  1.00  0.00    -0.352 N 
ATOM     32  C   UNL A   1      41.637  19.247  26.120  1.00  0.00     0.251 C 
ATOM     33  H   UNL A   1      40.037  18.107  25.786  1.00  0.00     0.163 HD
ATOM     34  O   UNL A   1      42.413  18.288  26.060  1.00  0.00    -0.269 OA
BRANCH  32  35
ATOM     35  C   UNL A   1      42.171  20.590  26.421  1.00  0.00     0.039 A 
ATOM     36  C   UNL A   1      42.618  21.381  25.358  1.00  0.00     0.014 A 
ATOM     37  C   UNL A   1      42.276  21.063  27.732  1.00  0.00     0.014 A 
ATOM     38  C   UNL A   1      43.116  22.663  25.602  1.00  0.00     0.010 A 
ATOM     39  C   UNL A   1      42.712  22.367  27.969  1.00  0.00     0.010 A 
ATOM     40  C   UNL A   1      43.138  23.180  26.907  1.00  0.00    -0.014 A 
BRANCH  40  41
ATOM     41  C   UNL A   1      43.594  24.570  27.169  1.00  0.00     0.031 A 
ATOM     42  C   UNL A   1      42.629  25.606  27.677  1.00  0.00     0.074 A 
ATOM     43  C   UNL A   1      44.869  24.912  26.896  1.00  0.00     0.049 A 
ATOM     44  N   UNL A   1      42.829  26.879  27.910  1.00  0.00    -0.248 NA
ATOM     45  C   UNL A   1      41.251  25.159  27.939  1.00  0.00     0.031 C 
ATOM     46  C   UNL A   1      45.889  24.009  26.360  1.00  0.00     0.029 A 
ATOM     47  N   UNL A   1      45.524  26.113  27.022  1.00  0.00    -0.354 N 
ATOM     48  C   UNL A   1      41.603  27.387  28.323  1.00  0.00     0.074 A 
ATOM     49  C   UNL A   1      40.655  26.295  28.275  1.00  0.00     0.031 C 
ATOM     50  C   UNL A   1      47.043  24.682  26.219  1.00  0.00     0.029 A 
ATOM     51  C   UNL A   1      46.836  26.071  26.617  1.00  0.00     0.049 A 
ATOM     52  H   UNL A   1      45.093  26.926  27.371  1.00  0.00     0.167 HD
ATOM     53  C   UNL A   1      41.303  28.645  28.722  1.00  0.00     0.037 A 
ATOM     54  C   UNL A   1      47.763  27.046  26.560  1.00  0.00     0.037 A 
ATOM     55  C   UNL A   1      42.258  29.719  28.808  1.00  0.00     0.049 A 
ATOM     56  C   UNL A   1      47.394  28.435  27.010  1.00  0.00     0.074 A 
ATOM     57  C   UNL A   1      42.067  31.005  29.282  1.00  0.00     0.029 A 
ATOM     58  N   UNL A   1      43.583  29.633  28.407  1.00  0.00    -0.354 N 
ATOM     59  N   UNL A   1      46.256  28.879  27.483  1.00  0.00    -0.248 NA
ATOM     60  C   UNL A   1      48.446  29.459  26.925  1.00  0.00     0.031 C 
ATOM     61  C   UNL A   1      43.260  31.715  29.119  1.00  0.00     0.029 A 
ATOM     62  C   UNL A   1      44.211  30.854  28.595  1.00  0.00     0.049 A 
ATOM     63  H   UNL A   1      44.012  28.826  28.043  1.00  0.00     0.167 HD
ATOM     64  C   UNL A   1      46.464  30.219  27.783  1.00  0.00     0.074 A 
ATOM     65  C   UNL A   1      47.842  30.512  27.455  1.00  0.00     0.031 C 
ATOM     66  C   UNL A   1      45.591  31.125  28.284  1.00  0.00     0.037 A 
BRANCH  53  67
ATOM     67  C   UNL A   1      39.883  28.946  29.105  1.00  0.00     0.064 A 
ATOM     68  C   UNL A   1      38.931  29.339  28.154  1.00  0.00     0.173 A 
ATOM     69  C   UNL A   1      39.452  28.755  30.427  1.00  0.00     0.173 A 
ATOM     70  F   UNL A   1      39.294  29.543  26.879  1.00  0.00    -0.203 F 
ATOM     71  C   UNL A   1      37.600  29.541  28.514  1.00  0.00     0.198 A 
ATOM     72  C   UNL A   1      38.116  28.930  30.778  1.00  0.00     0.198 A 
ATOM     73  F   UNL A   1      40.322  28.373  31.374  1.00  0.00    -0.203 F 
ATOM     74  F   UNL A   1      36.713  29.944  27.595  1.00  0.00    -0.200 F 
ATOM     75  C   UNL A   1      37.193  29.327  29.822  1.00  0.00     0.200 A 
ATOM     76  F   UNL A   1      37.721  28.709  32.039  1.00  0.00    -0.200 F 
ATOM     77  F   UNL A   1      35.908  29.501  30.163  1.00  0.00    -0.200 F 
ENDBRANCH  53  67
BRANCH  54  78
ATOM     78  C   UNL A   1      49.136  26.755  26.065  1.00  0.00     0.064 A 
ATOM     79  C   UNL A   1      49.474  26.959  24.720  1.00  0.00     0.173 A 
ATOM     80  C   UNL A   1      50.120  26.223  26.911  1.00  0.00     0.173 A 
ATOM     81  F   UNL A   1      48.561  27.443  23.865  1.00  0.00    -0.203 F 
ATOM     82  C   UNL A   1      50.731  26.608  24.232  1.00  0.00     0.198 A 
ATOM     83  C   UNL A   1      51.388  25.904  26.429  1.00  0.00     0.198 A 
ATOM     84  F   UNL A   1      49.851  26.012  28.207  1.00  0.00    -0.203 F 
ATOM     85  F   UNL A   1      51.005  26.751  22.928  1.00  0.00    -0.200 F 
ATOM     86  C   UNL A   1      51.688  26.084  25.088  1.00  0.00     0.200 A 
ATOM     87  F   UNL A   1      52.315  25.410  27.262  1.00  0.00    -0.200 F 
ATOM     88  F   UNL A   1      52.894  25.738  24.616  1.00  0.00    -0.200 F 
ENDBRANCH  54  78
BRANCH  66  89
ATOM     89  C   UNL A   1      46.110  32.508  28.554  1.00  0.00     0.064 A 
ATOM     90  C   UNL A   1      46.031  33.527  27.594  1.00  0.00     0.173 A 
ATOM     91  C   UNL A   1      46.663  32.825  29.805  1.00  0.00     0.173 A 
ATOM     92  F   UNL A   1      45.525  33.272  26.378  1.00  0.00    -0.203 F 
ATOM     93  C   UNL A   1      46.512  34.805  27.867  1.00  0.00     0.198 A 
ATOM     94  C   UNL A   1      47.112  34.111  30.086  1.00  0.00     0.198 A 
ATOM     95  F   UNL A   1      46.754  31.888  30.761  1.00  0.00    -0.203 F 
ATOM     96  F   UNL A   1      46.473  35.750  26.916  1.00  0.00    -0.200 F 
ATOM     97  C   UNL A   1      47.044  35.098  29.113  1.00  0.00     0.200 A 
ATOM     98  F   UNL A   1      47.611  34.397  31.296  1.00  0.00    -0.200 F 
ATOM     99  F   UNL A   1      47.499  36.331  29.376  1.00  0.00    -0.200 F 
ENDBRANCH  66  89
ENDBRANCH  40  41
ENDBRANCH  32  35
ENDBRANCH  30  31
ENDBRANCH  29  30
ENDBRANCH  28  29
ENDBRANCH  27  28
ENDBRANCH  26  27
ENDBRANCH   1  26
TORSDOF 20
ENDMDL
MODEL 3
REMARK VINA RESULT:     -10.9      1.200      3.782
REMARK SMILES CCCCNC(=O)[C@@H](C)Oc1ccc(N)cc1C(=O)NCCCCCCNC(=O)c1ccc(-c2c3nc(c(-c4c(F)c(F)c(F)c(F)c4F)c4ccc([nH]4)c(-c4c(F)c(F)c(F)c(F)c4F)c4nc(c(-c5c(F)c(F)c(F)c(F)c5F)c5ccc2[nH]5)C=C4)C=C3)cc1
REMARK SMILES IDX 21 1 20 2 18 3 19 4 17 6 11 7 12 8 13 9 16 10 14 11 10 12
REMARK SMILES IDX 8 13 9 14 6 15 5 16 7 18 4 19 3 20 2 21 1 22 15 23 22 26
REMARK SMILES IDX 23 27 24 28 25 29 26 30 27 31 28 32 29 34 30 35 31 36 92 37
REMARK SMILES IDX 32 38 91 39 33 40 34 41 35 42 85 43 36 44 90 45 84 46 86 47
REMARK SMILES IDX 37 48 89 49 83 50 82 51 38 53 70 54 50 55 69 56 51 57 54 58
REMARK SMILES IDX 68 59 87 60 52 61 53 62 67 64 88 65 55 66 39 67 40 68 48 69
REMARK SMILES IDX 41 70 42 71 46 72 49 73 43 74 44 75 47 76 45 77 71 78 72 79
REMARK SMILES IDX 80 80 73 81 74 82 78 83 81 84 75 85 76 86 79 87 77 88 56 89
REMARK SMILES IDX 57 90 65 91 58 92 59 93 63 94 66 95 60 96 61 97 64 98 62 99
REMARK H PARENT 20 5 5 17 15 24 15 25 27 33 86 52 54 63
REMARK Flexibility Score: inf
ROOT
ATOM      1  C   UNL A   1      33.616  28.029  25.400  1.00  0.00     0.116 C 
ENDROOT
BRANCH   1   2
ATOM      2  N   UNL A   1      34.029  27.554  24.121  1.00  0.00    -0.352 N 
ATOM      3  C   UNL A   1      33.257  27.204  23.042  1.00  0.00     0.255 C 
ATOM      4  O   UNL A   1      33.886  26.670  22.119  1.00  0.00    -0.269 OA
ATOM      5  H   UNL A   1      35.001  27.463  23.996  1.00  0.00     0.163 HD
BRANCH   3   6
ATOM      6  C   UNL A   1      31.766  27.430  22.860  1.00  0.00     0.083 A 
ATOM      7  C   UNL A   1      30.657  26.650  23.249  1.00  0.00     0.133 A 
ATOM      8  C   UNL A   1      29.418  27.286  23.421  1.00  0.00     0.049 A 
ATOM      9  C   UNL A   1      29.193  28.580  22.948  1.00  0.00     0.029 A 
ATOM     10  C   UNL A   1      31.483  28.716  22.326  1.00  0.00     0.043 A 
ATOM     11  C   UNL A   1      30.200  29.262  22.287  1.00  0.00     0.032 A 
BRANCH   7  12
ATOM     12  O   UNL A   1      30.710  25.330  23.584  1.00  0.00    -0.480 OA
BRANCH  12  13
ATOM     13  C   UNL A   1      31.182  24.955  24.895  1.00  0.00     0.258 C 
ATOM     14  C   UNL A   1      30.727  25.871  26.052  1.00  0.00     0.064 C 
BRANCH  13  15
ATOM     15  C   UNL A   1      32.600  24.391  25.198  1.00  0.00     0.260 C 
ATOM     16  N   UNL A   1      33.106  23.312  24.528  1.00  0.00    -0.353 N 
ATOM     17  H   UNL A   1      34.086  23.222  24.540  1.00  0.00     0.163 HD
ATOM     18  O   UNL A   1      33.335  24.952  26.017  1.00  0.00    -0.271 OA
BRANCH  16  19
ATOM     19  C   UNL A   1      32.388  22.284  23.803  1.00  0.00     0.116 C 
BRANCH  19  20
ATOM     20  C   UNL A   1      32.128  21.016  24.599  1.00  0.00     0.021 C 
BRANCH  20  21
ATOM     21  C   UNL A   1      32.503  19.728  23.861  1.00  0.00    -0.002 C 
ATOM     22  C   UNL A   1      32.723  18.535  24.785  1.00  0.00     0.004 C 
ENDBRANCH  20  21
ENDBRANCH  19  20
ENDBRANCH  16  19
ENDBRANCH  13  15
ENDBRANCH  12  13
ENDBRANCH   7  12
BRANCH  11  23
ATOM     23  N   UNL A   1      29.977  30.519  21.754  1.00  0.00    -0.399 N 
ATOM     24  H   UNL A   1      30.365  30.759  20.881  1.00  0.00     0.156 HD
ATOM     25  H   UNL A   1      29.433  31.174  22.248  1.00  0.00     0.156 HD
ENDBRANCH  11  23
ENDBRANCH   3   6
ENDBRANCH   1   2
BRANCH   1  26
ATOM     26  C   UNL A   1      33.300  29.511  25.490  1.00  0.00     0.021 C 
BRANCH  26  27
ATOM     27  C   UNL A   1      31.830  29.884  25.603  1.00  0.00     0.002 C 
BRANCH  27  28
ATOM     28  C   UNL A   1      31.425  30.700  26.835  1.00  0.00     0.002 C 
BRANCH  28  29
ATOM     29  C   UNL A   1      31.392  32.225  26.691  1.00  0.00     0.021 C 
BRANCH  29  30
ATOM     30  C   UNL A   1      32.663  32.981  27.073  1.00  0.00     0.116 C 
BRANCH  30  31
ATOM     31  N   UNL A   1      32.400  34.307  27.601  1.00  0.00    -0.352 N 
ATOM     32  C   UNL A   1      32.984  34.982  28.637  1.00  0.00     0.251 C 
ATOM     33  H   UNL A   1      31.685  34.802  27.137  1.00  0.00     0.163 HD
ATOM     34  O   UNL A   1      32.511  36.063  29.003  1.00  0.00    -0.269 OA
BRANCH  32  35
ATOM     35  C   UNL A   1      34.157  34.430  29.344  1.00  0.00     0.039 A 
ATOM     36  C   UNL A   1      33.952  33.787  30.570  1.00  0.00     0.014 A 
ATOM     37  C   UNL A   1      35.453  34.572  28.842  1.00  0.00     0.014 A 
ATOM     38  C   UNL A   1      35.034  33.240  31.261  1.00  0.00     0.010 A 
ATOM     39  C   UNL A   1      36.525  33.968  29.499  1.00  0.00     0.010 A 
ATOM     40  C   UNL A   1      36.327  33.297  30.717  1.00  0.00    -0.014 A 
BRANCH  40  41
ATOM     41  C   UNL A   1      37.474  32.652  31.407  1.00  0.00     0.031 A 
ATOM     42  C   UNL A   1      38.190  31.490  30.772  1.00  0.00     0.074 A 
ATOM     43  C   UNL A   1      37.837  33.079  32.633  1.00  0.00     0.049 A 
ATOM     44  N   UNL A   1      39.172  30.765  31.245  1.00  0.00    -0.248 NA
ATOM     45  C   UNL A   1      37.727  31.074  29.438  1.00  0.00     0.031 C 
ATOM     46  C   UNL A   1      37.194  34.167  33.372  1.00  0.00     0.029 A 
ATOM     47  N   UNL A   1      38.828  32.644  33.479  1.00  0.00    -0.354 N 
ATOM     48  C   UNL A   1      39.430  29.798  30.281  1.00  0.00     0.074 A 
ATOM     49  C   UNL A   1      38.479  30.004  29.211  1.00  0.00     0.031 C 
ATOM     50  C   UNL A   1      37.817  34.326  34.551  1.00  0.00     0.029 A 
ATOM     51  C   UNL A   1      38.874  33.328  34.670  1.00  0.00     0.049 A 
ATOM     52  H   UNL A   1      39.445  31.912  33.252  1.00  0.00     0.167 HD
ATOM     53  C   UNL A   1      40.385  28.839  30.283  1.00  0.00     0.037 A 
ATOM     54  C   UNL A   1      39.673  33.159  35.741  1.00  0.00     0.037 A 
ATOM     55  C   UNL A   1      41.357  28.664  31.331  1.00  0.00     0.049 A 
ATOM     56  C   UNL A   1      40.724  32.081  35.710  1.00  0.00     0.074 A 
ATOM     57  C   UNL A   1      42.417  27.775  31.382  1.00  0.00     0.029 A 
ATOM     58  N   UNL A   1      41.386  29.388  32.513  1.00  0.00    -0.354 N 
ATOM     59  N   UNL A   1      41.014  31.233  34.755  1.00  0.00    -0.248 NA
ATOM     60  C   UNL A   1      41.565  31.943  36.909  1.00  0.00     0.031 C 
ATOM     61  C   UNL A   1      43.056  27.924  32.617  1.00  0.00     0.029 A 
ATOM     62  C   UNL A   1      42.428  28.944  33.312  1.00  0.00     0.049 A 
ATOM     63  H   UNL A   1      40.760  30.110  32.749  1.00  0.00     0.167 HD
ATOM     64  C   UNL A   1      42.090  30.487  35.221  1.00  0.00     0.074 A 
ATOM     65  C   UNL A   1      42.411  30.994  36.537  1.00  0.00     0.031 C 
ATOM     66  C   UNL A   1      42.749  29.472  34.612  1.00  0.00     0.037 A 
BRANCH  53  67
ATOM     67  C   UNL A   1      40.443  27.895  29.117  1.00  0.00     0.064 A 
ATOM     68  C   UNL A   1      39.664  26.730  29.073  1.00  0.00     0.173 A 
ATOM     69  C   UNL A   1      41.224  28.206  27.994  1.00  0.00     0.173 A 
ATOM     70  F   UNL A   1      38.906  26.384  30.125  1.00  0.00    -0.203 F 
ATOM     71  C   UNL A   1      39.672  25.906  27.951  1.00  0.00     0.198 A 
ATOM     72  C   UNL A   1      41.209  27.395  26.863  1.00  0.00     0.198 A 
ATOM     73  F   UNL A   1      41.983  29.313  27.982  1.00  0.00    -0.203 F 
ATOM     74  F   UNL A   1      38.942  24.782  27.942  1.00  0.00    -0.200 F 
ATOM     75  C   UNL A   1      40.436  26.244  26.844  1.00  0.00     0.200 A 
ATOM     76  F   UNL A   1      41.936  27.731  25.788  1.00  0.00    -0.200 F 
ATOM     77  F   UNL A   1      40.427  25.460  25.757  1.00  0.00    -0.200 F 
ENDBRANCH  53  67
BRANCH  54  78
ATOM     78  C   UNL A   1      39.523  34.030  36.939  1.00  0.00     0.064 A 
ATOM     79  C   UNL A   1      40.158  35.279  37.005  1.00  0.00     0.173 A 
ATOM     80  C   UNL A   1      38.784  33.614  38.056  1.00  0.00     0.173 A 
ATOM     81  F   UNL A   1      40.894  35.711  35.972  1.00  0.00    -0.203 F 
ATOM     82  C   UNL A   1      40.090  36.060  38.157  1.00  0.00     0.198 A 
ATOM     83  C   UNL A   1      38.690  34.412  39.195  1.00  0.00     0.198 A 
ATOM     84  F   UNL A   1      38.154  32.431  38.044  1.00  0.00    -0.203 F 
ATOM     85  F   UNL A   1      40.763  37.218  38.218  1.00  0.00    -0.200 F 
ATOM     86  C   UNL A   1      39.354  35.628  39.250  1.00  0.00     0.200 A 
ATOM     87  F   UNL A   1      37.967  33.997  40.244  1.00  0.00    -0.200 F 
ATOM     88  F   UNL A   1      39.298  36.376  40.360  1.00  0.00    -0.200 F 
ENDBRANCH  54  78
BRANCH  66  89
ATOM     89  C   UNL A   1      43.917  28.873  35.342  1.00  0.00     0.064 A 
ATOM     90  C   UNL A   1      45.225  29.343  35.152  1.00  0.00     0.173 A 
ATOM     91  C   UNL A   1      43.717  27.837  36.268  1.00  0.00     0.173 A 
ATOM     92  F   UNL A   1      45.470  30.320  34.267  1.00  0.00    -0.203 F 
ATOM     93  C   UNL A   1      46.293  28.779  35.844  1.00  0.00     0.198 A 
ATOM     94  C   UNL A   1      44.783  27.299  36.981  1.00  0.00     0.198 A 
ATOM     95  F   UNL A   1      42.485  27.358  36.492  1.00  0.00    -0.203 F 
ATOM     96  F   UNL A   1      47.542  29.209  35.609  1.00  0.00    -0.200 F 
ATOM     97  C   UNL A   1      46.072  27.764  36.762  1.00  0.00     0.200 A 
ATOM     98  F   UNL A   1      44.565  26.329  37.880  1.00  0.00    -0.200 F 
ATOM     99  F   UNL A   1      47.101  27.228  37.433  1.00  0.00    -0.200 F 
ENDBRANCH  66  89
ENDBRANCH  40  41
ENDBRANCH  32  35
ENDBRANCH  30  31
ENDBRANCH  29  30
ENDBRANCH  28  29
ENDBRANCH  27  28
ENDBRANCH  26  27
ENDBRANCH   1  26
TORSDOF 20
ENDMDL
