MODEL 1
REMARK VINA RESULT:     -12.7      0.000      0.000
REMARK SMILES O=C(NCCCCCCNC(=O)[C@@]1(Cc2cn3ccccc3n2)CCC[NH2+]C1)c1ccc(-c2c3nc(c(-c4c(F)c(F)c(F)c(F)c4F)c4ccc([nH]4)c(-c4c(F)c(F)c(F)c(F)c4F)c4nc(c(-c5c(F)c(F)c(F)c(F)c5F)c5ccc2[nH]5)C=C4)C=C3)cc1
REMARK SMILES IDX 6 1 5 2 4 3 3 4 1 5 2 6 29 8 30 9 91 10 31 11 90 12 32 13
REMARK SMILES IDX 33 14 34 15 84 16 35 17 89 18 83 19 85 20 36 21 88 22 82 23
REMARK SMILES IDX 81 24 37 26 69 27 49 28 68 29 50 30 53 31 67 32 86 33 51 34
REMARK SMILES IDX 52 35 66 37 87 38 54 39 38 40 39 41 47 42 40 43 41 44 45 45
REMARK SMILES IDX 48 46 42 47 43 48 46 49 44 50 70 51 71 52 79 53 72 54 73 55
REMARK SMILES IDX 77 56 80 57 74 58 75 59 78 60 76 61 55 62 56 63 64 64 57 65
REMARK SMILES IDX 58 66 62 67 65 68 59 69 60 70 63 71 61 72 7 73 8 74 9 75
REMARK SMILES IDX 10 76 11 77 12 79 13 80 24 81 28 82 25 83 27 84 26 85 14 88
REMARK SMILES IDX 15 89 16 90 23 91 17 92 22 93 18 94 21 95 19 96 20 97
REMARK H PARENT 3 7 85 25 53 36 10 78 27 86 27 87
REMARK Flexibility Score: inf
ROOT
ATOM      1  C   UNL A   1      31.416  30.854  26.052  1.00  0.00     0.002 C 
ENDROOT
BRANCH   1   2
ATOM      2  C   UNL A   1      31.303  32.310  26.509  1.00  0.00     0.021 C 
BRANCH   2   3
ATOM      3  C   UNL A   1      32.539  32.811  27.240  1.00  0.00     0.116 C 
BRANCH   3   4
ATOM      4  N   UNL A   1      32.405  34.215  27.594  1.00  0.00    -0.352 N 
ATOM      5  O   UNL A   1      32.593  36.002  28.961  1.00  0.00    -0.269 OA
ATOM      6  C   UNL A   1      33.010  34.905  28.613  1.00  0.00     0.251 C 
ATOM      7  H   UNL A   1      31.798  34.742  27.025  1.00  0.00     0.163 HD
BRANCH   6   8
ATOM      8  C   UNL A   1      34.179  34.305  29.284  1.00  0.00     0.039 A 
ATOM      9  C   UNL A   1      33.994  33.469  30.389  1.00  0.00     0.014 A 
ATOM     10  C   UNL A   1      35.460  34.561  28.794  1.00  0.00     0.014 A 
ATOM     11  C   UNL A   1      35.095  32.986  31.078  1.00  0.00     0.010 A 
ATOM     12  C   UNL A   1      36.564  33.992  29.431  1.00  0.00     0.010 A 
ATOM     13  C   UNL A   1      36.388  33.211  30.584  1.00  0.00    -0.014 A 
BRANCH  13  14
ATOM     14  C   UNL A   1      37.533  32.529  31.232  1.00  0.00     0.031 A 
ATOM     15  C   UNL A   1      38.274  31.424  30.542  1.00  0.00     0.074 A 
ATOM     16  C   UNL A   1      37.900  32.937  32.462  1.00  0.00     0.049 A 
ATOM     17  N   UNL A   1      39.285  30.714  30.977  1.00  0.00    -0.248 NA
ATOM     18  C   UNL A   1      37.821  31.061  29.191  1.00  0.00     0.031 C 
ATOM     19  C   UNL A   1      37.240  34.001  33.226  1.00  0.00     0.029 A 
ATOM     20  N   UNL A   1      38.915  32.523  33.282  1.00  0.00    -0.354 N 
ATOM     21  C   UNL A   1      39.580  29.813  29.965  1.00  0.00     0.074 A 
ATOM     22  C   UNL A   1      38.621  30.043  28.903  1.00  0.00     0.031 C 
ATOM     23  C   UNL A   1      37.892  34.184  34.382  1.00  0.00     0.029 A 
ATOM     24  C   UNL A   1      38.965  33.201  34.475  1.00  0.00     0.049 A 
ATOM     25  H   UNL A   1      39.548  31.808  33.041  1.00  0.00     0.167 HD
ATOM     26  C   UNL A   1      40.567  28.885  29.928  1.00  0.00     0.037 A 
ATOM     27  C   UNL A   1      39.767  33.033  35.542  1.00  0.00     0.037 A 
ATOM     28  C   UNL A   1      41.513  28.672  30.994  1.00  0.00     0.049 A 
ATOM     29  C   UNL A   1      40.816  31.960  35.491  1.00  0.00     0.074 A 
ATOM     30  C   UNL A   1      42.570  27.778  31.045  1.00  0.00     0.029 A 
ATOM     31  N   UNL A   1      41.511  29.353  32.204  1.00  0.00    -0.354 N 
ATOM     32  N   UNL A   1      41.110  31.137  34.516  1.00  0.00    -0.248 NA
ATOM     33  C   UNL A   1      41.642  31.792  36.692  1.00  0.00     0.031 C 
ATOM     34  C   UNL A   1      43.166  27.876  32.306  1.00  0.00     0.029 A 
ATOM     35  C   UNL A   1      42.528  28.877  33.018  1.00  0.00     0.049 A 
ATOM     36  H   UNL A   1      40.881  30.069  32.447  1.00  0.00     0.167 HD
ATOM     37  C   UNL A   1      42.169  30.368  34.972  1.00  0.00     0.074 A 
ATOM     38  C   UNL A   1      42.479  30.839  36.307  1.00  0.00     0.031 C 
ATOM     39  C   UNL A   1      42.824  29.360  34.345  1.00  0.00     0.037 A 
BRANCH  26  40
ATOM     40  C   UNL A   1      40.664  28.015  28.707  1.00  0.00     0.064 A 
ATOM     41  C   UNL A   1      39.970  26.799  28.607  1.00  0.00     0.173 A 
ATOM     42  C   UNL A   1      41.425  28.426  27.600  1.00  0.00     0.173 A 
ATOM     43  F   UNL A   1      39.235  26.354  29.637  1.00  0.00    -0.203 F 
ATOM     44  C   UNL A   1      40.055  26.017  27.457  1.00  0.00     0.198 A 
ATOM     45  C   UNL A   1      41.482  27.656  26.441  1.00  0.00     0.198 A 
ATOM     46  F   UNL A   1      42.103  29.582  27.638  1.00  0.00    -0.203 F 
ATOM     47  F   UNL A   1      39.420  24.837  27.404  1.00  0.00    -0.200 F 
ATOM     48  C   UNL A   1      40.803  26.449  26.373  1.00  0.00     0.200 A 
ATOM     49  F   UNL A   1      42.193  28.083  25.388  1.00  0.00    -0.200 F 
ATOM     50  F   UNL A   1      40.876  25.699  25.265  1.00  0.00    -0.200 F 
ENDBRANCH  26  40
BRANCH  27  51
ATOM     51  C   UNL A   1      39.591  33.891  36.742  1.00  0.00     0.064 A 
ATOM     52  C   UNL A   1      38.793  33.474  37.816  1.00  0.00     0.173 A 
ATOM     53  C   UNL A   1      40.226  35.138  36.846  1.00  0.00     0.173 A 
ATOM     54  F   UNL A   1      38.154  32.296  37.758  1.00  0.00    -0.203 F 
ATOM     55  C   UNL A   1      38.620  34.281  38.938  1.00  0.00     0.198 A 
ATOM     56  C   UNL A   1      40.080  35.928  37.983  1.00  0.00     0.198 A 
ATOM     57  F   UNL A   1      41.008  35.580  35.849  1.00  0.00    -0.203 F 
ATOM     58  F   UNL A   1      37.814  33.880  39.930  1.00  0.00    -0.200 F 
ATOM     59  C   UNL A   1      39.270  35.504  39.023  1.00  0.00     0.200 A 
ATOM     60  F   UNL A   1      40.727  37.098  38.070  1.00  0.00    -0.200 F 
ATOM     61  F   UNL A   1      39.109  36.276  40.107  1.00  0.00    -0.200 F 
ENDBRANCH  27  51
BRANCH  39  62
ATOM     62  C   UNL A   1      43.967  28.725  35.084  1.00  0.00     0.064 A 
ATOM     63  C   UNL A   1      45.271  29.236  35.005  1.00  0.00     0.173 A 
ATOM     64  C   UNL A   1      43.746  27.609  35.905  1.00  0.00     0.173 A 
ATOM     65  F   UNL A   1      45.539  30.290  34.220  1.00  0.00    -0.203 F 
ATOM     66  C   UNL A   1      46.317  28.634  35.700  1.00  0.00     0.198 A 
ATOM     67  C   UNL A   1      44.787  27.033  36.625  1.00  0.00     0.198 A 
ATOM     68  F   UNL A   1      42.516  27.085  36.018  1.00  0.00    -0.203 F 
ATOM     69  F   UNL A   1      47.565  29.104  35.566  1.00  0.00    -0.200 F 
ATOM     70  C   UNL A   1      46.072  27.539  36.516  1.00  0.00     0.200 A 
ATOM     71  F   UNL A   1      44.546  25.984  37.425  1.00  0.00    -0.200 F 
ATOM     72  F   UNL A   1      47.079  26.967  37.189  1.00  0.00    -0.200 F 
ENDBRANCH  39  62
ENDBRANCH  13  14
ENDBRANCH   6   8
ENDBRANCH   3   4
ENDBRANCH   2   3
ENDBRANCH   1   2
BRANCH   1  73
ATOM     73  C   UNL A   1      32.333  29.980  26.919  1.00  0.00     0.002 C 
BRANCH  73  74
ATOM     74  C   UNL A   1      31.694  28.677  27.411  1.00  0.00     0.021 C 
BRANCH  74  75
ATOM     75  C   UNL A   1      31.511  27.648  26.295  1.00  0.00     0.116 C 
BRANCH  75  76
ATOM     76  N   UNL A   1      31.367  26.313  26.841  1.00  0.00    -0.355 N 
ATOM     77  C   UNL A   1      31.390  25.051  26.353  1.00  0.00     0.232 C 
ATOM     78  H   UNL A   1      31.215  26.328  27.814  1.00  0.00     0.163 HD
ATOM     79  O   UNL A   1      31.019  24.201  27.177  1.00  0.00    -0.274 OA
BRANCH  77  80
ATOM     80  C   UNL A   1      31.906  24.597  24.957  1.00  0.00     0.104 C 
ATOM     81  C   UNL A   1      33.153  25.477  24.672  1.00  0.00     0.029 C 
ATOM     82  C   UNL A   1      32.387  23.133  25.157  1.00  0.00     0.277 C 
ATOM     83  C   UNL A   1      34.071  24.907  23.594  1.00  0.00     0.063 C 
ATOM     84  N   UNL A   1      33.209  22.603  24.066  1.00  0.00    -0.345 N 
ATOM     85  C   UNL A   1      34.388  23.429  23.815  1.00  0.00     0.260 C 
ATOM     86  H   UNL A   1      33.514  21.660  24.313  1.00  0.00     0.346 HD
ATOM     87  H   UNL A   1      32.643  22.597  23.218  1.00  0.00     0.346 HD
BRANCH  80  88
ATOM     88  C   UNL A   1      30.841  24.728  23.851  1.00  0.00     0.080 C 
BRANCH  88  89
ATOM     89  C   UNL A   1      30.329  26.052  23.405  1.00  0.00     0.061 A 
ATOM     90  C   UNL A   1      30.925  27.030  22.640  1.00  0.00     0.116 A 
ATOM     91  N   UNL A   1      29.027  26.403  23.701  1.00  0.00    -0.234 NA
ATOM     92  N   UNL A   1      30.052  28.084  22.650  1.00  0.00    -0.307 N 
ATOM     93  C   UNL A   1      28.884  27.630  23.250  1.00  0.00     0.136 A 
ATOM     94  C   UNL A   1      30.230  29.389  22.201  1.00  0.00     0.093 A 
ATOM     95  C   UNL A   1      27.793  28.540  23.322  1.00  0.00     0.048 A 
ATOM     96  C   UNL A   1      29.217  30.265  22.326  1.00  0.00     0.018 A 
ATOM     97  C   UNL A   1      27.954  29.805  22.887  1.00  0.00     0.005 A 
ENDBRANCH  88  89
ENDBRANCH  80  88
ENDBRANCH  77  80
ENDBRANCH  75  76
ENDBRANCH  74  75
ENDBRANCH  73  74
ENDBRANCH   1  73
TORSDOF 15
ENDMDL
MODEL 2
REMARK VINA RESULT:     -12.7      3.826      9.130
REMARK SMILES O=C(NCCCCCCNC(=O)[C@@]1(Cc2cn3ccccc3n2)CCC[NH2+]C1)c1ccc(-c2c3nc(c(-c4c(F)c(F)c(F)c(F)c4F)c4ccc([nH]4)c(-c4c(F)c(F)c(F)c(F)c4F)c4nc(c(-c5c(F)c(F)c(F)c(F)c5F)c5ccc2[nH]5)C=C4)C=C3)cc1
REMARK SMILES IDX 6 1 5 2 4 3 3 4 1 5 2 6 29 8 30 9 91 10 31 11 90 12 32 13
REMARK SMILES IDX 33 14 34 15 84 16 35 17 89 18 83 19 85 20 36 21 88 22 82 23
REMARK SMILES IDX 81 24 37 26 69 27 49 28 68 29 50 30 53 31 67 32 86 33 51 34
REMARK SMILES IDX 52 35 66 37 87 38 54 39 38 40 39 41 47 42 40 43 41 44 45 45
REMARK SMILES IDX 48 46 42 47 43 48 46 49 44 50 70 51 71 52 79 53 72 54 73 55
REMARK SMILES IDX 77 56 80 57 74 58 75 59 78 60 76 61 55 62 56 63 64 64 57 65
REMARK SMILES IDX 58 66 62 67 65 68 59 69 60 70 63 71 61 72 7 73 8 74 9 75
REMARK SMILES IDX 10 76 11 77 12 79 13 80 24 81 28 82 25 83 27 84 26 85 14 88
REMARK SMILES IDX 15 89 16 90 23 91 17 92 22 93 18 94 21 95 19 96 20 97
REMARK H PARENT 3 7 85 25 53 36 10 78 27 86 27 87
REMARK Flexibility Score: inf
ROOT
ATOM      1  C   UNL A   1      32.166  28.536  25.055  1.00  0.00     0.002 C 
ENDROOT
BRANCH   1   2
ATOM      2  C   UNL A   1      33.595  28.013  25.219  1.00  0.00     0.021 C 
BRANCH   2   3
ATOM      3  C   UNL A   1      34.189  28.300  26.590  1.00  0.00     0.116 C 
BRANCH   3   4
ATOM      4  N   UNL A   1      33.936  29.674  26.994  1.00  0.00    -0.352 N 
ATOM      5  O   UNL A   1      34.174  31.489  28.314  1.00  0.00    -0.269 OA
ATOM      6  C   UNL A   1      34.655  30.461  27.856  1.00  0.00     0.251 C 
ATOM      7  H   UNL A   1      33.142  30.097  26.592  1.00  0.00     0.163 HD
BRANCH   6   8
ATOM      8  C   UNL A   1      36.023  30.050  28.224  1.00  0.00     0.039 A 
ATOM      9  C   UNL A   1      37.076  30.254  27.327  1.00  0.00     0.014 A 
ATOM     10  C   UNL A   1      36.257  29.479  29.476  1.00  0.00     0.014 A 
ATOM     11  C   UNL A   1      38.341  29.779  27.633  1.00  0.00     0.010 A 
ATOM     12  C   UNL A   1      37.552  29.090  29.821  1.00  0.00     0.010 A 
ATOM     13  C   UNL A   1      38.600  29.227  28.896  1.00  0.00    -0.014 A 
BRANCH  13  14
ATOM     14  C   UNL A   1      39.997  28.899  29.264  1.00  0.00     0.031 A 
ATOM     15  C   UNL A   1      40.813  29.818  30.122  1.00  0.00     0.074 A 
ATOM     16  C   UNL A   1      40.516  27.741  28.814  1.00  0.00     0.049 A 
ATOM     17  N   UNL A   1      42.054  29.687  30.520  1.00  0.00    -0.248 NA
ATOM     18  C   UNL A   1      40.159  31.049  30.590  1.00  0.00     0.031 C 
ATOM     19  C   UNL A   1      39.807  26.776  27.966  1.00  0.00     0.029 A 
ATOM     20  N   UNL A   1      41.744  27.168  29.009  1.00  0.00    -0.354 N 
ATOM     21  C   UNL A   1      42.334  30.819  31.271  1.00  0.00     0.074 A 
ATOM     22  C   UNL A   1      41.144  31.645  31.248  1.00  0.00     0.031 C 
ATOM     23  C   UNL A   1      40.596  25.716  27.749  1.00  0.00     0.029 A 
ATOM     24  C   UNL A   1      41.890  25.958  28.376  1.00  0.00     0.049 A 
ATOM     25  H   UNL A   1      42.455  27.583  29.550  1.00  0.00     0.167 HD
ATOM     26  C   UNL A   1      43.480  31.132  31.923  1.00  0.00     0.037 A 
ATOM     27  C   UNL A   1      42.957  25.145  28.285  1.00  0.00     0.037 A 
ATOM     28  C   UNL A   1      44.655  30.296  31.935  1.00  0.00     0.049 A 
ATOM     29  C   UNL A   1      44.229  25.546  28.973  1.00  0.00     0.074 A 
ATOM     30  C   UNL A   1      45.857  30.508  32.588  1.00  0.00     0.029 A 
ATOM     31  N   UNL A   1      44.779  29.094  31.252  1.00  0.00    -0.354 N 
ATOM     32  N   UNL A   1      44.473  26.601  29.710  1.00  0.00    -0.248 NA
ATOM     33  C   UNL A   1      45.375  24.643  28.815  1.00  0.00     0.031 C 
ATOM     34  C   UNL A   1      46.727  29.466  32.252  1.00  0.00     0.029 A 
ATOM     35  C   UNL A   1      46.048  28.568  31.445  1.00  0.00     0.049 A 
ATOM     36  H   UNL A   1      44.070  28.676  30.713  1.00  0.00     0.167 HD
ATOM     37  C   UNL A   1      45.791  26.481  30.123  1.00  0.00     0.074 A 
ATOM     38  C   UNL A   1      46.287  25.237  29.571  1.00  0.00     0.031 C 
ATOM     39  C   UNL A   1      46.525  27.326  30.888  1.00  0.00     0.037 A 
BRANCH  26  40
ATOM     40  C   UNL A   1      43.531  32.441  32.660  1.00  0.00     0.064 A 
ATOM     41  C   UNL A   1      43.179  32.543  34.014  1.00  0.00     0.173 A 
ATOM     42  C   UNL A   1      43.985  33.602  32.013  1.00  0.00     0.173 A 
ATOM     43  F   UNL A   1      42.730  31.468  34.678  1.00  0.00    -0.203 F 
ATOM     44  C   UNL A   1      43.254  33.762  34.685  1.00  0.00     0.198 A 
ATOM     45  C   UNL A   1      44.090  34.811  32.696  1.00  0.00     0.198 A 
ATOM     46  F   UNL A   1      44.343  33.560  30.721  1.00  0.00    -0.203 F 
ATOM     47  F   UNL A   1      42.868  33.844  35.966  1.00  0.00    -0.200 F 
ATOM     48  C   UNL A   1      43.717  34.892  34.028  1.00  0.00     0.200 A 
ATOM     49  F   UNL A   1      44.552  35.899  32.063  1.00  0.00    -0.200 F 
ATOM     50  F   UNL A   1      43.798  36.061  34.679  1.00  0.00    -0.200 F 
ENDBRANCH  26  40
BRANCH  27  51
ATOM     51  C   UNL A   1      42.862  23.887  27.500  1.00  0.00     0.064 A 
ATOM     52  C   UNL A   1      42.404  22.701  28.090  1.00  0.00     0.173 A 
ATOM     53  C   UNL A   1      43.215  23.847  26.142  1.00  0.00     0.173 A 
ATOM     54  F   UNL A   1      42.069  22.686  29.388  1.00  0.00    -0.203 F 
ATOM     55  C   UNL A   1      42.323  21.519  27.358  1.00  0.00     0.198 A 
ATOM     56  C   UNL A   1      43.101  22.672  25.402  1.00  0.00     0.198 A 
ATOM     57  F   UNL A   1      43.652  24.956  25.527  1.00  0.00    -0.203 F 
ATOM     58  F   UNL A   1      41.927  20.389  27.958  1.00  0.00    -0.200 F 
ATOM     59  C   UNL A   1      42.665  21.508  26.013  1.00  0.00     0.200 A 
ATOM     60  F   UNL A   1      43.411  22.672  24.099  1.00  0.00    -0.200 F 
ATOM     61  F   UNL A   1      42.578  20.371  25.308  1.00  0.00    -0.200 F 
ENDBRANCH  27  51
BRANCH  39  62
ATOM     62  C   UNL A   1      47.933  26.911  31.203  1.00  0.00     0.064 A 
ATOM     63  C   UNL A   1      49.023  27.362  30.444  1.00  0.00     0.173 A 
ATOM     64  C   UNL A   1      48.196  26.075  32.300  1.00  0.00     0.173 A 
ATOM     65  F   UNL A   1      48.824  28.149  29.376  1.00  0.00    -0.203 F 
ATOM     66  C   UNL A   1      50.322  26.968  30.755  1.00  0.00     0.198 A 
ATOM     67  C   UNL A   1      49.498  25.712  32.627  1.00  0.00     0.198 A 
ATOM     68  F   UNL A   1      47.189  25.619  33.060  1.00  0.00    -0.203 F 
ATOM     69  F   UNL A   1      51.342  27.365  29.982  1.00  0.00    -0.200 F 
ATOM     70  C   UNL A   1      50.559  26.151  31.850  1.00  0.00     0.200 A 
ATOM     71  F   UNL A   1      49.727  24.935  33.696  1.00  0.00    -0.200 F 
ATOM     72  F   UNL A   1      51.811  25.780  32.151  1.00  0.00    -0.200 F 
ENDBRANCH  39  62
ENDBRANCH  13  14
ENDBRANCH   6   8
ENDBRANCH   3   4
ENDBRANCH   2   3
ENDBRANCH   1   2
BRANCH   1  73
ATOM     73  C   UNL A   1      31.097  27.442  24.914  1.00  0.00     0.002 C 
BRANCH  73  74
ATOM     74  C   UNL A   1      30.944  26.537  26.142  1.00  0.00     0.021 C 
BRANCH  74  75
ATOM     75  C   UNL A   1      30.874  25.054  25.780  1.00  0.00     0.116 C 
BRANCH  75  76
ATOM     76  N   UNL A   1      31.344  24.232  26.878  1.00  0.00    -0.355 N 
ATOM     77  C   UNL A   1      32.314  23.306  27.057  1.00  0.00     0.232 C 
ATOM     78  H   UNL A   1      30.826  24.386  27.701  1.00  0.00     0.163 HD
ATOM     79  O   UNL A   1      32.223  22.706  28.140  1.00  0.00    -0.274 OA
BRANCH  77  80
ATOM     80  C   UNL A   1      33.520  23.019  26.116  1.00  0.00     0.104 C 
ATOM     81  C   UNL A   1      34.095  24.412  25.747  1.00  0.00     0.029 C 
ATOM     82  C   UNL A   1      34.565  22.288  27.004  1.00  0.00     0.277 C 
ATOM     83  C   UNL A   1      35.526  24.362  25.217  1.00  0.00     0.063 C 
ATOM     84  N   UNL A   1      35.908  22.203  26.427  1.00  0.00    -0.345 N 
ATOM     85  C   UNL A   1      36.448  23.520  26.096  1.00  0.00     0.260 C 
ATOM     86  H   UNL A   1      36.528  21.753  27.102  1.00  0.00     0.346 HD
ATOM     87  H   UNL A   1      35.848  21.662  25.564  1.00  0.00     0.346 HD
BRANCH  80  88
ATOM     88  C   UNL A   1      33.126  22.206  24.867  1.00  0.00     0.080 C 
BRANCH  88  89
ATOM     89  C   UNL A   1      33.206  20.721  24.839  1.00  0.00     0.061 A 
ATOM     90  C   UNL A   1      32.240  19.768  25.072  1.00  0.00     0.116 A 
ATOM     91  N   UNL A   1      34.388  20.120  24.451  1.00  0.00    -0.234 NA
ATOM     92  N   UNL A   1      32.897  18.567  25.036  1.00  0.00    -0.307 N 
ATOM     93  C   UNL A   1      34.185  18.828  24.588  1.00  0.00     0.136 A 
ATOM     94  C   UNL A   1      32.448  17.299  25.392  1.00  0.00     0.093 A 
ATOM     95  C   UNL A   1      35.051  17.714  24.409  1.00  0.00     0.048 A 
ATOM     96  C   UNL A   1      33.288  16.255  25.279  1.00  0.00     0.018 A 
ATOM     97  C   UNL A   1      34.625  16.481  24.747  1.00  0.00     0.005 A 
ENDBRANCH  88  89
ENDBRANCH  80  88
ENDBRANCH  77  80
ENDBRANCH  75  76
ENDBRANCH  74  75
ENDBRANCH  73  74
ENDBRANCH   1  73
TORSDOF 15
ENDMDL
MODEL 3
REMARK VINA RESULT:     -12.6      5.691     11.348
REMARK SMILES O=C(NCCCCCCNC(=O)[C@@]1(Cc2cn3ccccc3n2)CCC[NH2+]C1)c1ccc(-c2c3nc(c(-c4c(F)c(F)c(F)c(F)c4F)c4ccc([nH]4)c(-c4c(F)c(F)c(F)c(F)c4F)c4nc(c(-c5c(F)c(F)c(F)c(F)c5F)c5ccc2[nH]5)C=C4)C=C3)cc1
REMARK SMILES IDX 6 1 5 2 4 3 3 4 1 5 2 6 29 8 30 9 91 10 31 11 90 12 32 13
REMARK SMILES IDX 33 14 34 15 84 16 35 17 89 18 83 19 85 20 36 21 88 22 82 23
REMARK SMILES IDX 81 24 37 26 69 27 49 28 68 29 50 30 53 31 67 32 86 33 51 34
REMARK SMILES IDX 52 35 66 37 87 38 54 39 38 40 39 41 47 42 40 43 41 44 45 45
REMARK SMILES IDX 48 46 42 47 43 48 46 49 44 50 70 51 71 52 79 53 72 54 73 55
REMARK SMILES IDX 77 56 80 57 74 58 75 59 78 60 76 61 55 62 56 63 64 64 57 65
REMARK SMILES IDX 58 66 62 67 65 68 59 69 60 70 63 71 61 72 7 73 8 74 9 75
REMARK SMILES IDX 10 76 11 77 12 79 13 80 24 81 28 82 25 83 27 84 26 85 14 88
REMARK SMILES IDX 15 89 16 90 23 91 17 92 22 93 18 94 21 95 19 96 20 97
REMARK H PARENT 3 7 85 25 53 36 10 78 27 86 27 87
REMARK Flexibility Score: inf
ROOT
ATOM      1  C   UNL A   1      37.138  20.546  25.001  1.00  0.00     0.002 C 
ENDROOT
BRANCH   1   2
ATOM      2  C   UNL A   1      38.375  19.645  25.001  1.00  0.00     0.021 C 
BRANCH   2   3
ATOM      3  C   UNL A   1      39.364  19.977  26.109  1.00  0.00     0.116 C 
BRANCH   3   4
ATOM      4  N   UNL A   1      40.468  19.031  26.126  1.00  0.00    -0.352 N 
ATOM      5  O   UNL A   1      42.612  18.391  25.826  1.00  0.00    -0.269 OA
ATOM      6  C   UNL A   1      41.815  19.283  26.086  1.00  0.00     0.251 C 
ATOM      7  H   UNL A   1      40.214  18.080  26.174  1.00  0.00     0.163 HD
BRANCH   6   8
ATOM      8  C   UNL A   1      42.293  20.651  26.365  1.00  0.00     0.039 A 
ATOM      9  C   UNL A   1      42.484  21.549  25.312  1.00  0.00     0.014 A 
ATOM     10  C   UNL A   1      42.529  21.040  27.684  1.00  0.00     0.014 A 
ATOM     11  C   UNL A   1      43.025  22.800  25.565  1.00  0.00     0.010 A 
ATOM     12  C   UNL A   1      42.982  22.335  27.945  1.00  0.00     0.010 A 
ATOM     13  C   UNL A   1      43.243  23.218  26.886  1.00  0.00    -0.014 A 
BRANCH  13  14
ATOM     14  C   UNL A   1      43.646  24.621  27.138  1.00  0.00     0.031 A 
ATOM     15  C   UNL A   1      42.677  25.622  27.692  1.00  0.00     0.074 A 
ATOM     16  C   UNL A   1      44.916  24.975  26.864  1.00  0.00     0.049 A 
ATOM     17  N   UNL A   1      42.865  26.892  27.953  1.00  0.00    -0.248 NA
ATOM     18  C   UNL A   1      41.319  25.143  27.985  1.00  0.00     0.031 C 
ATOM     19  C   UNL A   1      45.939  24.078  26.315  1.00  0.00     0.029 A 
ATOM     20  N   UNL A   1      45.571  26.168  27.016  1.00  0.00    -0.354 N 
ATOM     21  C   UNL A   1      41.650  27.366  28.426  1.00  0.00     0.074 A 
ATOM     22  C   UNL A   1      40.720  26.256  28.387  1.00  0.00     0.031 C 
ATOM     23  C   UNL A   1      47.099  24.740  26.217  1.00  0.00     0.029 A 
ATOM     24  C   UNL A   1      46.885  26.124  26.621  1.00  0.00     0.049 A 
ATOM     25  H   UNL A   1      45.142  26.979  27.374  1.00  0.00     0.167 HD
ATOM     26  C   UNL A   1      41.347  28.614  28.859  1.00  0.00     0.037 A 
ATOM     27  C   UNL A   1      47.811  27.098  26.562  1.00  0.00     0.037 A 
ATOM     28  C   UNL A   1      42.287  29.707  28.891  1.00  0.00     0.049 A 
ATOM     29  C   UNL A   1      47.429  28.482  26.997  1.00  0.00     0.074 A 
ATOM     30  C   UNL A   1      42.089  31.002  29.338  1.00  0.00     0.029 A 
ATOM     31  N   UNL A   1      43.602  29.635  28.449  1.00  0.00    -0.354 N 
ATOM     32  N   UNL A   1      46.288  28.913  27.476  1.00  0.00    -0.248 NA
ATOM     33  C   UNL A   1      48.462  29.517  26.880  1.00  0.00     0.031 C 
ATOM     34  C   UNL A   1      43.262  31.728  29.110  1.00  0.00     0.029 A 
ATOM     35  C   UNL A   1      44.215  30.871  28.584  1.00  0.00     0.049 A 
ATOM     36  H   UNL A   1      44.033  28.826  28.092  1.00  0.00     0.167 HD
ATOM     37  C   UNL A   1      46.470  30.262  27.741  1.00  0.00     0.074 A 
ATOM     38  C   UNL A   1      47.841  30.572  27.387  1.00  0.00     0.031 C 
ATOM     39  C   UNL A   1      45.583  31.162  28.229  1.00  0.00     0.037 A 
BRANCH  26  40
ATOM     40  C   UNL A   1      39.938  28.875  29.312  1.00  0.00     0.064 A 
ATOM     41  C   UNL A   1      38.941  29.303  28.422  1.00  0.00     0.173 A 
ATOM     42  C   UNL A   1      39.568  28.647  30.647  1.00  0.00     0.173 A 
ATOM     43  F   UNL A   1      39.242  29.545  27.137  1.00  0.00    -0.203 F 
ATOM     44  C   UNL A   1      37.635  29.518  28.857  1.00  0.00     0.198 A 
ATOM     45  C   UNL A   1      38.255  28.832  31.071  1.00  0.00     0.198 A 
ATOM     46  F   UNL A   1      40.478  28.229  31.540  1.00  0.00    -0.203 F 
ATOM     47  F   UNL A   1      36.712  29.972  27.998  1.00  0.00    -0.200 F 
ATOM     48  C   UNL A   1      37.291  29.275  30.177  1.00  0.00     0.200 A 
ATOM     49  F   UNL A   1      37.920  28.582  32.344  1.00  0.00    -0.200 F 
ATOM     50  F   UNL A   1      36.032  29.473  30.591  1.00  0.00    -0.200 F 
ENDBRANCH  26  40
BRANCH  27  51
ATOM     51  C   UNL A   1      49.174  26.792  26.057  1.00  0.00     0.064 A 
ATOM     52  C   UNL A   1      49.508  26.994  24.711  1.00  0.00     0.173 A 
ATOM     53  C   UNL A   1      50.175  26.302  26.911  1.00  0.00     0.173 A 
ATOM     54  F   UNL A   1      48.582  27.447  23.853  1.00  0.00    -0.203 F 
ATOM     55  C   UNL A   1      50.783  26.700  24.234  1.00  0.00     0.198 A 
ATOM     56  C   UNL A   1      51.459  26.040  26.440  1.00  0.00     0.198 A 
ATOM     57  F   UNL A   1      49.910  26.098  28.210  1.00  0.00    -0.203 F 
ATOM     58  F   UNL A   1      51.062  26.858  22.934  1.00  0.00    -0.200 F 
ATOM     59  C   UNL A   1      51.759  26.230  25.101  1.00  0.00     0.200 A 
ATOM     60  F   UNL A   1      52.404  25.608  27.285  1.00  0.00    -0.200 F 
ATOM     61  F   UNL A   1      52.988  25.954  24.642  1.00  0.00    -0.200 F 
ENDBRANCH  27  51
BRANCH  39  62
ATOM     62  C   UNL A   1      46.081  32.562  28.445  1.00  0.00     0.064 A 
ATOM     63  C   UNL A   1      45.945  33.554  27.462  1.00  0.00     0.173 A 
ATOM     64  C   UNL A   1      46.674  32.922  29.665  1.00  0.00     0.173 A 
ATOM     65  F   UNL A   1      45.401  33.257  26.272  1.00  0.00    -0.203 F 
ATOM     66  C   UNL A   1      46.411  34.847  27.683  1.00  0.00     0.198 A 
ATOM     67  C   UNL A   1      47.106  34.224  29.894  1.00  0.00     0.198 A 
ATOM     68  F   UNL A   1      46.824  32.012  30.639  1.00  0.00    -0.203 F 
ATOM     69  F   UNL A   1      46.322  35.764  26.710  1.00  0.00    -0.200 F 
ATOM     70  C   UNL A   1      46.983  35.183  28.901  1.00  0.00     0.200 A 
ATOM     71  F   UNL A   1      47.645  34.551  31.078  1.00  0.00    -0.200 F 
ATOM     72  F   UNL A   1      47.423  36.430  29.114  1.00  0.00    -0.200 F 
ENDBRANCH  39  62
ENDBRANCH  13  14
ENDBRANCH   6   8
ENDBRANCH   3   4
ENDBRANCH   2   3
ENDBRANCH   1   2
BRANCH   1  73
ATOM     73  C   UNL A   1      37.386  21.975  24.498  1.00  0.00     0.002 C 
BRANCH  73  74
ATOM     74  C   UNL A   1      37.180  23.068  25.552  1.00  0.00     0.021 C 
BRANCH  74  75
ATOM     75  C   UNL A   1      35.763  23.640  25.542  1.00  0.00     0.116 C 
BRANCH  75  76
ATOM     76  N   UNL A   1      35.238  23.701  24.192  1.00  0.00    -0.355 N 
ATOM     77  C   UNL A   1      34.016  23.628  23.616  1.00  0.00     0.232 C 
ATOM     78  H   UNL A   1      35.952  23.826  23.525  1.00  0.00     0.163 HD
ATOM     79  O   UNL A   1      34.064  23.532  22.380  1.00  0.00    -0.274 OA
BRANCH  77  80
ATOM     80  C   UNL A   1      32.637  23.748  24.328  1.00  0.00     0.104 C 
ATOM     81  C   UNL A   1      32.698  25.081  25.122  1.00  0.00     0.029 C 
ATOM     82  C   UNL A   1      31.601  23.919  23.182  1.00  0.00     0.277 C 
ATOM     83  C   UNL A   1      31.326  25.620  25.517  1.00  0.00     0.063 C 
ATOM     84  N   UNL A   1      30.277  24.373  23.614  1.00  0.00    -0.345 N 
ATOM     85  C   UNL A   1      30.342  25.635  24.348  1.00  0.00     0.260 C 
ATOM     86  H   UNL A   1      29.689  24.501  22.790  1.00  0.00     0.346 HD
ATOM     87  H   UNL A   1      29.890  23.666  24.238  1.00  0.00     0.346 HD
BRANCH  80  88
ATOM     88  C   UNL A   1      32.326  22.545  25.238  1.00  0.00     0.080 C 
BRANCH  88  89
ATOM     89  C   UNL A   1      32.715  21.158  24.869  1.00  0.00     0.061 A 
ATOM     90  C   UNL A   1      33.621  20.298  25.450  1.00  0.00     0.116 A 
ATOM     91  N   UNL A   1      32.054  20.529  23.832  1.00  0.00    -0.234 NA
ATOM     92  N   UNL A   1      33.668  19.207  24.624  1.00  0.00    -0.307 N 
ATOM     93  C   UNL A   1      32.649  19.364  23.694  1.00  0.00     0.136 A 
ATOM     94  C   UNL A   1      34.548  18.129  24.628  1.00  0.00     0.093 A 
ATOM     95  C   UNL A   1      32.458  18.314  22.754  1.00  0.00     0.048 A 
ATOM     96  C   UNL A   1      34.403  17.167  23.699  1.00  0.00     0.018 A 
ATOM     97  C   UNL A   1      33.302  17.264  22.751  1.00  0.00     0.005 A 
ENDBRANCH  88  89
ENDBRANCH  80  88
ENDBRANCH  77  80
ENDBRANCH  75  76
ENDBRANCH  74  75
ENDBRANCH  73  74
ENDBRANCH   1  73
TORSDOF 15
ENDMDL
