MODEL 1
REMARK VINA RESULT:     -11.5      0.000      0.000
REMARK SMILES CCC[C@H](C)NC(=O)C[NH+]1CC(n2cc(C(=O)NCCCCCCNC(=O)c3ccc(-c4c5nc(c(-c6c(F)c(F)c(F)c(F)c6F)c6ccc([nH]6)c(-c6c(F)c(F)c(F)c(F)c6F)c6nc(c(-c7c(F)c(F)c(F)c(F)c7F)c7ccc4[nH]7)C=C6)C=C5)cc3)nn2)C1
REMARK SMILES IDX 19 1 18 2 16 3 17 4 15 6 13 7 14 8 92 9 91 10 12 11 10 12
REMARK SMILES IDX 11 13 93 14 9 16 7 17 6 18 8 20 4 21 5 22 3 23 2 24 1 25
REMARK SMILES IDX 20 26 21 27 22 28 23 29 24 30 25 31 26 32 27 34 28 35 29 36
REMARK SMILES IDX 90 37 30 38 89 39 31 40 32 41 33 42 83 43 34 44 88 45 82 46
REMARK SMILES IDX 84 47 35 48 87 49 81 50 80 51 36 53 68 54 48 55 67 56 49 57
REMARK SMILES IDX 52 58 66 59 85 60 50 61 51 62 65 64 86 65 53 66 37 67 38 68
REMARK SMILES IDX 46 69 39 70 40 71 44 72 47 73 41 74 42 75 45 76 43 77 69 78
REMARK SMILES IDX 70 79 78 80 71 81 72 82 76 83 79 84 73 85 74 86 77 87 75 88
REMARK SMILES IDX 54 89 55 90 63 91 56 92 57 93 61 94 64 95 58 96 59 97 62 98
REMARK SMILES IDX 60 99
REMARK H PARENT 18 5 10 15 6 19 25 33 84 52 52 63
REMARK Flexibility Score: inf
ROOT
ATOM      1  C   UNL A   1      32.993  29.090  24.525  1.00  0.00     0.116 C 
ENDROOT
BRANCH   1   2
ATOM      2  N   UNL A   1      32.023  29.329  23.479  1.00  0.00    -0.351 N 
ATOM      3  C   UNL A   1      31.212  28.482  22.762  1.00  0.00     0.273 C 
ATOM      4  O   UNL A   1      30.389  29.017  22.020  1.00  0.00    -0.267 OA
ATOM      5  H   UNL A   1      31.925  30.277  23.234  1.00  0.00     0.163 HD
BRANCH   3   6
ATOM      6  C   UNL A   1      31.296  27.031  22.892  1.00  0.00     0.170 A 
ATOM      7  N   UNL A   1      31.150  24.911  23.370  1.00  0.00    -0.237 N 
ATOM      8  C   UNL A   1      30.678  26.142  23.754  1.00  0.00     0.145 A 
ATOM      9  N   UNL A   1      32.029  25.023  22.368  1.00  0.00    -0.066 NA
ATOM     10  N   UNL A   1      32.150  26.311  22.083  1.00  0.00    -0.125 NA
BRANCH   7  11
ATOM     11  C   UNL A   1      30.741  23.664  23.940  1.00  0.00     0.218 C 
ATOM     12  N   UNL A   1      31.547  22.114  25.095  1.00  0.00    -0.323 N 
ATOM     13  C   UNL A   1      31.043  23.465  25.446  1.00  0.00     0.296 C 
ATOM     14  C   UNL A   1      31.798  22.564  23.719  1.00  0.00     0.296 C 
ATOM     15  H   UNL A   1      30.965  21.298  25.285  1.00  0.00     0.348 HD
BRANCH  12  16
ATOM     16  C   UNL A   1      32.754  21.665  25.816  1.00  0.00     0.363 C 
BRANCH  16  17
ATOM     17  C   UNL A   1      33.254  22.493  27.000  1.00  0.00     0.275 C 
ATOM     18  N   UNL A   1      34.313  23.344  26.880  1.00  0.00    -0.349 N 
ATOM     19  H   UNL A   1      34.647  23.705  27.732  1.00  0.00     0.163 HD
ATOM     20  O   UNL A   1      32.743  22.378  28.118  1.00  0.00    -0.268 OA
BRANCH  18  21
ATOM     21  C   UNL A   1      35.034  23.808  25.701  1.00  0.00     0.079 C 
ATOM     22  C   UNL A   1      34.434  25.144  25.255  1.00  0.00     0.031 C 
BRANCH  21  23
ATOM     23  C   UNL A   1      36.537  23.959  25.977  1.00  0.00     0.024 C 
BRANCH  23  24
ATOM     24  C   UNL A   1      37.420  23.067  25.098  1.00  0.00    -0.001 C 
ATOM     25  C   UNL A   1      36.673  22.444  23.925  1.00  0.00     0.004 C 
ENDBRANCH  23  24
ENDBRANCH  21  23
ENDBRANCH  18  21
ENDBRANCH  16  17
ENDBRANCH  12  16
ENDBRANCH   7  11
ENDBRANCH   3   6
ENDBRANCH   1   2
BRANCH   1  26
ATOM     26  C   UNL A   1      32.331  29.088  25.903  1.00  0.00     0.021 C 
BRANCH  26  27
ATOM     27  C   UNL A   1      31.624  30.401  26.271  1.00  0.00     0.002 C 
BRANCH  27  28
ATOM     28  C   UNL A   1      32.457  31.422  27.062  1.00  0.00     0.002 C 
BRANCH  28  29
ATOM     29  C   UNL A   1      33.845  30.956  27.521  1.00  0.00     0.021 C 
BRANCH  29  30
ATOM     30  C   UNL A   1      34.824  32.092  27.785  1.00  0.00     0.116 C 
BRANCH  30  31
ATOM     31  N   UNL A   1      34.789  32.548  29.170  1.00  0.00    -0.352 N 
ATOM     32  C   UNL A   1      35.454  32.020  30.256  1.00  0.00     0.251 C 
ATOM     33  H   UNL A   1      34.219  33.330  29.352  1.00  0.00     0.163 HD
ATOM     34  O   UNL A   1      35.087  32.265  31.398  1.00  0.00    -0.269 OA
BRANCH  32  35
ATOM     35  C   UNL A   1      36.600  31.125  30.021  1.00  0.00     0.039 A 
ATOM     36  C   UNL A   1      37.888  31.652  29.921  1.00  0.00     0.014 A 
ATOM     37  C   UNL A   1      36.386  29.750  29.945  1.00  0.00     0.014 A 
ATOM     38  C   UNL A   1      38.970  30.779  29.847  1.00  0.00     0.010 A 
ATOM     39  C   UNL A   1      37.463  28.886  29.982  1.00  0.00     0.010 A 
ATOM     40  C   UNL A   1      38.762  29.389  29.919  1.00  0.00    -0.014 A 
BRANCH  40  41
ATOM     41  C   UNL A   1      39.917  28.497  30.067  1.00  0.00     0.031 A 
ATOM     42  C   UNL A   1      40.417  28.332  31.463  1.00  0.00     0.074 A 
ATOM     43  C   UNL A   1      40.431  27.721  29.088  1.00  0.00     0.049 A 
ATOM     44  N   UNL A   1      41.579  28.660  31.924  1.00  0.00    -0.248 NA
ATOM     45  C   UNL A   1      39.495  27.818  32.488  1.00  0.00     0.031 C 
ATOM     46  C   UNL A   1      39.917  27.532  27.728  1.00  0.00     0.029 A 
ATOM     47  N   UNL A   1      41.495  26.861  29.134  1.00  0.00    -0.354 N 
ATOM     48  C   UNL A   1      41.604  28.245  33.254  1.00  0.00     0.074 A 
ATOM     49  C   UNL A   1      40.260  27.847  33.581  1.00  0.00     0.031 C 
ATOM     50  C   UNL A   1      40.521  26.467  27.159  1.00  0.00     0.029 A 
ATOM     51  C   UNL A   1      41.591  26.024  28.033  1.00  0.00     0.049 A 
ATOM     52  H   UNL A   1      42.135  26.838  29.883  1.00  0.00     0.167 HD
ATOM     53  C   UNL A   1      42.786  28.052  33.900  1.00  0.00     0.037 A 
ATOM     54  C   UNL A   1      42.498  25.046  27.808  1.00  0.00     0.037 A 
ATOM     55  C   UNL A   1      43.881  28.643  33.179  1.00  0.00     0.049 A 
ATOM     56  C   UNL A   1      43.712  25.357  28.591  1.00  0.00     0.074 A 
ATOM     57  C   UNL A   1      44.401  29.904  32.997  1.00  0.00     0.029 A 
ATOM     58  N   UNL A   1      44.407  27.841  32.204  1.00  0.00    -0.354 N 
ATOM     59  N   UNL A   1      44.480  26.381  28.343  1.00  0.00    -0.248 NA
ATOM     60  C   UNL A   1      43.950  24.690  29.865  1.00  0.00     0.031 C 
ATOM     61  C   UNL A   1      45.103  29.872  31.754  1.00  0.00     0.029 A 
ATOM     62  C   UNL A   1      45.005  28.587  31.224  1.00  0.00     0.049 A 
ATOM     63  H   UNL A   1      44.362  26.857  32.207  1.00  0.00     0.167 HD
ATOM     64  C   UNL A   1      44.970  26.740  29.580  1.00  0.00     0.074 A 
ATOM     65  C   UNL A   1      44.784  25.570  30.425  1.00  0.00     0.031 C 
ATOM     66  C   UNL A   1      45.167  28.051  29.893  1.00  0.00     0.037 A 
BRANCH  53  67
ATOM     67  C   UNL A   1      43.047  26.969  34.925  1.00  0.00     0.064 A 
ATOM     68  C   UNL A   1      43.275  27.330  36.270  1.00  0.00     0.173 A 
ATOM     69  C   UNL A   1      43.413  25.651  34.580  1.00  0.00     0.173 A 
ATOM     70  F   UNL A   1      42.989  28.567  36.704  1.00  0.00    -0.203 F 
ATOM     71  C   UNL A   1      43.886  26.458  37.177  1.00  0.00     0.198 A 
ATOM     72  C   UNL A   1      43.977  24.767  35.501  1.00  0.00     0.198 A 
ATOM     73  F   UNL A   1      43.351  25.206  33.319  1.00  0.00    -0.203 F 
ATOM     74  F   UNL A   1      44.190  26.884  38.412  1.00  0.00    -0.200 F 
ATOM     75  C   UNL A   1      44.240  25.179  36.790  1.00  0.00     0.200 A 
ATOM     76  F   UNL A   1      44.336  23.540  35.100  1.00  0.00    -0.200 F 
ATOM     77  F   UNL A   1      44.878  24.362  37.639  1.00  0.00    -0.200 F 
ENDBRANCH  53  67
BRANCH  54  78
ATOM     78  C   UNL A   1      42.347  23.804  27.027  1.00  0.00     0.064 A 
ATOM     79  C   UNL A   1      43.392  23.298  26.239  1.00  0.00     0.173 A 
ATOM     80  C   UNL A   1      41.256  22.946  27.258  1.00  0.00     0.173 A 
ATOM     81  F   UNL A   1      44.482  24.044  26.001  1.00  0.00    -0.203 F 
ATOM     82  C   UNL A   1      43.363  21.994  25.739  1.00  0.00     0.198 A 
ATOM     83  C   UNL A   1      41.226  21.645  26.755  1.00  0.00     0.198 A 
ATOM     84  F   UNL A   1      40.244  23.325  28.054  1.00  0.00    -0.203 F 
ATOM     85  F   UNL A   1      44.407  21.521  25.045  1.00  0.00    -0.200 F 
ATOM     86  C   UNL A   1      42.287  21.164  26.010  1.00  0.00     0.200 A 
ATOM     87  F   UNL A   1      40.194  20.842  27.053  1.00  0.00    -0.200 F 
ATOM     88  F   UNL A   1      42.289  19.892  25.589  1.00  0.00    -0.200 F 
ENDBRANCH  54  78
BRANCH  66  89
ATOM     89  C   UNL A   1      45.366  28.998  28.753  1.00  0.00     0.064 A 
ATOM     90  C   UNL A   1      44.332  29.718  28.133  1.00  0.00     0.173 A 
ATOM     91  C   UNL A   1      46.671  29.211  28.291  1.00  0.00     0.173 A 
ATOM     92  F   UNL A   1      43.070  29.627  28.571  1.00  0.00    -0.203 F 
ATOM     93  C   UNL A   1      44.590  30.572  27.063  1.00  0.00     0.198 A 
ATOM     94  C   UNL A   1      46.932  30.091  27.247  1.00  0.00     0.198 A 
ATOM     95  F   UNL A   1      47.701  28.580  28.877  1.00  0.00    -0.203 F 
ATOM     96  F   UNL A   1      43.583  31.226  26.465  1.00  0.00    -0.200 F 
ATOM     97  C   UNL A   1      45.891  30.760  26.623  1.00  0.00     0.200 A 
ATOM     98  F   UNL A   1      48.194  30.298  26.851  1.00  0.00    -0.200 F 
ATOM     99  F   UNL A   1      46.143  31.598  25.608  1.00  0.00    -0.200 F 
ENDBRANCH  66  89
ENDBRANCH  40  41
ENDBRANCH  32  35
ENDBRANCH  30  31
ENDBRANCH  29  30
ENDBRANCH  28  29
ENDBRANCH  27  28
ENDBRANCH  26  27
ENDBRANCH   1  26
TORSDOF 19
ENDMDL
MODEL 2
REMARK VINA RESULT:     -11.4      2.729      8.801
REMARK SMILES CCC[C@H](C)NC(=O)C[NH+]1CC(n2cc(C(=O)NCCCCCCNC(=O)c3ccc(-c4c5nc(c(-c6c(F)c(F)c(F)c(F)c6F)c6ccc([nH]6)c(-c6c(F)c(F)c(F)c(F)c6F)c6nc(c(-c7c(F)c(F)c(F)c(F)c7F)c7ccc4[nH]7)C=C6)C=C5)cc3)nn2)C1
REMARK SMILES IDX 19 1 18 2 16 3 17 4 15 6 13 7 14 8 92 9 91 10 12 11 10 12
REMARK SMILES IDX 11 13 93 14 9 16 7 17 6 18 8 20 4 21 5 22 3 23 2 24 1 25
REMARK SMILES IDX 20 26 21 27 22 28 23 29 24 30 25 31 26 32 27 34 28 35 29 36
REMARK SMILES IDX 90 37 30 38 89 39 31 40 32 41 33 42 83 43 34 44 88 45 82 46
REMARK SMILES IDX 84 47 35 48 87 49 81 50 80 51 36 53 68 54 48 55 67 56 49 57
REMARK SMILES IDX 52 58 66 59 85 60 50 61 51 62 65 64 86 65 53 66 37 67 38 68
REMARK SMILES IDX 46 69 39 70 40 71 44 72 47 73 41 74 42 75 45 76 43 77 69 78
REMARK SMILES IDX 70 79 78 80 71 81 72 82 76 83 79 84 73 85 74 86 77 87 75 88
REMARK SMILES IDX 54 89 55 90 63 91 56 92 57 93 61 94 64 95 58 96 59 97 62 98
REMARK SMILES IDX 60 99
REMARK H PARENT 18 5 10 15 6 19 25 33 84 52 52 63
REMARK Flexibility Score: inf
ROOT
ATOM      1  C   UNL A   1      36.655  20.928  25.208  1.00  0.00     0.116 C 
ENDROOT
BRANCH   1   2
ATOM      2  N   UNL A   1      36.043  21.511  26.381  1.00  0.00    -0.351 N 
ATOM      3  C   UNL A   1      34.796  22.047  26.601  1.00  0.00     0.273 C 
ATOM      4  O   UNL A   1      34.531  22.346  27.765  1.00  0.00    -0.267 OA
ATOM      5  H   UNL A   1      36.629  21.528  27.171  1.00  0.00     0.163 HD
BRANCH   3   6
ATOM      6  C   UNL A   1      33.824  22.223  25.526  1.00  0.00     0.170 A 
ATOM      7  N   UNL A   1      32.514  22.854  23.905  1.00  0.00    -0.237 N 
ATOM      8  C   UNL A   1      33.481  23.322  24.760  1.00  0.00     0.145 A 
ATOM      9  N   UNL A   1      32.242  21.567  24.146  1.00  0.00    -0.066 NA
ATOM     10  N   UNL A   1      33.012  21.174  25.149  1.00  0.00    -0.125 NA
BRANCH   7  11
ATOM     11  C   UNL A   1      31.893  23.625  22.872  1.00  0.00     0.218 C 
ATOM     12  N   UNL A   1      30.888  25.448  22.647  1.00  0.00    -0.323 N 
ATOM     13  C   UNL A   1      32.328  25.107  22.764  1.00  0.00     0.296 C 
ATOM     14  C   UNL A   1      30.534  24.194  23.327  1.00  0.00     0.296 C 
ATOM     15  H   UNL A   1      30.501  25.679  21.732  1.00  0.00     0.348 HD
BRANCH  12  16
ATOM     16  C   UNL A   1      30.451  26.667  23.357  1.00  0.00     0.363 C 
BRANCH  16  17
ATOM     17  C   UNL A   1      30.674  28.025  22.691  1.00  0.00     0.275 C 
ATOM     18  N   UNL A   1      31.821  28.735  22.886  1.00  0.00    -0.349 N 
ATOM     19  H   UNL A   1      31.796  29.656  22.541  1.00  0.00     0.163 HD
ATOM     20  O   UNL A   1      29.796  28.545  21.995  1.00  0.00    -0.268 OA
BRANCH  18  21
ATOM     21  C   UNL A   1      33.080  28.360  23.518  1.00  0.00     0.079 C 
ATOM     22  C   UNL A   1      34.221  28.630  22.534  1.00  0.00     0.031 C 
BRANCH  21  23
ATOM     23  C   UNL A   1      33.308  29.124  24.830  1.00  0.00     0.024 C 
BRANCH  23  24
ATOM     24  C   UNL A   1      32.732  28.423  26.063  1.00  0.00    -0.001 C 
ATOM     25  C   UNL A   1      33.415  28.828  27.364  1.00  0.00     0.004 C 
ENDBRANCH  23  24
ENDBRANCH  21  23
ENDBRANCH  18  21
ENDBRANCH  16  17
ENDBRANCH  12  16
ENDBRANCH   7  11
ENDBRANCH   3   6
ENDBRANCH   1   2
BRANCH   1  26
ATOM     26  C   UNL A   1      38.102  21.398  25.048  1.00  0.00     0.021 C 
BRANCH  26  27
ATOM     27  C   UNL A   1      38.621  22.261  26.209  1.00  0.00     0.002 C 
BRANCH  27  28
ATOM     28  C   UNL A   1      39.976  21.850  26.807  1.00  0.00     0.002 C 
BRANCH  28  29
ATOM     29  C   UNL A   1      40.531  20.491  26.360  1.00  0.00     0.021 C 
BRANCH  29  30
ATOM     30  C   UNL A   1      41.806  20.075  27.082  1.00  0.00     0.116 C 
BRANCH  30  31
ATOM     31  N   UNL A   1      42.877  19.717  26.159  1.00  0.00    -0.352 N 
ATOM     32  C   UNL A   1      43.675  20.559  25.415  1.00  0.00     0.251 C 
ATOM     33  H   UNL A   1      43.051  18.753  26.055  1.00  0.00     0.163 HD
ATOM     34  O   UNL A   1      44.291  20.145  24.441  1.00  0.00    -0.269 OA
BRANCH  32  35
ATOM     35  C   UNL A   1      43.753  21.981  25.792  1.00  0.00     0.039 A 
ATOM     36  C   UNL A   1      43.012  22.931  25.088  1.00  0.00     0.014 A 
ATOM     37  C   UNL A   1      44.536  22.354  26.883  1.00  0.00     0.014 A 
ATOM     38  C   UNL A   1      42.984  24.243  25.553  1.00  0.00     0.010 A 
ATOM     39  C   UNL A   1      44.420  23.627  27.405  1.00  0.00     0.010 A 
ATOM     40  C   UNL A   1      43.657  24.587  26.740  1.00  0.00    -0.014 A 
BRANCH  40  41
ATOM     41  C   UNL A   1      43.435  25.909  27.335  1.00  0.00     0.031 A 
ATOM     42  C   UNL A   1      44.427  26.954  26.949  1.00  0.00     0.074 A 
ATOM     43  C   UNL A   1      42.345  26.267  28.048  1.00  0.00     0.049 A 
ATOM     44  N   UNL A   1      45.243  27.587  27.726  1.00  0.00    -0.248 NA
ATOM     45  C   UNL A   1      44.591  27.280  25.523  1.00  0.00     0.031 C 
ATOM     46  C   UNL A   1      41.138  25.475  28.304  1.00  0.00     0.029 A 
ATOM     47  N   UNL A   1      42.051  27.470  28.633  1.00  0.00    -0.354 N 
ATOM     48  C   UNL A   1      45.910  28.510  26.924  1.00  0.00     0.074 A 
ATOM     49  C   UNL A   1      45.561  28.196  25.564  1.00  0.00     0.031 C 
ATOM     50  C   UNL A   1      40.165  26.275  28.791  1.00  0.00     0.029 A 
ATOM     51  C   UNL A   1      40.736  27.582  29.060  1.00  0.00     0.049 A 
ATOM     52  H   UNL A   1      42.713  28.191  28.741  1.00  0.00     0.167 HD
ATOM     53  C   UNL A   1      46.513  29.601  27.473  1.00  0.00     0.037 A 
ATOM     54  C   UNL A   1      40.135  28.651  29.630  1.00  0.00     0.037 A 
ATOM     55  C   UNL A   1      46.655  29.460  28.897  1.00  0.00     0.049 A 
ATOM     56  C   UNL A   1      41.179  29.475  30.273  1.00  0.00     0.074 A 
ATOM     57  C   UNL A   1      47.491  28.793  29.764  1.00  0.00     0.029 A 
ATOM     58  N   UNL A   1      45.553  29.845  29.610  1.00  0.00    -0.354 N 
ATOM     59  N   UNL A   1      41.868  29.078  31.306  1.00  0.00    -0.248 NA
ATOM     60  C   UNL A   1      41.688  30.664  29.601  1.00  0.00     0.031 C 
ATOM     61  C   UNL A   1      46.756  28.620  30.975  1.00  0.00     0.029 A 
ATOM     62  C   UNL A   1      45.500  29.201  30.817  1.00  0.00     0.049 A 
ATOM     63  H   UNL A   1      44.887  30.500  29.297  1.00  0.00     0.167 HD
ATOM     64  C   UNL A   1      43.096  29.683  31.143  1.00  0.00     0.074 A 
ATOM     65  C   UNL A   1      42.867  30.782  30.218  1.00  0.00     0.031 C 
ATOM     66  C   UNL A   1      44.240  29.036  31.502  1.00  0.00     0.037 A 
BRANCH  53  67
ATOM     67  C   UNL A   1      46.573  30.971  26.835  1.00  0.00     0.064 A 
ATOM     68  C   UNL A   1      47.794  31.680  26.832  1.00  0.00     0.173 A 
ATOM     69  C   UNL A   1      45.426  31.738  26.540  1.00  0.00     0.173 A 
ATOM     70  F   UNL A   1      48.946  31.058  27.124  1.00  0.00    -0.203 F 
ATOM     71  C   UNL A   1      47.848  33.062  26.619  1.00  0.00     0.198 A 
ATOM     72  C   UNL A   1      45.490  33.107  26.279  1.00  0.00     0.198 A 
ATOM     73  F   UNL A   1      44.194  31.222  26.610  1.00  0.00    -0.203 F 
ATOM     74  F   UNL A   1      49.013  33.712  26.742  1.00  0.00    -0.200 F 
ATOM     75  C   UNL A   1      46.695  33.774  26.347  1.00  0.00     0.200 A 
ATOM     76  F   UNL A   1      44.358  33.784  26.042  1.00  0.00    -0.200 F 
ATOM     77  F   UNL A   1      46.734  35.105  26.200  1.00  0.00    -0.200 F 
ENDBRANCH  53  67
BRANCH  54  78
ATOM     78  C   UNL A   1      38.718  29.056  29.575  1.00  0.00     0.064 A 
ATOM     79  C   UNL A   1      37.963  29.255  30.741  1.00  0.00     0.173 A 
ATOM     80  C   UNL A   1      38.156  29.520  28.370  1.00  0.00     0.173 A 
ATOM     81  F   UNL A   1      38.446  28.870  31.932  1.00  0.00    -0.203 F 
ATOM     82  C   UNL A   1      36.731  29.912  30.709  1.00  0.00     0.198 A 
ATOM     83  C   UNL A   1      36.924  30.172  28.339  1.00  0.00     0.198 A 
ATOM     84  F   UNL A   1      38.838  29.430  27.219  1.00  0.00    -0.203 F 
ATOM     85  F   UNL A   1      36.067  30.142  31.850  1.00  0.00    -0.200 F 
ATOM     86  C   UNL A   1      36.219  30.382  29.510  1.00  0.00     0.200 A 
ATOM     87  F   UNL A   1      36.457  30.652  27.177  1.00  0.00    -0.200 F 
ATOM     88  F   UNL A   1      35.071  31.073  29.488  1.00  0.00    -0.200 F 
ENDBRANCH  54  78
BRANCH  66  89
ATOM     89  C   UNL A   1      44.114  27.958  32.532  1.00  0.00     0.064 A 
ATOM     90  C   UNL A   1      44.076  26.585  32.239  1.00  0.00     0.173 A 
ATOM     91  C   UNL A   1      44.066  28.335  33.880  1.00  0.00     0.173 A 
ATOM     92  F   UNL A   1      44.198  26.145  30.981  1.00  0.00    -0.203 F 
ATOM     93  C   UNL A   1      43.941  25.637  33.251  1.00  0.00     0.198 A 
ATOM     94  C   UNL A   1      43.968  27.385  34.891  1.00  0.00     0.198 A 
ATOM     95  F   UNL A   1      44.142  29.632  34.217  1.00  0.00    -0.203 F 
ATOM     96  F   UNL A   1      43.875  24.332  32.946  1.00  0.00    -0.200 F 
ATOM     97  C   UNL A   1      43.891  26.038  34.576  1.00  0.00     0.200 A 
ATOM     98  F   UNL A   1      43.957  27.776  36.172  1.00  0.00    -0.200 F 
ATOM     99  F   UNL A   1      43.783  25.125  35.552  1.00  0.00    -0.200 F 
ENDBRANCH  66  89
ENDBRANCH  40  41
ENDBRANCH  32  35
ENDBRANCH  30  31
ENDBRANCH  29  30
ENDBRANCH  28  29
ENDBRANCH  27  28
ENDBRANCH  26  27
ENDBRANCH   1  26
TORSDOF 19
ENDMDL
MODEL 3
REMARK VINA RESULT:     -10.9      2.500      5.060
REMARK SMILES CCC[C@H](C)NC(=O)C[NH+]1CC(n2cc(C(=O)NCCCCCCNC(=O)c3ccc(-c4c5nc(c(-c6c(F)c(F)c(F)c(F)c6F)c6ccc([nH]6)c(-c6c(F)c(F)c(F)c(F)c6F)c6nc(c(-c7c(F)c(F)c(F)c(F)c7F)c7ccc4[nH]7)C=C6)C=C5)cc3)nn2)C1
REMARK SMILES IDX 19 1 18 2 16 3 17 4 15 6 13 7 14 8 92 9 91 10 12 11 10 12
REMARK SMILES IDX 11 13 93 14 9 16 7 17 6 18 8 20 4 21 5 22 3 23 2 24 1 25
REMARK SMILES IDX 20 26 21 27 22 28 23 29 24 30 25 31 26 32 27 34 28 35 29 36
REMARK SMILES IDX 90 37 30 38 89 39 31 40 32 41 33 42 83 43 34 44 88 45 82 46
REMARK SMILES IDX 84 47 35 48 87 49 81 50 80 51 36 53 68 54 48 55 67 56 49 57
REMARK SMILES IDX 52 58 66 59 85 60 50 61 51 62 65 64 86 65 53 66 37 67 38 68
REMARK SMILES IDX 46 69 39 70 40 71 44 72 47 73 41 74 42 75 45 76 43 77 69 78
REMARK SMILES IDX 70 79 78 80 71 81 72 82 76 83 79 84 73 85 74 86 77 87 75 88
REMARK SMILES IDX 54 89 55 90 63 91 56 92 57 93 61 94 64 95 58 96 59 97 62 98
REMARK SMILES IDX 60 99
REMARK H PARENT 18 5 10 15 6 19 25 33 84 52 52 63
REMARK Flexibility Score: inf
ROOT
ATOM      1  C   UNL A   1      33.058  35.828  32.064  1.00  0.00     0.116 C 
ENDROOT
BRANCH   1   2
ATOM      2  N   UNL A   1      33.091  36.576  30.827  1.00  0.00    -0.351 N 
ATOM      3  C   UNL A   1      33.203  36.183  29.514  1.00  0.00     0.273 C 
ATOM      4  O   UNL A   1      33.066  37.067  28.669  1.00  0.00    -0.267 OA
ATOM      5  H   UNL A   1      33.021  37.550  30.947  1.00  0.00     0.163 HD
BRANCH   3   6
ATOM      6  C   UNL A   1      33.438  34.793  29.136  1.00  0.00     0.170 A 
ATOM      7  N   UNL A   1      33.687  32.838  28.210  1.00  0.00    -0.237 N 
ATOM      8  C   UNL A   1      33.293  34.124  27.934  1.00  0.00     0.145 A 
ATOM      9  N   UNL A   1      34.014  32.701  29.500  1.00  0.00    -0.066 NA
ATOM     10  N   UNL A   1      33.842  33.877  30.084  1.00  0.00    -0.125 NA
BRANCH   7  11
ATOM     11  C   UNL A   1      33.766  31.782  27.247  1.00  0.00     0.218 C 
ATOM     12  N   UNL A   1      32.847  29.945  26.837  1.00  0.00    -0.323 N 
ATOM     13  C   UNL A   1      32.431  31.349  26.592  1.00  0.00     0.296 C 
ATOM     14  C   UNL A   1      33.731  30.396  27.920  1.00  0.00     0.296 C 
ATOM     15  H   UNL A   1      33.205  29.387  26.062  1.00  0.00     0.348 HD
BRANCH  12  16
ATOM     16  C   UNL A   1      31.781  29.020  27.269  1.00  0.00     0.363 C 
BRANCH  16  17
ATOM     17  C   UNL A   1      31.582  27.716  26.495  1.00  0.00     0.275 C 
ATOM     18  N   UNL A   1      31.184  27.713  25.192  1.00  0.00    -0.349 N 
ATOM     19  H   UNL A   1      30.937  26.827  24.841  1.00  0.00     0.163 HD
ATOM     20  O   UNL A   1      31.727  26.620  27.047  1.00  0.00    -0.268 OA
BRANCH  18  21
ATOM     21  C   UNL A   1      31.063  28.800  24.229  1.00  0.00     0.079 C 
ATOM     22  C   UNL A   1      32.370  28.904  23.440  1.00  0.00     0.031 C 
BRANCH  21  23
ATOM     23  C   UNL A   1      29.876  28.589  23.278  1.00  0.00     0.024 C 
BRANCH  23  24
ATOM     24  C   UNL A   1      28.988  29.826  23.111  1.00  0.00    -0.001 C 
ATOM     25  C   UNL A   1      29.155  30.512  21.760  1.00  0.00     0.004 C 
ENDBRANCH  23  24
ENDBRANCH  21  23
ENDBRANCH  18  21
ENDBRANCH  16  17
ENDBRANCH  12  16
ENDBRANCH   7  11
ENDBRANCH   3   6
ENDBRANCH   1   2
BRANCH   1  26
ATOM     26  C   UNL A   1      34.010  36.430  33.099  1.00  0.00     0.021 C 
BRANCH  26  27
ATOM     27  C   UNL A   1      35.159  35.501  33.522  1.00  0.00     0.002 C 
BRANCH  27  28
ATOM     28  C   UNL A   1      34.770  34.055  33.869  1.00  0.00     0.002 C 
BRANCH  28  29
ATOM     29  C   UNL A   1      35.293  32.966  32.922  1.00  0.00     0.021 C 
BRANCH  29  30
ATOM     30  C   UNL A   1      36.649  33.280  32.305  1.00  0.00     0.116 C 
BRANCH  30  31
ATOM     31  N   UNL A   1      36.588  33.386  30.852  1.00  0.00    -0.352 N 
ATOM     32  C   UNL A   1      37.455  32.850  29.923  1.00  0.00     0.251 C 
ATOM     33  H   UNL A   1      35.835  33.906  30.489  1.00  0.00     0.163 HD
ATOM     34  O   UNL A   1      37.498  33.283  28.780  1.00  0.00    -0.269 OA
BRANCH  32  35
ATOM     35  C   UNL A   1      38.357  31.762  30.339  1.00  0.00     0.039 A 
ATOM     36  C   UNL A   1      37.918  30.438  30.298  1.00  0.00     0.014 A 
ATOM     37  C   UNL A   1      39.660  32.069  30.727  1.00  0.00     0.014 A 
ATOM     38  C   UNL A   1      38.831  29.418  30.553  1.00  0.00     0.010 A 
ATOM     39  C   UNL A   1      40.587  31.056  30.871  1.00  0.00     0.010 A 
ATOM     40  C   UNL A   1      40.182  29.724  30.800  1.00  0.00    -0.014 A 
BRANCH  40  41
ATOM     41  C   UNL A   1      41.168  28.639  30.841  1.00  0.00     0.031 A 
ATOM     42  C   UNL A   1      41.659  28.278  32.203  1.00  0.00     0.074 A 
ATOM     43  C   UNL A   1      41.522  27.869  29.789  1.00  0.00     0.049 A 
ATOM     44  N   UNL A   1      42.868  28.365  32.650  1.00  0.00    -0.248 NA
ATOM     45  C   UNL A   1      40.681  27.846  33.215  1.00  0.00     0.031 C 
ATOM     46  C   UNL A   1      40.957  27.882  28.436  1.00  0.00     0.029 A 
ATOM     47  N   UNL A   1      42.423  26.839  29.734  1.00  0.00    -0.354 N 
ATOM     48  C   UNL A   1      42.846  27.845  33.942  1.00  0.00     0.074 A 
ATOM     49  C   UNL A   1      41.461  27.656  34.282  1.00  0.00     0.031 C 
ATOM     50  C   UNL A   1      41.358  26.779  27.767  1.00  0.00     0.029 A 
ATOM     51  C   UNL A   1      42.353  26.091  28.569  1.00  0.00     0.049 A 
ATOM     52  H   UNL A   1      43.063  26.647  30.457  1.00  0.00     0.167 HD
ATOM     53  C   UNL A   1      43.990  27.401  34.533  1.00  0.00     0.037 A 
ATOM     54  C   UNL A   1      43.073  24.994  28.241  1.00  0.00     0.037 A 
ATOM     55  C   UNL A   1      45.156  27.854  33.824  1.00  0.00     0.049 A 
ATOM     56  C   UNL A   1      44.336  25.030  29.005  1.00  0.00     0.074 A 
ATOM     57  C   UNL A   1      45.882  29.019  33.723  1.00  0.00     0.029 A 
ATOM     58  N   UNL A   1      45.518  27.056  32.774  1.00  0.00    -0.354 N 
ATOM     59  N   UNL A   1      45.265  25.924  28.811  1.00  0.00    -0.248 NA
ATOM     60  C   UNL A   1      44.480  24.230  30.215  1.00  0.00     0.031 C 
ATOM     61  C   UNL A   1      46.545  28.969  32.458  1.00  0.00     0.029 A 
ATOM     62  C   UNL A   1      46.216  27.767  31.835  1.00  0.00     0.049 A 
ATOM     63  H   UNL A   1      45.304  26.097  32.703  1.00  0.00     0.167 HD
ATOM     64  C   UNL A   1      45.833  26.092  30.055  1.00  0.00     0.074 A 
ATOM     65  C   UNL A   1      45.464  24.907  30.814  1.00  0.00     0.031 C 
ATOM     66  C   UNL A   1      46.258  27.321  30.462  1.00  0.00     0.037 A 
BRANCH  53  67
ATOM     67  C   UNL A   1      44.080  26.210  35.462  1.00  0.00     0.064 A 
ATOM     68  C   UNL A   1      44.712  26.356  36.715  1.00  0.00     0.173 A 
ATOM     69  C   UNL A   1      43.879  24.880  35.036  1.00  0.00     0.173 A 
ATOM     70  F   UNL A   1      44.977  27.576  37.209  1.00  0.00    -0.203 F 
ATOM     71  C   UNL A   1      45.168  25.256  37.448  1.00  0.00     0.198 A 
ATOM     72  C   UNL A   1      44.291  23.783  35.793  1.00  0.00     0.198 A 
ATOM     73  F   UNL A   1      43.388  24.592  33.824  1.00  0.00    -0.203 F 
ATOM     74  F   UNL A   1      45.867  25.446  38.576  1.00  0.00    -0.200 F 
ATOM     75  C   UNL A   1      44.960  23.970  36.984  1.00  0.00     0.200 A 
ATOM     76  F   UNL A   1      44.103  22.546  35.313  1.00  0.00    -0.200 F 
ATOM     77  F   UNL A   1      45.447  22.916  37.653  1.00  0.00    -0.200 F 
ENDBRANCH  53  67
BRANCH  54  78
ATOM     78  C   UNL A   1      42.695  23.864  27.371  1.00  0.00     0.064 A 
ATOM     79  C   UNL A   1      43.347  23.622  26.152  1.00  0.00     0.173 A 
ATOM     80  C   UNL A   1      41.863  22.838  27.858  1.00  0.00     0.173 A 
ATOM     81  F   UNL A   1      44.183  24.538  25.640  1.00  0.00    -0.203 F 
ATOM     82  C   UNL A   1      43.203  22.409  25.476  1.00  0.00     0.198 A 
ATOM     83  C   UNL A   1      41.716  21.629  27.180  1.00  0.00     0.198 A 
ATOM     84  F   UNL A   1      41.254  22.959  29.047  1.00  0.00    -0.203 F 
ATOM     85  F   UNL A   1      43.890  22.187  24.347  1.00  0.00    -0.200 F 
ATOM     86  C   UNL A   1      42.399  21.408  25.998  1.00  0.00     0.200 A 
ATOM     87  F   UNL A   1      40.962  20.656  27.713  1.00  0.00    -0.200 F 
ATOM     88  F   UNL A   1      42.313  20.219  25.385  1.00  0.00    -0.200 F 
ENDBRANCH  54  78
BRANCH  66  89
ATOM     89  C   UNL A   1      46.596  28.310  29.392  1.00  0.00     0.064 A 
ATOM     90  C   UNL A   1      47.813  28.335  28.693  1.00  0.00     0.173 A 
ATOM     91  C   UNL A   1      45.624  29.254  29.036  1.00  0.00     0.173 A 
ATOM     92  F   UNL A   1      48.759  27.416  28.923  1.00  0.00    -0.203 F 
ATOM     93  C   UNL A   1      48.064  29.299  27.718  1.00  0.00     0.198 A 
ATOM     94  C   UNL A   1      45.862  30.192  28.037  1.00  0.00     0.198 A 
ATOM     95  F   UNL A   1      44.427  29.246  29.644  1.00  0.00    -0.203 F 
ATOM     96  F   UNL A   1      49.246  29.323  27.085  1.00  0.00    -0.200 F 
ATOM     97  C   UNL A   1      47.086  30.224  27.389  1.00  0.00     0.200 A 
ATOM     98  F   UNL A   1      44.900  31.059  27.697  1.00  0.00    -0.200 F 
ATOM     99  F   UNL A   1      47.318  31.138  26.436  1.00  0.00    -0.200 F 
ENDBRANCH  66  89
ENDBRANCH  40  41
ENDBRANCH  32  35
ENDBRANCH  30  31
ENDBRANCH  29  30
ENDBRANCH  28  29
ENDBRANCH  27  28
ENDBRANCH  26  27
ENDBRANCH   1  26
TORSDOF 19
ENDMDL
