MODEL 1
REMARK VINA RESULT:     -12.1      0.000      0.000
REMARK SMILES O=C(NCCCCCCNC(=O)C1(C/C=C/c2ccccc2)CCCCC1)c1ccc(-c2c3nc(c(-c4c(F)c(F)c(F)c(F)c4F)c4ccc([nH]4)c(-c4c(F)c(F)c(F)c(F)c4F)c4nc(c(-c5c(F)c(F)c(F)c(F)c5F)c5ccc2[nH]5)C=C4)C=C3)cc1
REMARK SMILES IDX 7 1 6 2 5 3 4 4 3 5 1 6 2 7 28 9 29 10 90 11 30 12 89 13
REMARK SMILES IDX 31 14 32 15 33 16 83 17 34 18 88 19 82 20 84 21 35 22 87 23
REMARK SMILES IDX 81 24 80 25 36 27 68 28 48 29 67 30 49 31 52 32 66 33 85 34
REMARK SMILES IDX 50 35 51 36 65 38 86 39 53 40 37 41 38 42 46 43 39 44 40 45
REMARK SMILES IDX 44 46 47 47 41 48 42 49 45 50 43 51 69 52 70 53 78 54 71 55
REMARK SMILES IDX 72 56 76 57 79 58 73 59 74 60 77 61 75 62 54 63 55 64 63 65
REMARK SMILES IDX 56 66 57 67 61 68 64 69 58 70 59 71 62 72 60 73 8 74 9 75
REMARK SMILES IDX 10 76 11 77 12 79 13 80 23 81 27 82 24 83 26 84 25 85 14 86
REMARK SMILES IDX 15 87 16 88 17 89 18 90 22 91 19 92 21 93 20 94
REMARK H PARENT 3 8 84 26 52 37 10 78
REMARK Flexibility Score: inf
ROOT
ATOM      1  C   UNL A   1      37.735  21.919  25.047  1.00  0.00     0.002 C 
ENDROOT
BRANCH   1   2
ATOM      2  C   UNL A   1      37.322  20.482  24.696  1.00  0.00     0.002 C 
BRANCH   2   3
ATOM      3  C   UNL A   1      38.364  19.409  25.013  1.00  0.00     0.021 C 
BRANCH   3   4
ATOM      4  C   UNL A   1      39.514  19.890  25.884  1.00  0.00     0.116 C 
BRANCH   4   5
ATOM      5  N   UNL A   1      40.638  18.968  25.862  1.00  0.00    -0.352 N 
ATOM      6  O   UNL A   1      42.814  18.375  25.755  1.00  0.00    -0.269 OA
ATOM      7  C   UNL A   1      41.977  19.240  25.992  1.00  0.00     0.251 C 
ATOM      8  H   UNL A   1      40.407  18.019  25.737  1.00  0.00     0.163 HD
BRANCH   7   9
ATOM      9  C   UNL A   1      42.408  20.590  26.411  1.00  0.00     0.039 A 
ATOM     10  C   UNL A   1      42.835  21.522  25.462  1.00  0.00     0.014 A 
ATOM     11  C   UNL A   1      42.363  20.936  27.766  1.00  0.00     0.014 A 
ATOM     12  C   UNL A   1      43.324  22.753  25.876  1.00  0.00     0.010 A 
ATOM     13  C   UNL A   1      42.775  22.207  28.172  1.00  0.00     0.010 A 
ATOM     14  C   UNL A   1      43.272  23.121  27.231  1.00  0.00    -0.014 A 
BRANCH  14  15
ATOM     15  C   UNL A   1      43.649  24.505  27.610  1.00  0.00     0.031 A 
ATOM     16  C   UNL A   1      45.077  24.964  27.594  1.00  0.00     0.074 A 
ATOM     17  C   UNL A   1      42.660  25.361  27.936  1.00  0.00     0.049 A 
ATOM     18  N   UNL A   1      45.561  26.153  27.855  1.00  0.00    -0.248 NA
ATOM     19  C   UNL A   1      46.098  23.964  27.246  1.00  0.00     0.031 C 
ATOM     20  C   UNL A   1      41.238  25.012  28.007  1.00  0.00     0.029 A 
ATOM     21  N   UNL A   1      42.689  26.697  28.241  1.00  0.00    -0.354 N 
ATOM     22  C   UNL A   1      46.938  26.044  27.713  1.00  0.00     0.074 A 
ATOM     23  C   UNL A   1      47.218  24.666  27.369  1.00  0.00     0.031 C 
ATOM     24  C   UNL A   1      40.527  26.115  28.282  1.00  0.00     0.029 A 
ATOM     25  C   UNL A   1      41.445  27.233  28.467  1.00  0.00     0.049 A 
ATOM     26  H   UNL A   1      43.520  27.221  28.294  1.00  0.00     0.167 HD
ATOM     27  C   UNL A   1      47.876  27.012  27.851  1.00  0.00     0.037 A 
ATOM     28  C   UNL A   1      41.081  28.484  28.800  1.00  0.00     0.037 A 
ATOM     29  C   UNL A   1      47.585  28.384  28.187  1.00  0.00     0.049 A 
ATOM     30  C   UNL A   1      42.147  29.529  28.953  1.00  0.00     0.074 A 
ATOM     31  C   UNL A   1      48.465  29.444  28.331  1.00  0.00     0.029 A 
ATOM     32  N   UNL A   1      46.315  28.886  28.434  1.00  0.00    -0.354 N 
ATOM     33  N   UNL A   1      43.443  29.419  28.787  1.00  0.00    -0.248 NA
ATOM     34  C   UNL A   1      41.702  30.872  29.345  1.00  0.00     0.031 C 
ATOM     35  C   UNL A   1      47.732  30.576  28.702  1.00  0.00     0.029 A 
ATOM     36  C   UNL A   1      46.391  30.235  28.745  1.00  0.00     0.049 A 
ATOM     37  H   UNL A   1      45.483  28.361  28.394  1.00  0.00     0.167 HD
ATOM     38  C   UNL A   1      43.967  30.676  29.046  1.00  0.00     0.074 A 
ATOM     39  C   UNL A   1      42.845  31.541  29.347  1.00  0.00     0.031 C 
ATOM     40  C   UNL A   1      45.262  31.076  29.047  1.00  0.00     0.037 A 
BRANCH  27  41
ATOM     41  C   UNL A   1      49.314  26.631  27.646  1.00  0.00     0.064 A 
ATOM     42  C   UNL A   1      50.163  26.365  28.729  1.00  0.00     0.173 A 
ATOM     43  C   UNL A   1      49.827  26.458  26.352  1.00  0.00     0.173 A 
ATOM     44  F   UNL A   1      49.724  26.525  29.987  1.00  0.00    -0.203 F 
ATOM     45  C   UNL A   1      51.477  25.950  28.525  1.00  0.00     0.198 A 
ATOM     46  C   UNL A   1      51.135  26.021  26.151  1.00  0.00     0.198 A 
ATOM     47  F   UNL A   1      49.055  26.694  25.280  1.00  0.00    -0.203 F 
ATOM     48  F   UNL A   1      52.279  25.728  29.577  1.00  0.00    -0.200 F 
ATOM     49  C   UNL A   1      51.958  25.769  27.237  1.00  0.00     0.200 A 
ATOM     50  F   UNL A   1      51.595  25.835  24.907  1.00  0.00    -0.200 F 
ATOM     51  F   UNL A   1      53.218  25.355  27.043  1.00  0.00    -0.200 F 
ENDBRANCH  27  41
BRANCH  28  52
ATOM     52  C   UNL A   1      39.648  28.807  29.017  1.00  0.00     0.064 A 
ATOM     53  C   UNL A   1      38.844  29.274  27.970  1.00  0.00     0.173 A 
ATOM     54  C   UNL A   1      39.054  28.652  30.279  1.00  0.00     0.173 A 
ATOM     55  F   UNL A   1      39.371  29.456  26.750  1.00  0.00    -0.203 F 
ATOM     56  C   UNL A   1      37.505  29.594  28.181  1.00  0.00     0.198 A 
ATOM     57  C   UNL A   1      37.707  28.941  30.481  1.00  0.00     0.198 A 
ATOM     58  F   UNL A   1      39.780  28.201  31.312  1.00  0.00    -0.203 F 
ATOM     59  F   UNL A   1      36.769  30.085  27.174  1.00  0.00    -0.200 F 
ATOM     60  C   UNL A   1      36.936  29.422  29.434  1.00  0.00     0.200 A 
ATOM     61  F   UNL A   1      37.158  28.755  31.689  1.00  0.00    -0.200 F 
ATOM     62  F   UNL A   1      35.646  29.725  29.634  1.00  0.00    -0.200 F 
ENDBRANCH  28  52
BRANCH  40  63
ATOM     63  C   UNL A   1      45.521  32.517  29.375  1.00  0.00     0.064 A 
ATOM     64  C   UNL A   1      45.771  32.934  30.691  1.00  0.00     0.173 A 
ATOM     65  C   UNL A   1      45.521  33.488  28.363  1.00  0.00     0.173 A 
ATOM     66  F   UNL A   1      45.762  32.043  31.694  1.00  0.00    -0.203 F 
ATOM     67  C   UNL A   1      45.978  34.278  30.987  1.00  0.00     0.198 A 
ATOM     68  C   UNL A   1      45.758  34.828  28.659  1.00  0.00     0.198 A 
ATOM     69  F   UNL A   1      45.290  33.138  27.089  1.00  0.00    -0.203 F 
ATOM     70  F   UNL A   1      46.157  34.662  32.257  1.00  0.00    -0.200 F 
ATOM     71  C   UNL A   1      45.976  35.222  29.970  1.00  0.00     0.200 A 
ATOM     72  F   UNL A   1      45.764  35.737  27.676  1.00  0.00    -0.200 F 
ATOM     73  F   UNL A   1      46.173  36.516  30.257  1.00  0.00    -0.200 F 
ENDBRANCH  40  63
ENDBRANCH  14  15
ENDBRANCH   7   9
ENDBRANCH   4   5
ENDBRANCH   3   4
ENDBRANCH   2   3
ENDBRANCH   1   2
BRANCH   1  74
ATOM     74  C   UNL A   1      36.807  23.018  24.514  1.00  0.00     0.021 C 
BRANCH  74  75
ATOM     75  C   UNL A   1      36.236  23.920  25.607  1.00  0.00     0.116 C 
BRANCH  75  76
ATOM     76  N   UNL A   1      35.558  23.135  26.614  1.00  0.00    -0.356 N 
ATOM     77  C   UNL A   1      34.267  22.947  26.968  1.00  0.00     0.226 C 
ATOM     78  H   UNL A   1      36.182  22.616  27.172  1.00  0.00     0.163 HD
ATOM     79  O   UNL A   1      34.119  22.327  28.033  1.00  0.00    -0.274 OA
BRANCH  77  80
ATOM     80  C   UNL A   1      33.016  23.338  26.132  1.00  0.00     0.053 C 
ATOM     81  C   UNL A   1      31.802  22.930  27.027  1.00  0.00     0.017 C 
ATOM     82  C   UNL A   1      32.843  24.825  25.754  1.00  0.00     0.017 C 
ATOM     83  C   UNL A   1      30.432  23.317  26.477  1.00  0.00     0.001 C 
ATOM     84  C   UNL A   1      31.469  25.189  25.189  1.00  0.00     0.001 C 
ATOM     85  C   UNL A   1      30.355  24.797  26.142  1.00  0.00     0.000 C 
BRANCH  80  86
ATOM     86  C   UNL A   1      33.060  22.428  24.862  1.00  0.00     0.044 C 
BRANCH  86  87
ATOM     87  C   UNL A   1      33.094  20.948  25.164  1.00  0.00    -0.025 C 
ATOM     88  C   UNL A   1      33.778  20.056  24.429  1.00  0.00     0.004 C 
BRANCH  88  89
ATOM     89  C   UNL A   1      33.713  18.615  24.686  1.00  0.00    -0.026 A 
ATOM     90  C   UNL A   1      32.614  18.068  25.355  1.00  0.00     0.008 A 
ATOM     91  C   UNL A   1      34.772  17.777  24.313  1.00  0.00     0.008 A 
ATOM     92  C   UNL A   1      32.567  16.697  25.628  1.00  0.00     0.001 A 
ATOM     93  C   UNL A   1      34.727  16.410  24.590  1.00  0.00     0.001 A 
ATOM     94  C   UNL A   1      33.622  15.870  25.245  1.00  0.00     0.000 A 
ENDBRANCH  88  89
ENDBRANCH  86  87
ENDBRANCH  80  86
ENDBRANCH  77  80
ENDBRANCH  75  76
ENDBRANCH  74  75
ENDBRANCH   1  74
TORSDOF 16
ENDMDL
MODEL 2
REMARK VINA RESULT:     -11.9      0.687      7.183
REMARK SMILES O=C(NCCCCCCNC(=O)C1(C/C=C/c2ccccc2)CCCCC1)c1ccc(-c2c3nc(c(-c4c(F)c(F)c(F)c(F)c4F)c4ccc([nH]4)c(-c4c(F)c(F)c(F)c(F)c4F)c4nc(c(-c5c(F)c(F)c(F)c(F)c5F)c5ccc2[nH]5)C=C4)C=C3)cc1
REMARK SMILES IDX 7 1 6 2 5 3 4 4 3 5 1 6 2 7 28 9 29 10 90 11 30 12 89 13
REMARK SMILES IDX 31 14 32 15 33 16 83 17 34 18 88 19 82 20 84 21 35 22 87 23
REMARK SMILES IDX 81 24 80 25 36 27 68 28 48 29 67 30 49 31 52 32 66 33 85 34
REMARK SMILES IDX 50 35 51 36 65 38 86 39 53 40 37 41 38 42 46 43 39 44 40 45
REMARK SMILES IDX 44 46 47 47 41 48 42 49 45 50 43 51 69 52 70 53 78 54 71 55
REMARK SMILES IDX 72 56 76 57 79 58 73 59 74 60 77 61 75 62 54 63 55 64 63 65
REMARK SMILES IDX 56 66 57 67 61 68 64 69 58 70 59 71 62 72 60 73 8 74 9 75
REMARK SMILES IDX 10 76 11 77 12 79 13 80 23 81 27 82 24 83 26 84 25 85 14 86
REMARK SMILES IDX 15 87 16 88 17 89 18 90 22 91 19 92 21 93 20 94
REMARK H PARENT 3 8 84 26 52 37 10 78
REMARK Flexibility Score: inf
ROOT
ATOM      1  C   UNL A   1      37.841  21.932  25.010  1.00  0.00     0.002 C 
ENDROOT
BRANCH   1   2
ATOM      2  C   UNL A   1      37.372  20.536  24.575  1.00  0.00     0.002 C 
BRANCH   2   3
ATOM      3  C   UNL A   1      38.291  19.384  24.984  1.00  0.00     0.021 C 
BRANCH   3   4
ATOM      4  C   UNL A   1      39.354  19.762  26.004  1.00  0.00     0.116 C 
BRANCH   4   5
ATOM      5  N   UNL A   1      40.491  18.857  25.967  1.00  0.00    -0.352 N 
ATOM      6  O   UNL A   1      42.668  18.292  25.761  1.00  0.00    -0.269 OA
ATOM      7  C   UNL A   1      41.830  19.157  25.998  1.00  0.00     0.251 C 
ATOM      8  H   UNL A   1      40.271  17.900  25.912  1.00  0.00     0.163 HD
BRANCH   7   9
ATOM      9  C   UNL A   1      42.261  20.536  26.310  1.00  0.00     0.039 A 
ATOM     10  C   UNL A   1      42.584  21.425  25.282  1.00  0.00     0.014 A 
ATOM     11  C   UNL A   1      42.319  20.952  27.644  1.00  0.00     0.014 A 
ATOM     12  C   UNL A   1      43.075  22.686  25.589  1.00  0.00     0.010 A 
ATOM     13  C   UNL A   1      42.732  22.252  27.948  1.00  0.00     0.010 A 
ATOM     14  C   UNL A   1      43.126  23.124  26.923  1.00  0.00    -0.014 A 
BRANCH  14  15
ATOM     15  C   UNL A   1      43.498  24.534  27.198  1.00  0.00     0.031 A 
ATOM     16  C   UNL A   1      42.511  25.514  27.759  1.00  0.00     0.074 A 
ATOM     17  C   UNL A   1      44.773  24.906  26.964  1.00  0.00     0.049 A 
ATOM     18  N   UNL A   1      42.696  26.767  28.094  1.00  0.00    -0.248 NA
ATOM     19  C   UNL A   1      41.136  25.035  27.967  1.00  0.00     0.031 C 
ATOM     20  C   UNL A   1      45.809  24.039  26.396  1.00  0.00     0.029 A 
ATOM     21  N   UNL A   1      45.421  26.092  27.194  1.00  0.00    -0.354 N 
ATOM     22  C   UNL A   1      41.466  27.228  28.543  1.00  0.00     0.074 A 
ATOM     23  C   UNL A   1      40.532  26.129  28.413  1.00  0.00     0.031 C 
ATOM     24  C   UNL A   1      46.974  24.702  26.373  1.00  0.00     0.029 A 
ATOM     25  C   UNL A   1      46.754  26.057  26.863  1.00  0.00     0.049 A 
ATOM     26  H   UNL A   1      44.976  26.889  27.560  1.00  0.00     0.167 HD
ATOM     27  C   UNL A   1      41.154  28.455  29.026  1.00  0.00     0.037 A 
ATOM     28  C   UNL A   1      47.695  27.016  26.934  1.00  0.00     0.037 A 
ATOM     29  C   UNL A   1      42.094  29.540  29.157  1.00  0.00     0.049 A 
ATOM     30  C   UNL A   1      47.313  28.366  27.465  1.00  0.00     0.074 A 
ATOM     31  C   UNL A   1      41.879  30.815  29.654  1.00  0.00     0.029 A 
ATOM     32  N   UNL A   1      43.430  29.478  28.788  1.00  0.00    -0.354 N 
ATOM     33  N   UNL A   1      46.152  28.779  27.913  1.00  0.00    -0.248 NA
ATOM     34  C   UNL A   1      48.368  29.386  27.495  1.00  0.00     0.031 C 
ATOM     35  C   UNL A   1      43.074  31.535  29.549  1.00  0.00     0.029 A 
ATOM     36  C   UNL A   1      44.046  30.697  29.031  1.00  0.00     0.049 A 
ATOM     37  H   UNL A   1      43.875  28.685  28.411  1.00  0.00     0.167 HD
ATOM     38  C   UNL A   1      46.337  30.101  28.287  1.00  0.00     0.074 A 
ATOM     39  C   UNL A   1      47.732  30.411  28.043  1.00  0.00     0.031 C 
ATOM     40  C   UNL A   1      45.433  30.985  28.775  1.00  0.00     0.037 A 
BRANCH  27  41
ATOM     41  C   UNL A   1      39.734  28.704  29.446  1.00  0.00     0.064 A 
ATOM     42  C   UNL A   1      39.317  28.509  30.771  1.00  0.00     0.173 A 
ATOM     43  C   UNL A   1      38.799  29.212  28.533  1.00  0.00     0.173 A 
ATOM     44  F   UNL A   1      40.170  28.014  31.682  1.00  0.00    -0.203 F 
ATOM     45  C   UNL A   1      38.014  28.804  31.163  1.00  0.00     0.198 A 
ATOM     46  C   UNL A   1      37.503  29.528  28.933  1.00  0.00     0.198 A 
ATOM     47  F   UNL A   1      39.148  29.423  27.254  1.00  0.00    -0.203 F 
ATOM     48  F   UNL A   1      37.630  28.583  32.429  1.00  0.00    -0.200 F 
ATOM     49  C   UNL A   1      37.111  29.322  30.246  1.00  0.00     0.200 A 
ATOM     50  F   UNL A   1      36.635  30.041  28.050  1.00  0.00    -0.200 F 
ATOM     51  F   UNL A   1      35.861  29.620  30.629  1.00  0.00    -0.200 F 
ENDBRANCH  27  41
BRANCH  28  52
ATOM     52  C   UNL A   1      49.080  26.730  26.482  1.00  0.00     0.064 A 
ATOM     53  C   UNL A   1      49.463  26.928  25.149  1.00  0.00     0.173 A 
ATOM     54  C   UNL A   1      50.051  26.252  27.376  1.00  0.00     0.173 A 
ATOM     55  F   UNL A   1      48.567  27.366  24.253  1.00  0.00    -0.203 F 
ATOM     56  C   UNL A   1      50.758  26.641  24.724  1.00  0.00     0.198 A 
ATOM     57  C   UNL A   1      51.353  25.997  26.957  1.00  0.00     0.198 A 
ATOM     58  F   UNL A   1      49.736  26.053  28.665  1.00  0.00    -0.203 F 
ATOM     59  F   UNL A   1      51.086  26.794  23.433  1.00  0.00    -0.200 F 
ATOM     60  C   UNL A   1      51.704  26.183  25.628  1.00  0.00     0.200 A 
ATOM     61  F   UNL A   1      52.268  25.572  27.839  1.00  0.00    -0.200 F 
ATOM     62  F   UNL A   1      52.950  25.912  25.219  1.00  0.00    -0.200 F 
ENDBRANCH  28  52
BRANCH  40  63
ATOM     63  C   UNL A   1      45.938  32.363  29.085  1.00  0.00     0.064 A 
ATOM     64  C   UNL A   1      46.470  32.681  30.343  1.00  0.00     0.173 A 
ATOM     65  C   UNL A   1      45.891  33.374  28.114  1.00  0.00     0.173 A 
ATOM     66  F   UNL A   1      46.519  31.752  31.310  1.00  0.00    -0.203 F 
ATOM     67  C   UNL A   1      46.906  33.972  30.629  1.00  0.00     0.198 A 
ATOM     68  C   UNL A   1      46.355  34.656  28.394  1.00  0.00     0.198 A 
ATOM     69  F   UNL A   1      45.394  33.118  26.894  1.00  0.00    -0.203 F 
ATOM     70  F   UNL A   1      47.357  34.268  31.855  1.00  0.00    -0.200 F 
ATOM     71  C   UNL A   1      46.852  34.956  29.653  1.00  0.00     0.200 A 
ATOM     72  F   UNL A   1      46.311  35.603  27.448  1.00  0.00    -0.200 F 
ATOM     73  F   UNL A   1      47.269  36.199  29.931  1.00  0.00    -0.200 F 
ENDBRANCH  40  63
ENDBRANCH  14  15
ENDBRANCH   7   9
ENDBRANCH   4   5
ENDBRANCH   3   4
ENDBRANCH   2   3
ENDBRANCH   1   2
BRANCH   1  74
ATOM     74  C   UNL A   1      36.887  23.083  24.662  1.00  0.00     0.021 C 
BRANCH  74  75
ATOM     75  C   UNL A   1      36.361  23.832  25.886  1.00  0.00     0.116 C 
BRANCH  75  76
ATOM     76  N   UNL A   1      35.604  22.945  26.741  1.00  0.00    -0.356 N 
ATOM     77  C   UNL A   1      34.288  22.732  26.967  1.00  0.00     0.226 C 
ATOM     78  H   UNL A   1      36.180  22.361  27.285  1.00  0.00     0.163 HD
ATOM     79  O   UNL A   1      34.054  21.998  27.939  1.00  0.00    -0.274 OA
BRANCH  77  80
ATOM     80  C   UNL A   1      33.109  23.227  26.083  1.00  0.00     0.053 C 
ATOM     81  C   UNL A   1      31.826  22.743  26.832  1.00  0.00     0.017 C 
ATOM     82  C   UNL A   1      32.974  24.748  25.855  1.00  0.00     0.017 C 
ATOM     83  C   UNL A   1      30.505  23.204  26.222  1.00  0.00     0.001 C 
ATOM     84  C   UNL A   1      31.651  25.190  25.228  1.00  0.00     0.001 C 
ATOM     85  C   UNL A   1      30.463  24.713  26.043  1.00  0.00     0.000 C 
BRANCH  80  86
ATOM     86  C   UNL A   1      33.248  22.458  24.730  1.00  0.00     0.044 C 
BRANCH  86  87
ATOM     87  C   UNL A   1      33.664  21.013  24.881  1.00  0.00    -0.025 C 
ATOM     88  C   UNL A   1      32.900  19.977  24.498  1.00  0.00     0.004 C 
BRANCH  88  89
ATOM     89  C   UNL A   1      33.284  18.585  24.748  1.00  0.00    -0.026 A 
ATOM     90  C   UNL A   1      32.441  17.742  25.476  1.00  0.00     0.008 A 
ATOM     91  C   UNL A   1      34.523  18.099  24.308  1.00  0.00     0.008 A 
ATOM     92  C   UNL A   1      32.822  16.423  25.741  1.00  0.00     0.001 A 
ATOM     93  C   UNL A   1      34.905  16.785  24.577  1.00  0.00     0.001 A 
ATOM     94  C   UNL A   1      34.053  15.946  25.291  1.00  0.00     0.000 A 
ENDBRANCH  88  89
ENDBRANCH  86  87
ENDBRANCH  80  86
ENDBRANCH  77  80
ENDBRANCH  75  76
ENDBRANCH  74  75
ENDBRANCH   1  74
TORSDOF 16
ENDMDL
MODEL 3
REMARK VINA RESULT:     -11.9      1.070      2.128
REMARK SMILES O=C(NCCCCCCNC(=O)C1(C/C=C/c2ccccc2)CCCCC1)c1ccc(-c2c3nc(c(-c4c(F)c(F)c(F)c(F)c4F)c4ccc([nH]4)c(-c4c(F)c(F)c(F)c(F)c4F)c4nc(c(-c5c(F)c(F)c(F)c(F)c5F)c5ccc2[nH]5)C=C4)C=C3)cc1
REMARK SMILES IDX 7 1 6 2 5 3 4 4 3 5 1 6 2 7 28 9 29 10 90 11 30 12 89 13
REMARK SMILES IDX 31 14 32 15 33 16 83 17 34 18 88 19 82 20 84 21 35 22 87 23
REMARK SMILES IDX 81 24 80 25 36 27 68 28 48 29 67 30 49 31 52 32 66 33 85 34
REMARK SMILES IDX 50 35 51 36 65 38 86 39 53 40 37 41 38 42 46 43 39 44 40 45
REMARK SMILES IDX 44 46 47 47 41 48 42 49 45 50 43 51 69 52 70 53 78 54 71 55
REMARK SMILES IDX 72 56 76 57 79 58 73 59 74 60 77 61 75 62 54 63 55 64 63 65
REMARK SMILES IDX 56 66 57 67 61 68 64 69 58 70 59 71 62 72 60 73 8 74 9 75
REMARK SMILES IDX 10 76 11 77 12 79 13 80 23 81 27 82 24 83 26 84 25 85 14 86
REMARK SMILES IDX 15 87 16 88 17 89 18 90 22 91 19 92 21 93 20 94
REMARK H PARENT 3 8 84 26 52 37 10 78
REMARK Flexibility Score: inf
ROOT
ATOM      1  C   UNL A   1      37.028  21.943  24.360  1.00  0.00     0.002 C 
ENDROOT
BRANCH   1   2
ATOM      2  C   UNL A   1      36.691  20.554  24.922  1.00  0.00     0.002 C 
BRANCH   2   3
ATOM      3  C   UNL A   1      37.868  19.581  25.001  1.00  0.00     0.021 C 
BRANCH   3   4
ATOM      4  C   UNL A   1      39.056  20.099  25.798  1.00  0.00     0.116 C 
BRANCH   4   5
ATOM      5  N   UNL A   1      40.124  19.116  25.884  1.00  0.00    -0.352 N 
ATOM      6  O   UNL A   1      42.265  18.396  25.900  1.00  0.00    -0.269 OA
ATOM      7  C   UNL A   1      41.471  19.322  26.044  1.00  0.00     0.251 C 
ATOM      8  H   UNL A   1      39.842  18.175  25.820  1.00  0.00     0.163 HD
BRANCH   7   9
ATOM      9  C   UNL A   1      41.967  20.673  26.379  1.00  0.00     0.039 A 
ATOM     10  C   UNL A   1      42.157  21.626  25.376  1.00  0.00     0.014 A 
ATOM     11  C   UNL A   1      42.221  20.999  27.716  1.00  0.00     0.014 A 
ATOM     12  C   UNL A   1      42.709  22.860  25.691  1.00  0.00     0.010 A 
ATOM     13  C   UNL A   1      42.696  22.272  28.042  1.00  0.00     0.010 A 
ATOM     14  C   UNL A   1      42.957  23.208  27.030  1.00  0.00    -0.014 A 
BRANCH  14  15
ATOM     15  C   UNL A   1      43.389  24.593  27.340  1.00  0.00     0.031 A 
ATOM     16  C   UNL A   1      44.780  25.068  27.039  1.00  0.00     0.074 A 
ATOM     17  C   UNL A   1      42.479  25.435  27.869  1.00  0.00     0.049 A 
ATOM     18  N   UNL A   1      45.295  26.260  27.209  1.00  0.00    -0.248 NA
ATOM     19  C   UNL A   1      45.719  24.084  26.480  1.00  0.00     0.031 C 
ATOM     20  C   UNL A   1      41.105  25.068  28.223  1.00  0.00     0.029 A 
ATOM     21  N   UNL A   1      42.557  26.768  28.176  1.00  0.00    -0.354 N 
ATOM     22  C   UNL A   1      46.615  26.169  26.789  1.00  0.00     0.074 A 
ATOM     23  C   UNL A   1      46.833  24.797  26.380  1.00  0.00     0.031 C 
ATOM     24  C   UNL A   1      40.454  26.160  28.649  1.00  0.00     0.029 A 
ATOM     25  C   UNL A   1      41.379  27.287  28.656  1.00  0.00     0.049 A 
ATOM     26  H   UNL A   1      43.376  27.301  28.065  1.00  0.00     0.167 HD
ATOM     27  C   UNL A   1      47.553  27.147  26.744  1.00  0.00     0.037 A 
ATOM     28  C   UNL A   1      41.079  28.531  29.069  1.00  0.00     0.037 A 
ATOM     29  C   UNL A   1      47.323  28.512  27.147  1.00  0.00     0.049 A 
ATOM     30  C   UNL A   1      42.143  29.587  29.015  1.00  0.00     0.074 A 
ATOM     31  C   UNL A   1      48.204  29.581  27.121  1.00  0.00     0.029 A 
ATOM     32  N   UNL A   1      46.125  28.997  27.653  1.00  0.00    -0.354 N 
ATOM     33  N   UNL A   1      43.379  29.493  28.588  1.00  0.00    -0.248 NA
ATOM     34  C   UNL A   1      41.774  30.921  29.504  1.00  0.00     0.031 C 
ATOM     35  C   UNL A   1      47.550  30.701  27.646  1.00  0.00     0.029 A 
ATOM     36  C   UNL A   1      46.249  30.344  27.956  1.00  0.00     0.049 A 
ATOM     37  H   UNL A   1      45.308  28.463  27.776  1.00  0.00     0.167 HD
ATOM     38  C   UNL A   1      43.933  30.754  28.748  1.00  0.00     0.074 A 
ATOM     39  C   UNL A   1      42.887  31.604  29.280  1.00  0.00     0.031 C 
ATOM     40  C   UNL A   1      45.197  31.169  28.491  1.00  0.00     0.037 A 
BRANCH  27  41
ATOM     41  C   UNL A   1      48.922  26.784  26.247  1.00  0.00     0.064 A 
ATOM     42  C   UNL A   1      49.293  26.982  24.909  1.00  0.00     0.173 A 
ATOM     43  C   UNL A   1      49.897  26.304  27.133  1.00  0.00     0.173 A 
ATOM     44  F   UNL A   1      48.395  27.431  24.019  1.00  0.00    -0.203 F 
ATOM     45  C   UNL A   1      50.586  26.703  24.475  1.00  0.00     0.198 A 
ATOM     46  C   UNL A   1      51.196  26.046  26.701  1.00  0.00     0.198 A 
ATOM     47  F   UNL A   1      49.597  26.101  28.425  1.00  0.00    -0.203 F 
ATOM     48  F   UNL A   1      50.910  26.873  23.185  1.00  0.00    -0.200 F 
ATOM     49  C   UNL A   1      51.539  26.244  25.372  1.00  0.00     0.200 A 
ATOM     50  F   UNL A   1      52.119  25.615  27.572  1.00  0.00    -0.200 F 
ATOM     51  F   UNL A   1      52.787  25.989  24.955  1.00  0.00    -0.200 F 
ENDBRANCH  27  41
BRANCH  28  52
ATOM     52  C   UNL A   1      39.717  28.835  29.577  1.00  0.00     0.064 A 
ATOM     53  C   UNL A   1      39.389  28.653  30.927  1.00  0.00     0.173 A 
ATOM     54  C   UNL A   1      38.715  29.316  28.720  1.00  0.00     0.173 A 
ATOM     55  F   UNL A   1      40.307  28.178  31.781  1.00  0.00    -0.203 F 
ATOM     56  C   UNL A   1      38.105  28.921  31.396  1.00  0.00     0.198 A 
ATOM     57  C   UNL A   1      37.441  29.615  29.198  1.00  0.00     0.198 A 
ATOM     58  F   UNL A   1      38.980  29.514  27.421  1.00  0.00    -0.203 F 
ATOM     59  F   UNL A   1      37.804  28.693  32.682  1.00  0.00    -0.200 F 
ATOM     60  C   UNL A   1      37.135  29.408  30.534  1.00  0.00     0.200 A 
ATOM     61  F   UNL A   1      36.513  30.102  28.364  1.00  0.00    -0.200 F 
ATOM     62  F   UNL A   1      35.902  29.670  30.988  1.00  0.00    -0.200 F 
ENDBRANCH  28  52
BRANCH  40  63
ATOM     63  C   UNL A   1      45.504  32.610  28.775  1.00  0.00     0.064 A 
ATOM     64  C   UNL A   1      46.019  33.017  30.014  1.00  0.00     0.173 A 
ATOM     65  C   UNL A   1      45.281  33.591  27.798  1.00  0.00     0.173 A 
ATOM     66  F   UNL A   1      46.231  32.117  30.986  1.00  0.00    -0.203 F 
ATOM     67  C   UNL A   1      46.270  34.361  30.277  1.00  0.00     0.198 A 
ATOM     68  C   UNL A   1      45.560  34.931  28.054  1.00  0.00     0.198 A 
ATOM     69  F   UNL A   1      44.792  33.251  26.596  1.00  0.00    -0.203 F 
ATOM     70  F   UNL A   1      46.707  34.735  31.486  1.00  0.00    -0.200 F 
ATOM     71  C   UNL A   1      46.044  35.315  29.295  1.00  0.00     0.200 A 
ATOM     72  F   UNL A   1      45.350  35.850  27.102  1.00  0.00    -0.200 F 
ATOM     73  F   UNL A   1      46.282  36.609  29.551  1.00  0.00    -0.200 F 
ENDBRANCH  40  63
ENDBRANCH  14  15
ENDBRANCH   7   9
ENDBRANCH   4   5
ENDBRANCH   3   4
ENDBRANCH   2   3
ENDBRANCH   1   2
BRANCH   1  74
ATOM     74  C   UNL A   1      37.206  23.049  25.408  1.00  0.00     0.021 C 
BRANCH  74  75
ATOM     75  C   UNL A   1      36.065  24.066  25.424  1.00  0.00     0.116 C 
BRANCH  75  76
ATOM     76  N   UNL A   1      34.932  23.552  26.160  1.00  0.00    -0.356 N 
ATOM     77  C   UNL A   1      33.627  23.343  25.877  1.00  0.00     0.226 C 
ATOM     78  H   UNL A   1      35.166  23.293  27.081  1.00  0.00     0.163 HD
ATOM     79  O   UNL A   1      32.934  23.058  26.866  1.00  0.00    -0.274 OA
BRANCH  77  80
ATOM     80  C   UNL A   1      32.981  23.331  24.463  1.00  0.00     0.053 C 
ATOM     81  C   UNL A   1      32.400  24.771  24.285  1.00  0.00     0.017 C 
ATOM     82  C   UNL A   1      33.902  23.045  23.257  1.00  0.00     0.017 C 
ATOM     83  C   UNL A   1      31.801  25.064  22.912  1.00  0.00     0.001 C 
ATOM     84  C   UNL A   1      33.279  23.328  21.890  1.00  0.00     0.001 C 
ATOM     85  C   UNL A   1      32.781  24.758  21.791  1.00  0.00     0.000 C 
BRANCH  80  86
ATOM     86  C   UNL A   1      31.811  22.300  24.545  1.00  0.00     0.044 C 
BRANCH  86  87
ATOM     87  C   UNL A   1      32.218  20.879  24.235  1.00  0.00    -0.025 C 
ATOM     88  C   UNL A   1      32.527  19.973  25.177  1.00  0.00     0.004 C 
BRANCH  88  89
ATOM     89  C   UNL A   1      33.015  18.631  24.845  1.00  0.00    -0.026 A 
ATOM     90  C   UNL A   1      33.591  18.381  23.596  1.00  0.00     0.008 A 
ATOM     91  C   UNL A   1      32.862  17.574  25.751  1.00  0.00     0.008 A 
ATOM     92  C   UNL A   1      34.028  17.094  23.267  1.00  0.00     0.001 A 
ATOM     93  C   UNL A   1      33.294  16.288  25.420  1.00  0.00     0.001 A 
ATOM     94  C   UNL A   1      33.880  16.050  24.179  1.00  0.00     0.000 A 
ENDBRANCH  88  89
ENDBRANCH  86  87
ENDBRANCH  80  86
ENDBRANCH  77  80
ENDBRANCH  75  76
ENDBRANCH  74  75
ENDBRANCH   1  74
TORSDOF 16
ENDMDL
