MODEL 1
REMARK VINA RESULT:     -13.2      0.000      0.000
REMARK SMILES CCc1nc(-c2cccnc2)nc(Oc2ccc(C(=O)NCCCCCCNC(=O)c3ccc(-c4c5nc(c(-c6c(F)c(F)c(F)c(F)c6F)c6ccc([nH]6)c(-c6c(F)c(F)c(F)c(F)c6F)c6nc(c(-c7c(F)c(F)c(F)c(F)c7F)c7ccc4[nH]7)C=C6)C=C5)cc3)cc2)c1C
REMARK SMILES IDX 24 1 23 2 22 3 21 4 19 5 20 6 18 8 15 9 16 10 95 11 17 12
REMARK SMILES IDX 94 13 14 14 13 15 3 16 4 17 96 18 5 19 97 20 12 21 2 22 1 23
REMARK SMILES IDX 6 24 7 25 11 26 8 27 10 28 9 29 25 30 26 31 27 32 28 33
REMARK SMILES IDX 29 34 30 36 31 37 32 38 93 39 33 40 92 41 34 42 35 43 36 44
REMARK SMILES IDX 86 45 37 46 91 47 85 48 87 49 38 50 90 51 84 52 83 53 39 55
REMARK SMILES IDX 71 56 51 57 70 58 52 59 55 60 69 61 88 62 53 63 54 64 68 66
REMARK SMILES IDX 89 67 56 68 40 69 41 70 49 71 42 72 43 73 47 74 50 75 44 76
REMARK SMILES IDX 45 77 48 78 46 79 72 80 73 81 81 82 74 83 75 84 79 85 82 86
REMARK SMILES IDX 76 87 77 88 80 89 78 90 57 91 58 92 66 93 59 94 60 95 64 96
REMARK SMILES IDX 67 97 61 98 62 99 65 100 63 101
REMARK H PARENT 21 7 28 35 87 54 55 65
REMARK Flexibility Score: inf
ROOT
ATOM      1  C   UNL A   1      32.953  30.082  25.759  1.00  0.00     0.002 C 
ENDROOT
BRANCH   1   2
ATOM      2  C   UNL A   1      33.023  28.793  24.928  1.00  0.00     0.021 C 
BRANCH   2   3
ATOM      3  C   UNL A   1      33.190  29.055  23.429  1.00  0.00     0.116 C 
BRANCH   3   4
ATOM      4  N   UNL A   1      31.895  29.328  22.837  1.00  0.00    -0.352 N 
ATOM      5  C   UNL A   1      30.844  28.519  22.497  1.00  0.00     0.251 C 
ATOM      6  O   UNL A   1      29.873  29.036  21.946  1.00  0.00    -0.269 OA
ATOM      7  H   UNL A   1      31.743  30.281  22.641  1.00  0.00     0.163 HD
BRANCH   5   8
ATOM      8  C   UNL A   1      30.787  27.081  22.870  1.00  0.00     0.040 A 
ATOM      9  C   UNL A   1      30.926  24.520  23.960  1.00  0.00     0.129 A 
ATOM     10  C   UNL A   1      30.141  25.489  24.583  1.00  0.00     0.048 A 
ATOM     11  C   UNL A   1      31.486  24.762  22.707  1.00  0.00     0.048 A 
ATOM     12  C   UNL A   1      30.093  26.775  24.051  1.00  0.00     0.017 A 
ATOM     13  C   UNL A   1      31.396  26.043  22.153  1.00  0.00     0.017 A 
BRANCH   9  14
ATOM     14  O   UNL A   1      31.093  23.336  24.613  1.00  0.00    -0.439 OA
BRANCH  14  15
ATOM     15  C   UNL A   1      32.347  22.807  24.836  1.00  0.00     0.226 A 
ATOM     16  C   UNL A   1      34.572  22.575  25.610  1.00  0.00     0.051 A 
ATOM     17  N   UNL A   1      34.597  21.308  25.151  1.00  0.00    -0.233 NA
ATOM     18  C   UNL A   1      33.426  23.380  25.523  1.00  0.00     0.033 A 
ATOM     19  C   UNL A   1      33.494  20.835  24.565  1.00  0.00     0.165 A 
ATOM     20  C   UNL A   1      33.455  24.753  26.126  1.00  0.00     0.052 C 
ATOM     21  N   UNL A   1      32.384  21.545  24.355  1.00  0.00    -0.193 NA
BRANCH  16  22
ATOM     22  C   UNL A   1      35.907  23.079  26.127  1.00  0.00     0.053 C 
ATOM     23  C   UNL A   1      36.840  23.581  25.031  1.00  0.00     0.011 C 
ENDBRANCH  16  22
BRANCH  19  24
ATOM     24  C   UNL A   1      33.506  19.436  24.163  1.00  0.00     0.038 A 
ATOM     25  C   UNL A   1      34.462  18.524  24.625  1.00  0.00     0.015 A 
ATOM     26  C   UNL A   1      32.538  18.936  23.293  1.00  0.00     0.123 A 
ATOM     27  C   UNL A   1      34.407  17.190  24.224  1.00  0.00     0.021 A 
ATOM     28  N   UNL A   1      32.465  17.648  22.870  1.00  0.00    -0.264 NA
ATOM     29  C   UNL A   1      33.402  16.805  23.351  1.00  0.00     0.111 A 
ENDBRANCH  19  24
ENDBRANCH  14  15
ENDBRANCH   9  14
ENDBRANCH   5   8
ENDBRANCH   3   4
ENDBRANCH   2   3
ENDBRANCH   1   2
BRANCH   1  30
ATOM     30  C   UNL A   1      31.535  30.521  26.143  1.00  0.00     0.002 C 
BRANCH  30  31
ATOM     31  C   UNL A   1      31.399  31.999  26.516  1.00  0.00     0.021 C 
BRANCH  31  32
ATOM     32  C   UNL A   1      32.608  32.573  27.247  1.00  0.00     0.116 C 
BRANCH  32  33
ATOM     33  N   UNL A   1      32.437  33.986  27.547  1.00  0.00    -0.352 N 
ATOM     34  C   UNL A   1      33.048  34.748  28.510  1.00  0.00     0.251 C 
ATOM     35  H   UNL A   1      31.791  34.463  26.977  1.00  0.00     0.163 HD
ATOM     36  O   UNL A   1      32.626  35.869  28.774  1.00  0.00    -0.269 OA
BRANCH  34  37
ATOM     37  C   UNL A   1      34.212  34.209  29.244  1.00  0.00     0.039 A 
ATOM     38  C   UNL A   1      33.994  33.455  30.399  1.00  0.00     0.014 A 
ATOM     39  C   UNL A   1      35.515  34.456  28.800  1.00  0.00     0.014 A 
ATOM     40  C   UNL A   1      35.080  32.903  31.079  1.00  0.00     0.010 A 
ATOM     41  C   UNL A   1      36.591  33.844  29.437  1.00  0.00     0.010 A 
ATOM     42  C   UNL A   1      36.385  33.066  30.586  1.00  0.00    -0.014 A 
BRANCH  42  43
ATOM     43  C   UNL A   1      37.548  32.436  31.262  1.00  0.00     0.031 A 
ATOM     44  C   UNL A   1      38.269  31.290  30.609  1.00  0.00     0.074 A 
ATOM     45  C   UNL A   1      37.919  32.860  32.486  1.00  0.00     0.049 A 
ATOM     46  N   UNL A   1      39.250  30.556  31.072  1.00  0.00    -0.248 NA
ATOM     47  C   UNL A   1      37.810  30.898  29.266  1.00  0.00     0.031 C 
ATOM     48  C   UNL A   1      37.270  33.934  33.241  1.00  0.00     0.029 A 
ATOM     49  N   UNL A   1      38.922  32.430  33.318  1.00  0.00    -0.354 N 
ATOM     50  C   UNL A   1      39.523  29.622  30.082  1.00  0.00     0.074 A 
ATOM     51  C   UNL A   1      38.563  29.836  29.021  1.00  0.00     0.031 C 
ATOM     52  C   UNL A   1      37.898  34.086  34.418  1.00  0.00     0.029 A 
ATOM     53  C   UNL A   1      38.966  33.096  34.519  1.00  0.00     0.049 A 
ATOM     54  H   UNL A   1      39.550  31.710  33.077  1.00  0.00     0.167 HD
ATOM     55  C   UNL A   1      40.504  28.689  30.048  1.00  0.00     0.037 A 
ATOM     56  C   UNL A   1      39.768  32.917  35.586  1.00  0.00     0.037 A 
ATOM     57  C   UNL A   1      41.465  28.485  31.100  1.00  0.00     0.049 A 
ATOM     58  C   UNL A   1      40.835  31.856  35.531  1.00  0.00     0.074 A 
ATOM     59  C   UNL A   1      42.513  27.583  31.150  1.00  0.00     0.029 A 
ATOM     60  N   UNL A   1      41.494  29.198  32.290  1.00  0.00    -0.354 N 
ATOM     61  N   UNL A   1      41.118  31.015  34.565  1.00  0.00    -0.248 NA
ATOM     62  C   UNL A   1      41.703  31.727  36.709  1.00  0.00     0.031 C 
ATOM     63  C   UNL A   1      43.151  27.721  32.387  1.00  0.00     0.029 A 
ATOM     64  C   UNL A   1      42.534  28.747  33.086  1.00  0.00     0.049 A 
ATOM     65  H   UNL A   1      40.868  29.918  32.533  1.00  0.00     0.167 HD
ATOM     66  C   UNL A   1      42.211  30.281  35.006  1.00  0.00     0.074 A 
ATOM     67  C   UNL A   1      42.553  30.790  36.317  1.00  0.00     0.031 C 
ATOM     68  C   UNL A   1      42.871  29.274  34.382  1.00  0.00     0.037 A 
BRANCH  55  69
ATOM     69  C   UNL A   1      40.601  27.825  28.823  1.00  0.00     0.064 A 
ATOM     70  C   UNL A   1      39.884  26.624  28.717  1.00  0.00     0.173 A 
ATOM     71  C   UNL A   1      41.376  28.224  27.724  1.00  0.00     0.173 A 
ATOM     72  F   UNL A   1      39.137  26.191  29.744  1.00  0.00    -0.203 F 
ATOM     73  C   UNL A   1      39.957  25.843  27.567  1.00  0.00     0.198 A 
ATOM     74  C   UNL A   1      41.422  27.456  26.562  1.00  0.00     0.198 A 
ATOM     75  F   UNL A   1      42.078  29.366  27.769  1.00  0.00    -0.203 F 
ATOM     76  F   UNL A   1      39.298  24.677  27.507  1.00  0.00    -0.200 F 
ATOM     77  C   UNL A   1      40.718  26.264  26.487  1.00  0.00     0.200 A 
ATOM     78  F   UNL A   1      42.147  27.871  25.514  1.00  0.00    -0.200 F 
ATOM     79  F   UNL A   1      40.778  25.518  25.376  1.00  0.00    -0.200 F 
ENDBRANCH  55  69
BRANCH  56  80
ATOM     80  C   UNL A   1      39.596  33.759  36.800  1.00  0.00     0.064 A 
ATOM     81  C   UNL A   1      38.789  33.337  37.867  1.00  0.00     0.173 A 
ATOM     82  C   UNL A   1      40.210  35.015  36.909  1.00  0.00     0.173 A 
ATOM     83  F   UNL A   1      38.164  32.151  37.805  1.00  0.00    -0.203 F 
ATOM     84  C   UNL A   1      38.575  34.152  38.977  1.00  0.00     0.198 A 
ATOM     85  C   UNL A   1      40.024  35.815  38.034  1.00  0.00     0.198 A 
ATOM     86  F   UNL A   1      40.999  35.465  35.921  1.00  0.00    -0.203 F 
ATOM     87  F   UNL A   1      37.749  33.749  39.951  1.00  0.00    -0.200 F 
ATOM     88  C   UNL A   1      39.195  35.389  39.060  1.00  0.00     0.200 A 
ATOM     89  F   UNL A   1      40.640  37.002  38.119  1.00  0.00    -0.200 F 
ATOM     90  F   UNL A   1      38.988  36.175  40.126  1.00  0.00    -0.200 F 
ENDBRANCH  56  80
BRANCH  68  91
ATOM     91  C   UNL A   1      44.057  28.685  35.090  1.00  0.00     0.064 A 
ATOM     92  C   UNL A   1      45.344  29.223  34.948  1.00  0.00     0.173 A 
ATOM     93  C   UNL A   1      43.894  27.591  35.954  1.00  0.00     0.173 A 
ATOM     94  F   UNL A   1      45.555  30.260  34.122  1.00  0.00    -0.203 F 
ATOM     95  C   UNL A   1      46.429  28.669  35.622  1.00  0.00     0.198 A 
ATOM     96  C   UNL A   1      44.975  27.062  36.652  1.00  0.00     0.198 A 
ATOM     97  F   UNL A   1      42.682  27.044  36.132  1.00  0.00    -0.203 F 
ATOM     98  F   UNL A   1      47.659  29.167  35.431  1.00  0.00    -0.200 F 
ATOM     99  C   UNL A   1      46.243  27.595  36.479  1.00  0.00     0.200 A 
ATOM    100  F   UNL A   1      44.790  26.033  37.492  1.00  0.00    -0.200 F 
ATOM    101  F   UNL A   1      47.288  27.070  37.133  1.00  0.00    -0.200 F 
ENDBRANCH  68  91
ENDBRANCH  42  43
ENDBRANCH  34  37
ENDBRANCH  32  33
ENDBRANCH  31  32
ENDBRANCH  30  31
ENDBRANCH   1  30
TORSDOF 17
ENDMDL
MODEL 2
REMARK VINA RESULT:     -12.9      5.189     11.166
REMARK SMILES CCc1nc(-c2cccnc2)nc(Oc2ccc(C(=O)NCCCCCCNC(=O)c3ccc(-c4c5nc(c(-c6c(F)c(F)c(F)c(F)c6F)c6ccc([nH]6)c(-c6c(F)c(F)c(F)c(F)c6F)c6nc(c(-c7c(F)c(F)c(F)c(F)c7F)c7ccc4[nH]7)C=C6)C=C5)cc3)cc2)c1C
REMARK SMILES IDX 24 1 23 2 22 3 21 4 19 5 20 6 18 8 15 9 16 10 95 11 17 12
REMARK SMILES IDX 94 13 14 14 13 15 3 16 4 17 96 18 5 19 97 20 12 21 2 22 1 23
REMARK SMILES IDX 6 24 7 25 11 26 8 27 10 28 9 29 25 30 26 31 27 32 28 33
REMARK SMILES IDX 29 34 30 36 31 37 32 38 93 39 33 40 92 41 34 42 35 43 36 44
REMARK SMILES IDX 86 45 37 46 91 47 85 48 87 49 38 50 90 51 84 52 83 53 39 55
REMARK SMILES IDX 71 56 51 57 70 58 52 59 55 60 69 61 88 62 53 63 54 64 68 66
REMARK SMILES IDX 89 67 56 68 40 69 41 70 49 71 42 72 43 73 47 74 50 75 44 76
REMARK SMILES IDX 45 77 48 78 46 79 72 80 73 81 81 82 74 83 75 84 79 85 82 86
REMARK SMILES IDX 76 87 77 88 80 89 78 90 57 91 58 92 66 93 59 94 60 95 64 96
REMARK SMILES IDX 67 97 61 98 62 99 65 100 63 101
REMARK H PARENT 21 7 28 35 87 54 55 65
REMARK Flexibility Score: inf
ROOT
ATOM      1  C   UNL A   1      36.661  21.859  25.762  1.00  0.00     0.002 C 
ENDROOT
BRANCH   1   2
ATOM      2  C   UNL A   1      35.273  22.502  25.897  1.00  0.00     0.021 C 
BRANCH   2   3
ATOM      3  C   UNL A   1      34.397  21.820  26.951  1.00  0.00     0.116 C 
BRANCH   3   4
ATOM      4  N   UNL A   1      33.707  20.694  26.353  1.00  0.00    -0.352 N 
ATOM      5  C   UNL A   1      32.699  20.611  25.429  1.00  0.00     0.251 C 
ATOM      6  O   UNL A   1      32.267  19.495  25.146  1.00  0.00    -0.269 OA
ATOM      7  H   UNL A   1      34.025  19.819  26.673  1.00  0.00     0.163 HD
BRANCH   5   8
ATOM      8  C   UNL A   1      32.198  21.795  24.681  1.00  0.00     0.040 A 
ATOM      9  C   UNL A   1      31.710  24.176  23.319  1.00  0.00     0.129 A 
ATOM     10  C   UNL A   1      32.510  23.199  22.729  1.00  0.00     0.048 A 
ATOM     11  C   UNL A   1      31.003  23.900  24.488  1.00  0.00     0.048 A 
ATOM     12  C   UNL A   1      32.774  22.021  23.423  1.00  0.00     0.017 A 
ATOM     13  C   UNL A   1      31.235  22.694  25.159  1.00  0.00     0.017 A 
BRANCH   9  14
ATOM     14  O   UNL A   1      31.630  25.383  22.691  1.00  0.00    -0.439 OA
BRANCH  14  15
ATOM     15  C   UNL A   1      31.812  26.565  23.379  1.00  0.00     0.226 A 
ATOM     16  C   UNL A   1      32.788  28.224  24.756  1.00  0.00     0.051 A 
ATOM     17  N   UNL A   1      31.813  29.086  24.404  1.00  0.00    -0.233 NA
ATOM     18  C   UNL A   1      32.871  26.929  24.223  1.00  0.00     0.033 A 
ATOM     19  C   UNL A   1      30.884  28.660  23.545  1.00  0.00     0.165 A 
ATOM     20  C   UNL A   1      34.028  26.058  24.607  1.00  0.00     0.052 C 
ATOM     21  N   UNL A   1      30.823  27.423  23.048  1.00  0.00    -0.193 NA
BRANCH  16  22
ATOM     22  C   UNL A   1      33.713  28.738  25.843  1.00  0.00     0.053 C 
ATOM     23  C   UNL A   1      33.123  28.646  27.247  1.00  0.00     0.011 C 
ENDBRANCH  16  22
BRANCH  19  24
ATOM     24  C   UNL A   1      29.897  29.633  23.101  1.00  0.00     0.038 A 
ATOM     25  C   UNL A   1      29.518  30.734  23.876  1.00  0.00     0.015 A 
ATOM     26  C   UNL A   1      29.285  29.509  21.854  1.00  0.00     0.123 A 
ATOM     27  C   UNL A   1      28.583  31.646  23.387  1.00  0.00     0.021 A 
ATOM     28  N   UNL A   1      28.361  30.369  21.353  1.00  0.00    -0.264 NA
ATOM     29  C   UNL A   1      28.036  31.420  22.134  1.00  0.00     0.111 A 
ENDBRANCH  19  24
ENDBRANCH  14  15
ENDBRANCH   9  14
ENDBRANCH   5   8
ENDBRANCH   3   4
ENDBRANCH   2   3
ENDBRANCH   1   2
BRANCH   1  30
ATOM     30  C   UNL A   1      36.756  20.758  24.700  1.00  0.00     0.002 C 
BRANCH  30  31
ATOM     31  C   UNL A   1      37.833  19.702  24.964  1.00  0.00     0.021 C 
BRANCH  31  32
ATOM     32  C   UNL A   1      39.033  20.218  25.751  1.00  0.00     0.116 C 
BRANCH  32  33
ATOM     33  N   UNL A   1      40.035  19.182  25.948  1.00  0.00    -0.352 N 
ATOM     34  C   UNL A   1      41.388  19.307  26.138  1.00  0.00     0.251 C 
ATOM     35  H   UNL A   1      39.693  18.258  25.945  1.00  0.00     0.163 HD
ATOM     36  O   UNL A   1      42.118  18.325  26.064  1.00  0.00    -0.269 OA
BRANCH  34  37
ATOM     37  C   UNL A   1      41.969  20.637  26.417  1.00  0.00     0.039 A 
ATOM     38  C   UNL A   1      42.259  21.488  25.348  1.00  0.00     0.014 A 
ATOM     39  C   UNL A   1      42.236  21.039  27.729  1.00  0.00     0.014 A 
ATOM     40  C   UNL A   1      42.769  22.763  25.598  1.00  0.00     0.010 A 
ATOM     41  C   UNL A   1      42.674  22.337  27.981  1.00  0.00     0.010 A 
ATOM     42  C   UNL A   1      42.950  23.210  26.917  1.00  0.00    -0.014 A 
BRANCH  42  43
ATOM     43  C   UNL A   1      43.434  24.584  27.205  1.00  0.00     0.031 A 
ATOM     44  C   UNL A   1      42.483  25.623  27.732  1.00  0.00     0.074 A 
ATOM     45  C   UNL A   1      44.713  24.910  26.939  1.00  0.00     0.049 A 
ATOM     46  N   UNL A   1      42.691  26.894  27.966  1.00  0.00    -0.248 NA
ATOM     47  C   UNL A   1      41.106  25.180  28.008  1.00  0.00     0.031 C 
ATOM     48  C   UNL A   1      45.720  24.002  26.386  1.00  0.00     0.029 A 
ATOM     49  N   UNL A   1      45.384  26.099  27.085  1.00  0.00    -0.354 N 
ATOM     50  C   UNL A   1      41.478  27.399  28.415  1.00  0.00     0.074 A 
ATOM     51  C   UNL A   1      40.521  26.316  28.358  1.00  0.00     0.031 C 
ATOM     52  C   UNL A   1      46.881  24.663  26.249  1.00  0.00     0.029 A 
ATOM     53  C   UNL A   1      46.692  26.049  26.667  1.00  0.00     0.049 A 
ATOM     54  H   UNL A   1      44.967  26.911  27.454  1.00  0.00     0.167 HD
ATOM     55  C   UNL A   1      41.195  28.646  28.863  1.00  0.00     0.037 A 
ATOM     56  C   UNL A   1      47.628  27.016  26.613  1.00  0.00     0.037 A 
ATOM     57  C   UNL A   1      42.152  29.718  28.929  1.00  0.00     0.049 A 
ATOM     58  C   UNL A   1      47.280  28.400  27.095  1.00  0.00     0.074 A 
ATOM     59  C   UNL A   1      41.971  31.011  29.391  1.00  0.00     0.029 A 
ATOM     60  N   UNL A   1      43.475  29.621  28.521  1.00  0.00    -0.354 N 
ATOM     61  N   UNL A   1      46.143  28.850  27.569  1.00  0.00    -0.248 NA
ATOM     62  C   UNL A   1      48.348  29.407  27.045  1.00  0.00     0.031 C 
ATOM     63  C   UNL A   1      43.172  31.708  29.223  1.00  0.00     0.029 A 
ATOM     64  C   UNL A   1      44.118  30.835  28.709  1.00  0.00     0.049 A 
ATOM     65  H   UNL A   1      43.896  28.811  28.154  1.00  0.00     0.167 HD
ATOM     66  C   UNL A   1      46.368  30.180  27.901  1.00  0.00     0.074 A 
ATOM     67  C   UNL A   1      47.755  30.457  27.593  1.00  0.00     0.031 C 
ATOM     68  C   UNL A   1      45.503  31.090  28.412  1.00  0.00     0.037 A 
BRANCH  55  69
ATOM     69  C   UNL A   1      39.795  28.915  29.334  1.00  0.00     0.064 A 
ATOM     70  C   UNL A   1      38.808  29.392  28.459  1.00  0.00     0.173 A 
ATOM     71  C   UNL A   1      39.421  28.647  30.660  1.00  0.00     0.173 A 
ATOM     72  F   UNL A   1      39.116  29.675  27.184  1.00  0.00    -0.203 F 
ATOM     73  C   UNL A   1      37.505  29.612  28.897  1.00  0.00     0.198 A 
ATOM     74  C   UNL A   1      38.109  28.840  31.087  1.00  0.00     0.198 A 
ATOM     75  F   UNL A   1      40.323  28.186  31.538  1.00  0.00    -0.203 F 
ATOM     76  F   UNL A   1      36.591  30.110  28.053  1.00  0.00    -0.200 F 
ATOM     77  C   UNL A   1      37.155  29.327  30.208  1.00  0.00     0.200 A 
ATOM     78  F   UNL A   1      37.768  28.550  32.350  1.00  0.00    -0.200 F 
ATOM     79  F   UNL A   1      35.897  29.528  30.625  1.00  0.00    -0.200 F 
ENDBRANCH  55  69
BRANCH  56  80
ATOM     80  C   UNL A   1      48.985  26.715  26.083  1.00  0.00     0.064 A 
ATOM     81  C   UNL A   1      49.992  26.208  26.916  1.00  0.00     0.173 A 
ATOM     82  C   UNL A   1      49.312  26.958  24.741  1.00  0.00     0.173 A 
ATOM     83  F   UNL A   1      49.736  25.976  28.212  1.00  0.00    -0.203 F 
ATOM     84  C   UNL A   1      51.282  25.987  26.436  1.00  0.00     0.198 A 
ATOM     85  C   UNL A   1      50.592  26.704  24.254  1.00  0.00     0.198 A 
ATOM     86  F   UNL A   1      48.384  27.435  23.899  1.00  0.00    -0.203 F 
ATOM     87  F   UNL A   1      52.240  25.561  27.269  1.00  0.00    -0.200 F 
ATOM     88  C   UNL A   1      51.580  26.232  25.104  1.00  0.00     0.200 A 
ATOM     89  F   UNL A   1      50.871  26.925  22.961  1.00  0.00    -0.200 F 
ATOM     90  F   UNL A   1      52.820  26.023  24.642  1.00  0.00    -0.200 F 
ENDBRANCH  56  80
BRANCH  68  91
ATOM     91  C   UNL A   1      46.042  32.459  28.713  1.00  0.00     0.064 A 
ATOM     92  C   UNL A   1      46.631  32.766  29.947  1.00  0.00     0.173 A 
ATOM     93  C   UNL A   1      46.001  33.466  27.735  1.00  0.00     0.173 A 
ATOM     94  F   UNL A   1      46.681  31.843  30.920  1.00  0.00    -0.203 F 
ATOM     95  C   UNL A   1      47.135  34.039  30.203  1.00  0.00     0.198 A 
ATOM     96  C   UNL A   1      46.537  34.726  27.982  1.00  0.00     0.198 A 
ATOM     97  F   UNL A   1      45.455  33.222  26.534  1.00  0.00    -0.203 F 
ATOM     98  F   UNL A   1      47.648  34.325  31.408  1.00  0.00    -0.200 F 
ATOM     99  C   UNL A   1      47.095  35.015  29.218  1.00  0.00     0.200 A 
ATOM    100  F   UNL A   1      46.510  35.664  27.024  1.00  0.00    -0.200 F 
ATOM    101  F   UNL A   1      47.589  36.236  29.464  1.00  0.00    -0.200 F 
ENDBRANCH  68  91
ENDBRANCH  42  43
ENDBRANCH  34  37
ENDBRANCH  32  33
ENDBRANCH  31  32
ENDBRANCH  30  31
ENDBRANCH   1  30
TORSDOF 17
ENDMDL
MODEL 3
REMARK VINA RESULT:     -12.8      0.450      7.102
REMARK SMILES CCc1nc(-c2cccnc2)nc(Oc2ccc(C(=O)NCCCCCCNC(=O)c3ccc(-c4c5nc(c(-c6c(F)c(F)c(F)c(F)c6F)c6ccc([nH]6)c(-c6c(F)c(F)c(F)c(F)c6F)c6nc(c(-c7c(F)c(F)c(F)c(F)c7F)c7ccc4[nH]7)C=C6)C=C5)cc3)cc2)c1C
REMARK SMILES IDX 24 1 23 2 22 3 21 4 19 5 20 6 18 8 15 9 16 10 95 11 17 12
REMARK SMILES IDX 94 13 14 14 13 15 3 16 4 17 96 18 5 19 97 20 12 21 2 22 1 23
REMARK SMILES IDX 6 24 7 25 11 26 8 27 10 28 9 29 25 30 26 31 27 32 28 33
REMARK SMILES IDX 29 34 30 36 31 37 32 38 93 39 33 40 92 41 34 42 35 43 36 44
REMARK SMILES IDX 86 45 37 46 91 47 85 48 87 49 38 50 90 51 84 52 83 53 39 55
REMARK SMILES IDX 71 56 51 57 70 58 52 59 55 60 69 61 88 62 53 63 54 64 68 66
REMARK SMILES IDX 89 67 56 68 40 69 41 70 49 71 42 72 43 73 47 74 50 75 44 76
REMARK SMILES IDX 45 77 48 78 46 79 72 80 73 81 81 82 74 83 75 84 79 85 82 86
REMARK SMILES IDX 76 87 77 88 80 89 78 90 57 91 58 92 66 93 59 94 60 95 64 96
REMARK SMILES IDX 67 97 61 98 62 99 65 100 63 101
REMARK H PARENT 21 7 28 35 87 54 55 65
REMARK Flexibility Score: inf
ROOT
ATOM      1  C   UNL A   1      32.698  30.188  26.206  1.00  0.00     0.002 C 
ENDROOT
BRANCH   1   2
ATOM      2  C   UNL A   1      32.856  28.870  25.435  1.00  0.00     0.021 C 
BRANCH   2   3
ATOM      3  C   UNL A   1      33.255  29.076  23.972  1.00  0.00     0.116 C 
BRANCH   3   4
ATOM      4  N   UNL A   1      32.078  29.398  23.190  1.00  0.00    -0.352 N 
ATOM      5  C   UNL A   1      31.112  28.620  22.608  1.00  0.00     0.251 C 
ATOM      6  O   UNL A   1      30.243  29.181  21.942  1.00  0.00    -0.269 OA
ATOM      7  H   UNL A   1      31.948  30.364  23.049  1.00  0.00     0.163 HD
BRANCH   5   8
ATOM      8  C   UNL A   1      31.011  27.156  22.846  1.00  0.00     0.040 A 
ATOM      9  C   UNL A   1      31.023  24.510  23.719  1.00  0.00     0.129 A 
ATOM     10  C   UNL A   1      30.170  25.429  24.328  1.00  0.00     0.048 A 
ATOM     11  C   UNL A   1      31.725  24.852  22.565  1.00  0.00     0.048 A 
ATOM     12  C   UNL A   1      30.185  26.757  23.907  1.00  0.00     0.017 A 
ATOM     13  C   UNL A   1      31.700  26.177  22.117  1.00  0.00     0.017 A 
BRANCH   9  14
ATOM     14  O   UNL A   1      31.112  23.272  24.282  1.00  0.00    -0.439 OA
BRANCH  14  15
ATOM     15  C   UNL A   1      32.328  22.738  24.657  1.00  0.00     0.226 A 
ATOM     16  C   UNL A   1      34.439  22.495  25.698  1.00  0.00     0.051 A 
ATOM     17  N   UNL A   1      34.515  21.229  25.243  1.00  0.00    -0.233 NA
ATOM     18  C   UNL A   1      33.316  23.304  25.474  1.00  0.00     0.033 A 
ATOM     19  C   UNL A   1      33.492  20.761  24.524  1.00  0.00     0.165 A 
ATOM     20  C   UNL A   1      33.275  24.676  26.078  1.00  0.00     0.052 C 
ATOM     21  N   UNL A   1      32.419  21.477  24.180  1.00  0.00    -0.193 NA
BRANCH  16  22
ATOM     22  C   UNL A   1      35.702  22.992  26.377  1.00  0.00     0.053 C 
ATOM     23  C   UNL A   1      36.718  23.599  25.416  1.00  0.00     0.011 C 
ENDBRANCH  16  22
BRANCH  19  24
ATOM     24  C   UNL A   1      33.547  19.363  24.123  1.00  0.00     0.038 A 
ATOM     25  C   UNL A   1      34.558  18.494  24.548  1.00  0.00     0.015 A 
ATOM     26  C   UNL A   1      32.568  18.820  23.292  1.00  0.00     0.123 A 
ATOM     27  C   UNL A   1      34.545  17.158  24.150  1.00  0.00     0.021 A 
ATOM     28  N   UNL A   1      32.533  17.530  22.873  1.00  0.00    -0.264 NA
ATOM     29  C   UNL A   1      33.524  16.729  23.317  1.00  0.00     0.111 A 
ENDBRANCH  19  24
ENDBRANCH  14  15
ENDBRANCH   9  14
ENDBRANCH   5   8
ENDBRANCH   3   4
ENDBRANCH   2   3
ENDBRANCH   1   2
BRANCH   1  30
ATOM     30  C   UNL A   1      31.321  30.849  26.071  1.00  0.00     0.002 C 
BRANCH  30  31
ATOM     31  C   UNL A   1      31.274  32.325  26.472  1.00  0.00     0.021 C 
BRANCH  31  32
ATOM     32  C   UNL A   1      32.527  32.817  27.188  1.00  0.00     0.116 C 
BRANCH  32  33
ATOM     33  N   UNL A   1      32.409  34.212  27.585  1.00  0.00    -0.352 N 
ATOM     34  C   UNL A   1      33.061  34.888  28.585  1.00  0.00     0.251 C 
ATOM     35  H   UNL A   1      31.771  34.747  27.060  1.00  0.00     0.163 HD
ATOM     36  O   UNL A   1      32.682  36.001  28.931  1.00  0.00    -0.269 OA
BRANCH  34  37
ATOM     37  C   UNL A   1      34.218  34.262  29.259  1.00  0.00     0.039 A 
ATOM     38  C   UNL A   1      33.992  33.422  30.352  1.00  0.00     0.014 A 
ATOM     39  C   UNL A   1      35.523  34.513  28.822  1.00  0.00     0.014 A 
ATOM     40  C   UNL A   1      35.071  32.791  30.973  1.00  0.00     0.010 A 
ATOM     41  C   UNL A   1      36.589  33.825  29.395  1.00  0.00     0.010 A 
ATOM     42  C   UNL A   1      36.375  32.962  30.479  1.00  0.00    -0.014 A 
BRANCH  42  43
ATOM     43  C   UNL A   1      37.528  32.251  31.088  1.00  0.00     0.031 A 
ATOM     44  C   UNL A   1      38.035  32.662  32.443  1.00  0.00     0.074 A 
ATOM     45  C   UNL A   1      38.151  31.276  30.399  1.00  0.00     0.049 A 
ATOM     46  N   UNL A   1      39.076  32.223  33.106  1.00  0.00    -0.248 NA
ATOM     47  C   UNL A   1      37.289  33.726  33.134  1.00  0.00     0.031 C 
ATOM     48  C   UNL A   1      37.780  30.818  29.059  1.00  0.00     0.029 A 
ATOM     49  N   UNL A   1      39.238  30.503  30.724  1.00  0.00    -0.354 N 
ATOM     50  C   UNL A   1      39.108  32.955  34.286  1.00  0.00     0.074 A 
ATOM     51  C   UNL A   1      38.024  33.911  34.221  1.00  0.00     0.031 C 
ATOM     52  C   UNL A   1      38.616  29.838  28.681  1.00  0.00     0.029 A 
ATOM     53  C   UNL A   1      39.606  29.625  29.733  1.00  0.00     0.049 A 
ATOM     54  H   UNL A   1      39.710  30.572  31.586  1.00  0.00     0.167 HD
ATOM     55  C   UNL A   1      39.946  32.821  35.341  1.00  0.00     0.037 A 
ATOM     56  C   UNL A   1      40.635  28.758  29.674  1.00  0.00     0.037 A 
ATOM     57  C   UNL A   1      41.016  31.861  35.407  1.00  0.00     0.049 A 
ATOM     58  C   UNL A   1      41.567  28.646  30.852  1.00  0.00     0.074 A 
ATOM     59  C   UNL A   1      41.906  31.629  36.442  1.00  0.00     0.029 A 
ATOM     60  N   UNL A   1      41.341  30.970  34.394  1.00  0.00    -0.354 N 
ATOM     61  N   UNL A   1      41.553  29.306  31.984  1.00  0.00    -0.248 NA
ATOM     62  C   UNL A   1      42.652  27.661  30.747  1.00  0.00     0.031 C 
ATOM     63  C   UNL A   1      42.796  30.628  36.039  1.00  0.00     0.029 A 
ATOM     64  C   UNL A   1      42.426  30.197  34.775  1.00  0.00     0.049 A 
ATOM     65  H   UNL A   1      40.871  30.898  33.532  1.00  0.00     0.167 HD
ATOM     66  C   UNL A   1      42.602  28.796  32.737  1.00  0.00     0.074 A 
ATOM     67  C   UNL A   1      43.220  27.758  31.940  1.00  0.00     0.031 C 
ATOM     68  C   UNL A   1      43.019  29.157  33.976  1.00  0.00     0.037 A 
BRANCH  55  69
ATOM     69  C   UNL A   1      39.730  33.724  36.521  1.00  0.00     0.064 A 
ATOM     70  C   UNL A   1      38.870  33.364  37.569  1.00  0.00     0.173 A 
ATOM     71  C   UNL A   1      40.425  34.938  36.632  1.00  0.00     0.173 A 
ATOM     72  F   UNL A   1      38.173  32.218  37.507  1.00  0.00    -0.203 F 
ATOM     73  C   UNL A   1      38.697  34.193  38.674  1.00  0.00     0.198 A 
ATOM     74  C   UNL A   1      40.272  35.751  37.753  1.00  0.00     0.198 A 
ATOM     75  F   UNL A   1      41.263  35.330  35.661  1.00  0.00    -0.203 F 
ATOM     76  F   UNL A   1      37.836  33.847  39.641  1.00  0.00    -0.200 F 
ATOM     77  C   UNL A   1      39.405  35.382  38.769  1.00  0.00     0.200 A 
ATOM     78  F   UNL A   1      40.968  36.892  37.851  1.00  0.00    -0.200 F 
ATOM     79  F   UNL A   1      39.246  36.173  39.838  1.00  0.00    -0.200 F 
ENDBRANCH  55  69
BRANCH  56  80
ATOM     80  C   UNL A   1      40.843  27.925  28.459  1.00  0.00     0.064 A 
ATOM     81  C   UNL A   1      41.652  28.371  27.404  1.00  0.00     0.173 A 
ATOM     82  C   UNL A   1      40.215  26.680  28.313  1.00  0.00     0.173 A 
ATOM     83  F   UNL A   1      42.261  29.564  27.486  1.00  0.00    -0.203 F 
ATOM     84  C   UNL A   1      41.796  27.622  26.238  1.00  0.00     0.198 A 
ATOM     85  C   UNL A   1      40.387  25.915  27.162  1.00  0.00     0.198 A 
ATOM     86  F   UNL A   1      39.436  26.201  29.295  1.00  0.00    -0.203 F 
ATOM     87  F   UNL A   1      42.525  28.102  25.222  1.00  0.00    -0.200 F 
ATOM     88  C   UNL A   1      41.166  26.393  26.120  1.00  0.00     0.200 A 
ATOM     89  F   UNL A   1      39.791  24.719  27.060  1.00  0.00    -0.200 F 
ATOM     90  F   UNL A   1      41.302  25.672  24.998  1.00  0.00    -0.200 F 
ENDBRANCH  56  80
BRANCH  68  91
ATOM     91  C   UNL A   1      44.171  28.394  34.564  1.00  0.00     0.064 A 
ATOM     92  C   UNL A   1      43.979  27.212  35.293  1.00  0.00     0.173 A 
ATOM     93  C   UNL A   1      45.489  28.833  34.360  1.00  0.00     0.173 A 
ATOM     94  F   UNL A   1      42.737  26.758  35.528  1.00  0.00    -0.203 F 
ATOM     95  C   UNL A   1      45.061  26.513  35.822  1.00  0.00     0.198 A 
ATOM     96  C   UNL A   1      46.569  28.113  34.860  1.00  0.00     0.198 A 
ATOM     97  F   UNL A   1      45.728  29.954  33.662  1.00  0.00    -0.203 F 
ATOM     98  F   UNL A   1      44.850  25.414  36.559  1.00  0.00    -0.200 F 
ATOM     99  C   UNL A   1      46.355  26.959  35.598  1.00  0.00     0.200 A 
ATOM    100  F   UNL A   1      47.820  28.538  34.631  1.00  0.00    -0.200 F 
ATOM    101  F   UNL A   1      47.395  26.279  36.100  1.00  0.00    -0.200 F 
ENDBRANCH  68  91
ENDBRANCH  42  43
ENDBRANCH  34  37
ENDBRANCH  32  33
ENDBRANCH  31  32
ENDBRANCH  30  31
ENDBRANCH   1  30
TORSDOF 17
ENDMDL
