MODEL 1
REMARK VINA RESULT:     -12.6      0.000      0.000
REMARK SMILES C[C@@H](C(=O)NCCCCCCNC(=O)c1ccc(-c2c3nc(c(-c4c(F)c(F)c(F)c(F)c4F)c4ccc([nH]4)c(-c4c(F)c(F)c(F)c(F)c4F)c4nc(c(-c5c(F)c(F)c(F)c(F)c5F)c5ccc2[nH]5)C=C4)C=C3)cc1)c1ccc(C[C@H]2CCC[C@H]2O)cc1-c1ccc(O)cc1
REMARK SMILES IDX 7 1 6 2 5 3 3 4 4 5 2 7 1 8 78 9 79 10 90 11 80 12 89 13
REMARK SMILES IDX 81 14 91 15 92 16 97 17 93 18 96 19 94 20 95 21 82 23 83 24
REMARK SMILES IDX 84 25 87 26 85 27 86 28 88 29 8 31 9 32 10 33 11 34 12 35
REMARK SMILES IDX 13 36 14 38 15 39 16 40 77 41 17 42 76 43 18 44 19 45 20 46
REMARK SMILES IDX 70 47 21 48 75 49 69 50 71 51 22 52 74 53 68 54 67 55 23 57
REMARK SMILES IDX 55 58 35 59 54 60 36 61 39 62 53 63 72 64 37 65 38 66 52 68
REMARK SMILES IDX 73 69 40 70 24 71 25 72 33 73 26 74 27 75 31 76 34 77 28 78
REMARK SMILES IDX 29 79 32 80 30 81 56 82 57 83 65 84 58 85 59 86 63 87 66 88
REMARK SMILES IDX 60 89 61 90 64 91 62 92 41 93 42 94 50 95 43 96 44 97 48 98
REMARK SMILES IDX 51 99 45 100 46 101 49 102 47 103
REMARK H PARENT 5 6 95 22 88 30 12 37 71 56 39 67
REMARK Flexibility Score: inf
ROOT
ATOM      1  C   UNL A   1      35.266  30.949  27.818  1.00  0.00     0.021 C 
ENDROOT
BRANCH   1   2
ATOM      2  C   UNL A   1      34.478  29.765  27.266  1.00  0.00     0.116 C 
BRANCH   2   3
ATOM      3  N   UNL A   1      33.676  30.109  26.112  1.00  0.00    -0.356 N 
ATOM      4  C   UNL A   1      32.310  30.033  26.106  1.00  0.00     0.227 C 
ATOM      5  O   UNL A   1      31.693  31.080  25.904  1.00  0.00    -0.274 OA
ATOM      6  H   UNL A   1      34.134  30.412  25.294  1.00  0.00     0.163 HD
BRANCH   4   7
ATOM      7  C   UNL A   1      31.615  28.708  26.434  1.00  0.00     0.106 C 
ATOM      8  C   UNL A   1      31.674  28.224  27.893  1.00  0.00     0.023 C 
BRANCH   7   9
ATOM      9  C   UNL A   1      32.051  27.502  25.581  1.00  0.00    -0.028 A 
ATOM     10  C   UNL A   1      32.917  26.597  26.233  1.00  0.00     0.005 A 
ATOM     11  C   UNL A   1      31.794  27.316  24.199  1.00  0.00    -0.014 A 
ATOM     12  C   UNL A   1      33.589  25.600  25.537  1.00  0.00     0.004 A 
ATOM     13  C   UNL A   1      32.538  26.331  23.508  1.00  0.00     0.012 A 
ATOM     14  C   UNL A   1      33.473  25.509  24.154  1.00  0.00    -0.047 A 
BRANCH  11  15
ATOM     15  C   UNL A   1      30.721  27.999  23.449  1.00  0.00    -0.018 A 
ATOM     16  C   UNL A   1      29.397  27.538  23.601  1.00  0.00     0.012 A 
ATOM     17  C   UNL A   1      30.942  29.109  22.622  1.00  0.00     0.012 A 
ATOM     18  C   UNL A   1      28.323  28.201  23.005  1.00  0.00     0.047 A 
ATOM     19  C   UNL A   1      29.863  29.785  22.030  1.00  0.00     0.047 A 
ATOM     20  C   UNL A   1      28.563  29.334  22.244  1.00  0.00     0.115 A 
BRANCH  20  21
ATOM     21  O   UNL A   1      27.483  29.990  21.732  1.00  0.00    -0.508 OA
ATOM     22  H   UNL A   1      27.562  30.885  21.464  1.00  0.00     0.293 HD
ENDBRANCH  20  21
ENDBRANCH  11  15
BRANCH  14  23
ATOM     23  C   UNL A   1      34.348  24.555  23.381  1.00  0.00     0.041 C 
BRANCH  23  24
ATOM     24  C   UNL A   1      35.229  23.587  24.195  1.00  0.00     0.022 C 
ATOM     25  C   UNL A   1      34.614  22.210  24.492  1.00  0.00     0.007 C 
ATOM     26  C   UNL A   1      36.650  23.277  23.697  1.00  0.00     0.117 C 
ATOM     27  C   UNL A   1      35.792  21.240  24.628  1.00  0.00     0.003 C 
ATOM     28  C   UNL A   1      37.053  22.096  24.573  1.00  0.00     0.032 C 
BRANCH  26  29
ATOM     29  O   UNL A   1      36.739  22.868  22.342  1.00  0.00    -0.393 OA
ATOM     30  H   UNL A   1      36.016  22.254  22.141  1.00  0.00     0.210 HD
ENDBRANCH  26  29
ENDBRANCH  23  24
ENDBRANCH  14  23
ENDBRANCH   7   9
ENDBRANCH   4   7
ENDBRANCH   2   3
ENDBRANCH   1   2
BRANCH   1  31
ATOM     31  C   UNL A   1      34.462  31.896  28.717  1.00  0.00     0.002 C 
BRANCH  31  32
ATOM     32  C   UNL A   1      34.604  33.388  28.401  1.00  0.00     0.002 C 
BRANCH  32  33
ATOM     33  C   UNL A   1      33.339  34.224  28.596  1.00  0.00     0.021 C 
BRANCH  33  34
ATOM     34  C   UNL A   1      33.585  35.655  29.048  1.00  0.00     0.116 C 
BRANCH  34  35
ATOM     35  N   UNL A   1      32.713  36.046  30.141  1.00  0.00    -0.352 N 
ATOM     36  C   UNL A   1      32.776  35.684  31.464  1.00  0.00     0.251 C 
ATOM     37  H   UNL A   1      31.975  36.653  29.900  1.00  0.00     0.163 HD
ATOM     38  O   UNL A   1      31.858  35.951  32.228  1.00  0.00    -0.269 OA
BRANCH  36  39
ATOM     39  C   UNL A   1      33.959  34.946  31.956  1.00  0.00     0.039 A 
ATOM     40  C   UNL A   1      33.812  33.612  32.341  1.00  0.00     0.014 A 
ATOM     41  C   UNL A   1      35.209  35.568  32.026  1.00  0.00     0.014 A 
ATOM     42  C   UNL A   1      34.933  32.884  32.749  1.00  0.00     0.010 A 
ATOM     43  C   UNL A   1      36.334  34.821  32.354  1.00  0.00     0.010 A 
ATOM     44  C   UNL A   1      36.207  33.475  32.730  1.00  0.00    -0.014 A 
BRANCH  44  45
ATOM     45  C   UNL A   1      37.418  32.711  33.122  1.00  0.00     0.031 A 
ATOM     46  C   UNL A   1      38.111  33.020  34.419  1.00  0.00     0.074 A 
ATOM     47  C   UNL A   1      37.930  31.790  32.284  1.00  0.00     0.049 A 
ATOM     48  N   UNL A   1      39.225  32.530  34.904  1.00  0.00    -0.248 NA
ATOM     49  C   UNL A   1      37.484  34.041  35.275  1.00  0.00     0.031 C 
ATOM     50  C   UNL A   1      37.373  31.429  30.980  1.00  0.00     0.029 A 
ATOM     51  N   UNL A   1      39.044  30.996  32.400  1.00  0.00    -0.354 N 
ATOM     52  C   UNL A   1      39.436  33.192  36.106  1.00  0.00     0.074 A 
ATOM     53  C   UNL A   1      38.372  34.161  36.249  1.00  0.00     0.031 C 
ATOM     54  C   UNL A   1      38.135  30.474  30.425  1.00  0.00     0.029 A 
ATOM     55  C   UNL A   1      39.256  30.183  31.313  1.00  0.00     0.049 A 
ATOM     56  H   UNL A   1      39.636  31.009  33.186  1.00  0.00     0.167 HD
ATOM     57  C   UNL A   1      40.417  32.993  37.019  1.00  0.00     0.037 A 
ATOM     58  C   UNL A   1      40.250  29.310  31.058  1.00  0.00     0.037 A 
ATOM     59  C   UNL A   1      41.462  32.012  36.880  1.00  0.00     0.049 A 
ATOM     60  C   UNL A   1      41.338  29.118  32.081  1.00  0.00     0.074 A 
ATOM     61  C   UNL A   1      42.469  31.692  37.772  1.00  0.00     0.029 A 
ATOM     62  N   UNL A   1      41.634  31.195  35.771  1.00  0.00    -0.354 N 
ATOM     63  N   UNL A   1      41.492  29.703  33.245  1.00  0.00    -0.248 NA
ATOM     64  C   UNL A   1      42.385  28.139  31.758  1.00  0.00     0.031 C 
ATOM     65  C   UNL A   1      43.285  30.722  37.181  1.00  0.00     0.029 A 
ATOM     66  C   UNL A   1      42.749  30.390  35.946  1.00  0.00     0.049 A 
ATOM     67  H   UNL A   1      41.052  31.189  34.978  1.00  0.00     0.167 HD
ATOM     68  C   UNL A   1      42.632  29.141  33.807  1.00  0.00     0.074 A 
ATOM     69  C   UNL A   1      43.122  28.160  32.860  1.00  0.00     0.031 C 
ATOM     70  C   UNL A   1      43.218  29.411  34.999  1.00  0.00     0.037 A 
BRANCH  57  71
ATOM     71  C   UNL A   1      40.406  33.857  38.248  1.00  0.00     0.064 A 
ATOM     72  C   UNL A   1      39.646  33.525  39.379  1.00  0.00     0.173 A 
ATOM     73  C   UNL A   1      41.186  35.023  38.304  1.00  0.00     0.173 A 
ATOM     74  F   UNL A   1      38.873  32.427  39.375  1.00  0.00    -0.203 F 
ATOM     75  C   UNL A   1      39.637  34.345  40.505  1.00  0.00     0.198 A 
ATOM     76  C   UNL A   1      41.202  35.821  39.446  1.00  0.00     0.198 A 
ATOM     77  F   UNL A   1      41.937  35.387  37.254  1.00  0.00    -0.203 F 
ATOM     78  F   UNL A   1      38.856  34.036  41.549  1.00  0.00    -0.200 F 
ATOM     79  C   UNL A   1      40.420  35.487  40.540  1.00  0.00     0.200 A 
ATOM     80  F   UNL A   1      41.973  36.917  39.483  1.00  0.00    -0.200 F 
ATOM     81  F   UNL A   1      40.415  36.272  41.626  1.00  0.00    -0.200 F 
ENDBRANCH  57  71
BRANCH  58  82
ATOM     82  C   UNL A   1      40.249  28.535  29.789  1.00  0.00     0.064 A 
ATOM     83  C   UNL A   1      40.944  29.000  28.663  1.00  0.00     0.173 A 
ATOM     84  C   UNL A   1      39.556  27.322  29.673  1.00  0.00     0.173 A 
ATOM     85  F   UNL A   1      41.606  30.165  28.719  1.00  0.00    -0.203 F 
ATOM     86  C   UNL A   1      40.929  28.290  27.464  1.00  0.00     0.198 A 
ATOM     87  C   UNL A   1      39.566  26.598  28.482  1.00  0.00     0.198 A 
ATOM     88  F   UNL A   1      38.879  26.831  30.722  1.00  0.00    -0.203 F 
ATOM     89  F   UNL A   1      41.562  28.780  26.390  1.00  0.00    -0.200 F 
ATOM     90  C   UNL A   1      40.244  27.087  27.377  1.00  0.00     0.200 A 
ATOM     91  F   UNL A   1      38.917  25.428  28.407  1.00  0.00    -0.200 F 
ATOM     92  F   UNL A   1      40.234  26.402  26.225  1.00  0.00    -0.200 F 
ENDBRANCH  58  82
BRANCH  70  93
ATOM     93  C   UNL A   1      44.430  28.606  35.371  1.00  0.00     0.064 A 
ATOM     94  C   UNL A   1      45.729  29.036  35.063  1.00  0.00     0.173 A 
ATOM     95  C   UNL A   1      44.289  27.408  36.090  1.00  0.00     0.173 A 
ATOM     96  F   UNL A   1      45.919  30.166  34.366  1.00  0.00    -0.203 F 
ATOM     97  C   UNL A   1      46.840  28.283  35.437  1.00  0.00     0.198 A 
ATOM     98  C   UNL A   1      45.403  26.677  36.492  1.00  0.00     0.198 A 
ATOM     99  F   UNL A   1      43.069  26.955  36.418  1.00  0.00    -0.203 F 
ATOM    100  F   UNL A   1      48.069  28.689  35.087  1.00  0.00    -0.200 F 
ATOM    101  C   UNL A   1      46.676  27.111  36.158  1.00  0.00     0.200 A 
ATOM    102  F   UNL A   1      45.244  25.552  37.203  1.00  0.00    -0.200 F 
ATOM    103  F   UNL A   1      47.747  26.394  36.526  1.00  0.00    -0.200 F 
ENDBRANCH  70  93
ENDBRANCH  44  45
ENDBRANCH  36  39
ENDBRANCH  34  35
ENDBRANCH  33  34
ENDBRANCH  32  33
ENDBRANCH  31  32
ENDBRANCH   1  31
TORSDOF 19
ENDMDL
MODEL 2
REMARK VINA RESULT:     -12.5      1.575      4.078
REMARK SMILES C[C@@H](C(=O)NCCCCCCNC(=O)c1ccc(-c2c3nc(c(-c4c(F)c(F)c(F)c(F)c4F)c4ccc([nH]4)c(-c4c(F)c(F)c(F)c(F)c4F)c4nc(c(-c5c(F)c(F)c(F)c(F)c5F)c5ccc2[nH]5)C=C4)C=C3)cc1)c1ccc(C[C@H]2CCC[C@H]2O)cc1-c1ccc(O)cc1
REMARK SMILES IDX 7 1 6 2 5 3 3 4 4 5 2 7 1 8 78 9 79 10 90 11 80 12 89 13
REMARK SMILES IDX 81 14 91 15 92 16 97 17 93 18 96 19 94 20 95 21 82 23 83 24
REMARK SMILES IDX 84 25 87 26 85 27 86 28 88 29 8 31 9 32 10 33 11 34 12 35
REMARK SMILES IDX 13 36 14 38 15 39 16 40 77 41 17 42 76 43 18 44 19 45 20 46
REMARK SMILES IDX 70 47 21 48 75 49 69 50 71 51 22 52 74 53 68 54 67 55 23 57
REMARK SMILES IDX 55 58 35 59 54 60 36 61 39 62 53 63 72 64 37 65 38 66 52 68
REMARK SMILES IDX 73 69 40 70 24 71 25 72 33 73 26 74 27 75 31 76 34 77 28 78
REMARK SMILES IDX 29 79 32 80 30 81 56 82 57 83 65 84 58 85 59 86 63 87 66 88
REMARK SMILES IDX 60 89 61 90 64 91 62 92 41 93 42 94 50 95 43 96 44 97 48 98
REMARK SMILES IDX 51 99 45 100 46 101 49 102 47 103
REMARK H PARENT 5 6 95 22 88 30 12 37 71 56 39 67
REMARK Flexibility Score: inf
ROOT
ATOM      1  C   UNL A   1      34.264  31.472  27.620  1.00  0.00     0.021 C 
ENDROOT
BRANCH   1   2
ATOM      2  C   UNL A   1      33.999  29.970  27.618  1.00  0.00     0.116 C 
BRANCH   2   3
ATOM      3  N   UNL A   1      32.589  29.646  27.626  1.00  0.00    -0.356 N 
ATOM      4  C   UNL A   1      32.111  28.394  27.347  1.00  0.00     0.227 C 
ATOM      5  O   UNL A   1      31.474  27.828  28.237  1.00  0.00    -0.274 OA
ATOM      6  H   UNL A   1      31.943  30.358  27.841  1.00  0.00     0.163 HD
BRANCH   4   7
ATOM      7  C   UNL A   1      32.455  27.723  26.014  1.00  0.00     0.106 C 
ATOM      8  C   UNL A   1      33.765  28.149  25.328  1.00  0.00     0.023 C 
BRANCH   7   9
ATOM      9  C   UNL A   1      31.370  27.816  24.925  1.00  0.00    -0.028 A 
ATOM     10  C   UNL A   1      31.248  29.085  24.317  1.00  0.00     0.005 A 
ATOM     11  C   UNL A   1      30.414  26.818  24.607  1.00  0.00    -0.014 A 
ATOM     12  C   UNL A   1      30.170  29.402  23.500  1.00  0.00     0.004 A 
ATOM     13  C   UNL A   1      29.298  27.190  23.821  1.00  0.00     0.012 A 
ATOM     14  C   UNL A   1      29.140  28.487  23.311  1.00  0.00    -0.047 A 
BRANCH  11  15
ATOM     15  C   UNL A   1      30.556  25.388  24.941  1.00  0.00    -0.018 A 
ATOM     16  C   UNL A   1      31.035  24.510  23.947  1.00  0.00     0.012 A 
ATOM     17  C   UNL A   1      30.277  24.858  26.209  1.00  0.00     0.012 A 
ATOM     18  C   UNL A   1      31.292  23.166  24.225  1.00  0.00     0.047 A 
ATOM     19  C   UNL A   1      30.546  23.510  26.495  1.00  0.00     0.047 A 
ATOM     20  C   UNL A   1      31.068  22.683  25.504  1.00  0.00     0.115 A 
BRANCH  20  21
ATOM     21  O   UNL A   1      31.393  21.383  25.753  1.00  0.00    -0.508 OA
ATOM     22  H   UNL A   1      32.268  21.157  25.999  1.00  0.00     0.293 HD
ENDBRANCH  20  21
ENDBRANCH  11  15
BRANCH  14  23
ATOM     23  C   UNL A   1      27.883  28.899  22.586  1.00  0.00     0.041 C 
BRANCH  23  24
ATOM     24  C   UNL A   1      27.652  30.408  22.376  1.00  0.00     0.022 C 
ATOM     25  C   UNL A   1      28.152  31.326  23.504  1.00  0.00     0.007 C 
ATOM     26  C   UNL A   1      28.167  31.066  21.085  1.00  0.00     0.117 C 
ATOM     27  C   UNL A   1      28.484  32.667  22.843  1.00  0.00     0.003 C 
ATOM     28  C   UNL A   1      28.020  32.552  21.395  1.00  0.00     0.032 C 
BRANCH  26  29
ATOM     29  O   UNL A   1      29.529  30.816  20.781  1.00  0.00    -0.393 OA
ATOM     30  H   UNL A   1      29.652  30.818  19.820  1.00  0.00     0.210 HD
ENDBRANCH  26  29
ENDBRANCH  23  24
ENDBRANCH  14  23
ENDBRANCH   7   9
ENDBRANCH   4   7
ENDBRANCH   2   3
ENDBRANCH   1   2
BRANCH   1  31
ATOM     31  C   UNL A   1      34.430  32.096  29.011  1.00  0.00     0.002 C 
BRANCH  31  32
ATOM     32  C   UNL A   1      34.590  33.619  29.039  1.00  0.00     0.002 C 
BRANCH  32  33
ATOM     33  C   UNL A   1      33.290  34.419  28.938  1.00  0.00     0.021 C 
BRANCH  33  34
ATOM     34  C   UNL A   1      33.413  35.883  29.330  1.00  0.00     0.116 C 
BRANCH  34  35
ATOM     35  N   UNL A   1      32.526  36.238  30.423  1.00  0.00    -0.352 N 
ATOM     36  C   UNL A   1      32.582  35.845  31.738  1.00  0.00     0.251 C 
ATOM     37  H   UNL A   1      31.783  36.841  30.191  1.00  0.00     0.163 HD
ATOM     38  O   UNL A   1      31.654  36.082  32.500  1.00  0.00    -0.269 OA
BRANCH  36  39
ATOM     39  C   UNL A   1      33.769  35.109  32.224  1.00  0.00     0.039 A 
ATOM     40  C   UNL A   1      33.608  33.812  32.715  1.00  0.00     0.014 A 
ATOM     41  C   UNL A   1      35.037  35.697  32.183  1.00  0.00     0.014 A 
ATOM     42  C   UNL A   1      34.729  33.083  33.118  1.00  0.00     0.010 A 
ATOM     43  C   UNL A   1      36.158  34.942  32.509  1.00  0.00     0.010 A 
ATOM     44  C   UNL A   1      36.015  33.632  32.991  1.00  0.00    -0.014 A 
BRANCH  44  45
ATOM     45  C   UNL A   1      37.225  32.862  33.377  1.00  0.00     0.031 A 
ATOM     46  C   UNL A   1      37.923  33.166  34.672  1.00  0.00     0.074 A 
ATOM     47  C   UNL A   1      37.731  31.942  32.534  1.00  0.00     0.049 A 
ATOM     48  N   UNL A   1      39.037  32.671  35.152  1.00  0.00    -0.248 NA
ATOM     49  C   UNL A   1      37.302  34.186  35.532  1.00  0.00     0.031 C 
ATOM     50  C   UNL A   1      37.168  31.586  31.231  1.00  0.00     0.029 A 
ATOM     51  N   UNL A   1      38.843  31.143  32.644  1.00  0.00    -0.354 N 
ATOM     52  C   UNL A   1      39.254  33.329  36.355  1.00  0.00     0.074 A 
ATOM     53  C   UNL A   1      38.194  34.301  36.505  1.00  0.00     0.031 C 
ATOM     54  C   UNL A   1      37.925  30.629  30.672  1.00  0.00     0.029 A 
ATOM     55  C   UNL A   1      39.048  30.332  31.556  1.00  0.00     0.049 A 
ATOM     56  H   UNL A   1      39.436  31.152  33.430  1.00  0.00     0.167 HD
ATOM     57  C   UNL A   1      40.237  33.124  37.264  1.00  0.00     0.037 A 
ATOM     58  C   UNL A   1      40.038  29.456  31.295  1.00  0.00     0.037 A 
ATOM     59  C   UNL A   1      41.278  32.139  37.119  1.00  0.00     0.049 A 
ATOM     60  C   UNL A   1      41.128  29.258  32.314  1.00  0.00     0.074 A 
ATOM     61  C   UNL A   1      42.287  31.813  38.008  1.00  0.00     0.029 A 
ATOM     62  N   UNL A   1      41.444  31.325  36.008  1.00  0.00    -0.354 N 
ATOM     63  N   UNL A   1      41.289  29.839  33.479  1.00  0.00    -0.248 NA
ATOM     64  C   UNL A   1      42.171  28.276  31.985  1.00  0.00     0.031 C 
ATOM     65  C   UNL A   1      43.097  30.841  37.411  1.00  0.00     0.029 A 
ATOM     66  C   UNL A   1      42.557  30.515  36.177  1.00  0.00     0.049 A 
ATOM     67  H   UNL A   1      40.859  31.323  35.217  1.00  0.00     0.167 HD
ATOM     68  C   UNL A   1      42.428  29.271  34.035  1.00  0.00     0.074 A 
ATOM     69  C   UNL A   1      42.911  28.291  33.085  1.00  0.00     0.031 C 
ATOM     70  C   UNL A   1      43.019  29.537  35.226  1.00  0.00     0.037 A 
BRANCH  57  71
ATOM     71  C   UNL A   1      40.234  33.985  38.496  1.00  0.00     0.064 A 
ATOM     72  C   UNL A   1      40.955  35.187  38.559  1.00  0.00     0.173 A 
ATOM     73  C   UNL A   1      39.480  33.614  39.620  1.00  0.00     0.173 A 
ATOM     74  F   UNL A   1      41.702  35.583  37.517  1.00  0.00    -0.203 F 
ATOM     75  C   UNL A   1      40.951  35.966  39.714  1.00  0.00     0.198 A 
ATOM     76  C   UNL A   1      39.450  34.415  40.760  1.00  0.00     0.198 A 
ATOM     77  F   UNL A   1      38.767  32.478  39.613  1.00  0.00    -0.203 F 
ATOM     78  F   UNL A   1      41.696  37.079  39.771  1.00  0.00    -0.200 F 
ATOM     79  C   UNL A   1      40.194  35.584  40.809  1.00  0.00     0.200 A 
ATOM     80  F   UNL A   1      38.704  34.050  41.812  1.00  0.00    -0.200 F 
ATOM     81  F   UNL A   1      40.187  36.337  41.918  1.00  0.00    -0.200 F 
ENDBRANCH  57  71
BRANCH  58  82
ATOM     82  C   UNL A   1      40.030  28.685  30.024  1.00  0.00     0.064 A 
ATOM     83  C   UNL A   1      39.431  27.420  29.954  1.00  0.00     0.173 A 
ATOM     84  C   UNL A   1      40.622  29.193  28.858  1.00  0.00     0.173 A 
ATOM     85  F   UNL A   1      38.870  26.883  31.047  1.00  0.00    -0.203 F 
ATOM     86  C   UNL A   1      39.441  26.683  28.771  1.00  0.00     0.198 A 
ATOM     87  C   UNL A   1      40.604  28.468  27.668  1.00  0.00     0.198 A 
ATOM     88  F   UNL A   1      41.204  30.400  28.870  1.00  0.00    -0.203 F 
ATOM     89  F   UNL A   1      38.903  25.456  28.744  1.00  0.00    -0.200 F 
ATOM     90  C   UNL A   1      40.023  27.210  27.628  1.00  0.00     0.200 A 
ATOM     91  F   UNL A   1      41.153  28.988  26.562  1.00  0.00    -0.200 F 
ATOM     92  F   UNL A   1      40.028  26.503  26.489  1.00  0.00    -0.200 F 
ENDBRANCH  58  82
BRANCH  70  93
ATOM     93  C   UNL A   1      44.229  28.726  35.593  1.00  0.00     0.064 A 
ATOM     94  C   UNL A   1      45.528  29.144  35.267  1.00  0.00     0.173 A 
ATOM     95  C   UNL A   1      44.087  27.536  36.324  1.00  0.00     0.173 A 
ATOM     96  F   UNL A   1      45.718  30.267  34.557  1.00  0.00    -0.203 F 
ATOM     97  C   UNL A   1      46.637  28.387  35.635  1.00  0.00     0.198 A 
ATOM     98  C   UNL A   1      45.200  26.800  36.720  1.00  0.00     0.198 A 
ATOM     99  F   UNL A   1      42.868  27.095  36.669  1.00  0.00    -0.203 F 
ATOM    100  F   UNL A   1      47.866  28.781  35.269  1.00  0.00    -0.200 F 
ATOM    101  C   UNL A   1      46.473  27.222  36.368  1.00  0.00     0.200 A 
ATOM    102  F   UNL A   1      45.041  25.683  37.443  1.00  0.00    -0.200 F 
ATOM    103  F   UNL A   1      47.543  26.501  36.731  1.00  0.00    -0.200 F 
ENDBRANCH  70  93
ENDBRANCH  44  45
ENDBRANCH  36  39
ENDBRANCH  34  35
ENDBRANCH  33  34
ENDBRANCH  32  33
ENDBRANCH  31  32
ENDBRANCH   1  31
TORSDOF 19
ENDMDL
MODEL 3
REMARK VINA RESULT:     -12.4      1.985      3.754
REMARK SMILES C[C@@H](C(=O)NCCCCCCNC(=O)c1ccc(-c2c3nc(c(-c4c(F)c(F)c(F)c(F)c4F)c4ccc([nH]4)c(-c4c(F)c(F)c(F)c(F)c4F)c4nc(c(-c5c(F)c(F)c(F)c(F)c5F)c5ccc2[nH]5)C=C4)C=C3)cc1)c1ccc(C[C@H]2CCC[C@H]2O)cc1-c1ccc(O)cc1
REMARK SMILES IDX 7 1 6 2 5 3 3 4 4 5 2 7 1 8 78 9 79 10 90 11 80 12 89 13
REMARK SMILES IDX 81 14 91 15 92 16 97 17 93 18 96 19 94 20 95 21 82 23 83 24
REMARK SMILES IDX 84 25 87 26 85 27 86 28 88 29 8 31 9 32 10 33 11 34 12 35
REMARK SMILES IDX 13 36 14 38 15 39 16 40 77 41 17 42 76 43 18 44 19 45 20 46
REMARK SMILES IDX 70 47 21 48 75 49 69 50 71 51 22 52 74 53 68 54 67 55 23 57
REMARK SMILES IDX 55 58 35 59 54 60 36 61 39 62 53 63 72 64 37 65 38 66 52 68
REMARK SMILES IDX 73 69 40 70 24 71 25 72 33 73 26 74 27 75 31 76 34 77 28 78
REMARK SMILES IDX 29 79 32 80 30 81 56 82 57 83 65 84 58 85 59 86 63 87 66 88
REMARK SMILES IDX 60 89 61 90 64 91 62 92 41 93 42 94 50 95 43 96 44 97 48 98
REMARK SMILES IDX 51 99 45 100 46 101 49 102 47 103
REMARK H PARENT 5 6 95 22 88 30 12 37 71 56 39 67
REMARK Flexibility Score: inf
ROOT
ATOM      1  C   UNL A   1      30.881  29.401  24.310  1.00  0.00     0.021 C 
ENDROOT
BRANCH   1   2
ATOM      2  C   UNL A   1      30.660  29.224  22.811  1.00  0.00     0.116 C 
BRANCH   2   3
ATOM      3  N   UNL A   1      29.954  28.004  22.484  1.00  0.00    -0.356 N 
ATOM      4  C   UNL A   1      30.325  26.777  22.964  1.00  0.00     0.227 C 
ATOM      5  O   UNL A   1      29.501  26.177  23.656  1.00  0.00    -0.274 OA
ATOM      6  H   UNL A   1      29.172  28.059  21.888  1.00  0.00     0.163 HD
BRANCH   4   7
ATOM      7  C   UNL A   1      31.741  26.252  22.713  1.00  0.00     0.106 C 
ATOM      8  C   UNL A   1      32.138  25.968  21.253  1.00  0.00     0.023 C 
BRANCH   7   9
ATOM      9  C   UNL A   1      32.129  24.988  23.500  1.00  0.00    -0.028 A 
ATOM     10  C   UNL A   1      32.149  23.798  22.740  1.00  0.00     0.005 A 
ATOM     11  C   UNL A   1      32.307  24.896  24.905  1.00  0.00    -0.014 A 
ATOM     12  C   UNL A   1      32.239  22.549  23.341  1.00  0.00     0.004 A 
ATOM     13  C   UNL A   1      32.336  23.610  25.491  1.00  0.00     0.012 A 
ATOM     14  C   UNL A   1      32.248  22.436  24.727  1.00  0.00    -0.047 A 
BRANCH  11  15
ATOM     15  C   UNL A   1      32.578  26.046  25.789  1.00  0.00    -0.018 A 
ATOM     16  C   UNL A   1      33.849  26.656  25.727  1.00  0.00     0.012 A 
ATOM     17  C   UNL A   1      31.627  26.592  26.663  1.00  0.00     0.012 A 
ATOM     18  C   UNL A   1      34.138  27.809  26.459  1.00  0.00     0.047 A 
ATOM     19  C   UNL A   1      31.911  27.758  27.390  1.00  0.00     0.047 A 
ATOM     20  C   UNL A   1      33.158  28.365  27.265  1.00  0.00     0.115 A 
BRANCH  20  21
ATOM     21  O   UNL A   1      33.458  29.527  27.912  1.00  0.00    -0.508 OA
ATOM     22  H   UNL A   1      33.911  30.212  27.461  1.00  0.00     0.293 HD
ENDBRANCH  20  21
ENDBRANCH  11  15
BRANCH  14  23
ATOM     23  C   UNL A   1      32.151  21.079  25.378  1.00  0.00     0.041 C 
BRANCH  23  24
ATOM     24  C   UNL A   1      32.863  19.907  24.676  1.00  0.00     0.022 C 
ATOM     25  C   UNL A   1      34.400  19.955  24.684  1.00  0.00     0.007 C 
ATOM     26  C   UNL A   1      32.519  18.469  25.097  1.00  0.00     0.117 C 
ATOM     27  C   UNL A   1      34.870  18.498  24.621  1.00  0.00     0.003 C 
ATOM     28  C   UNL A   1      33.615  17.657  24.413  1.00  0.00     0.032 C 
BRANCH  26  29
ATOM     29  O   UNL A   1      32.590  18.214  26.489  1.00  0.00    -0.393 OA
ATOM     30  H   UNL A   1      32.344  19.014  26.978  1.00  0.00     0.210 HD
ENDBRANCH  26  29
ENDBRANCH  23  24
ENDBRANCH  14  23
ENDBRANCH   7   9
ENDBRANCH   4   7
ENDBRANCH   2   3
ENDBRANCH   1   2
BRANCH   1  31
ATOM     31  C   UNL A   1      30.639  30.821  24.834  1.00  0.00     0.002 C 
BRANCH  31  32
ATOM     32  C   UNL A   1      31.356  31.176  26.140  1.00  0.00     0.002 C 
BRANCH  32  33
ATOM     33  C   UNL A   1      31.354  32.661  26.508  1.00  0.00     0.021 C 
BRANCH  33  34
ATOM     34  C   UNL A   1      32.558  33.117  27.317  1.00  0.00     0.116 C 
BRANCH  34  35
ATOM     35  N   UNL A   1      32.438  34.496  27.755  1.00  0.00    -0.352 N 
ATOM     36  C   UNL A   1      33.110  35.139  28.766  1.00  0.00     0.251 C 
ATOM     37  H   UNL A   1      31.787  35.044  27.261  1.00  0.00     0.163 HD
ATOM     38  O   UNL A   1      32.765  36.254  29.133  1.00  0.00    -0.269 OA
BRANCH  36  39
ATOM     39  C   UNL A   1      34.246  34.460  29.426  1.00  0.00     0.039 A 
ATOM     40  C   UNL A   1      33.994  33.624  30.516  1.00  0.00     0.014 A 
ATOM     41  C   UNL A   1      35.552  34.642  28.962  1.00  0.00     0.014 A 
ATOM     42  C   UNL A   1      35.050  32.928  31.110  1.00  0.00     0.010 A 
ATOM     43  C   UNL A   1      36.588  33.888  29.502  1.00  0.00     0.010 A 
ATOM     44  C   UNL A   1      36.349  33.032  30.588  1.00  0.00    -0.014 A 
BRANCH  44  45
ATOM     45  C   UNL A   1      37.481  32.273  31.178  1.00  0.00     0.031 A 
ATOM     46  C   UNL A   1      37.991  32.630  32.546  1.00  0.00     0.074 A 
ATOM     47  C   UNL A   1      38.090  31.311  30.458  1.00  0.00     0.049 A 
ATOM     48  N   UNL A   1      39.017  32.150  33.202  1.00  0.00    -0.248 NA
ATOM     49  C   UNL A   1      37.266  33.693  33.262  1.00  0.00     0.031 C 
ATOM     50  C   UNL A   1      37.716  30.901  29.105  1.00  0.00     0.029 A 
ATOM     51  N   UNL A   1      39.164  30.511  30.762  1.00  0.00    -0.354 N 
ATOM     52  C   UNL A   1      39.069  32.861  34.393  1.00  0.00     0.074 A 
ATOM     53  C   UNL A   1      38.011  33.846  34.346  1.00  0.00     0.031 C 
ATOM     54  C   UNL A   1      38.531  29.915  28.703  1.00  0.00     0.029 A 
ATOM     55  C   UNL A   1      39.512  29.650  29.751  1.00  0.00     0.049 A 
ATOM     56  H   UNL A   1      39.639  30.552  31.623  1.00  0.00     0.167 HD
ATOM     57  C   UNL A   1      39.908  32.691  35.443  1.00  0.00     0.037 A 
ATOM     58  C   UNL A   1      40.517  28.756  29.674  1.00  0.00     0.037 A 
ATOM     59  C   UNL A   1      40.946  31.693  35.492  1.00  0.00     0.049 A 
ATOM     60  C   UNL A   1      41.448  28.597  30.847  1.00  0.00     0.074 A 
ATOM     61  C   UNL A   1      41.813  31.402  36.530  1.00  0.00     0.029 A 
ATOM     62  N   UNL A   1      41.259  30.828  34.454  1.00  0.00    -0.354 N 
ATOM     63  N   UNL A   1      41.448  29.230  31.996  1.00  0.00    -0.248 NA
ATOM     64  C   UNL A   1      42.514  27.595  30.715  1.00  0.00     0.031 C 
ATOM     65  C   UNL A   1      42.687  30.398  36.100  1.00  0.00     0.029 A 
ATOM     66  C   UNL A   1      42.325  30.019  34.817  1.00  0.00     0.049 A 
ATOM     67  H   UNL A   1      40.793  30.794  33.587  1.00  0.00     0.167 HD
ATOM     68  C   UNL A   1      42.488  28.680  32.735  1.00  0.00     0.074 A 
ATOM     69  C   UNL A   1      43.089  27.655  31.908  1.00  0.00     0.031 C 
ATOM     70  C   UNL A   1      42.906  28.996  33.986  1.00  0.00     0.037 A 
BRANCH  57  71
ATOM     71  C   UNL A   1      39.740  33.607  36.622  1.00  0.00     0.064 A 
ATOM     72  C   UNL A   1      40.428  34.826  36.715  1.00  0.00     0.173 A 
ATOM     73  C   UNL A   1      38.859  33.272  37.662  1.00  0.00     0.173 A 
ATOM     74  F   UNL A   1      41.291  35.190  35.754  1.00  0.00    -0.203 F 
ATOM     75  C   UNL A   1      40.270  35.657  37.822  1.00  0.00     0.198 A 
ATOM     76  C   UNL A   1      38.677  34.123  38.750  1.00  0.00     0.198 A 
ATOM     77  F   UNL A   1      38.171  32.121  37.623  1.00  0.00    -0.203 F 
ATOM     78  F   UNL A   1      40.985  36.787  37.915  1.00  0.00    -0.200 F 
ATOM     79  C   UNL A   1      39.391  35.308  38.834  1.00  0.00     0.200 A 
ATOM     80  F   UNL A   1      37.814  33.791  39.720  1.00  0.00    -0.200 F 
ATOM     81  F   UNL A   1      39.236  36.112  39.895  1.00  0.00    -0.200 F 
ENDBRANCH  57  71
BRANCH  58  82
ATOM     82  C   UNL A   1      40.682  27.929  28.451  1.00  0.00     0.064 A 
ATOM     83  C   UNL A   1      40.078  26.667  28.348  1.00  0.00     0.173 A 
ATOM     84  C   UNL A   1      41.445  28.376  27.363  1.00  0.00     0.173 A 
ATOM     85  F   UNL A   1      39.355  26.187  29.371  1.00  0.00    -0.203 F 
ATOM     86  C   UNL A   1      40.248  25.877  27.214  1.00  0.00     0.198 A 
ATOM     87  C   UNL A   1      41.589  27.598  26.215  1.00  0.00     0.198 A 
ATOM     88  F   UNL A   1      42.040  29.577  27.407  1.00  0.00    -0.203 F 
ATOM     89  F   UNL A   1      39.699  24.657  27.162  1.00  0.00    -0.200 F 
ATOM     90  C   UNL A   1      40.998  26.346  26.145  1.00  0.00     0.200 A 
ATOM     91  F   UNL A   1      42.302  28.062  25.180  1.00  0.00    -0.200 F 
ATOM     92  F   UNL A   1      41.157  25.588  25.051  1.00  0.00    -0.200 F 
ENDBRANCH  58  82
BRANCH  70  93
ATOM     93  C   UNL A   1      44.040  28.195  34.558  1.00  0.00     0.064 A 
ATOM     94  C   UNL A   1      43.830  26.962  35.193  1.00  0.00     0.173 A 
ATOM     95  C   UNL A   1      45.362  28.648  34.427  1.00  0.00     0.173 A 
ATOM     96  F   UNL A   1      42.584  26.490  35.357  1.00  0.00    -0.203 F 
ATOM     97  C   UNL A   1      44.898  26.225  35.698  1.00  0.00     0.198 A 
ATOM     98  C   UNL A   1      46.430  27.892  34.902  1.00  0.00     0.198 A 
ATOM     99  F   UNL A   1      45.620  29.817  33.821  1.00  0.00    -0.203 F 
ATOM    100  F   UNL A   1      44.669  25.073  36.345  1.00  0.00    -0.200 F 
ATOM    101  C   UNL A   1      46.197  26.686  35.544  1.00  0.00     0.200 A 
ATOM    102  F   UNL A   1      47.686  28.332  34.738  1.00  0.00    -0.200 F 
ATOM    103  F   UNL A   1      47.224  25.971  36.022  1.00  0.00    -0.200 F 
ENDBRANCH  70  93
ENDBRANCH  44  45
ENDBRANCH  36  39
ENDBRANCH  34  35
ENDBRANCH  33  34
ENDBRANCH  32  33
ENDBRANCH  31  32
ENDBRANCH   1  31
TORSDOF 19
ENDMDL
