MODEL 1
REMARK VINA RESULT:     -12.8      0.000      0.000
REMARK SMILES C[C@@]1(C(=O)NCCCCCCNC(=O)c2ccc(-c3c4nc(c(-c5c(F)c(F)c(F)c(F)c5F)c5ccc([nH]5)c(-c5c(F)c(F)c(F)c(F)c5F)c5nc(c(-c6c(F)c(F)c(F)c(F)c6F)c6ccc3[nH]6)C=C5)C=C4)cc2)[C@@H]2C=C[C@@]3(CN(c4ccccc4)C(=O)[C@H]13)O2
REMARK SMILES IDX 9 1 8 2 7 3 6 4 5 5 3 6 4 7 2 9 1 10 78 11 92 12 79 13 93 14
REMARK SMILES IDX 81 15 90 16 80 17 82 18 83 19 91 20 84 21 85 22 89 23 86 24
REMARK SMILES IDX 88 25 87 26 10 27 11 28 12 29 13 30 14 32 15 33 16 34 77 35
REMARK SMILES IDX 17 36 76 37 18 38 19 39 20 40 70 41 21 42 75 43 69 44 71 45
REMARK SMILES IDX 22 46 74 47 68 48 67 49 23 51 55 52 35 53 54 54 36 55 39 56
REMARK SMILES IDX 53 57 72 58 37 59 38 60 52 62 73 63 40 64 24 65 25 66 33 67
REMARK SMILES IDX 26 68 27 69 31 70 34 71 28 72 29 73 32 74 30 75 56 76 57 77
REMARK SMILES IDX 65 78 58 79 59 80 63 81 66 82 60 83 61 84 64 85 62 86 41 87
REMARK SMILES IDX 42 88 50 89 43 90 44 91 48 92 51 93 45 94 46 95 49 96 47 97
REMARK H PARENT 5 8 12 31 71 50 39 61
REMARK Flexibility Score: inf
ROOT
ATOM      1  C   UNL A   1      31.406  30.964  26.061  1.00  0.00     0.002 C 
ENDROOT
BRANCH   1   2
ATOM      2  C   UNL A   1      31.848  29.942  27.111  1.00  0.00     0.002 C 
BRANCH   2   3
ATOM      3  C   UNL A   1      33.239  29.336  26.945  1.00  0.00     0.021 C 
BRANCH   3   4
ATOM      4  C   UNL A   1      33.313  27.823  26.770  1.00  0.00     0.116 C 
BRANCH   4   5
ATOM      5  N   UNL A   1      32.030  27.184  26.586  1.00  0.00    -0.356 N 
ATOM      6  C   UNL A   1      31.417  26.547  25.562  1.00  0.00     0.229 C 
ATOM      7  O   UNL A   1      30.356  25.999  25.900  1.00  0.00    -0.274 OA
ATOM      8  H   UNL A   1      31.470  27.221  27.396  1.00  0.00     0.163 HD
BRANCH   6   9
ATOM      9  C   UNL A   1      31.906  26.397  24.100  1.00  0.00     0.091 C 
ATOM     10  C   UNL A   1      32.288  27.834  23.622  1.00  0.00     0.026 C 
ATOM     11  C   UNL A   1      30.869  25.865  23.061  1.00  0.00     0.158 C 
ATOM     12  C   UNL A   1      33.083  25.482  23.761  1.00  0.00     0.135 C 
ATOM     13  C   UNL A   1      30.283  24.554  23.466  1.00  0.00     0.004 C 
ATOM     14  O   UNL A   1      31.782  25.357  21.975  1.00  0.00    -0.360 OA
ATOM     15  C   UNL A   1      32.468  24.431  22.823  1.00  0.00     0.118 C 
ATOM     16  C   UNL A   1      33.975  24.653  24.621  1.00  0.00     0.234 C 
ATOM     17  C   UNL A   1      31.271  23.663  23.321  1.00  0.00     0.009 C 
ATOM     18  C   UNL A   1      33.691  23.598  22.496  1.00  0.00     0.166 C 
ATOM     19  N   UNL A   1      34.355  23.550  23.812  1.00  0.00    -0.309 N 
ATOM     20  O   UNL A   1      34.375  24.981  25.722  1.00  0.00    -0.274 OA
BRANCH  19  21
ATOM     21  C   UNL A   1      35.242  22.519  24.203  1.00  0.00     0.044 A 
ATOM     22  C   UNL A   1      36.628  22.708  24.159  1.00  0.00     0.026 A 
ATOM     23  C   UNL A   1      34.757  21.276  24.638  1.00  0.00     0.026 A 
ATOM     24  C   UNL A   1      37.501  21.687  24.552  1.00  0.00     0.002 A 
ATOM     25  C   UNL A   1      35.629  20.246  25.003  1.00  0.00     0.002 A 
ATOM     26  C   UNL A   1      37.002  20.455  24.967  1.00  0.00     0.000 A 
ENDBRANCH  19  21
ENDBRANCH   6   9
ENDBRANCH   4   5
ENDBRANCH   3   4
ENDBRANCH   2   3
ENDBRANCH   1   2
BRANCH   1  27
ATOM     27  C   UNL A   1      31.333  32.431  26.494  1.00  0.00     0.021 C 
BRANCH  27  28
ATOM     28  C   UNL A   1      32.579  33.019  27.149  1.00  0.00     0.116 C 
BRANCH  28  29
ATOM     29  N   UNL A   1      32.368  34.349  27.687  1.00  0.00    -0.352 N 
ATOM     30  C   UNL A   1      33.006  35.015  28.702  1.00  0.00     0.251 C 
ATOM     31  H   UNL A   1      31.648  34.859  27.250  1.00  0.00     0.163 HD
ATOM     32  O   UNL A   1      32.580  36.105  29.073  1.00  0.00    -0.269 OA
BRANCH  30  33
ATOM     33  C   UNL A   1      34.185  34.431  29.381  1.00  0.00     0.039 A 
ATOM     34  C   UNL A   1      33.979  33.729  30.573  1.00  0.00     0.014 A 
ATOM     35  C   UNL A   1      35.484  34.609  28.896  1.00  0.00     0.014 A 
ATOM     36  C   UNL A   1      35.062  33.159  31.247  1.00  0.00     0.010 A 
ATOM     37  C   UNL A   1      36.560  33.991  29.537  1.00  0.00     0.010 A 
ATOM     38  C   UNL A   1      36.358  33.263  30.721  1.00  0.00    -0.014 A 
BRANCH  38  39
ATOM     39  C   UNL A   1      37.511  32.617  31.399  1.00  0.00     0.031 A 
ATOM     40  C   UNL A   1      38.237  31.477  30.744  1.00  0.00     0.074 A 
ATOM     41  C   UNL A   1      37.872  33.025  32.631  1.00  0.00     0.049 A 
ATOM     42  N   UNL A   1      39.220  30.745  31.205  1.00  0.00    -0.248 NA
ATOM     43  C   UNL A   1      37.785  31.096  29.397  1.00  0.00     0.031 C 
ATOM     44  C   UNL A   1      37.225  34.096  33.389  1.00  0.00     0.029 A 
ATOM     45  N   UNL A   1      38.865  32.578  33.466  1.00  0.00    -0.354 N 
ATOM     46  C   UNL A   1      39.492  29.809  30.217  1.00  0.00     0.074 A 
ATOM     47  C   UNL A   1      38.547  30.041  29.145  1.00  0.00     0.031 C 
ATOM     48  C   UNL A   1      37.845  34.233  34.572  1.00  0.00     0.029 A 
ATOM     49  C   UNL A   1      38.913  33.240  34.669  1.00  0.00     0.049 A 
ATOM     50  H   UNL A   1      39.483  31.850  33.227  1.00  0.00     0.167 HD
ATOM     51  C   UNL A   1      40.453  28.855  30.199  1.00  0.00     0.037 A 
ATOM     52  C   UNL A   1      39.721  33.064  35.730  1.00  0.00     0.037 A 
ATOM     53  C   UNL A   1      41.414  28.645  31.251  1.00  0.00     0.049 A 
ATOM     54  C   UNL A   1      40.785  32.003  35.680  1.00  0.00     0.074 A 
ATOM     55  C   UNL A   1      42.462  27.744  31.295  1.00  0.00     0.029 A 
ATOM     56  N   UNL A   1      41.443  29.351  32.443  1.00  0.00    -0.354 N 
ATOM     57  N   UNL A   1      41.066  31.158  34.719  1.00  0.00    -0.248 NA
ATOM     58  C   UNL A   1      41.649  31.874  36.863  1.00  0.00     0.031 C 
ATOM     59  C   UNL A   1      43.107  27.881  32.530  1.00  0.00     0.029 A 
ATOM     60  C   UNL A   1      42.481  28.894  33.239  1.00  0.00     0.049 A 
ATOM     61  H   UNL A   1      40.818  30.071  32.690  1.00  0.00     0.167 HD
ATOM     62  C   UNL A   1      42.148  30.415  35.168  1.00  0.00     0.074 A 
ATOM     63  C   UNL A   1      42.482  30.915  36.485  1.00  0.00     0.031 C 
ATOM     64  C   UNL A   1      42.805  29.406  34.545  1.00  0.00     0.037 A 
BRANCH  51  65
ATOM     65  C   UNL A   1      40.516  27.961  28.997  1.00  0.00     0.064 A 
ATOM     66  C   UNL A   1      39.760  26.781  28.919  1.00  0.00     0.173 A 
ATOM     67  C   UNL A   1      41.313  28.305  27.895  1.00  0.00     0.173 A 
ATOM     68  F   UNL A   1      38.991  26.404  29.952  1.00  0.00    -0.203 F 
ATOM     69  C   UNL A   1      39.818  25.967  27.792  1.00  0.00     0.198 A 
ATOM     70  C   UNL A   1      41.350  27.499  26.759  1.00  0.00     0.198 A 
ATOM     71  F   UNL A   1      42.052  29.424  27.918  1.00  0.00    -0.203 F 
ATOM     72  F   UNL A   1      39.120  24.824  27.756  1.00  0.00    -0.200 F 
ATOM     73  C   UNL A   1      40.609  26.329  26.711  1.00  0.00     0.200 A 
ATOM     74  F   UNL A   1      42.107  27.856  25.711  1.00  0.00    -0.200 F 
ATOM     75  F   UNL A   1      40.661  25.546  25.625  1.00  0.00    -0.200 F 
ENDBRANCH  51  65
BRANCH  52  76
ATOM     76  C   UNL A   1      39.570  33.932  36.926  1.00  0.00     0.064 A 
ATOM     77  C   UNL A   1      40.192  35.186  36.985  1.00  0.00     0.173 A 
ATOM     78  C   UNL A   1      38.801  33.528  38.026  1.00  0.00     0.173 A 
ATOM     79  F   UNL A   1      40.954  35.603  35.963  1.00  0.00    -0.203 F 
ATOM     80  C   UNL A   1      40.062  36.000  38.107  1.00  0.00     0.198 A 
ATOM     81  C   UNL A   1      38.654  34.352  39.139  1.00  0.00     0.198 A 
ATOM     82  F   UNL A   1      38.185  32.337  38.015  1.00  0.00    -0.203 F 
ATOM     83  F   UNL A   1      40.698  37.179  38.155  1.00  0.00    -0.200 F 
ATOM     84  C   UNL A   1      39.290  35.584  39.182  1.00  0.00     0.200 A 
ATOM     85  F   UNL A   1      37.898  33.953  40.171  1.00  0.00    -0.200 F 
ATOM     86  F   UNL A   1      39.162  36.369  40.260  1.00  0.00    -0.200 F 
ENDBRANCH  52  76
BRANCH  64  87
ATOM     87  C   UNL A   1      43.966  28.795  35.269  1.00  0.00     0.064 A 
ATOM     88  C   UNL A   1      45.276  29.253  35.069  1.00  0.00     0.173 A 
ATOM     89  C   UNL A   1      43.761  27.765  36.199  1.00  0.00     0.173 A 
ATOM     90  F   UNL A   1      45.523  30.224  34.178  1.00  0.00    -0.203 F 
ATOM     91  C   UNL A   1      46.344  28.687  35.762  1.00  0.00     0.198 A 
ATOM     92  C   UNL A   1      44.828  27.218  36.906  1.00  0.00     0.198 A 
ATOM     93  F   UNL A   1      42.526  27.296  36.427  1.00  0.00    -0.203 F 
ATOM     94  F   UNL A   1      47.593  29.113  35.528  1.00  0.00    -0.200 F 
ATOM     95  C   UNL A   1      46.118  27.676  36.684  1.00  0.00     0.200 A 
ATOM     96  F   UNL A   1      44.607  26.246  37.803  1.00  0.00    -0.200 F 
ATOM     97  F   UNL A   1      47.145  27.135  37.352  1.00  0.00    -0.200 F 
ENDBRANCH  64  87
ENDBRANCH  38  39
ENDBRANCH  30  33
ENDBRANCH  28  29
ENDBRANCH  27  28
ENDBRANCH   1  27
TORSDOF 14
ENDMDL
MODEL 2
REMARK VINA RESULT:     -12.8      0.847      1.516
REMARK SMILES C[C@@]1(C(=O)NCCCCCCNC(=O)c2ccc(-c3c4nc(c(-c5c(F)c(F)c(F)c(F)c5F)c5ccc([nH]5)c(-c5c(F)c(F)c(F)c(F)c5F)c5nc(c(-c6c(F)c(F)c(F)c(F)c6F)c6ccc3[nH]6)C=C5)C=C4)cc2)[C@@H]2C=C[C@@]3(CN(c4ccccc4)C(=O)[C@H]13)O2
REMARK SMILES IDX 9 1 8 2 7 3 6 4 5 5 3 6 4 7 2 9 1 10 78 11 92 12 79 13 93 14
REMARK SMILES IDX 81 15 90 16 80 17 82 18 83 19 91 20 84 21 85 22 89 23 86 24
REMARK SMILES IDX 88 25 87 26 10 27 11 28 12 29 13 30 14 32 15 33 16 34 77 35
REMARK SMILES IDX 17 36 76 37 18 38 19 39 20 40 70 41 21 42 75 43 69 44 71 45
REMARK SMILES IDX 22 46 74 47 68 48 67 49 23 51 55 52 35 53 54 54 36 55 39 56
REMARK SMILES IDX 53 57 72 58 37 59 38 60 52 62 73 63 40 64 24 65 25 66 33 67
REMARK SMILES IDX 26 68 27 69 31 70 34 71 28 72 29 73 32 74 30 75 56 76 57 77
REMARK SMILES IDX 65 78 58 79 59 80 63 81 66 82 60 83 61 84 64 85 62 86 41 87
REMARK SMILES IDX 42 88 50 89 43 90 44 91 48 92 51 93 45 94 46 95 49 96 47 97
REMARK H PARENT 5 8 12 31 71 50 39 61
REMARK Flexibility Score: inf
ROOT
ATOM      1  C   UNL A   1      31.436  30.825  26.150  1.00  0.00     0.002 C 
ENDROOT
BRANCH   1   2
ATOM      2  C   UNL A   1      32.382  29.917  26.940  1.00  0.00     0.002 C 
BRANCH   2   3
ATOM      3  C   UNL A   1      31.763  28.702  27.626  1.00  0.00     0.021 C 
BRANCH   3   4
ATOM      4  C   UNL A   1      31.830  27.379  26.871  1.00  0.00     0.116 C 
BRANCH   4   5
ATOM      5  N   UNL A   1      31.048  27.351  25.655  1.00  0.00    -0.356 N 
ATOM      6  C   UNL A   1      31.321  27.126  24.349  1.00  0.00     0.229 C 
ATOM      7  O   UNL A   1      30.297  27.038  23.652  1.00  0.00    -0.274 OA
ATOM      8  H   UNL A   1      30.095  27.538  25.815  1.00  0.00     0.163 HD
BRANCH   6   9
ATOM      9  C   UNL A   1      32.703  26.927  23.681  1.00  0.00     0.091 C 
ATOM     10  C   UNL A   1      33.630  28.040  24.266  1.00  0.00     0.026 C 
ATOM     11  C   UNL A   1      32.766  27.093  22.129  1.00  0.00     0.158 C 
ATOM     12  C   UNL A   1      33.452  25.601  23.816  1.00  0.00     0.135 C 
ATOM     13  C   UNL A   1      31.804  26.198  21.424  1.00  0.00     0.004 C 
ATOM     14  O   UNL A   1      34.028  26.335  21.809  1.00  0.00    -0.360 OA
ATOM     15  C   UNL A   1      33.568  25.100  22.367  1.00  0.00     0.118 C 
ATOM     16  C   UNL A   1      33.126  24.349  24.556  1.00  0.00     0.234 C 
ATOM     17  C   UNL A   1      32.296  24.961  21.570  1.00  0.00     0.009 C 
ATOM     18  C   UNL A   1      34.352  23.821  22.575  1.00  0.00     0.166 C 
ATOM     19  N   UNL A   1      33.721  23.303  23.803  1.00  0.00    -0.309 N 
ATOM     20  O   UNL A   1      32.589  24.310  25.647  1.00  0.00    -0.274 OA
BRANCH  19  21
ATOM     21  C   UNL A   1      33.706  21.933  24.157  1.00  0.00     0.044 A 
ATOM     22  C   UNL A   1      34.858  21.305  24.646  1.00  0.00     0.026 A 
ATOM     23  C   UNL A   1      32.542  21.163  24.019  1.00  0.00     0.026 A 
ATOM     24  C   UNL A   1      34.838  19.951  25.001  1.00  0.00     0.002 A 
ATOM     25  C   UNL A   1      32.528  19.804  24.345  1.00  0.00     0.002 A 
ATOM     26  C   UNL A   1      33.676  19.200  24.843  1.00  0.00     0.000 A 
ENDBRANCH  19  21
ENDBRANCH   6   9
ENDBRANCH   4   5
ENDBRANCH   3   4
ENDBRANCH   2   3
ENDBRANCH   1   2
BRANCH   1  27
ATOM     27  C   UNL A   1      31.307  32.280  26.614  1.00  0.00     0.021 C 
BRANCH  27  28
ATOM     28  C   UNL A   1      32.588  32.974  27.068  1.00  0.00     0.116 C 
BRANCH  28  29
ATOM     29  N   UNL A   1      32.355  34.293  27.626  1.00  0.00    -0.352 N 
ATOM     30  C   UNL A   1      32.970  34.946  28.663  1.00  0.00     0.251 C 
ATOM     31  H   UNL A   1      31.637  34.804  27.186  1.00  0.00     0.163 HD
ATOM     32  O   UNL A   1      32.528  36.026  29.046  1.00  0.00    -0.269 OA
BRANCH  30  33
ATOM     33  C   UNL A   1      34.144  34.361  29.350  1.00  0.00     0.039 A 
ATOM     34  C   UNL A   1      33.925  33.630  30.522  1.00  0.00     0.014 A 
ATOM     35  C   UNL A   1      35.449  34.566  28.893  1.00  0.00     0.014 A 
ATOM     36  C   UNL A   1      35.002  33.059  31.203  1.00  0.00     0.010 A 
ATOM     37  C   UNL A   1      36.521  33.947  29.541  1.00  0.00     0.010 A 
ATOM     38  C   UNL A   1      36.307  33.190  30.703  1.00  0.00    -0.014 A 
BRANCH  38  39
ATOM     39  C   UNL A   1      37.455  32.543  31.388  1.00  0.00     0.031 A 
ATOM     40  C   UNL A   1      38.179  31.397  30.741  1.00  0.00     0.074 A 
ATOM     41  C   UNL A   1      37.814  32.955  32.620  1.00  0.00     0.049 A 
ATOM     42  N   UNL A   1      39.157  30.664  31.209  1.00  0.00    -0.248 NA
ATOM     43  C   UNL A   1      37.730  31.011  29.395  1.00  0.00     0.031 C 
ATOM     44  C   UNL A   1      37.169  34.033  33.370  1.00  0.00     0.029 A 
ATOM     45  N   UNL A   1      38.803  32.508  33.460  1.00  0.00    -0.354 N 
ATOM     46  C   UNL A   1      39.429  29.722  30.226  1.00  0.00     0.074 A 
ATOM     47  C   UNL A   1      38.488  29.952  29.150  1.00  0.00     0.031 C 
ATOM     48  C   UNL A   1      37.786  34.173  34.554  1.00  0.00     0.029 A 
ATOM     49  C   UNL A   1      38.850  33.177  34.659  1.00  0.00     0.049 A 
ATOM     50  H   UNL A   1      39.419  31.778  33.226  1.00  0.00     0.167 HD
ATOM     51  C   UNL A   1      40.386  28.763  30.215  1.00  0.00     0.037 A 
ATOM     52  C   UNL A   1      39.654  33.002  35.723  1.00  0.00     0.037 A 
ATOM     53  C   UNL A   1      41.343  28.555  31.271  1.00  0.00     0.049 A 
ATOM     54  C   UNL A   1      40.714  31.937  35.682  1.00  0.00     0.074 A 
ATOM     55  C   UNL A   1      42.388  27.650  31.323  1.00  0.00     0.029 A 
ATOM     56  N   UNL A   1      41.371  29.267  32.460  1.00  0.00    -0.354 N 
ATOM     57  N   UNL A   1      40.995  31.087  34.725  1.00  0.00    -0.248 NA
ATOM     58  C   UNL A   1      41.574  31.810  36.868  1.00  0.00     0.031 C 
ATOM     59  C   UNL A   1      43.029  27.791  32.559  1.00  0.00     0.029 A 
ATOM     60  C   UNL A   1      42.405  28.809  33.261  1.00  0.00     0.049 A 
ATOM     61  H   UNL A   1      40.749  29.991  32.701  1.00  0.00     0.167 HD
ATOM     62  C   UNL A   1      42.073  30.341  35.181  1.00  0.00     0.074 A 
ATOM     63  C   UNL A   1      42.404  30.847  36.497  1.00  0.00     0.031 C 
ATOM     64  C   UNL A   1      42.727  29.327  34.565  1.00  0.00     0.037 A 
BRANCH  51  65
ATOM     65  C   UNL A   1      40.449  27.863  29.018  1.00  0.00     0.064 A 
ATOM     66  C   UNL A   1      41.275  28.156  27.922  1.00  0.00     0.173 A 
ATOM     67  C   UNL A   1      39.704  26.675  28.980  1.00  0.00     0.173 A 
ATOM     68  F   UNL A   1      41.999  29.287  27.907  1.00  0.00    -0.203 F 
ATOM     69  C   UNL A   1      41.335  27.305  26.822  1.00  0.00     0.198 A 
ATOM     70  C   UNL A   1      39.785  25.814  27.888  1.00  0.00     0.198 A 
ATOM     71  F   UNL A   1      38.902  26.347  30.004  1.00  0.00    -0.203 F 
ATOM     72  F   UNL A   1      42.099  27.627  25.769  1.00  0.00    -0.200 F 
ATOM     73  C   UNL A   1      40.594  26.133  26.809  1.00  0.00     0.200 A 
ATOM     74  F   UNL A   1      39.076  24.676  27.880  1.00  0.00    -0.200 F 
ATOM     75  F   UNL A   1      40.656  25.312  25.751  1.00  0.00    -0.200 F 
ENDBRANCH  51  65
BRANCH  52  76
ATOM     76  C   UNL A   1      39.503  33.877  36.914  1.00  0.00     0.064 A 
ATOM     77  C   UNL A   1      40.124  35.131  36.967  1.00  0.00     0.173 A 
ATOM     78  C   UNL A   1      38.734  33.479  38.017  1.00  0.00     0.173 A 
ATOM     79  F   UNL A   1      40.886  35.544  35.942  1.00  0.00    -0.203 F 
ATOM     80  C   UNL A   1      39.995  35.951  38.085  1.00  0.00     0.198 A 
ATOM     81  C   UNL A   1      38.587  34.309  39.126  1.00  0.00     0.198 A 
ATOM     82  F   UNL A   1      38.119  32.288  38.013  1.00  0.00    -0.203 F 
ATOM     83  F   UNL A   1      40.630  37.131  38.125  1.00  0.00    -0.200 F 
ATOM     84  C   UNL A   1      39.222  35.541  39.162  1.00  0.00     0.200 A 
ATOM     85  F   UNL A   1      37.832  33.915  40.160  1.00  0.00    -0.200 F 
ATOM     86  F   UNL A   1      39.095  36.332  40.236  1.00  0.00    -0.200 F 
ENDBRANCH  52  76
BRANCH  64  87
ATOM     87  C   UNL A   1      43.883  28.715  35.296  1.00  0.00     0.064 A 
ATOM     88  C   UNL A   1      45.194  29.179  35.112  1.00  0.00     0.173 A 
ATOM     89  C   UNL A   1      43.674  27.677  36.217  1.00  0.00     0.173 A 
ATOM     90  F   UNL A   1      45.445  30.157  34.230  1.00  0.00    -0.203 F 
ATOM     91  C   UNL A   1      46.257  28.612  35.810  1.00  0.00     0.198 A 
ATOM     92  C   UNL A   1      44.736  27.129  36.930  1.00  0.00     0.198 A 
ATOM     93  F   UNL A   1      42.438  27.202  36.430  1.00  0.00    -0.203 F 
ATOM     94  F   UNL A   1      47.507  29.044  35.591  1.00  0.00    -0.200 F 
ATOM     95  C   UNL A   1      46.026  27.593  36.723  1.00  0.00     0.200 A 
ATOM     96  F   UNL A   1      44.511  26.150  37.818  1.00  0.00    -0.200 F 
ATOM     97  F   UNL A   1      47.049  27.052  37.397  1.00  0.00    -0.200 F 
ENDBRANCH  64  87
ENDBRANCH  38  39
ENDBRANCH  30  33
ENDBRANCH  28  29
ENDBRANCH  27  28
ENDBRANCH   1  27
TORSDOF 14
ENDMDL
MODEL 3
REMARK VINA RESULT:     -12.7      1.466      3.503
REMARK SMILES C[C@@]1(C(=O)NCCCCCCNC(=O)c2ccc(-c3c4nc(c(-c5c(F)c(F)c(F)c(F)c5F)c5ccc([nH]5)c(-c5c(F)c(F)c(F)c(F)c5F)c5nc(c(-c6c(F)c(F)c(F)c(F)c6F)c6ccc3[nH]6)C=C5)C=C4)cc2)[C@@H]2C=C[C@@]3(CN(c4ccccc4)C(=O)[C@H]13)O2
REMARK SMILES IDX 9 1 8 2 7 3 6 4 5 5 3 6 4 7 2 9 1 10 78 11 92 12 79 13 93 14
REMARK SMILES IDX 81 15 90 16 80 17 82 18 83 19 91 20 84 21 85 22 89 23 86 24
REMARK SMILES IDX 88 25 87 26 10 27 11 28 12 29 13 30 14 32 15 33 16 34 77 35
REMARK SMILES IDX 17 36 76 37 18 38 19 39 20 40 70 41 21 42 75 43 69 44 71 45
REMARK SMILES IDX 22 46 74 47 68 48 67 49 23 51 55 52 35 53 54 54 36 55 39 56
REMARK SMILES IDX 53 57 72 58 37 59 38 60 52 62 73 63 40 64 24 65 25 66 33 67
REMARK SMILES IDX 26 68 27 69 31 70 34 71 28 72 29 73 32 74 30 75 56 76 57 77
REMARK SMILES IDX 65 78 58 79 59 80 63 81 66 82 60 83 61 84 64 85 62 86 41 87
REMARK SMILES IDX 42 88 50 89 43 90 44 91 48 92 51 93 45 94 46 95 49 96 47 97
REMARK H PARENT 5 8 12 31 71 50 39 61
REMARK Flexibility Score: inf
ROOT
ATOM      1  C   UNL A   1      31.515  30.252  26.204  1.00  0.00     0.002 C 
ENDROOT
BRANCH   1   2
ATOM      2  C   UNL A   1      32.181  29.354  27.250  1.00  0.00     0.002 C 
BRANCH   2   3
ATOM      3  C   UNL A   1      31.777  27.882  27.255  1.00  0.00     0.021 C 
BRANCH   3   4
ATOM      4  C   UNL A   1      32.644  26.929  26.439  1.00  0.00     0.116 C 
BRANCH   4   5
ATOM      5  N   UNL A   1      32.417  25.530  26.724  1.00  0.00    -0.356 N 
ATOM      6  C   UNL A   1      32.232  24.420  25.974  1.00  0.00     0.229 C 
ATOM      7  O   UNL A   1      32.237  23.377  26.647  1.00  0.00    -0.274 OA
ATOM      8  H   UNL A   1      32.392  25.342  27.691  1.00  0.00     0.163 HD
BRANCH   6   9
ATOM      9  C   UNL A   1      32.076  24.319  24.437  1.00  0.00     0.091 C 
ATOM     10  C   UNL A   1      31.614  22.856  24.143  1.00  0.00     0.026 C 
ATOM     11  C   UNL A   1      33.365  24.538  23.582  1.00  0.00     0.158 C 
ATOM     12  C   UNL A   1      31.124  25.251  23.686  1.00  0.00     0.135 C 
ATOM     13  C   UNL A   1      34.022  25.845  23.873  1.00  0.00     0.004 C 
ATOM     14  O   UNL A   1      32.768  24.900  22.247  1.00  0.00    -0.360 OA
ATOM     15  C   UNL A   1      32.050  26.034  22.743  1.00  0.00     0.118 C 
ATOM     16  C   UNL A   1      30.192  26.312  24.164  1.00  0.00     0.234 C 
ATOM     17  C   UNL A   1      33.211  26.775  23.355  1.00  0.00     0.009 C 
ATOM     18  C   UNL A   1      31.040  26.893  22.008  1.00  0.00     0.166 C 
ATOM     19  N   UNL A   1      30.134  27.261  23.111  1.00  0.00    -0.309 N 
ATOM     20  O   UNL A   1      29.536  26.248  25.187  1.00  0.00    -0.274 OA
BRANCH  19  21
ATOM     21  C   UNL A   1      29.329  28.425  23.106  1.00  0.00     0.044 A 
ATOM     22  C   UNL A   1      27.933  28.334  23.125  1.00  0.00     0.026 A 
ATOM     23  C   UNL A   1      29.908  29.703  23.072  1.00  0.00     0.026 A 
ATOM     24  C   UNL A   1      27.140  29.489  23.126  1.00  0.00     0.002 A 
ATOM     25  C   UNL A   1      29.118  30.856  23.043  1.00  0.00     0.002 A 
ATOM     26  C   UNL A   1      27.733  30.748  23.077  1.00  0.00     0.000 A 
ENDBRANCH  19  21
ENDBRANCH   6   9
ENDBRANCH   4   5
ENDBRANCH   3   4
ENDBRANCH   2   3
ENDBRANCH   1   2
BRANCH   1  27
ATOM     27  C   UNL A   1      31.386  31.742  26.536  1.00  0.00     0.021 C 
BRANCH  27  28
ATOM     28  C   UNL A   1      32.679  32.496  26.835  1.00  0.00     0.116 C 
BRANCH  28  29
ATOM     29  N   UNL A   1      32.454  33.827  27.366  1.00  0.00    -0.352 N 
ATOM     30  C   UNL A   1      33.075  34.499  28.387  1.00  0.00     0.251 C 
ATOM     31  H   UNL A   1      31.736  34.332  26.918  1.00  0.00     0.163 HD
ATOM     32  O   UNL A   1      32.639  35.589  28.748  1.00  0.00    -0.269 OA
BRANCH  30  33
ATOM     33  C   UNL A   1      34.249  33.924  29.082  1.00  0.00     0.039 A 
ATOM     34  C   UNL A   1      34.028  32.910  30.020  1.00  0.00     0.014 A 
ATOM     35  C   UNL A   1      35.546  34.400  28.867  1.00  0.00     0.014 A 
ATOM     36  C   UNL A   1      35.106  32.336  30.699  1.00  0.00     0.010 A 
ATOM     37  C   UNL A   1      36.628  33.788  29.502  1.00  0.00     0.010 A 
ATOM     38  C   UNL A   1      36.418  32.752  30.426  1.00  0.00    -0.014 A 
BRANCH  38  39
ATOM     39  C   UNL A   1      37.576  32.114  31.102  1.00  0.00     0.031 A 
ATOM     40  C   UNL A   1      38.375  31.053  30.401  1.00  0.00     0.074 A 
ATOM     41  C   UNL A   1      37.878  32.456  32.370  1.00  0.00     0.049 A 
ATOM     42  N   UNL A   1      39.374  30.335  30.849  1.00  0.00    -0.248 NA
ATOM     43  C   UNL A   1      37.984  30.740  29.018  1.00  0.00     0.031 C 
ATOM     44  C   UNL A   1      37.159  33.446  33.171  1.00  0.00     0.029 A 
ATOM     45  N   UNL A   1      38.863  31.999  33.208  1.00  0.00    -0.354 N 
ATOM     46  C   UNL A   1      39.721  29.479  29.813  1.00  0.00     0.074 A 
ATOM     47  C   UNL A   1      38.801  29.738  28.726  1.00  0.00     0.031 C 
ATOM     48  C   UNL A   1      37.734  33.532  34.381  1.00  0.00     0.029 A 
ATOM     49  C   UNL A   1      38.842  32.583  34.451  1.00  0.00     0.049 A 
ATOM     50  H   UNL A   1      39.522  31.316  32.945  1.00  0.00     0.167 HD
ATOM     51  C   UNL A   1      40.724  28.570  29.768  1.00  0.00     0.037 A 
ATOM     52  C   UNL A   1      39.623  32.373  35.527  1.00  0.00     0.037 A 
ATOM     53  C   UNL A   1      41.659  28.335  30.837  1.00  0.00     0.049 A 
ATOM     54  C   UNL A   1      40.735  31.364  35.447  1.00  0.00     0.074 A 
ATOM     55  C   UNL A   1      42.746  27.478  30.860  1.00  0.00     0.029 A 
ATOM     56  N   UNL A   1      41.618  28.962  32.072  1.00  0.00    -0.354 N 
ATOM     57  N   UNL A   1      41.086  30.598  34.444  1.00  0.00    -0.248 NA
ATOM     58  C   UNL A   1      41.565  31.196  36.649  1.00  0.00     0.031 C 
ATOM     59  C   UNL A   1      43.344  27.563  32.123  1.00  0.00     0.029 A 
ATOM     60  C   UNL A   1      42.650  28.499  32.873  1.00  0.00     0.049 A 
ATOM     61  H   UNL A   1      40.953  29.636  32.342  1.00  0.00     0.167 HD
ATOM     62  C   UNL A   1      42.186  29.874  34.882  1.00  0.00     0.074 A 
ATOM     63  C   UNL A   1      42.453  30.302  36.240  1.00  0.00     0.031 C 
ATOM     64  C   UNL A   1      42.907  28.938  34.220  1.00  0.00     0.037 A 
BRANCH  51  65
ATOM     65  C   UNL A   1      40.867  27.760  28.514  1.00  0.00     0.064 A 
ATOM     66  C   UNL A   1      40.197  26.539  28.349  1.00  0.00     0.173 A 
ATOM     67  C   UNL A   1      41.653  28.228  27.450  1.00  0.00     0.173 A 
ATOM     68  F   UNL A   1      39.442  26.044  29.343  1.00  0.00    -0.203 F 
ATOM     69  C   UNL A   1      40.328  25.802  27.175  1.00  0.00     0.198 A 
ATOM     70  C   UNL A   1      41.763  27.500  26.267  1.00  0.00     0.198 A 
ATOM     71  F   UNL A   1      42.311  29.392  27.556  1.00  0.00    -0.203 F 
ATOM     72  F   UNL A   1      39.713  24.618  27.056  1.00  0.00    -0.200 F 
ATOM     73  C   UNL A   1      41.106  26.286  26.134  1.00  0.00     0.200 A 
ATOM     74  F   UNL A   1      42.507  27.974  25.258  1.00  0.00    -0.200 F 
ATOM     75  F   UNL A   1      41.228  25.579  25.002  1.00  0.00    -0.200 F 
ENDBRANCH  51  65
BRANCH  52  76
ATOM     76  C   UNL A   1      39.394  33.153  36.770  1.00  0.00     0.064 A 
ATOM     77  C   UNL A   1      38.484  32.709  37.739  1.00  0.00     0.173 A 
ATOM     78  C   UNL A   1      40.079  34.352  37.014  1.00  0.00     0.173 A 
ATOM     79  F   UNL A   1      37.791  31.578  37.536  1.00  0.00    -0.203 F 
ATOM     80  C   UNL A   1      38.258  33.441  38.901  1.00  0.00     0.198 A 
ATOM     81  C   UNL A   1      39.868  35.072  38.188  1.00  0.00     0.198 A 
ATOM     82  F   UNL A   1      40.961  34.816  36.118  1.00  0.00    -0.203 F 
ATOM     83  F   UNL A   1      37.355  33.013  39.795  1.00  0.00    -0.200 F 
ATOM     84  C   UNL A   1      38.953  34.620  39.127  1.00  0.00     0.200 A 
ATOM     85  F   UNL A   1      40.550  36.204  38.408  1.00  0.00    -0.200 F 
ATOM     86  F   UNL A   1      38.738  35.323  40.247  1.00  0.00    -0.200 F 
ENDBRANCH  52  76
BRANCH  64  87
ATOM     87  C   UNL A   1      44.071  28.332  34.943  1.00  0.00     0.064 A 
ATOM     88  C   UNL A   1      45.335  28.939  34.934  1.00  0.00     0.173 A 
ATOM     89  C   UNL A   1      43.911  27.152  35.685  1.00  0.00     0.173 A 
ATOM     90  F   UNL A   1      45.541  30.059  34.226  1.00  0.00    -0.203 F 
ATOM     91  C   UNL A   1      46.404  28.373  35.625  1.00  0.00     0.198 A 
ATOM     92  C   UNL A   1      44.976  26.602  36.393  1.00  0.00     0.198 A 
ATOM     93  F   UNL A   1      42.720  26.537  35.727  1.00  0.00    -0.203 F 
ATOM     94  F   UNL A   1      47.614  28.948  35.572  1.00  0.00    -0.200 F 
ATOM     95  C   UNL A   1      46.222  27.210  36.359  1.00  0.00     0.200 A 
ATOM     96  F   UNL A   1      44.796  25.483  37.108  1.00  0.00    -0.200 F 
ATOM     97  F   UNL A   1      47.249  26.670  37.027  1.00  0.00    -0.200 F 
ENDBRANCH  64  87
ENDBRANCH  38  39
ENDBRANCH  30  33
ENDBRANCH  28  29
ENDBRANCH  27  28
ENDBRANCH   1  27
TORSDOF 14
ENDMDL
