MODEL 1
REMARK VINA RESULT:     -13.4      0.000      0.000
REMARK SMILES Cc1c(-c2nn(-c3ccccc3)cc2/C=N/O)nnn1-c1ccc(C(=O)NCCCCCCNC(=O)c2ccc(-c3c4nc(c(-c5c(F)c(F)c(F)c(F)c5F)c5ccc([nH]5)c(-c5c(F)c(F)c(F)c(F)c5F)c5nc(c(-c6c(F)c(F)c(F)c(F)c6F)c6ccc3[nH]6)C=C5)C=C4)cc2)cc1
REMARK SMILES IDX 29 1 28 2 27 3 25 4 26 5 24 7 21 8 22 9 101 10 23 11 100 12
REMARK SMILES IDX 20 13 1 14 2 15 3 16 18 17 19 18 4 19 5 20 14 21 6 22 13 23
REMARK SMILES IDX 15 24 16 25 17 26 7 28 8 29 12 30 9 31 11 32 10 33 30 34
REMARK SMILES IDX 31 35 32 36 33 37 34 38 35 39 36 41 37 42 38 43 99 44 39 45
REMARK SMILES IDX 98 46 40 47 41 48 42 49 92 50 43 51 97 52 91 53 93 54 44 55
REMARK SMILES IDX 96 56 90 57 89 58 45 60 77 61 57 62 76 63 58 64 61 65 75 66
REMARK SMILES IDX 94 67 59 68 60 69 74 71 95 72 62 73 46 74 47 75 55 76 48 77
REMARK SMILES IDX 49 78 53 79 56 80 50 81 51 82 54 83 52 84 78 85 79 86 87 87
REMARK SMILES IDX 80 88 81 89 85 90 88 91 82 92 83 93 86 94 84 95 63 96 64 97
REMARK SMILES IDX 72 98 65 99 66 100 70 101 73 102 67 103 68 104 71 105 69 106
REMARK H PARENT 27 6 17 27 34 40 93 59 61 70
REMARK Flexibility Score: inf
ROOT
ATOM      1  C   UNL A   1      31.793  29.615  26.654  1.00  0.00     0.021 C 
ENDROOT
BRANCH   1   2
ATOM      2  C   UNL A   1      31.744  30.889  25.807  1.00  0.00     0.116 C 
BRANCH   2   3
ATOM      3  N   UNL A   1      30.622  30.835  24.891  1.00  0.00    -0.352 N 
ATOM      4  C   UNL A   1      30.253  29.969  23.896  1.00  0.00     0.251 C 
ATOM      5  O   UNL A   1      29.221  30.235  23.280  1.00  0.00    -0.269 OA
ATOM      6  H   UNL A   1      29.989  31.579  25.011  1.00  0.00     0.163 HD
BRANCH   4   7
ATOM      7  C   UNL A   1      30.982  28.708  23.572  1.00  0.00     0.039 A 
ATOM      8  C   UNL A   1      32.245  26.226  23.215  1.00  0.00     0.067 A 
ATOM      9  C   UNL A   1      30.894  26.266  23.560  1.00  0.00     0.029 A 
ATOM     10  C   UNL A   1      32.943  27.409  22.957  1.00  0.00     0.029 A 
ATOM     11  C   UNL A   1      30.282  27.504  23.773  1.00  0.00     0.016 A 
ATOM     12  C   UNL A   1      32.288  28.641  23.078  1.00  0.00     0.016 A 
BRANCH   8  13
ATOM     13  N   UNL A   1      32.894  24.983  23.092  1.00  0.00    -0.217 N 
ATOM     14  C   UNL A   1      32.693  24.112  25.469  1.00  0.00     0.069 C 
ATOM     15  C   UNL A   1      33.222  24.080  24.086  1.00  0.00     0.071 A 
ATOM     16  C   UNL A   1      33.974  23.137  23.412  1.00  0.00     0.137 A 
ATOM     17  N   UNL A   1      34.003  23.419  22.078  1.00  0.00    -0.128 NA
ATOM     18  N   UNL A   1      33.275  24.512  21.882  1.00  0.00    -0.061 NA
BRANCH  16  19
ATOM     19  C   UNL A   1      34.555  21.911  23.941  1.00  0.00     0.124 A 
ATOM     20  N   UNL A   1      33.892  20.750  23.900  1.00  0.00    -0.165 NA
ATOM     21  C   UNL A   1      35.804  21.801  24.597  1.00  0.00     0.044 A 
ATOM     22  N   UNL A   1      34.651  19.905  24.627  1.00  0.00    -0.240 N 
ATOM     23  C   UNL A   1      35.805  20.503  25.076  1.00  0.00     0.125 A 
BRANCH  21  24
ATOM     24  C   UNL A   1      36.877  22.744  24.778  1.00  0.00     0.166 C 
ATOM     25  N   UNL A   1      37.716  22.596  25.749  1.00  0.00    -0.097 NA
BRANCH  25  26
ATOM     26  O   UNL A   1      38.628  23.659  25.735  1.00  0.00    -0.411 OA
ATOM     27  H   UNL A   1      39.157  23.813  24.977  1.00  0.00     0.330 HD
ENDBRANCH  25  26
ENDBRANCH  21  24
BRANCH  22  28
ATOM     28  C   UNL A   1      34.213  18.587  24.881  1.00  0.00     0.065 A 
ATOM     29  C   UNL A   1      35.085  17.520  24.628  1.00  0.00     0.028 A 
ATOM     30  C   UNL A   1      32.918  18.350  25.354  1.00  0.00     0.028 A 
ATOM     31  C   UNL A   1      34.667  16.214  24.880  1.00  0.00     0.002 A 
ATOM     32  C   UNL A   1      32.490  17.035  25.546  1.00  0.00     0.002 A 
ATOM     33  C   UNL A   1      33.367  15.971  25.324  1.00  0.00     0.000 A 
ENDBRANCH  22  28
ENDBRANCH  16  19
ENDBRANCH   8  13
ENDBRANCH   4   7
ENDBRANCH   2   3
ENDBRANCH   1   2
BRANCH   1  34
ATOM     34  C   UNL A   1      33.195  28.993  26.735  1.00  0.00     0.002 C 
BRANCH  34  35
ATOM     35  C   UNL A   1      34.257  29.842  27.453  1.00  0.00     0.002 C 
BRANCH  35  36
ATOM     36  C   UNL A   1      33.899  31.316  27.692  1.00  0.00     0.021 C 
BRANCH  36  37
ATOM     37  C   UNL A   1      35.066  32.153  28.194  1.00  0.00     0.116 C 
BRANCH  37  38
ATOM     38  N   UNL A   1      34.943  32.470  29.616  1.00  0.00    -0.352 N 
ATOM     39  C   UNL A   1      35.571  31.876  30.694  1.00  0.00     0.251 C 
ATOM     40  H   UNL A   1      34.328  33.207  29.835  1.00  0.00     0.163 HD
ATOM     41  O   UNL A   1      35.117  31.974  31.821  1.00  0.00    -0.269 OA
BRANCH  39  42
ATOM     42  C   UNL A   1      36.810  31.118  30.455  1.00  0.00     0.039 A 
ATOM     43  C   UNL A   1      38.041  31.765  30.328  1.00  0.00     0.014 A 
ATOM     44  C   UNL A   1      36.723  29.730  30.379  1.00  0.00     0.014 A 
ATOM     45  C   UNL A   1      39.191  30.991  30.203  1.00  0.00     0.010 A 
ATOM     46  C   UNL A   1      37.863  28.972  30.431  1.00  0.00     0.010 A 
ATOM     47  C   UNL A   1      39.095  29.591  30.277  1.00  0.00    -0.014 A 
BRANCH  47  48
ATOM     48  C   UNL A   1      40.291  28.761  30.270  1.00  0.00     0.031 A 
ATOM     49  C   UNL A   1      40.912  28.549  31.604  1.00  0.00     0.074 A 
ATOM     50  C   UNL A   1      40.715  28.078  29.185  1.00  0.00     0.049 A 
ATOM     51  N   UNL A   1      42.046  29.003  32.021  1.00  0.00    -0.248 NA
ATOM     52  C   UNL A   1      40.129  27.858  32.639  1.00  0.00     0.031 C 
ATOM     53  C   UNL A   1      40.059  27.914  27.883  1.00  0.00     0.029 A 
ATOM     54  N   UNL A   1      41.823  27.300  29.059  1.00  0.00    -0.354 N 
ATOM     55  C   UNL A   1      42.213  28.510  33.312  1.00  0.00     0.074 A 
ATOM     56  C   UNL A   1      40.941  27.955  33.695  1.00  0.00     0.031 C 
ATOM     57  C   UNL A   1      40.662  26.922  27.191  1.00  0.00     0.029 A 
ATOM     58  C   UNL A   1      41.850  26.514  27.915  1.00  0.00     0.049 A 
ATOM     59  H   UNL A   1      42.547  27.294  29.725  1.00  0.00     0.167 HD
ATOM     60  C   UNL A   1      43.457  28.405  33.860  1.00  0.00     0.037 A 
ATOM     61  C   UNL A   1      42.783  25.587  27.594  1.00  0.00     0.037 A 
ATOM     62  C   UNL A   1      44.409  29.203  33.124  1.00  0.00     0.049 A 
ATOM     63  C   UNL A   1      43.998  25.895  28.387  1.00  0.00     0.074 A 
ATOM     64  C   UNL A   1      44.530  30.548  32.837  1.00  0.00     0.029 A 
ATOM     65  N   UNL A   1      45.230  28.561  32.229  1.00  0.00    -0.354 N 
ATOM     66  N   UNL A   1      44.732  26.957  28.204  1.00  0.00    -0.248 NA
ATOM     67  C   UNL A   1      44.137  25.256  29.687  1.00  0.00     0.031 C 
ATOM     68  C   UNL A   1      45.008  30.596  31.492  1.00  0.00     0.029 A 
ATOM     69  C   UNL A   1      45.216  29.283  31.066  1.00  0.00     0.049 A 
ATOM     70  H   UNL A   1      45.735  27.732  32.394  1.00  0.00     0.167 HD
ATOM     71  C   UNL A   1      45.076  27.370  29.481  1.00  0.00     0.074 A 
ATOM     72  C   UNL A   1      44.766  26.234  30.345  1.00  0.00     0.031 C 
ATOM     73  C   UNL A   1      45.311  28.688  29.752  1.00  0.00     0.037 A 
BRANCH  60  74
ATOM     74  C   UNL A   1      43.897  27.308  34.803  1.00  0.00     0.064 A 
ATOM     75  C   UNL A   1      43.756  25.963  34.394  1.00  0.00     0.173 A 
ATOM     76  C   UNL A   1      44.148  27.494  36.179  1.00  0.00     0.173 A 
ATOM     77  F   UNL A   1      43.518  25.660  33.109  1.00  0.00    -0.203 F 
ATOM     78  C   UNL A   1      43.753  24.907  35.309  1.00  0.00     0.198 A 
ATOM     79  C   UNL A   1      44.196  26.432  37.080  1.00  0.00     0.198 A 
ATOM     80  F   UNL A   1      44.244  28.708  36.732  1.00  0.00    -0.203 F 
ATOM     81  F   UNL A   1      43.472  23.666  34.889  1.00  0.00    -0.200 F 
ATOM     82  C   UNL A   1      43.961  25.143  36.653  1.00  0.00     0.200 A 
ATOM     83  F   UNL A   1      44.388  26.685  38.384  1.00  0.00    -0.200 F 
ATOM     84  F   UNL A   1      43.886  24.145  37.541  1.00  0.00    -0.200 F 
ENDBRANCH  60  74
BRANCH  61  85
ATOM     85  C   UNL A   1      42.604  24.302  26.881  1.00  0.00     0.064 A 
ATOM     86  C   UNL A   1      43.219  24.074  25.640  1.00  0.00     0.173 A 
ATOM     87  C   UNL A   1      42.076  23.175  27.538  1.00  0.00     0.173 A 
ATOM     88  F   UNL A   1      43.783  25.089  24.971  1.00  0.00    -0.203 F 
ATOM     89  C   UNL A   1      43.333  22.787  25.105  1.00  0.00     0.198 A 
ATOM     90  C   UNL A   1      42.185  21.892  27.001  1.00  0.00     0.198 A 
ATOM     91  F   UNL A   1      41.533  23.283  28.759  1.00  0.00    -0.203 F 
ATOM     92  F   UNL A   1      43.991  22.598  23.953  1.00  0.00    -0.200 F 
ATOM     93  C   UNL A   1      42.829  21.695  25.792  1.00  0.00     0.200 A 
ATOM     94  F   UNL A   1      41.729  20.839  27.695  1.00  0.00    -0.200 F 
ATOM     95  F   UNL A   1      43.002  20.455  25.315  1.00  0.00    -0.200 F 
ENDBRANCH  61  85
BRANCH  73  96
ATOM     96  C   UNL A   1      45.455  29.629  28.588  1.00  0.00     0.064 A 
ATOM     97  C   UNL A   1      44.379  30.277  27.954  1.00  0.00     0.173 A 
ATOM     98  C   UNL A   1      46.747  29.992  28.188  1.00  0.00     0.173 A 
ATOM     99  F   UNL A   1      43.117  30.062  28.342  1.00  0.00    -0.203 F 
ATOM    100  C   UNL A   1      44.591  31.209  26.939  1.00  0.00     0.198 A 
ATOM    101  C   UNL A   1      46.957  30.951  27.200  1.00  0.00     0.198 A 
ATOM    102  F   UNL A   1      47.815  29.448  28.793  1.00  0.00    -0.203 F 
ATOM    103  F   UNL A   1      43.547  31.802  26.340  1.00  0.00    -0.200 F 
ATOM    104  C   UNL A   1      45.881  31.550  26.568  1.00  0.00     0.200 A 
ATOM    105  F   UNL A   1      48.207  31.312  26.880  1.00  0.00    -0.200 F 
ATOM    106  F   UNL A   1      46.087  32.475  25.619  1.00  0.00    -0.200 F 
ENDBRANCH  73  96
ENDBRANCH  47  48
ENDBRANCH  39  42
ENDBRANCH  37  38
ENDBRANCH  36  37
ENDBRANCH  35  36
ENDBRANCH  34  35
ENDBRANCH   1  34
TORSDOF 18
ENDMDL
MODEL 2
REMARK VINA RESULT:     -12.7      3.334      9.939
REMARK SMILES Cc1c(-c2nn(-c3ccccc3)cc2/C=N/O)nnn1-c1ccc(C(=O)NCCCCCCNC(=O)c2ccc(-c3c4nc(c(-c5c(F)c(F)c(F)c(F)c5F)c5ccc([nH]5)c(-c5c(F)c(F)c(F)c(F)c5F)c5nc(c(-c6c(F)c(F)c(F)c(F)c6F)c6ccc3[nH]6)C=C5)C=C4)cc2)cc1
REMARK SMILES IDX 29 1 28 2 27 3 25 4 26 5 24 7 21 8 22 9 101 10 23 11 100 12
REMARK SMILES IDX 20 13 1 14 2 15 3 16 18 17 19 18 4 19 5 20 14 21 6 22 13 23
REMARK SMILES IDX 15 24 16 25 17 26 7 28 8 29 12 30 9 31 11 32 10 33 30 34
REMARK SMILES IDX 31 35 32 36 33 37 34 38 35 39 36 41 37 42 38 43 99 44 39 45
REMARK SMILES IDX 98 46 40 47 41 48 42 49 92 50 43 51 97 52 91 53 93 54 44 55
REMARK SMILES IDX 96 56 90 57 89 58 45 60 77 61 57 62 76 63 58 64 61 65 75 66
REMARK SMILES IDX 94 67 59 68 60 69 74 71 95 72 62 73 46 74 47 75 55 76 48 77
REMARK SMILES IDX 49 78 53 79 56 80 50 81 51 82 54 83 52 84 78 85 79 86 87 87
REMARK SMILES IDX 80 88 81 89 85 90 88 91 82 92 83 93 86 94 84 95 63 96 64 97
REMARK SMILES IDX 72 98 65 99 66 100 70 101 73 102 67 103 68 104 71 105 69 106
REMARK H PARENT 27 6 17 27 34 40 93 59 61 70
REMARK Flexibility Score: inf
ROOT
ATOM      1  C   UNL A   1      39.499  20.952  26.010  1.00  0.00     0.021 C 
ENDROOT
BRANCH   1   2
ATOM      2  C   UNL A   1      38.199  21.485  25.404  1.00  0.00     0.116 C 
BRANCH   2   3
ATOM      3  N   UNL A   1      37.304  20.386  25.099  1.00  0.00    -0.352 N 
ATOM      4  C   UNL A   1      35.941  20.251  25.084  1.00  0.00     0.251 C 
ATOM      5  O   UNL A   1      35.494  19.141  24.791  1.00  0.00    -0.269 OA
ATOM      6  H   UNL A   1      37.778  19.560  24.850  1.00  0.00     0.163 HD
BRANCH   4   7
ATOM      7  C   UNL A   1      34.987  21.372  25.328  1.00  0.00     0.039 A 
ATOM      8  C   UNL A   1      33.219  23.546  25.499  1.00  0.00     0.067 A 
ATOM      9  C   UNL A   1      33.059  22.610  24.478  1.00  0.00     0.029 A 
ATOM     10  C   UNL A   1      34.191  23.356  26.485  1.00  0.00     0.029 A 
ATOM     11  C   UNL A   1      33.966  21.551  24.377  1.00  0.00     0.016 A 
ATOM     12  C   UNL A   1      35.029  22.237  26.425  1.00  0.00     0.016 A 
BRANCH   8  13
ATOM     13  N   UNL A   1      32.369  24.667  25.553  1.00  0.00    -0.217 N 
ATOM     14  C   UNL A   1      33.701  26.331  24.173  1.00  0.00     0.069 C 
ATOM     15  C   UNL A   1      32.602  25.948  25.089  1.00  0.00     0.071 A 
ATOM     16  C   UNL A   1      31.505  26.649  25.551  1.00  0.00     0.137 A 
ATOM     17  N   UNL A   1      30.628  25.806  26.167  1.00  0.00    -0.128 NA
ATOM     18  N   UNL A   1      31.133  24.580  26.097  1.00  0.00    -0.061 NA
BRANCH  16  19
ATOM     19  C   UNL A   1      31.179  28.050  25.325  1.00  0.00     0.124 A 
ATOM     20  N   UNL A   1      30.274  28.418  24.409  1.00  0.00    -0.165 NA
ATOM     21  C   UNL A   1      31.789  29.158  25.960  1.00  0.00     0.044 A 
ATOM     22  N   UNL A   1      30.373  29.761  24.361  1.00  0.00    -0.240 N 
ATOM     23  C   UNL A   1      31.284  30.245  25.270  1.00  0.00     0.125 A 
BRANCH  21  24
ATOM     24  C   UNL A   1      32.718  29.240  27.057  1.00  0.00     0.166 C 
ATOM     25  N   UNL A   1      33.556  30.220  27.128  1.00  0.00    -0.097 NA
BRANCH  25  26
ATOM     26  O   UNL A   1      34.372  30.048  28.253  1.00  0.00    -0.411 OA
ATOM     27  H   UNL A   1      34.964  30.727  28.511  1.00  0.00     0.330 HD
ENDBRANCH  25  26
ENDBRANCH  21  24
BRANCH  22  28
ATOM     28  C   UNL A   1      29.618  30.502  23.425  1.00  0.00     0.065 A 
ATOM     29  C   UNL A   1      29.322  29.927  22.183  1.00  0.00     0.028 A 
ATOM     30  C   UNL A   1      29.196  31.801  23.726  1.00  0.00     0.028 A 
ATOM     31  C   UNL A   1      28.573  30.645  21.252  1.00  0.00     0.002 A 
ATOM     32  C   UNL A   1      28.498  32.533  22.764  1.00  0.00     0.002 A 
ATOM     33  C   UNL A   1      28.174  31.951  21.536  1.00  0.00     0.000 A 
ENDBRANCH  22  28
ENDBRANCH  16  19
ENDBRANCH   8  13
ENDBRANCH   4   7
ENDBRANCH   2   3
ENDBRANCH   1   2
BRANCH   1  34
ATOM     34  C   UNL A   1      40.577  22.033  26.182  1.00  0.00     0.002 C 
BRANCH  34  35
ATOM     35  C   UNL A   1      40.701  22.628  27.594  1.00  0.00     0.002 C 
BRANCH  35  36
ATOM     36  C   UNL A   1      41.910  22.167  28.421  1.00  0.00     0.021 C 
BRANCH  36  37
ATOM     37  C   UNL A   1      43.076  23.144  28.393  1.00  0.00     0.116 C 
BRANCH  37  38
ATOM     38  N   UNL A   1      43.695  23.221  27.070  1.00  0.00    -0.352 N 
ATOM     39  C   UNL A   1      43.630  24.242  26.142  1.00  0.00     0.251 C 
ATOM     40  H   UNL A   1      44.230  22.439  26.805  1.00  0.00     0.163 HD
ATOM     41  O   UNL A   1      43.868  24.039  24.963  1.00  0.00    -0.269 OA
BRANCH  39  42
ATOM     42  C   UNL A   1      43.267  25.592  26.605  1.00  0.00     0.039 A 
ATOM     43  C   UNL A   1      42.046  26.172  26.255  1.00  0.00     0.014 A 
ATOM     44  C   UNL A   1      44.169  26.267  27.423  1.00  0.00     0.014 A 
ATOM     45  C   UNL A   1      41.714  27.408  26.802  1.00  0.00     0.010 A 
ATOM     46  C   UNL A   1      43.769  27.392  28.095  1.00  0.00     0.010 A 
ATOM     47  C   UNL A   1      42.575  28.002  27.741  1.00  0.00    -0.014 A 
BRANCH  47  48
ATOM     48  C   UNL A   1      42.199  29.234  28.421  1.00  0.00     0.031 A 
ATOM     49  C   UNL A   1      43.150  30.362  28.241  1.00  0.00     0.074 A 
ATOM     50  C   UNL A   1      41.002  29.417  29.018  1.00  0.00     0.049 A 
ATOM     51  N   UNL A   1      43.913  30.894  29.137  1.00  0.00    -0.248 NA
ATOM     52  C   UNL A   1      43.374  30.879  26.883  1.00  0.00     0.031 C 
ATOM     53  C   UNL A   1      39.827  28.538  29.020  1.00  0.00     0.029 A 
ATOM     54  N   UNL A   1      40.558  30.508  29.699  1.00  0.00    -0.354 N 
ATOM     55  C   UNL A   1      44.588  31.935  28.506  1.00  0.00     0.074 A 
ATOM     56  C   UNL A   1      44.342  31.774  27.096  1.00  0.00     0.031 C 
ATOM     57  C   UNL A   1      38.750  29.219  29.472  1.00  0.00     0.029 A 
ATOM     58  C   UNL A   1      39.195  30.509  29.963  1.00  0.00     0.049 A 
ATOM     59  H   UNL A   1      41.155  31.237  29.982  1.00  0.00     0.167 HD
ATOM     60  C   UNL A   1      45.104  32.968  29.230  1.00  0.00     0.037 A 
ATOM     61  C   UNL A   1      38.484  31.508  30.537  1.00  0.00     0.037 A 
ATOM     62  C   UNL A   1      45.197  32.616  30.627  1.00  0.00     0.049 A 
ATOM     63  C   UNL A   1      39.447  32.363  31.274  1.00  0.00     0.074 A 
ATOM     64  C   UNL A   1      45.866  31.640  31.339  1.00  0.00     0.029 A 
ATOM     65  N   UNL A   1      44.224  33.087  31.475  1.00  0.00    -0.354 N 
ATOM     66  N   UNL A   1      40.096  31.973  32.336  1.00  0.00    -0.248 NA
ATOM     67  C   UNL A   1      40.031  33.491  30.564  1.00  0.00     0.031 C 
ATOM     68  C   UNL A   1      44.953  31.237  32.359  1.00  0.00     0.029 A 
ATOM     69  C   UNL A   1      43.814  32.037  32.254  1.00  0.00     0.049 A 
ATOM     70  H   UNL A   1      43.883  34.009  31.514  1.00  0.00     0.167 HD
ATOM     71  C   UNL A   1      41.370  32.496  32.180  1.00  0.00     0.074 A 
ATOM     72  C   UNL A   1      41.243  33.499  31.126  1.00  0.00     0.031 C 
ATOM     73  C   UNL A   1      42.457  31.868  32.719  1.00  0.00     0.037 A 
BRANCH  60  74
ATOM     74  C   UNL A   1      45.165  34.405  28.765  1.00  0.00     0.064 A 
ATOM     75  C   UNL A   1      43.991  35.006  28.258  1.00  0.00     0.173 A 
ATOM     76  C   UNL A   1      46.362  35.105  28.500  1.00  0.00     0.173 A 
ATOM     77  F   UNL A   1      42.793  34.435  28.450  1.00  0.00    -0.203 F 
ATOM     78  C   UNL A   1      44.031  36.151  27.457  1.00  0.00     0.198 A 
ATOM     79  C   UNL A   1      46.390  36.277  27.744  1.00  0.00     0.198 A 
ATOM     80  F   UNL A   1      47.561  34.636  28.858  1.00  0.00    -0.203 F 
ATOM     81  F   UNL A   1      42.907  36.599  26.883  1.00  0.00    -0.200 F 
ATOM     82  C   UNL A   1      45.232  36.778  27.191  1.00  0.00     0.200 A 
ATOM     83  F   UNL A   1      47.569  36.863  27.487  1.00  0.00    -0.200 F 
ATOM     84  F   UNL A   1      45.284  37.831  26.365  1.00  0.00    -0.200 F 
ENDBRANCH  60  74
BRANCH  61  85
ATOM     85  C   UNL A   1      37.095  31.935  30.257  1.00  0.00     0.064 A 
ATOM     86  C   UNL A   1      36.127  31.952  31.274  1.00  0.00     0.173 A 
ATOM     87  C   UNL A   1      36.769  32.613  29.068  1.00  0.00     0.173 A 
ATOM     88  F   UNL A   1      36.377  31.363  32.453  1.00  0.00    -0.203 F 
ATOM     89  C   UNL A   1      34.919  32.639  31.123  1.00  0.00     0.198 A 
ATOM     90  C   UNL A   1      35.562  33.295  28.917  1.00  0.00     0.198 A 
ATOM     91  F   UNL A   1      37.658  32.713  28.069  1.00  0.00    -0.203 F 
ATOM     92  F   UNL A   1      34.049  32.694  32.142  1.00  0.00    -0.200 F 
ATOM     93  C   UNL A   1      34.643  33.322  29.951  1.00  0.00     0.200 A 
ATOM     94  F   UNL A   1      35.324  33.986  27.792  1.00  0.00    -0.200 F 
ATOM     95  F   UNL A   1      33.518  34.041  29.833  1.00  0.00    -0.200 F 
ENDBRANCH  61  85
BRANCH  73  96
ATOM     96  C   UNL A   1      42.209  30.760  33.705  1.00  0.00     0.064 A 
ATOM     97  C   UNL A   1      41.982  29.418  33.350  1.00  0.00     0.173 A 
ATOM     98  C   UNL A   1      42.342  31.048  35.070  1.00  0.00     0.173 A 
ATOM     99  F   UNL A   1      41.939  29.040  32.067  1.00  0.00    -0.203 F 
ATOM    100  C   UNL A   1      41.851  28.424  34.319  1.00  0.00     0.198 A 
ATOM    101  C   UNL A   1      42.249  30.048  36.034  1.00  0.00     0.198 A 
ATOM    102  F   UNL A   1      42.613  32.301  35.467  1.00  0.00    -0.203 F 
ATOM    103  F   UNL A   1      41.619  27.154  33.955  1.00  0.00    -0.200 F 
ATOM    104  C   UNL A   1      41.992  28.739  35.661  1.00  0.00     0.200 A 
ATOM    105  F   UNL A   1      42.434  30.350  37.326  1.00  0.00    -0.200 F 
ATOM    106  F   UNL A   1      41.905  27.778  36.591  1.00  0.00    -0.200 F 
ENDBRANCH  73  96
ENDBRANCH  47  48
ENDBRANCH  39  42
ENDBRANCH  37  38
ENDBRANCH  36  37
ENDBRANCH  35  36
ENDBRANCH  34  35
ENDBRANCH   1  34
TORSDOF 18
ENDMDL
MODEL 3
REMARK VINA RESULT:     -12.7      0.805      2.016
REMARK SMILES Cc1c(-c2nn(-c3ccccc3)cc2/C=N/O)nnn1-c1ccc(C(=O)NCCCCCCNC(=O)c2ccc(-c3c4nc(c(-c5c(F)c(F)c(F)c(F)c5F)c5ccc([nH]5)c(-c5c(F)c(F)c(F)c(F)c5F)c5nc(c(-c6c(F)c(F)c(F)c(F)c6F)c6ccc3[nH]6)C=C5)C=C4)cc2)cc1
REMARK SMILES IDX 29 1 28 2 27 3 25 4 26 5 24 7 21 8 22 9 101 10 23 11 100 12
REMARK SMILES IDX 20 13 1 14 2 15 3 16 18 17 19 18 4 19 5 20 14 21 6 22 13 23
REMARK SMILES IDX 15 24 16 25 17 26 7 28 8 29 12 30 9 31 11 32 10 33 30 34
REMARK SMILES IDX 31 35 32 36 33 37 34 38 35 39 36 41 37 42 38 43 99 44 39 45
REMARK SMILES IDX 98 46 40 47 41 48 42 49 92 50 43 51 97 52 91 53 93 54 44 55
REMARK SMILES IDX 96 56 90 57 89 58 45 60 77 61 57 62 76 63 58 64 61 65 75 66
REMARK SMILES IDX 94 67 59 68 60 69 74 71 95 72 62 73 46 74 47 75 55 76 48 77
REMARK SMILES IDX 49 78 53 79 56 80 50 81 51 82 54 83 52 84 78 85 79 86 87 87
REMARK SMILES IDX 80 88 81 89 85 90 88 91 82 92 83 93 86 94 84 95 63 96 64 97
REMARK SMILES IDX 72 98 65 99 66 100 70 101 73 102 67 103 68 104 71 105 69 106
REMARK H PARENT 27 6 17 27 34 40 93 59 61 70
REMARK Flexibility Score: inf
ROOT
ATOM      1  C   UNL A   1      31.792  29.494  26.720  1.00  0.00     0.021 C 
ENDROOT
BRANCH   1   2
ATOM      2  C   UNL A   1      31.738  30.850  26.013  1.00  0.00     0.116 C 
BRANCH   2   3
ATOM      3  N   UNL A   1      30.653  30.866  25.051  1.00  0.00    -0.352 N 
ATOM      4  C   UNL A   1      30.302  30.052  24.007  1.00  0.00     0.251 C 
ATOM      5  O   UNL A   1      29.303  30.374  23.361  1.00  0.00    -0.269 OA
ATOM      6  H   UNL A   1      30.038  31.624  25.176  1.00  0.00     0.163 HD
BRANCH   4   7
ATOM      7  C   UNL A   1      31.008  28.784  23.661  1.00  0.00     0.039 A 
ATOM      8  C   UNL A   1      32.220  26.284  23.258  1.00  0.00     0.067 A 
ATOM      9  C   UNL A   1      30.864  26.346  23.580  1.00  0.00     0.029 A 
ATOM     10  C   UNL A   1      32.948  27.457  23.045  1.00  0.00     0.029 A 
ATOM     11  C   UNL A   1      30.277  27.592  23.817  1.00  0.00     0.016 A 
ATOM     12  C   UNL A   1      32.320  28.699  23.189  1.00  0.00     0.016 A 
BRANCH   8  13
ATOM     13  N   UNL A   1      32.843  25.029  23.112  1.00  0.00    -0.217 N 
ATOM     14  C   UNL A   1      32.533  24.079  25.446  1.00  0.00     0.069 C 
ATOM     15  C   UNL A   1      33.111  24.083  24.082  1.00  0.00     0.071 A 
ATOM     16  C   UNL A   1      33.865  23.146  23.402  1.00  0.00     0.137 A 
ATOM     17  N   UNL A   1      33.949  23.475  22.081  1.00  0.00    -0.128 NA
ATOM     18  N   UNL A   1      33.255  24.593  21.899  1.00  0.00    -0.061 NA
BRANCH  16  19
ATOM     19  C   UNL A   1      34.396  21.887  23.905  1.00  0.00     0.124 A 
ATOM     20  N   UNL A   1      33.702  20.748  23.808  1.00  0.00    -0.165 NA
ATOM     21  C   UNL A   1      35.623  21.719  24.590  1.00  0.00     0.044 A 
ATOM     22  N   UNL A   1      34.417  19.858  24.526  1.00  0.00    -0.240 N 
ATOM     23  C   UNL A   1      35.573  20.408  25.026  1.00  0.00     0.125 A 
BRANCH  21  24
ATOM     24  C   UNL A   1      36.716  22.625  24.831  1.00  0.00     0.166 C 
ATOM     25  N   UNL A   1      37.622  22.332  25.704  1.00  0.00    -0.097 NA
BRANCH  25  26
ATOM     26  O   UNL A   1      38.543  23.385  25.783  1.00  0.00    -0.411 OA
ATOM     27  H   UNL A   1      38.807  23.836  25.005  1.00  0.00     0.330 HD
ENDBRANCH  25  26
ENDBRANCH  21  24
BRANCH  22  28
ATOM     28  C   UNL A   1      33.935  18.545  24.724  1.00  0.00     0.065 A 
ATOM     29  C   UNL A   1      34.471  17.502  23.959  1.00  0.00     0.028 A 
ATOM     30  C   UNL A   1      32.919  18.297  25.653  1.00  0.00     0.028 A 
ATOM     31  C   UNL A   1      34.008  16.200  24.149  1.00  0.00     0.002 A 
ATOM     32  C   UNL A   1      32.422  17.000  25.792  1.00  0.00     0.002 A 
ATOM     33  C   UNL A   1      32.975  15.952  25.053  1.00  0.00     0.000 A 
ENDBRANCH  22  28
ENDBRANCH  16  19
ENDBRANCH   8  13
ENDBRANCH   4   7
ENDBRANCH   2   3
ENDBRANCH   1   2
BRANCH   1  34
ATOM     34  C   UNL A   1      33.192  28.860  26.712  1.00  0.00     0.002 C 
BRANCH  34  35
ATOM     35  C   UNL A   1      34.225  29.521  27.639  1.00  0.00     0.002 C 
BRANCH  35  36
ATOM     36  C   UNL A   1      34.269  31.056  27.621  1.00  0.00     0.021 C 
BRANCH  36  37
ATOM     37  C   UNL A   1      35.651  31.629  27.899  1.00  0.00     0.116 C 
BRANCH  37  38
ATOM     38  N   UNL A   1      35.676  32.432  29.120  1.00  0.00    -0.352 N 
ATOM     39  C   UNL A   1      36.385  32.213  30.286  1.00  0.00     0.251 C 
ATOM     40  H   UNL A   1      35.111  33.238  29.111  1.00  0.00     0.163 HD
ATOM     41  O   UNL A   1      36.046  32.730  31.337  1.00  0.00    -0.269 OA
BRANCH  39  42
ATOM     42  C   UNL A   1      37.568  31.339  30.236  1.00  0.00     0.039 A 
ATOM     43  C   UNL A   1      38.858  31.870  30.186  1.00  0.00     0.014 A 
ATOM     44  C   UNL A   1      37.365  29.961  30.260  1.00  0.00     0.014 A 
ATOM     45  C   UNL A   1      39.942  30.998  30.241  1.00  0.00     0.010 A 
ATOM     46  C   UNL A   1      38.422  29.120  30.489  1.00  0.00     0.010 A 
ATOM     47  C   UNL A   1      39.713  29.622  30.414  1.00  0.00    -0.014 A 
BRANCH  47  48
ATOM     48  C   UNL A   1      40.826  28.700  30.595  1.00  0.00     0.031 A 
ATOM     49  C   UNL A   1      41.246  28.497  32.006  1.00  0.00     0.074 A 
ATOM     50  C   UNL A   1      41.329  27.939  29.600  1.00  0.00     0.049 A 
ATOM     51  N   UNL A   1      42.350  28.878  32.557  1.00  0.00    -0.248 NA
ATOM     52  C   UNL A   1      40.278  27.917  32.949  1.00  0.00     0.031 C 
ATOM     53  C   UNL A   1      40.838  27.771  28.227  1.00  0.00     0.029 A 
ATOM     54  N   UNL A   1      42.375  27.071  29.649  1.00  0.00    -0.354 N 
ATOM     55  C   UNL A   1      42.304  28.430  33.874  1.00  0.00     0.074 A 
ATOM     56  C   UNL A   1      40.951  27.995  34.100  1.00  0.00     0.031 C 
ATOM     57  C   UNL A   1      41.441  26.705  27.655  1.00  0.00     0.029 A 
ATOM     58  C   UNL A   1      42.485  26.236  28.546  1.00  0.00     0.049 A 
ATOM     59  H   UNL A   1      43.002  27.036  30.407  1.00  0.00     0.167 HD
ATOM     60  C   UNL A   1      43.451  28.250  34.587  1.00  0.00     0.037 A 
ATOM     61  C   UNL A   1      43.370  25.224  28.383  1.00  0.00     0.037 A 
ATOM     62  C   UNL A   1      44.556  28.937  33.961  1.00  0.00     0.049 A 
ATOM     63  C   UNL A   1      44.492  25.470  29.322  1.00  0.00     0.074 A 
ATOM     64  C   UNL A   1      44.827  30.255  33.648  1.00  0.00     0.029 A 
ATOM     65  N   UNL A   1      45.430  28.194  33.206  1.00  0.00    -0.354 N 
ATOM     66  N   UNL A   1      45.331  26.461  29.204  1.00  0.00    -0.248 NA
ATOM     67  C   UNL A   1      44.405  24.879  30.649  1.00  0.00     0.031 C 
ATOM     68  C   UNL A   1      45.479  30.206  32.379  1.00  0.00     0.029 A 
ATOM     69  C   UNL A   1      45.630  28.864  32.028  1.00  0.00     0.049 A 
ATOM     70  H   UNL A   1      45.837  27.335  33.464  1.00  0.00     0.167 HD
ATOM     71  C   UNL A   1      45.539  26.901  30.502  1.00  0.00     0.074 A 
ATOM     72  C   UNL A   1      45.023  25.831  31.353  1.00  0.00     0.031 C 
ATOM     73  C   UNL A   1      45.846  28.206  30.759  1.00  0.00     0.037 A 
BRANCH  60  74
ATOM     74  C   UNL A   1      43.670  27.164  35.616  1.00  0.00     0.064 A 
ATOM     75  C   UNL A   1      44.211  27.517  36.872  1.00  0.00     0.173 A 
ATOM     76  C   UNL A   1      43.675  25.782  35.326  1.00  0.00     0.173 A 
ATOM     77  F   UNL A   1      44.258  28.800  37.261  1.00  0.00    -0.203 F 
ATOM     78  C   UNL A   1      44.808  26.574  37.713  1.00  0.00     0.198 A 
ATOM     79  C   UNL A   1      44.224  24.839  36.192  1.00  0.00     0.198 A 
ATOM     80  F   UNL A   1      43.255  25.295  34.154  1.00  0.00    -0.203 F 
ATOM     81  F   UNL A   1      45.434  26.978  38.827  1.00  0.00    -0.200 F 
ATOM     82  C   UNL A   1      44.826  25.237  37.367  1.00  0.00     0.200 A 
ATOM     83  F   UNL A   1      44.242  23.547  35.831  1.00  0.00    -0.200 F 
ATOM     84  F   UNL A   1      45.460  24.342  38.134  1.00  0.00    -0.200 F 
ENDBRANCH  60  74
BRANCH  61  85
ATOM     85  C   UNL A   1      43.178  23.928  27.695  1.00  0.00     0.064 A 
ATOM     86  C   UNL A   1      42.444  22.894  28.295  1.00  0.00     0.173 A 
ATOM     87  C   UNL A   1      43.455  23.788  26.322  1.00  0.00     0.173 A 
ATOM     88  F   UNL A   1      42.104  22.972  29.590  1.00  0.00    -0.203 F 
ATOM     89  C   UNL A   1      41.980  21.801  27.557  1.00  0.00     0.198 A 
ATOM     90  C   UNL A   1      42.995  22.695  25.587  1.00  0.00     0.198 A 
ATOM     91  F   UNL A   1      44.087  24.758  25.646  1.00  0.00    -0.203 F 
ATOM     92  F   UNL A   1      41.220  20.868  28.148  1.00  0.00    -0.200 F 
ATOM     93  C   UNL A   1      42.244  21.709  26.201  1.00  0.00     0.200 A 
ATOM     94  F   UNL A   1      43.223  22.638  24.266  1.00  0.00    -0.200 F 
ATOM     95  F   UNL A   1      41.738  20.700  25.478  1.00  0.00    -0.200 F 
ENDBRANCH  61  85
BRANCH  73  96
ATOM     96  C   UNL A   1      46.221  29.081  29.595  1.00  0.00     0.064 A 
ATOM     97  C   UNL A   1      47.502  29.129  29.018  1.00  0.00     0.173 A 
ATOM     98  C   UNL A   1      45.202  29.798  28.953  1.00  0.00     0.173 A 
ATOM     99  F   UNL A   1      48.509  28.397  29.509  1.00  0.00    -0.203 F 
ATOM    100  C   UNL A   1      47.757  29.894  27.880  1.00  0.00     0.198 A 
ATOM    101  C   UNL A   1      45.450  30.530  27.795  1.00  0.00     0.198 A 
ATOM    102  F   UNL A   1      43.946  29.748  29.425  1.00  0.00    -0.203 F 
ATOM    103  F   UNL A   1      48.992  29.934  27.359  1.00  0.00    -0.200 F 
ATOM    104  C   UNL A   1      46.728  30.588  27.266  1.00  0.00     0.200 A 
ATOM    105  F   UNL A   1      44.442  31.160  27.178  1.00  0.00    -0.200 F 
ATOM    106  F   UNL A   1      46.963  31.293  26.150  1.00  0.00    -0.200 F 
ENDBRANCH  73  96
ENDBRANCH  47  48
ENDBRANCH  39  42
ENDBRANCH  37  38
ENDBRANCH  36  37
ENDBRANCH  35  36
ENDBRANCH  34  35
ENDBRANCH   1  34
TORSDOF 18
ENDMDL
