MODEL 1
REMARK VINA RESULT:     -12.1      0.000      0.000
REMARK SMILES CCc1ccsc1C(=O)c1c[nH]c(C(=O)NCCCCCCNC(=O)c2ccc(-c3c4nc(c(-c5c(F)c(F)c(F)c(F)c5F)c5ccc([nH]5)c(-c5c(F)c(F)c(F)c(F)c5F)c5nc(c(-c6c(F)c(F)c(F)c(F)c6F)c6ccc3[nH]6)C=C5)C=C4)cc2)c1
REMARK SMILES IDX 19 1 18 2 17 3 16 4 14 5 15 6 13 8 10 9 11 10 89 11 12 12
REMARK SMILES IDX 8 14 9 15 7 16 3 17 4 18 5 19 6 20 2 21 1 22 20 23 21 24
REMARK SMILES IDX 22 25 23 26 24 27 25 29 26 30 27 31 88 32 28 33 87 34 29 35
REMARK SMILES IDX 30 36 31 37 81 38 32 39 86 40 80 41 82 42 33 43 85 44 79 45
REMARK SMILES IDX 78 46 34 48 66 49 46 50 65 51 47 52 50 53 64 54 83 55 48 56
REMARK SMILES IDX 49 57 63 59 84 60 51 61 35 62 36 63 44 64 37 65 38 66 42 67
REMARK SMILES IDX 45 68 39 69 40 70 43 71 41 72 67 73 68 74 76 75 69 76 70 77
REMARK SMILES IDX 74 78 77 79 71 80 72 81 75 82 73 83 52 84 53 85 61 86 54 87
REMARK SMILES IDX 55 88 59 89 62 90 56 91 57 92 60 93 58 94
REMARK H PARENT 16 7 12 13 23 28 82 47 50 58
REMARK Flexibility Score: inf
ROOT
ATOM      1  C   UNL A   1      31.716  29.331  25.034  1.00  0.00     0.002 C 
ENDROOT
BRANCH   1   2
ATOM      2  C   UNL A   1      32.456  28.735  23.830  1.00  0.00     0.021 C 
BRANCH   2   3
ATOM      3  C   UNL A   1      31.527  28.026  22.847  1.00  0.00     0.116 C 
BRANCH   3   4
ATOM      4  N   UNL A   1      32.294  27.364  21.814  1.00  0.00    -0.351 N 
ATOM      5  C   UNL A   1      32.618  26.048  21.626  1.00  0.00     0.267 C 
ATOM      6  O   UNL A   1      33.203  25.758  20.586  1.00  0.00    -0.268 OA
ATOM      7  H   UNL A   1      32.648  27.970  21.123  1.00  0.00     0.163 HD
BRANCH   5   8
ATOM      8  C   UNL A   1      32.233  25.030  22.578  1.00  0.00     0.105 A 
ATOM      9  C   UNL A   1      31.968  23.468  24.224  1.00  0.00     0.042 A 
ATOM     10  C   UNL A   1      30.726  23.780  23.708  1.00  0.00     0.095 A 
ATOM     11  C   UNL A   1      32.914  24.240  23.488  1.00  0.00     0.045 A 
ATOM     12  N   UNL A   1      30.907  24.651  22.669  1.00  0.00    -0.356 N 
ATOM     13  H   UNL A   1      30.192  24.963  22.069  1.00  0.00     0.166 HD
BRANCH   9  14
ATOM     14  C   UNL A   1      32.229  22.601  25.364  1.00  0.00     0.204 C 
ATOM     15  O   UNL A   1      31.464  22.643  26.323  1.00  0.00    -0.288 OA
BRANCH  14  16
ATOM     16  C   UNL A   1      33.431  21.759  25.295  1.00  0.00     0.078 A 
ATOM     17  C   UNL A   1      34.771  21.939  25.655  1.00  0.00    -0.026 A 
ATOM     18  C   UNL A   1      35.551  20.763  25.357  1.00  0.00     0.016 A 
ATOM     19  C   UNL A   1      34.817  19.750  24.797  1.00  0.00     0.066 A 
ATOM     20  S   UNL A   1      33.186  20.181  24.618  1.00  0.00    -0.140 S 
BRANCH  17  21
ATOM     21  C   UNL A   1      35.427  23.149  26.266  1.00  0.00     0.034 C 
ATOM     22  C   UNL A   1      36.108  24.030  25.228  1.00  0.00     0.009 C 
ENDBRANCH  17  21
ENDBRANCH  14  16
ENDBRANCH   9  14
ENDBRANCH   5   8
ENDBRANCH   3   4
ENDBRANCH   2   3
ENDBRANCH   1   2
BRANCH   1  23
ATOM     23  C   UNL A   1      32.625  29.947  26.107  1.00  0.00     0.002 C 
BRANCH  23  24
ATOM     24  C   UNL A   1      33.281  28.934  27.058  1.00  0.00     0.021 C 
BRANCH  24  25
ATOM     25  C   UNL A   1      34.807  28.932  26.973  1.00  0.00     0.116 C 
BRANCH  25  26
ATOM     26  N   UNL A   1      35.319  30.269  27.215  1.00  0.00    -0.352 N 
ATOM     27  C   UNL A   1      36.413  30.700  27.907  1.00  0.00     0.251 C 
ATOM     28  H   UNL A   1      34.783  30.990  26.810  1.00  0.00     0.163 HD
ATOM     29  O   UNL A   1      36.450  31.871  28.281  1.00  0.00    -0.269 OA
BRANCH  27  30
ATOM     30  C   UNL A   1      37.547  29.810  28.228  1.00  0.00     0.039 A 
ATOM     31  C   UNL A   1      38.590  29.741  27.292  1.00  0.00     0.014 A 
ATOM     32  C   UNL A   1      37.557  28.970  29.348  1.00  0.00     0.014 A 
ATOM     33  C   UNL A   1      39.656  28.873  27.497  1.00  0.00     0.010 A 
ATOM     34  C   UNL A   1      38.633  28.110  29.567  1.00  0.00     0.010 A 
ATOM     35  C   UNL A   1      39.692  28.079  28.651  1.00  0.00    -0.014 A 
BRANCH  35  36
ATOM     36  C   UNL A   1      40.973  27.421  28.998  1.00  0.00     0.031 A 
ATOM     37  C   UNL A   1      41.032  25.991  28.402  1.00  0.00     0.074 A 
ATOM     38  C   UNL A   1      41.857  28.119  29.779  1.00  0.00     0.049 A 
ATOM     39  N   UNL A   1      41.739  24.965  28.763  1.00  0.00    -0.248 NA
ATOM     40  C   UNL A   1      40.136  25.632  27.263  1.00  0.00     0.031 C 
ATOM     41  C   UNL A   1      41.659  29.515  30.229  1.00  0.00     0.029 A 
ATOM     42  N   UNL A   1      43.080  27.823  30.359  1.00  0.00    -0.354 N 
ATOM     43  C   UNL A   1      41.537  23.940  27.807  1.00  0.00     0.074 A 
ATOM     44  C   UNL A   1      40.459  24.369  26.975  1.00  0.00     0.031 C 
ATOM     45  C   UNL A   1      42.652  29.906  31.059  1.00  0.00     0.029 A 
ATOM     46  C   UNL A   1      43.608  28.827  31.224  1.00  0.00     0.049 A 
ATOM     47  H   UNL A   1      43.552  26.977  30.187  1.00  0.00     0.167 HD
ATOM     48  C   UNL A   1      42.377  22.868  27.682  1.00  0.00     0.037 A 
ATOM     49  C   UNL A   1      44.715  28.780  32.038  1.00  0.00     0.037 A 
ATOM     50  C   UNL A   1      43.375  22.930  28.691  1.00  0.00     0.049 A 
ATOM     51  C   UNL A   1      45.410  27.548  31.654  1.00  0.00     0.074 A 
ATOM     52  C   UNL A   1      43.311  22.744  30.045  1.00  0.00     0.029 A 
ATOM     53  N   UNL A   1      44.531  23.594  28.370  1.00  0.00    -0.354 N 
ATOM     54  N   UNL A   1      46.087  27.405  30.555  1.00  0.00    -0.248 NA
ATOM     55  C   UNL A   1      45.312  26.375  32.530  1.00  0.00     0.031 C 
ATOM     56  C   UNL A   1      44.177  23.736  30.537  1.00  0.00     0.029 A 
ATOM     57  C   UNL A   1      44.916  24.289  29.483  1.00  0.00     0.049 A 
ATOM     58  H   UNL A   1      44.997  23.573  27.502  1.00  0.00     0.167 HD
ATOM     59  C   UNL A   1      46.176  26.039  30.461  1.00  0.00     0.074 A 
ATOM     60  C   UNL A   1      46.016  25.515  31.800  1.00  0.00     0.031 C 
ATOM     61  C   UNL A   1      45.760  25.445  29.314  1.00  0.00     0.037 A 
BRANCH  48  62
ATOM     62  C   UNL A   1      42.598  21.849  26.598  1.00  0.00     0.064 A 
ATOM     63  C   UNL A   1      42.146  20.523  26.831  1.00  0.00     0.173 A 
ATOM     64  C   UNL A   1      43.547  22.007  25.582  1.00  0.00     0.173 A 
ATOM     65  F   UNL A   1      41.197  20.271  27.748  1.00  0.00    -0.203 F 
ATOM     66  C   UNL A   1      42.732  19.421  26.213  1.00  0.00     0.198 A 
ATOM     67  C   UNL A   1      44.094  20.900  24.924  1.00  0.00     0.198 A 
ATOM     68  F   UNL A   1      44.044  23.213  25.281  1.00  0.00    -0.203 F 
ATOM     69  F   UNL A   1      42.389  18.181  26.591  1.00  0.00    -0.200 F 
ATOM     70  C   UNL A   1      43.724  19.610  25.273  1.00  0.00     0.200 A 
ATOM     71  F   UNL A   1      45.052  21.085  24.005  1.00  0.00    -0.200 F 
ATOM     72  F   UNL A   1      44.350  18.556  24.733  1.00  0.00    -0.200 F 
ENDBRANCH  48  62
BRANCH  49  73
ATOM     73  C   UNL A   1      45.372  29.553  33.172  1.00  0.00     0.064 A 
ATOM     74  C   UNL A   1      44.954  29.587  34.506  1.00  0.00     0.173 A 
ATOM     75  C   UNL A   1      46.603  30.246  32.939  1.00  0.00     0.173 A 
ATOM     76  F   UNL A   1      43.765  29.096  34.868  1.00  0.00    -0.203 F 
ATOM     77  C   UNL A   1      45.756  30.145  35.525  1.00  0.00     0.198 A 
ATOM     78  C   UNL A   1      47.426  30.736  33.953  1.00  0.00     0.198 A 
ATOM     79  F   UNL A   1      47.069  30.471  31.704  1.00  0.00    -0.203 F 
ATOM     80  F   UNL A   1      45.313  30.151  36.790  1.00  0.00    -0.200 F 
ATOM     81  C   UNL A   1      47.009  30.671  35.256  1.00  0.00     0.200 A 
ATOM     82  F   UNL A   1      48.627  31.249  33.643  1.00  0.00    -0.200 F 
ATOM     83  F   UNL A   1      47.800  31.122  36.238  1.00  0.00    -0.200 F 
ENDBRANCH  49  73
BRANCH  61  84
ATOM     84  C   UNL A   1      45.887  26.320  28.080  1.00  0.00     0.064 A 
ATOM     85  C   UNL A   1      47.158  26.751  27.663  1.00  0.00     0.173 A 
ATOM     86  C   UNL A   1      44.798  26.849  27.365  1.00  0.00     0.173 A 
ATOM     87  F   UNL A   1      48.256  26.277  28.272  1.00  0.00    -0.203 F 
ATOM     88  C   UNL A   1      47.323  27.669  26.623  1.00  0.00     0.198 A 
ATOM     89  C   UNL A   1      44.960  27.764  26.320  1.00  0.00     0.198 A 
ATOM     90  F   UNL A   1      43.551  26.486  27.658  1.00  0.00    -0.203 F 
ATOM     91  F   UNL A   1      48.556  28.056  26.264  1.00  0.00    -0.200 F 
ATOM     92  C   UNL A   1      46.224  28.179  25.954  1.00  0.00     0.200 A 
ATOM     93  F   UNL A   1      43.885  28.235  25.668  1.00  0.00    -0.200 F 
ATOM     94  F   UNL A   1      46.383  29.051  24.947  1.00  0.00    -0.200 F 
ENDBRANCH  61  84
ENDBRANCH  35  36
ENDBRANCH  27  30
ENDBRANCH  25  26
ENDBRANCH  24  25
ENDBRANCH  23  24
ENDBRANCH   1  23
TORSDOF 16
ENDMDL
MODEL 2
REMARK VINA RESULT:     -11.9      1.275      2.185
REMARK SMILES CCc1ccsc1C(=O)c1c[nH]c(C(=O)NCCCCCCNC(=O)c2ccc(-c3c4nc(c(-c5c(F)c(F)c(F)c(F)c5F)c5ccc([nH]5)c(-c5c(F)c(F)c(F)c(F)c5F)c5nc(c(-c6c(F)c(F)c(F)c(F)c6F)c6ccc3[nH]6)C=C5)C=C4)cc2)c1
REMARK SMILES IDX 19 1 18 2 17 3 16 4 14 5 15 6 13 8 10 9 11 10 89 11 12 12
REMARK SMILES IDX 8 14 9 15 7 16 3 17 4 18 5 19 6 20 2 21 1 22 20 23 21 24
REMARK SMILES IDX 22 25 23 26 24 27 25 29 26 30 27 31 88 32 28 33 87 34 29 35
REMARK SMILES IDX 30 36 31 37 81 38 32 39 86 40 80 41 82 42 33 43 85 44 79 45
REMARK SMILES IDX 78 46 34 48 66 49 46 50 65 51 47 52 50 53 64 54 83 55 48 56
REMARK SMILES IDX 49 57 63 59 84 60 51 61 35 62 36 63 44 64 37 65 38 66 42 67
REMARK SMILES IDX 45 68 39 69 40 70 43 71 41 72 67 73 68 74 76 75 69 76 70 77
REMARK SMILES IDX 74 78 77 79 71 80 72 81 75 82 73 83 52 84 53 85 61 86 54 87
REMARK SMILES IDX 55 88 59 89 62 90 56 91 57 92 60 93 58 94
REMARK H PARENT 16 7 12 13 23 28 82 47 50 58
REMARK Flexibility Score: inf
ROOT
ATOM      1  C   UNL A   1      31.432  30.320  25.857  1.00  0.00     0.002 C 
ENDROOT
BRANCH   1   2
ATOM      2  C   UNL A   1      31.131  28.959  25.217  1.00  0.00     0.021 C 
BRANCH   2   3
ATOM      3  C   UNL A   1      31.298  28.961  23.699  1.00  0.00     0.116 C 
BRANCH   3   4
ATOM      4  N   UNL A   1      32.670  29.249  23.342  1.00  0.00    -0.351 N 
ATOM      5  C   UNL A   1      33.745  28.429  23.133  1.00  0.00     0.267 C 
ATOM      6  O   UNL A   1      34.781  28.954  22.731  1.00  0.00    -0.268 OA
ATOM      7  H   UNL A   1      32.866  30.208  23.231  1.00  0.00     0.163 HD
BRANCH   5   8
ATOM      8  C   UNL A   1      33.652  26.997  23.314  1.00  0.00     0.105 A 
ATOM      9  C   UNL A   1      33.574  24.716  23.233  1.00  0.00     0.042 A 
ATOM     10  C   UNL A   1      33.685  25.106  24.552  1.00  0.00     0.095 A 
ATOM     11  C   UNL A   1      33.526  25.914  22.461  1.00  0.00     0.045 A 
ATOM     12  N   UNL A   1      33.645  26.473  24.593  1.00  0.00    -0.356 N 
ATOM     13  H   UNL A   1      33.617  27.008  25.418  1.00  0.00     0.166 HD
BRANCH   9  14
ATOM     14  C   UNL A   1      33.607  23.347  22.739  1.00  0.00     0.204 C 
ATOM     15  O   UNL A   1      33.345  23.141  21.558  1.00  0.00    -0.288 OA
BRANCH  14  16
ATOM     16  C   UNL A   1      33.916  22.296  23.717  1.00  0.00     0.078 A 
ATOM     17  C   UNL A   1      35.101  21.787  24.263  1.00  0.00    -0.026 A 
ATOM     18  C   UNL A   1      34.827  20.727  25.201  1.00  0.00     0.016 A 
ATOM     19  C   UNL A   1      33.491  20.459  25.345  1.00  0.00     0.066 A 
ATOM     20  S   UNL A   1      32.539  21.467  24.369  1.00  0.00    -0.140 S 
BRANCH  17  21
ATOM     21  C   UNL A   1      36.521  22.201  23.979  1.00  0.00     0.034 C 
ATOM     22  C   UNL A   1      36.921  23.466  24.724  1.00  0.00     0.009 C 
ENDBRANCH  17  21
ENDBRANCH  14  16
ENDBRANCH   9  14
ENDBRANCH   5   8
ENDBRANCH   3   4
ENDBRANCH   2   3
ENDBRANCH   1   2
BRANCH   1  23
ATOM     23  C   UNL A   1      32.584  30.312  26.872  1.00  0.00     0.002 C 
BRANCH  23  24
ATOM     24  C   UNL A   1      33.237  28.940  27.101  1.00  0.00     0.021 C 
BRANCH  24  25
ATOM     25  C   UNL A   1      34.758  28.967  26.956  1.00  0.00     0.116 C 
BRANCH  25  26
ATOM     26  N   UNL A   1      35.260  30.297  27.251  1.00  0.00    -0.352 N 
ATOM     27  C   UNL A   1      36.332  30.708  27.989  1.00  0.00     0.251 C 
ATOM     28  H   UNL A   1      34.736  31.029  26.851  1.00  0.00     0.163 HD
ATOM     29  O   UNL A   1      36.355  31.868  28.397  1.00  0.00    -0.269 OA
BRANCH  27  30
ATOM     30  C   UNL A   1      37.457  29.809  28.320  1.00  0.00     0.039 A 
ATOM     31  C   UNL A   1      38.522  29.759  27.410  1.00  0.00     0.014 A 
ATOM     32  C   UNL A   1      37.437  28.946  29.421  1.00  0.00     0.014 A 
ATOM     33  C   UNL A   1      39.582  28.886  27.623  1.00  0.00     0.010 A 
ATOM     34  C   UNL A   1      38.506  28.079  29.649  1.00  0.00     0.010 A 
ATOM     35  C   UNL A   1      39.588  28.067  28.760  1.00  0.00    -0.014 A 
BRANCH  35  36
ATOM     36  C   UNL A   1      40.859  27.400  29.125  1.00  0.00     0.031 A 
ATOM     37  C   UNL A   1      41.043  26.091  28.316  1.00  0.00     0.074 A 
ATOM     38  C   UNL A   1      41.630  27.986  30.095  1.00  0.00     0.049 A 
ATOM     39  N   UNL A   1      41.758  25.041  28.576  1.00  0.00    -0.248 NA
ATOM     40  C   UNL A   1      40.278  25.899  27.047  1.00  0.00     0.031 C 
ATOM     41  C   UNL A   1      41.325  29.281  30.743  1.00  0.00     0.029 A 
ATOM     42  N   UNL A   1      42.804  27.635  30.743  1.00  0.00    -0.354 N 
ATOM     43  C   UNL A   1      41.697  24.183  27.452  1.00  0.00     0.074 A 
ATOM     44  C   UNL A   1      40.685  24.711  26.594  1.00  0.00     0.031 C 
ATOM     45  C   UNL A   1      42.214  29.559  31.723  1.00  0.00     0.029 A 
ATOM     46  C   UNL A   1      43.199  28.498  31.808  1.00  0.00     0.049 A 
ATOM     47  H   UNL A   1      43.330  26.844  30.485  1.00  0.00     0.167 HD
ATOM     48  C   UNL A   1      42.594  23.172  27.242  1.00  0.00     0.037 A 
ATOM     49  C   UNL A   1      44.224  28.350  32.713  1.00  0.00     0.037 A 
ATOM     50  C   UNL A   1      43.487  23.097  28.344  1.00  0.00     0.049 A 
ATOM     51  C   UNL A   1      45.009  27.220  32.208  1.00  0.00     0.074 A 
ATOM     52  C   UNL A   1      43.302  22.687  29.637  1.00  0.00     0.029 A 
ATOM     53  N   UNL A   1      44.637  23.840  28.255  1.00  0.00    -0.354 N 
ATOM     54  N   UNL A   1      45.795  27.282  31.176  1.00  0.00    -0.248 NA
ATOM     55  C   UNL A   1      44.882  25.916  32.868  1.00  0.00     0.031 C 
ATOM     56  C   UNL A   1      44.069  23.610  30.369  1.00  0.00     0.029 A 
ATOM     57  C   UNL A   1      44.880  24.352  29.499  1.00  0.00     0.049 A 
ATOM     58  H   UNL A   1      45.184  23.977  27.447  1.00  0.00     0.167 HD
ATOM     59  C   UNL A   1      45.956  25.954  30.872  1.00  0.00     0.074 A 
ATOM     60  C   UNL A   1      45.693  25.210  32.085  1.00  0.00     0.031 C 
ATOM     61  C   UNL A   1      45.681  25.546  29.607  1.00  0.00     0.037 A 
BRANCH  48  62
ATOM     62  C   UNL A   1      42.967  22.354  26.035  1.00  0.00     0.064 A 
ATOM     63  C   UNL A   1      42.967  20.940  26.167  1.00  0.00     0.173 A 
ATOM     64  C   UNL A   1      43.683  22.873  24.951  1.00  0.00     0.173 A 
ATOM     65  F   UNL A   1      42.266  20.340  27.144  1.00  0.00    -0.203 F 
ATOM     66  C   UNL A   1      43.770  20.123  25.376  1.00  0.00     0.198 A 
ATOM     67  C   UNL A   1      44.445  22.041  24.123  1.00  0.00     0.198 A 
ATOM     68  F   UNL A   1      43.752  24.192  24.734  1.00  0.00    -0.203 F 
ATOM     69  F   UNL A   1      43.867  18.813  25.648  1.00  0.00    -0.200 F 
ATOM     70  C   UNL A   1      44.527  20.678  24.365  1.00  0.00     0.200 A 
ATOM     71  F   UNL A   1      45.174  22.580  23.136  1.00  0.00    -0.200 F 
ATOM     72  F   UNL A   1      45.364  19.912  23.652  1.00  0.00    -0.200 F 
ENDBRANCH  48  62
BRANCH  49  73
ATOM     73  C   UNL A   1      44.732  28.945  34.018  1.00  0.00     0.064 A 
ATOM     74  C   UNL A   1      46.002  29.484  34.246  1.00  0.00     0.173 A 
ATOM     75  C   UNL A   1      43.838  29.095  35.125  1.00  0.00     0.173 A 
ATOM     76  F   UNL A   1      46.990  29.318  33.362  1.00  0.00    -0.203 F 
ATOM     77  C   UNL A   1      46.302  30.217  35.415  1.00  0.00     0.198 A 
ATOM     78  C   UNL A   1      44.112  29.875  36.249  1.00  0.00     0.198 A 
ATOM     79  F   UNL A   1      42.643  28.491  35.160  1.00  0.00    -0.203 F 
ATOM     80  F   UNL A   1      47.534  30.717  35.587  1.00  0.00    -0.200 F 
ATOM     81  C   UNL A   1      45.345  30.454  36.388  1.00  0.00     0.200 A 
ATOM     82  F   UNL A   1      43.157  30.067  37.173  1.00  0.00    -0.200 F 
ATOM     83  F   UNL A   1      45.612  31.220  37.454  1.00  0.00    -0.200 F 
ENDBRANCH  49  73
BRANCH  61  84
ATOM     84  C   UNL A   1      45.884  26.616  28.550  1.00  0.00     0.064 A 
ATOM     85  C   UNL A   1      44.784  27.073  27.806  1.00  0.00     0.173 A 
ATOM     86  C   UNL A   1      47.137  27.118  28.158  1.00  0.00     0.173 A 
ATOM     87  F   UNL A   1      43.546  26.666  28.126  1.00  0.00    -0.203 F 
ATOM     88  C   UNL A   1      44.932  27.949  26.727  1.00  0.00     0.198 A 
ATOM     89  C   UNL A   1      47.290  27.998  27.083  1.00  0.00     0.198 A 
ATOM     90  F   UNL A   1      48.244  26.772  28.812  1.00  0.00    -0.203 F 
ATOM     91  F   UNL A   1      43.853  28.354  26.042  1.00  0.00    -0.200 F 
ATOM     92  C   UNL A   1      46.186  28.409  26.363  1.00  0.00     0.200 A 
ATOM     93  F   UNL A   1      48.510  28.450  26.753  1.00  0.00    -0.200 F 
ATOM     94  F   UNL A   1      46.328  29.260  25.336  1.00  0.00    -0.200 F 
ENDBRANCH  61  84
ENDBRANCH  35  36
ENDBRANCH  27  30
ENDBRANCH  25  26
ENDBRANCH  24  25
ENDBRANCH  23  24
ENDBRANCH   1  23
TORSDOF 16
ENDMDL
MODEL 3
REMARK VINA RESULT:     -11.8      1.223      2.373
REMARK SMILES CCc1ccsc1C(=O)c1c[nH]c(C(=O)NCCCCCCNC(=O)c2ccc(-c3c4nc(c(-c5c(F)c(F)c(F)c(F)c5F)c5ccc([nH]5)c(-c5c(F)c(F)c(F)c(F)c5F)c5nc(c(-c6c(F)c(F)c(F)c(F)c6F)c6ccc3[nH]6)C=C5)C=C4)cc2)c1
REMARK SMILES IDX 19 1 18 2 17 3 16 4 14 5 15 6 13 8 10 9 11 10 89 11 12 12
REMARK SMILES IDX 8 14 9 15 7 16 3 17 4 18 5 19 6 20 2 21 1 22 20 23 21 24
REMARK SMILES IDX 22 25 23 26 24 27 25 29 26 30 27 31 88 32 28 33 87 34 29 35
REMARK SMILES IDX 30 36 31 37 81 38 32 39 86 40 80 41 82 42 33 43 85 44 79 45
REMARK SMILES IDX 78 46 34 48 66 49 46 50 65 51 47 52 50 53 64 54 83 55 48 56
REMARK SMILES IDX 49 57 63 59 84 60 51 61 35 62 36 63 44 64 37 65 38 66 42 67
REMARK SMILES IDX 45 68 39 69 40 70 43 71 41 72 67 73 68 74 76 75 69 76 70 77
REMARK SMILES IDX 74 78 77 79 71 80 72 81 75 82 73 83 52 84 53 85 61 86 54 87
REMARK SMILES IDX 55 88 59 89 62 90 56 91 57 92 60 93 58 94
REMARK H PARENT 16 7 12 13 23 28 82 47 50 58
REMARK Flexibility Score: inf
ROOT
ATOM      1  C   UNL A   1      32.407  28.253  24.750  1.00  0.00     0.002 C 
ENDROOT
BRANCH   1   2
ATOM      2  C   UNL A   1      30.901  28.328  24.472  1.00  0.00     0.021 C 
BRANCH   2   3
ATOM      3  C   UNL A   1      30.325  27.019  23.935  1.00  0.00     0.116 C 
BRANCH   3   4
ATOM      4  N   UNL A   1      29.741  26.246  25.010  1.00  0.00    -0.351 N 
ATOM      5  C   UNL A   1      30.226  25.196  25.740  1.00  0.00     0.267 C 
ATOM      6  O   UNL A   1      29.538  24.798  26.677  1.00  0.00    -0.268 OA
ATOM      7  H   UNL A   1      28.831  26.525  25.261  1.00  0.00     0.163 HD
BRANCH   5   8
ATOM      8  C   UNL A   1      31.523  24.616  25.465  1.00  0.00     0.105 A 
ATOM      9  C   UNL A   1      33.486  23.760  24.670  1.00  0.00     0.042 A 
ATOM     10  C   UNL A   1      33.622  23.994  26.024  1.00  0.00     0.095 A 
ATOM     11  C   UNL A   1      32.151  24.129  24.332  1.00  0.00     0.045 A 
ATOM     12  N   UNL A   1      32.416  24.426  26.502  1.00  0.00    -0.356 N 
ATOM     13  H   UNL A   1      32.213  24.580  27.453  1.00  0.00     0.166 HD
BRANCH   9  14
ATOM     14  C   UNL A   1      34.539  23.323  23.766  1.00  0.00     0.204 C 
ATOM     15  O   UNL A   1      34.585  23.807  22.638  1.00  0.00    -0.288 OA
BRANCH  14  16
ATOM     16  C   UNL A   1      35.456  22.290  24.265  1.00  0.00     0.078 A 
ATOM     17  C   UNL A   1      35.304  20.953  24.653  1.00  0.00    -0.026 A 
ATOM     18  C   UNL A   1      36.561  20.390  25.079  1.00  0.00     0.016 A 
ATOM     19  C   UNL A   1      37.605  21.275  25.009  1.00  0.00     0.066 A 
ATOM     20  S   UNL A   1      37.108  22.791  24.434  1.00  0.00    -0.140 S 
BRANCH  17  21
ATOM     21  C   UNL A   1      34.051  20.118  24.677  1.00  0.00     0.034 C 
ATOM     22  C   UNL A   1      33.235  20.325  25.944  1.00  0.00     0.009 C 
ENDBRANCH  17  21
ENDBRANCH  14  16
ENDBRANCH   9  14
ENDBRANCH   5   8
ENDBRANCH   3   4
ENDBRANCH   2   3
ENDBRANCH   1   2
BRANCH   1  23
ATOM     23  C   UNL A   1      32.776  27.865  26.189  1.00  0.00     0.002 C 
BRANCH  23  24
ATOM     24  C   UNL A   1      33.409  28.992  27.022  1.00  0.00     0.021 C 
BRANCH  24  25
ATOM     25  C   UNL A   1      34.935  29.002  26.957  1.00  0.00     0.116 C 
BRANCH  25  26
ATOM     26  N   UNL A   1      35.434  30.334  27.250  1.00  0.00    -0.352 N 
ATOM     27  C   UNL A   1      36.527  30.749  27.955  1.00  0.00     0.251 C 
ATOM     28  H   UNL A   1      34.889  31.065  26.876  1.00  0.00     0.163 HD
ATOM     29  O   UNL A   1      36.552  31.905  28.374  1.00  0.00    -0.269 OA
BRANCH  27  30
ATOM     30  C   UNL A   1      37.671  29.859  28.236  1.00  0.00     0.039 A 
ATOM     31  C   UNL A   1      38.675  29.782  27.261  1.00  0.00     0.014 A 
ATOM     32  C   UNL A   1      37.723  29.026  29.360  1.00  0.00     0.014 A 
ATOM     33  C   UNL A   1      39.748  28.914  27.429  1.00  0.00     0.010 A 
ATOM     34  C   UNL A   1      38.806  28.166  29.543  1.00  0.00     0.010 A 
ATOM     35  C   UNL A   1      39.828  28.127  28.585  1.00  0.00    -0.014 A 
BRANCH  35  36
ATOM     36  C   UNL A   1      41.121  27.469  28.886  1.00  0.00     0.031 A 
ATOM     37  C   UNL A   1      41.132  26.015  28.349  1.00  0.00     0.074 A 
ATOM     38  C   UNL A   1      42.055  28.189  29.584  1.00  0.00     0.049 A 
ATOM     39  N   UNL A   1      41.848  24.996  28.711  1.00  0.00    -0.248 NA
ATOM     40  C   UNL A   1      40.168  25.620  27.278  1.00  0.00     0.031 C 
ATOM     41  C   UNL A   1      41.896  29.604  29.986  1.00  0.00     0.029 A 
ATOM     42  N   UNL A   1      43.306  27.903  30.105  1.00  0.00    -0.354 N 
ATOM     43  C   UNL A   1      41.582  23.935  27.813  1.00  0.00     0.074 A 
ATOM     44  C   UNL A   1      40.462  24.342  27.026  1.00  0.00     0.031 C 
ATOM     45  C   UNL A   1      42.939  30.018  30.740  1.00  0.00     0.029 A 
ATOM     46  C   UNL A   1      43.893  28.936  30.895  1.00  0.00     0.049 A 
ATOM     47  H   UNL A   1      43.760  27.045  29.942  1.00  0.00     0.167 HD
ATOM     48  C   UNL A   1      42.403  22.849  27.685  1.00  0.00     0.037 A 
ATOM     49  C   UNL A   1      45.045  28.910  31.646  1.00  0.00     0.037 A 
ATOM     50  C   UNL A   1      43.459  22.942  28.632  1.00  0.00     0.049 A 
ATOM     51  C   UNL A   1      45.705  27.654  31.275  1.00  0.00     0.074 A 
ATOM     52  C   UNL A   1      43.471  22.813  29.994  1.00  0.00     0.029 A 
ATOM     53  N   UNL A   1      44.601  23.578  28.217  1.00  0.00    -0.354 N 
ATOM     54  N   UNL A   1      46.316  27.458  30.146  1.00  0.00    -0.248 NA
ATOM     55  C   UNL A   1      45.647  26.521  32.204  1.00  0.00     0.031 C 
ATOM     56  C   UNL A   1      44.374  23.814  30.392  1.00  0.00     0.029 A 
ATOM     57  C   UNL A   1      45.056  24.314  29.275  1.00  0.00     0.049 A 
ATOM     58  H   UNL A   1      45.015  23.515  27.325  1.00  0.00     0.167 HD
ATOM     59  C   UNL A   1      46.386  26.088  30.105  1.00  0.00     0.074 A 
ATOM     60  C   UNL A   1      46.299  25.622  31.472  1.00  0.00     0.031 C 
ATOM     61  C   UNL A   1      45.899  25.452  29.010  1.00  0.00     0.037 A 
BRANCH  48  62
ATOM     62  C   UNL A   1      42.552  21.783  26.634  1.00  0.00     0.064 A 
ATOM     63  C   UNL A   1      42.088  20.477  26.943  1.00  0.00     0.173 A 
ATOM     64  C   UNL A   1      43.452  21.882  25.567  1.00  0.00     0.173 A 
ATOM     65  F   UNL A   1      41.181  20.282  27.915  1.00  0.00    -0.203 F 
ATOM     66  C   UNL A   1      42.622  19.340  26.343  1.00  0.00     0.198 A 
ATOM     67  C   UNL A   1      43.946  20.738  24.929  1.00  0.00     0.198 A 
ATOM     68  F   UNL A   1      43.956  23.064  25.193  1.00  0.00    -0.203 F 
ATOM     69  F   UNL A   1      42.276  18.123  26.787  1.00  0.00    -0.200 F 
ATOM     70  C   UNL A   1      43.569  19.471  25.348  1.00  0.00     0.200 A 
ATOM     71  F   UNL A   1      44.860  20.866  23.958  1.00  0.00    -0.200 F 
ATOM     72  F   UNL A   1      44.148  18.383  24.823  1.00  0.00    -0.200 F 
ENDBRANCH  48  62
BRANCH  49  73
ATOM     73  C   UNL A   1      45.774  29.722  32.706  1.00  0.00     0.064 A 
ATOM     74  C   UNL A   1      46.808  30.636  32.486  1.00  0.00     0.173 A 
ATOM     75  C   UNL A   1      45.333  29.672  34.067  1.00  0.00     0.173 A 
ATOM     76  F   UNL A   1      47.417  30.716  31.299  1.00  0.00    -0.203 F 
ATOM     77  C   UNL A   1      47.263  31.507  33.501  1.00  0.00     0.198 A 
ATOM     78  C   UNL A   1      45.733  30.576  35.050  1.00  0.00     0.198 A 
ATOM     79  F   UNL A   1      44.477  28.738  34.502  1.00  0.00    -0.203 F 
ATOM     80  F   UNL A   1      48.257  32.369  33.240  1.00  0.00    -0.200 F 
ATOM     81  C   UNL A   1      46.692  31.511  34.762  1.00  0.00     0.200 A 
ATOM     82  F   UNL A   1      45.160  30.535  36.263  1.00  0.00    -0.200 F 
ATOM     83  F   UNL A   1      47.070  32.396  35.694  1.00  0.00    -0.200 F 
ENDBRANCH  49  73
BRANCH  61  84
ATOM     84  C   UNL A   1      45.962  26.273  27.734  1.00  0.00     0.064 A 
ATOM     85  C   UNL A   1      44.774  26.593  27.056  1.00  0.00     0.173 A 
ATOM     86  C   UNL A   1      47.153  26.650  27.090  1.00  0.00     0.173 A 
ATOM     87  F   UNL A   1      43.588  26.292  27.610  1.00  0.00    -0.203 F 
ATOM     88  C   UNL A   1      44.780  27.220  25.808  1.00  0.00     0.198 A 
ATOM     89  C   UNL A   1      47.164  27.283  25.843  1.00  0.00     0.198 A 
ATOM     90  F   UNL A   1      48.335  26.420  27.656  1.00  0.00    -0.203 F 
ATOM     91  F   UNL A   1      43.621  27.501  25.195  1.00  0.00    -0.200 F 
ATOM     92  C   UNL A   1      45.975  27.562  25.199  1.00  0.00     0.200 A 
ATOM     93  F   UNL A   1      48.330  27.625  25.273  1.00  0.00    -0.200 F 
ATOM     94  F   UNL A   1      45.981  28.176  24.006  1.00  0.00    -0.200 F 
ENDBRANCH  61  84
ENDBRANCH  35  36
ENDBRANCH  27  30
ENDBRANCH  25  26
ENDBRANCH  24  25
ENDBRANCH  23  24
ENDBRANCH   1  23
TORSDOF 16
ENDMDL
