MODEL 1
REMARK VINA RESULT:     -10.5      0.000      0.000
REMARK SMILES [NH3+]CCOCC(=O)Nc1ccc(C(=O)NCCCCCCNC(=O)c2ccc(-c3c4nc(c(-c5c(F)c(F)c(F)c(F)c5F)c5ccc([nH]5)c(-c5c(F)c(F)c(F)c(F)c5F)c5nc(c(-c6c(F)c(F)c(F)c(F)c6F)c6ccc3[nH]6)C=C5)C=C4)cc2)c(Cl)c1
REMARK SMILES IDX 16 1 15 2 13 3 14 4 12 6 9 7 10 8 90 9 11 10 88 11 89 12
REMARK SMILES IDX 8 13 6 14 7 15 5 17 4 18 3 19 2 20 1 21 17 25 18 26 19 27
REMARK SMILES IDX 20 28 21 29 22 30 23 31 24 33 25 34 26 35 87 36 27 37 86 38
REMARK SMILES IDX 28 39 29 40 30 41 80 42 31 43 85 44 79 45 81 46 32 47 84 48
REMARK SMILES IDX 78 49 77 50 33 52 65 53 45 54 64 55 46 56 49 57 63 58 82 59
REMARK SMILES IDX 47 60 48 61 62 63 83 64 50 65 34 66 35 67 43 68 36 69 37 70
REMARK SMILES IDX 41 71 44 72 38 73 39 74 42 75 40 76 66 77 67 78 75 79 68 80
REMARK SMILES IDX 69 81 73 82 76 83 70 84 71 85 74 86 72 87 51 88 52 89 60 90
REMARK SMILES IDX 53 91 54 92 58 93 61 94 55 95 56 96 59 97 57 98
REMARK H PARENT 15 5 8 16 1 22 1 23 1 24 22 32 81 51 49 62
REMARK Flexibility Score: inf
ROOT
ATOM      1  C   UNL A   1      33.066  26.156  21.584  1.00  0.00     0.116 C 
ENDROOT
BRANCH   1   2
ATOM      2  N   UNL A   1      32.787  27.512  21.992  1.00  0.00    -0.352 N 
ATOM      3  C   UNL A   1      31.990  28.046  22.963  1.00  0.00     0.252 C 
ATOM      4  O   UNL A   1      31.813  29.266  22.911  1.00  0.00    -0.269 OA
ATOM      5  H   UNL A   1      33.267  28.189  21.463  1.00  0.00     0.163 HD
BRANCH   3   6
ATOM      6  C   UNL A   1      31.436  27.309  24.133  1.00  0.00     0.058 A 
ATOM      7  C   UNL A   1      30.156  25.609  25.990  1.00  0.00     0.042 A 
ATOM      8  C   UNL A   1      29.562  25.863  24.762  1.00  0.00     0.027 A 
ATOM      9  C   UNL A   1      31.333  26.260  26.332  1.00  0.00     0.047 A 
ATOM     10  C   UNL A   1      30.181  26.726  23.859  1.00  0.00     0.017 A 
ATOM     11  C   UNL A   1      32.021  27.026  25.374  1.00  0.00     0.055 A 
ATOM     12  Cl  UNL A   1      33.664  27.323  25.798  1.00  0.00    -0.083 Cl
BRANCH   7  13
ATOM     13  N   UNL A   1      29.657  24.648  26.871  1.00  0.00    -0.324 N 
ATOM     14  C   UNL A   1      29.894  23.297  26.820  1.00  0.00     0.250 C 
ATOM     15  O   UNL A   1      29.350  22.557  27.645  1.00  0.00    -0.272 OA
ATOM     16  H   UNL A   1      29.079  24.971  27.600  1.00  0.00     0.170 HD
BRANCH  14  17
ATOM     17  C   UNL A   1      30.898  22.734  25.790  1.00  0.00     0.260 C 
BRANCH  17  18
ATOM     18  O   UNL A   1      31.406  21.422  25.939  1.00  0.00    -0.366 OA
BRANCH  18  19
ATOM     19  C   UNL A   1      32.154  20.921  24.834  1.00  0.00     0.222 C 
BRANCH  19  20
ATOM     20  C   UNL A   1      32.798  19.550  25.074  1.00  0.00     0.287 C 
BRANCH  20  21
ATOM     21  N   UNL A   1      32.903  19.141  26.473  1.00  0.00    -0.356 N 
ATOM     22  H   UNL A   1      33.838  18.778  26.652  1.00  0.00     0.344 HD
ATOM     23  H   UNL A   1      32.213  18.416  26.668  1.00  0.00     0.344 HD
ATOM     24  H   UNL A   1      32.730  19.946  27.076  1.00  0.00     0.344 HD
ENDBRANCH  20  21
ENDBRANCH  19  20
ENDBRANCH  18  19
ENDBRANCH  17  18
ENDBRANCH  14  17
ENDBRANCH   7  13
ENDBRANCH   3   6
ENDBRANCH   1   2
BRANCH   1  25
ATOM     25  C   UNL A   1      34.034  25.532  22.597  1.00  0.00     0.021 C 
BRANCH  25  26
ATOM     26  C   UNL A   1      33.469  24.304  23.313  1.00  0.00     0.002 C 
BRANCH  26  27
ATOM     27  C   UNL A   1      34.241  23.906  24.573  1.00  0.00     0.002 C 
BRANCH  27  28
ATOM     28  C   UNL A   1      35.637  23.334  24.315  1.00  0.00     0.021 C 
BRANCH  28  29
ATOM     29  C   UNL A   1      36.713  23.866  25.258  1.00  0.00     0.116 C 
BRANCH  29  30
ATOM     30  N   UNL A   1      37.674  22.829  25.598  1.00  0.00    -0.352 N 
ATOM     31  C   UNL A   1      38.915  22.956  26.159  1.00  0.00     0.251 C 
ATOM     32  H   UNL A   1      37.393  21.907  25.398  1.00  0.00     0.163 HD
ATOM     33  O   UNL A   1      39.716  22.018  26.119  1.00  0.00    -0.269 OA
BRANCH  31  34
ATOM     34  C   UNL A   1      39.298  24.220  26.813  1.00  0.00     0.039 A 
ATOM     35  C   UNL A   1      38.903  24.453  28.132  1.00  0.00     0.014 A 
ATOM     36  C   UNL A   1      40.027  25.186  26.110  1.00  0.00     0.014 A 
ATOM     37  C   UNL A   1      39.278  25.640  28.763  1.00  0.00     0.010 A 
ATOM     38  C   UNL A   1      40.459  26.335  26.763  1.00  0.00     0.010 A 
ATOM     39  C   UNL A   1      40.080  26.578  28.092  1.00  0.00    -0.014 A 
BRANCH  39  40
ATOM     40  C   UNL A   1      40.523  27.824  28.760  1.00  0.00     0.031 A 
ATOM     41  C   UNL A   1      41.944  27.960  29.234  1.00  0.00     0.074 A 
ATOM     42  C   UNL A   1      39.631  28.805  28.993  1.00  0.00     0.049 A 
ATOM     43  N   UNL A   1      42.506  28.941  29.895  1.00  0.00    -0.248 NA
ATOM     44  C   UNL A   1      42.845  26.831  28.954  1.00  0.00     0.031 C 
ATOM     45  C   UNL A   1      38.216  28.764  28.622  1.00  0.00     0.029 A 
ATOM     46  N   UNL A   1      39.779  30.022  29.608  1.00  0.00    -0.354 N 
ATOM     47  C   UNL A   1      43.816  28.540  30.121  1.00  0.00     0.074 A 
ATOM     48  C   UNL A   1      43.952  27.208  29.575  1.00  0.00     0.031 C 
ATOM     49  C   UNL A   1      37.631  29.913  28.999  1.00  0.00     0.029 A 
ATOM     50  C   UNL A   1      38.618  30.752  29.670  1.00  0.00     0.049 A 
ATOM     51  H   UNL A   1      40.637  30.342  29.973  1.00  0.00     0.167 HD
ATOM     52  C   UNL A   1      44.820  29.234  30.708  1.00  0.00     0.037 A 
ATOM     53  C   UNL A   1      38.378  31.960  30.213  1.00  0.00     0.037 A 
ATOM     54  C   UNL A   1      44.683  30.571  31.225  1.00  0.00     0.049 A 
ATOM     55  C   UNL A   1      39.511  32.709  30.861  1.00  0.00     0.074 A 
ATOM     56  C   UNL A   1      45.653  31.385  31.782  1.00  0.00     0.029 A 
ATOM     57  N   UNL A   1      43.495  31.287  31.251  1.00  0.00    -0.354 N 
ATOM     58  N   UNL A   1      40.764  32.352  31.004  1.00  0.00    -0.248 NA
ATOM     59  C   UNL A   1      39.197  34.032  31.417  1.00  0.00     0.031 C 
ATOM     60  C   UNL A   1      45.042  32.575  32.190  1.00  0.00     0.029 A 
ATOM     61  C   UNL A   1      43.703  32.525  31.837  1.00  0.00     0.049 A 
ATOM     62  H   UNL A   1      42.632  30.963  30.905  1.00  0.00     0.167 HD
ATOM     63  C   UNL A   1      41.393  33.413  31.639  1.00  0.00     0.074 A 
ATOM     64  C   UNL A   1      40.387  34.436  31.838  1.00  0.00     0.031 C 
ATOM     65  C   UNL A   1      42.689  33.532  32.021  1.00  0.00     0.037 A 
BRANCH  52  66
ATOM     66  C   UNL A   1      46.158  28.561  30.821  1.00  0.00     0.064 A 
ATOM     67  C   UNL A   1      46.508  27.805  31.951  1.00  0.00     0.173 A 
ATOM     68  C   UNL A   1      47.088  28.643  29.774  1.00  0.00     0.173 A 
ATOM     69  F   UNL A   1      45.661  27.703  32.986  1.00  0.00    -0.203 F 
ATOM     70  C   UNL A   1      47.751  27.181  32.038  1.00  0.00     0.198 A 
ATOM     71  C   UNL A   1      48.316  27.993  29.852  1.00  0.00     0.198 A 
ATOM     72  F   UNL A   1      46.802  29.349  28.669  1.00  0.00    -0.203 F 
ATOM     73  F   UNL A   1      48.083  26.505  33.148  1.00  0.00    -0.200 F 
ATOM     74  C   UNL A   1      48.650  27.269  30.987  1.00  0.00     0.200 A 
ATOM     75  F   UNL A   1      49.179  28.067  28.829  1.00  0.00    -0.200 F 
ATOM     76  F   UNL A   1      49.841  26.661  31.069  1.00  0.00    -0.200 F 
ENDBRANCH  52  66
BRANCH  53  77
ATOM     77  C   UNL A   1      37.014  32.547  30.143  1.00  0.00     0.064 A 
ATOM     78  C   UNL A   1      36.602  33.281  29.023  1.00  0.00     0.173 A 
ATOM     79  C   UNL A   1      36.096  32.388  31.192  1.00  0.00     0.173 A 
ATOM     80  F   UNL A   1      37.452  33.477  28.002  1.00  0.00    -0.203 F 
ATOM     81  C   UNL A   1      35.333  33.853  28.962  1.00  0.00     0.198 A 
ATOM     82  C   UNL A   1      34.817  32.935  31.118  1.00  0.00     0.198 A 
ATOM     83  F   UNL A   1      36.438  31.687  32.284  1.00  0.00    -0.203 F 
ATOM     84  F   UNL A   1      34.983  34.590  27.900  1.00  0.00    -0.200 F 
ATOM     85  C   UNL A   1      34.440  33.674  30.007  1.00  0.00     0.200 A 
ATOM     86  F   UNL A   1      33.951  32.746  32.123  1.00  0.00    -0.200 F 
ATOM     87  F   UNL A   1      33.217  34.221  29.948  1.00  0.00    -0.200 F 
ENDBRANCH  53  77
BRANCH  65  88
ATOM     88  C   UNL A   1      43.099  34.826  32.663  1.00  0.00     0.064 A 
ATOM     89  C   UNL A   1      43.120  34.983  34.056  1.00  0.00     0.173 A 
ATOM     90  C   UNL A   1      43.515  35.908  31.873  1.00  0.00     0.173 A 
ATOM     91  F   UNL A   1      42.717  33.983  34.855  1.00  0.00    -0.203 F 
ATOM     92  C   UNL A   1      43.516  36.186  34.634  1.00  0.00     0.198 A 
ATOM     93  C   UNL A   1      43.942  37.098  32.455  1.00  0.00     0.198 A 
ATOM     94  F   UNL A   1      43.521  35.807  30.535  1.00  0.00    -0.203 F 
ATOM     95  F   UNL A   1      43.482  36.330  35.966  1.00  0.00    -0.200 F 
ATOM     96  C   UNL A   1      43.935  37.239  33.834  1.00  0.00     0.200 A 
ATOM     97  F   UNL A   1      44.360  38.109  31.681  1.00  0.00    -0.200 F 
ATOM     98  F   UNL A   1      44.325  38.393  34.394  1.00  0.00    -0.200 F 
ENDBRANCH  65  88
ENDBRANCH  39  40
ENDBRANCH  31  34
ENDBRANCH  29  30
ENDBRANCH  28  29
ENDBRANCH  27  28
ENDBRANCH  26  27
ENDBRANCH  25  26
ENDBRANCH   1  25
TORSDOF 19
ENDMDL
MODEL 2
REMARK VINA RESULT:     -10.4      3.112      5.417
REMARK SMILES [NH3+]CCOCC(=O)Nc1ccc(C(=O)NCCCCCCNC(=O)c2ccc(-c3c4nc(c(-c5c(F)c(F)c(F)c(F)c5F)c5ccc([nH]5)c(-c5c(F)c(F)c(F)c(F)c5F)c5nc(c(-c6c(F)c(F)c(F)c(F)c6F)c6ccc3[nH]6)C=C5)C=C4)cc2)c(Cl)c1
REMARK SMILES IDX 16 1 15 2 13 3 14 4 12 6 9 7 10 8 90 9 11 10 88 11 89 12
REMARK SMILES IDX 8 13 6 14 7 15 5 17 4 18 3 19 2 20 1 21 17 25 18 26 19 27
REMARK SMILES IDX 20 28 21 29 22 30 23 31 24 33 25 34 26 35 87 36 27 37 86 38
REMARK SMILES IDX 28 39 29 40 30 41 80 42 31 43 85 44 79 45 81 46 32 47 84 48
REMARK SMILES IDX 78 49 77 50 33 52 65 53 45 54 64 55 46 56 49 57 63 58 82 59
REMARK SMILES IDX 47 60 48 61 62 63 83 64 50 65 34 66 35 67 43 68 36 69 37 70
REMARK SMILES IDX 41 71 44 72 38 73 39 74 42 75 40 76 66 77 67 78 75 79 68 80
REMARK SMILES IDX 69 81 73 82 76 83 70 84 71 85 74 86 72 87 51 88 52 89 60 90
REMARK SMILES IDX 53 91 54 92 58 93 61 94 55 95 56 96 59 97 57 98
REMARK H PARENT 15 5 8 16 1 22 1 23 1 24 22 32 81 51 49 62
REMARK Flexibility Score: inf
ROOT
ATOM      1  C   UNL A   1      32.821  20.067  24.682  1.00  0.00     0.116 C 
ENDROOT
BRANCH   1   2
ATOM      2  N   UNL A   1      31.775  20.864  25.278  1.00  0.00    -0.352 N 
ATOM      3  C   UNL A   1      31.593  22.210  25.410  1.00  0.00     0.252 C 
ATOM      4  O   UNL A   1      30.683  22.563  26.165  1.00  0.00    -0.269 OA
ATOM      5  H   UNL A   1      31.046  20.329  25.667  1.00  0.00     0.163 HD
BRANCH   3   6
ATOM      6  C   UNL A   1      32.304  23.263  24.633  1.00  0.00     0.058 A 
ATOM      7  C   UNL A   1      33.172  25.443  23.061  1.00  0.00     0.042 A 
ATOM      8  C   UNL A   1      31.950  24.843  22.795  1.00  0.00     0.027 A 
ATOM      9  C   UNL A   1      33.998  24.915  24.043  1.00  0.00     0.047 A 
ATOM     10  C   UNL A   1      31.538  23.748  23.553  1.00  0.00     0.017 A 
ATOM     11  C   UNL A   1      33.528  23.895  24.890  1.00  0.00     0.055 A 
ATOM     12  Cl  UNL A   1      34.461  23.726  26.329  1.00  0.00    -0.083 Cl
BRANCH   7  13
ATOM     13  N   UNL A   1      33.571  26.625  22.434  1.00  0.00    -0.324 N 
ATOM     14  C   UNL A   1      33.319  27.902  22.869  1.00  0.00     0.250 C 
ATOM     15  O   UNL A   1      33.698  28.858  22.186  1.00  0.00    -0.272 OA
ATOM     16  H   UNL A   1      34.082  26.532  21.597  1.00  0.00     0.170 HD
BRANCH  14  17
ATOM     17  C   UNL A   1      32.643  28.125  24.240  1.00  0.00     0.260 C 
BRANCH  17  18
ATOM     18  O   UNL A   1      31.233  28.116  24.344  1.00  0.00    -0.366 OA
BRANCH  18  19
ATOM     19  C   UNL A   1      30.579  29.327  23.970  1.00  0.00     0.222 C 
BRANCH  19  20
ATOM     20  C   UNL A   1      29.996  29.320  22.552  1.00  0.00     0.287 C 
BRANCH  20  21
ATOM     21  N   UNL A   1      30.773  30.046  21.549  1.00  0.00    -0.356 N 
ATOM     22  H   UNL A   1      30.410  29.837  20.620  1.00  0.00     0.344 HD
ATOM     23  H   UNL A   1      31.751  29.761  21.605  1.00  0.00     0.344 HD
ATOM     24  H   UNL A   1      30.702  31.049  21.724  1.00  0.00     0.344 HD
ENDBRANCH  20  21
ENDBRANCH  19  20
ENDBRANCH  18  19
ENDBRANCH  17  18
ENDBRANCH  14  17
ENDBRANCH   7  13
ENDBRANCH   3   6
ENDBRANCH   1   2
BRANCH   1  25
ATOM     25  C   UNL A   1      34.107  20.265  25.493  1.00  0.00     0.021 C 
BRANCH  25  26
ATOM     26  C   UNL A   1      35.326  19.559  24.897  1.00  0.00     0.002 C 
BRANCH  26  27
ATOM     27  C   UNL A   1      36.611  20.388  24.941  1.00  0.00     0.002 C 
BRANCH  27  28
ATOM     28  C   UNL A   1      37.904  19.567  24.951  1.00  0.00     0.021 C 
BRANCH  28  29
ATOM     29  C   UNL A   1      39.053  20.224  25.710  1.00  0.00     0.116 C 
BRANCH  29  30
ATOM     30  N   UNL A   1      40.141  19.285  25.935  1.00  0.00    -0.352 N 
ATOM     31  C   UNL A   1      41.473  19.536  26.104  1.00  0.00     0.251 C 
ATOM     32  H   UNL A   1      39.881  18.336  25.970  1.00  0.00     0.163 HD
ATOM     33  O   UNL A   1      42.299  18.624  25.996  1.00  0.00    -0.269 OA
BRANCH  31  34
ATOM     34  C   UNL A   1      41.928  20.903  26.417  1.00  0.00     0.039 A 
ATOM     35  C   UNL A   1      42.210  21.784  25.372  1.00  0.00     0.014 A 
ATOM     36  C   UNL A   1      42.101  21.303  27.746  1.00  0.00     0.014 A 
ATOM     37  C   UNL A   1      42.624  23.086  25.660  1.00  0.00     0.010 A 
ATOM     38  C   UNL A   1      42.445  22.619  28.033  1.00  0.00     0.010 A 
ATOM     39  C   UNL A   1      42.720  23.519  26.993  1.00  0.00    -0.014 A 
BRANCH  39  40
ATOM     40  C   UNL A   1      43.118  24.910  27.319  1.00  0.00     0.031 A 
ATOM     41  C   UNL A   1      44.532  25.363  27.084  1.00  0.00     0.074 A 
ATOM     42  C   UNL A   1      42.222  25.741  27.884  1.00  0.00     0.049 A 
ATOM     43  N   UNL A   1      45.089  26.514  27.363  1.00  0.00    -0.248 NA
ATOM     44  C   UNL A   1      45.448  24.383  26.480  1.00  0.00     0.031 C 
ATOM     45  C   UNL A   1      40.836  25.395  28.204  1.00  0.00     0.029 A 
ATOM     46  N   UNL A   1      42.346  27.042  28.300  1.00  0.00    -0.354 N 
ATOM     47  C   UNL A   1      46.420  26.390  26.985  1.00  0.00     0.074 A 
ATOM     48  C   UNL A   1      46.600  25.037  26.506  1.00  0.00     0.031 C 
ATOM     49  C   UNL A   1      40.232  26.464  28.747  1.00  0.00     0.029 A 
ATOM     50  C   UNL A   1      41.196  27.555  28.848  1.00  0.00     0.049 A 
ATOM     51  H   UNL A   1      43.180  27.558  28.215  1.00  0.00     0.167 HD
ATOM     52  C   UNL A   1      47.395  27.329  27.012  1.00  0.00     0.037 A 
ATOM     53  C   UNL A   1      40.952  28.768  29.378  1.00  0.00     0.037 A 
ATOM     54  C   UNL A   1      47.200  28.682  27.465  1.00  0.00     0.049 A 
ATOM     55  C   UNL A   1      42.054  29.793  29.397  1.00  0.00     0.074 A 
ATOM     56  C   UNL A   1      48.106  29.728  27.475  1.00  0.00     0.029 A 
ATOM     57  N   UNL A   1      46.016  29.173  27.995  1.00  0.00    -0.354 N 
ATOM     58  N   UNL A   1      43.289  29.689  28.970  1.00  0.00    -0.248 NA
ATOM     59  C   UNL A   1      41.725  31.107  29.967  1.00  0.00     0.031 C 
ATOM     60  C   UNL A   1      47.483  30.839  28.055  1.00  0.00     0.029 A 
ATOM     61  C   UNL A   1      46.174  30.501  28.356  1.00  0.00     0.049 A 
ATOM     62  H   UNL A   1      45.185  28.654  28.098  1.00  0.00     0.167 HD
ATOM     63  C   UNL A   1      43.875  30.926  29.191  1.00  0.00     0.074 A 
ATOM     64  C   UNL A   1      42.856  31.772  29.776  1.00  0.00     0.031 C 
ATOM     65  C   UNL A   1      45.144  31.328  28.932  1.00  0.00     0.037 A 
BRANCH  52  66
ATOM     66  C   UNL A   1      48.762  26.928  26.535  1.00  0.00     0.064 A 
ATOM     67  C   UNL A   1      49.713  26.376  27.407  1.00  0.00     0.173 A 
ATOM     68  C   UNL A   1      49.113  27.064  25.184  1.00  0.00     0.173 A 
ATOM     69  F   UNL A   1      49.433  26.235  28.711  1.00  0.00    -0.203 F 
ATOM     70  C   UNL A   1      50.974  26.003  26.949  1.00  0.00     0.198 A 
ATOM     71  C   UNL A   1      50.363  26.661  24.723  1.00  0.00     0.198 A 
ATOM     72  F   UNL A   1      48.239  27.581  24.306  1.00  0.00    -0.203 F 
ATOM     73  F   UNL A   1      51.884  25.525  27.810  1.00  0.00    -0.200 F 
ATOM     74  C   UNL A   1      51.296  26.139  25.607  1.00  0.00     0.200 A 
ATOM     75  F   UNL A   1      50.668  26.780  23.424  1.00  0.00    -0.200 F 
ATOM     76  F   UNL A   1      52.507  25.770  25.166  1.00  0.00    -0.200 F 
ENDBRANCH  52  66
BRANCH  53  77
ATOM     77  C   UNL A   1      39.602  29.087  29.910  1.00  0.00     0.064 A 
ATOM     78  C   UNL A   1      38.629  29.684  29.096  1.00  0.00     0.173 A 
ATOM     79  C   UNL A   1      39.255  28.805  31.240  1.00  0.00     0.173 A 
ATOM     80  F   UNL A   1      38.921  29.991  27.822  1.00  0.00    -0.203 F 
ATOM     81  C   UNL A   1      37.370  30.006  29.596  1.00  0.00     0.198 A 
ATOM     82  C   UNL A   1      37.985  29.101  31.730  1.00  0.00     0.198 A 
ATOM     83  F   UNL A   1      40.147  28.227  32.058  1.00  0.00    -0.203 F 
ATOM     84  F   UNL A   1      36.476  30.619  28.808  1.00  0.00    -0.200 F 
ATOM     85  C   UNL A   1      37.046  29.709  30.911  1.00  0.00     0.200 A 
ATOM     86  F   UNL A   1      37.671  28.796  32.997  1.00  0.00    -0.200 F 
ATOM     87  F   UNL A   1      35.833  30.015  31.391  1.00  0.00    -0.200 F 
ENDBRANCH  53  77
BRANCH  65  88
ATOM     88  C   UNL A   1      45.491  32.754  29.248  1.00  0.00     0.064 A 
ATOM     89  C   UNL A   1      45.280  33.786  28.322  1.00  0.00     0.173 A 
ATOM     90  C   UNL A   1      46.005  33.096  30.508  1.00  0.00     0.173 A 
ATOM     91  F   UNL A   1      44.806  33.509  27.098  1.00  0.00    -0.203 F 
ATOM     92  C   UNL A   1      45.596  35.105  28.637  1.00  0.00     0.198 A 
ATOM     93  C   UNL A   1      46.288  34.420  30.831  1.00  0.00     0.198 A 
ATOM     94  F   UNL A   1      46.218  32.147  31.432  1.00  0.00    -0.203 F 
ATOM     95  F   UNL A   1      45.432  36.069  27.720  1.00  0.00    -0.200 F 
ATOM     96  C   UNL A   1      46.091  35.421  29.894  1.00  0.00     0.200 A 
ATOM     97  F   UNL A   1      46.753  34.725  32.051  1.00  0.00    -0.200 F 
ATOM     98  F   UNL A   1      46.386  36.694  30.198  1.00  0.00    -0.200 F 
ENDBRANCH  65  88
ENDBRANCH  39  40
ENDBRANCH  31  34
ENDBRANCH  29  30
ENDBRANCH  28  29
ENDBRANCH  27  28
ENDBRANCH  26  27
ENDBRANCH  25  26
ENDBRANCH   1  25
TORSDOF 19
ENDMDL
MODEL 3
REMARK VINA RESULT:     -10.4      4.237      8.965
REMARK SMILES [NH3+]CCOCC(=O)Nc1ccc(C(=O)NCCCCCCNC(=O)c2ccc(-c3c4nc(c(-c5c(F)c(F)c(F)c(F)c5F)c5ccc([nH]5)c(-c5c(F)c(F)c(F)c(F)c5F)c5nc(c(-c6c(F)c(F)c(F)c(F)c6F)c6ccc3[nH]6)C=C5)C=C4)cc2)c(Cl)c1
REMARK SMILES IDX 16 1 15 2 13 3 14 4 12 6 9 7 10 8 90 9 11 10 88 11 89 12
REMARK SMILES IDX 8 13 6 14 7 15 5 17 4 18 3 19 2 20 1 21 17 25 18 26 19 27
REMARK SMILES IDX 20 28 21 29 22 30 23 31 24 33 25 34 26 35 87 36 27 37 86 38
REMARK SMILES IDX 28 39 29 40 30 41 80 42 31 43 85 44 79 45 81 46 32 47 84 48
REMARK SMILES IDX 78 49 77 50 33 52 65 53 45 54 64 55 46 56 49 57 63 58 82 59
REMARK SMILES IDX 47 60 48 61 62 63 83 64 50 65 34 66 35 67 43 68 36 69 37 70
REMARK SMILES IDX 41 71 44 72 38 73 39 74 42 75 40 76 66 77 67 78 75 79 68 80
REMARK SMILES IDX 69 81 73 82 76 83 70 84 71 85 74 86 72 87 51 88 52 89 60 90
REMARK SMILES IDX 53 91 54 92 58 93 61 94 55 95 56 96 59 97 57 98
REMARK H PARENT 15 5 8 16 1 22 1 23 1 24 22 32 81 51 49 62
REMARK Flexibility Score: inf
ROOT
ATOM      1  C   UNL A   1      34.356  30.615  27.536  1.00  0.00     0.116 C 
ENDROOT
BRANCH   1   2
ATOM      2  N   UNL A   1      33.073  31.185  27.198  1.00  0.00    -0.352 N 
ATOM      3  C   UNL A   1      32.004  30.716  26.491  1.00  0.00     0.252 C 
ATOM      4  O   UNL A   1      31.135  31.545  26.207  1.00  0.00    -0.269 OA
ATOM      5  H   UNL A   1      32.943  32.097  27.547  1.00  0.00     0.163 HD
BRANCH   3   6
ATOM      6  C   UNL A   1      31.744  29.288  26.157  1.00  0.00     0.058 A 
ATOM      7  C   UNL A   1      31.055  26.553  26.009  1.00  0.00     0.042 A 
ATOM      8  C   UNL A   1      31.427  27.107  27.225  1.00  0.00     0.027 A 
ATOM      9  C   UNL A   1      31.106  27.326  24.857  1.00  0.00     0.047 A 
ATOM     10  C   UNL A   1      31.795  28.450  27.290  1.00  0.00     0.017 A 
ATOM     11  C   UNL A   1      31.352  28.708  24.944  1.00  0.00     0.055 A 
ATOM     12  Cl  UNL A   1      30.883  29.569  23.526  1.00  0.00    -0.083 Cl
BRANCH   7  13
ATOM     13  N   UNL A   1      30.542  25.259  25.908  1.00  0.00    -0.324 N 
ATOM     14  C   UNL A   1      31.254  24.122  25.618  1.00  0.00     0.250 C 
ATOM     15  O   UNL A   1      30.658  23.045  25.519  1.00  0.00    -0.272 OA
ATOM     16  H   UNL A   1      29.574  25.151  26.059  1.00  0.00     0.170 HD
BRANCH  14  17
ATOM     17  C   UNL A   1      32.793  24.190  25.504  1.00  0.00     0.260 C 
BRANCH  17  18
ATOM     18  O   UNL A   1      33.600  23.904  26.630  1.00  0.00    -0.366 OA
BRANCH  18  19
ATOM     19  C   UNL A   1      34.715  23.049  26.388  1.00  0.00     0.222 C 
BRANCH  19  20
ATOM     20  C   UNL A   1      34.442  21.562  26.649  1.00  0.00     0.287 C 
BRANCH  20  21
ATOM     21  N   UNL A   1      35.080  20.634  25.718  1.00  0.00    -0.356 N 
ATOM     22  H   UNL A   1      34.487  19.814  25.594  1.00  0.00     0.344 HD
ATOM     23  H   UNL A   1      35.985  20.346  26.091  1.00  0.00     0.344 HD
ATOM     24  H   UNL A   1      35.215  21.094  24.817  1.00  0.00     0.344 HD
ENDBRANCH  20  21
ENDBRANCH  19  20
ENDBRANCH  18  19
ENDBRANCH  17  18
ENDBRANCH  14  17
ENDBRANCH   7  13
ENDBRANCH   3   6
ENDBRANCH   1   2
BRANCH   1  25
ATOM     25  C   UNL A   1      35.195  31.688  28.242  1.00  0.00     0.021 C 
BRANCH  25  26
ATOM     26  C   UNL A   1      34.403  32.526  29.246  1.00  0.00     0.002 C 
BRANCH  26  27
ATOM     27  C   UNL A   1      34.590  34.036  29.083  1.00  0.00     0.002 C 
BRANCH  27  28
ATOM     28  C   UNL A   1      33.288  34.843  29.043  1.00  0.00     0.021 C 
BRANCH  28  29
ATOM     29  C   UNL A   1      33.380  36.208  29.720  1.00  0.00     0.116 C 
BRANCH  29  30
ATOM     30  N   UNL A   1      32.469  36.298  30.850  1.00  0.00    -0.352 N 
ATOM     31  C   UNL A   1      32.502  35.623  32.038  1.00  0.00     0.251 C 
ATOM     32  H   UNL A   1      31.724  36.933  30.744  1.00  0.00     0.163 HD
ATOM     33  O   UNL A   1      31.507  35.596  32.768  1.00  0.00    -0.269 OA
BRANCH  31  34
ATOM     34  C   UNL A   1      33.731  34.922  32.449  1.00  0.00     0.039 A 
ATOM     35  C   UNL A   1      33.639  33.633  32.976  1.00  0.00     0.014 A 
ATOM     36  C   UNL A   1      34.975  35.553  32.337  1.00  0.00     0.014 A 
ATOM     37  C   UNL A   1      34.800  32.956  33.352  1.00  0.00     0.010 A 
ATOM     38  C   UNL A   1      36.136  34.852  32.645  1.00  0.00     0.010 A 
ATOM     39  C   UNL A   1      36.058  33.552  33.165  1.00  0.00    -0.014 A 
BRANCH  39  40
ATOM     40  C   UNL A   1      37.306  32.833  33.518  1.00  0.00     0.031 A 
ATOM     41  C   UNL A   1      38.016  33.146  34.806  1.00  0.00     0.074 A 
ATOM     42  C   UNL A   1      37.830  31.947  32.650  1.00  0.00     0.049 A 
ATOM     43  N   UNL A   1      39.150  32.675  35.262  1.00  0.00    -0.248 NA
ATOM     44  C   UNL A   1      37.383  34.142  35.685  1.00  0.00     0.031 C 
ATOM     45  C   UNL A   1      37.255  31.599  31.350  1.00  0.00     0.029 A 
ATOM     46  N   UNL A   1      38.968  31.186  32.725  1.00  0.00    -0.354 N 
ATOM     47  C   UNL A   1      39.370  33.327  36.468  1.00  0.00     0.074 A 
ATOM     48  C   UNL A   1      38.283  34.264  36.648  1.00  0.00     0.031 C 
ATOM     49  C   UNL A   1      38.033  30.678  30.759  1.00  0.00     0.029 A 
ATOM     50  C   UNL A   1      39.178  30.400  31.620  1.00  0.00     0.049 A 
ATOM     51  H   UNL A   1      39.578  31.203  33.499  1.00  0.00     0.167 HD
ATOM     52  C   UNL A   1      40.376  33.141  37.355  1.00  0.00     0.037 A 
ATOM     53  C   UNL A   1      40.185  29.555  31.332  1.00  0.00     0.037 A 
ATOM     54  C   UNL A   1      41.440  32.187  37.180  1.00  0.00     0.049 A 
ATOM     55  C   UNL A   1      41.292  29.368  32.335  1.00  0.00     0.074 A 
ATOM     56  C   UNL A   1      42.473  31.876  38.047  1.00  0.00     0.029 A 
ATOM     57  N   UNL A   1      41.609  31.393  36.055  1.00  0.00    -0.354 N 
ATOM     58  N   UNL A   1      41.453  29.935  33.505  1.00  0.00    -0.248 NA
ATOM     59  C   UNL A   1      42.353  28.417  31.978  1.00  0.00     0.031 C 
ATOM     60  C   UNL A   1      43.293  30.928  37.427  1.00  0.00     0.029 A 
ATOM     61  C   UNL A   1      42.742  30.609  36.197  1.00  0.00     0.049 A 
ATOM     62  H   UNL A   1      41.011  31.387  35.273  1.00  0.00     0.167 HD
ATOM     63  C   UNL A   1      42.613  29.392  34.036  1.00  0.00     0.074 A 
ATOM     64  C   UNL A   1      43.108  28.436  33.067  1.00  0.00     0.031 C 
ATOM     65  C   UNL A   1      43.215  29.658  35.222  1.00  0.00     0.037 A 
BRANCH  52  66
ATOM     66  C   UNL A   1      40.374  33.984  38.598  1.00  0.00     0.064 A 
ATOM     67  C   UNL A   1      39.680  33.590  39.754  1.00  0.00     0.173 A 
ATOM     68  C   UNL A   1      41.101  35.182  38.648  1.00  0.00     0.173 A 
ATOM     69  F   UNL A   1      38.960  32.459  39.757  1.00  0.00    -0.203 F 
ATOM     70  C   UNL A   1      39.693  34.379  40.901  1.00  0.00     0.198 A 
ATOM     71  C   UNL A   1      41.137  35.953  39.807  1.00  0.00     0.198 A 
ATOM     72  F   UNL A   1      41.786  35.604  37.573  1.00  0.00    -0.203 F 
ATOM     73  F   UNL A   1      38.983  34.007  41.976  1.00  0.00    -0.200 F 
ATOM     74  C   UNL A   1      40.427  35.555  40.929  1.00  0.00     0.200 A 
ATOM     75  F   UNL A   1      41.857  37.083  39.837  1.00  0.00    -0.200 F 
ATOM     76  F   UNL A   1      40.445  36.309  42.038  1.00  0.00    -0.200 F 
ENDBRANCH  52  66
BRANCH  53  77
ATOM     77  C   UNL A   1      40.180  28.804  30.049  1.00  0.00     0.064 A 
ATOM     78  C   UNL A   1      40.779  29.338  28.900  1.00  0.00     0.173 A 
ATOM     79  C   UNL A   1      39.577  27.542  29.944  1.00  0.00     0.173 A 
ATOM     80  F   UNL A   1      41.351  30.551  28.946  1.00  0.00    -0.203 F 
ATOM     81  C   UNL A   1      40.757  28.649  27.689  1.00  0.00     0.198 A 
ATOM     82  C   UNL A   1      39.581  26.841  28.740  1.00  0.00     0.198 A 
ATOM     83  F   UNL A   1      38.997  26.983  31.017  1.00  0.00    -0.203 F 
ATOM     84  F   UNL A   1      41.295  29.203  26.595  1.00  0.00    -0.200 F 
ATOM     85  C   UNL A   1      40.163  27.398  27.612  1.00  0.00     0.200 A 
ATOM     86  F   UNL A   1      39.021  25.625  28.674  1.00  0.00    -0.200 F 
ATOM     87  F   UNL A   1      40.145  26.733  26.448  1.00  0.00    -0.200 F 
ENDBRANCH  53  77
BRANCH  65  88
ATOM     88  C   UNL A   1      44.457  28.882  35.551  1.00  0.00     0.064 A 
ATOM     89  C   UNL A   1      45.733  29.353  35.209  1.00  0.00     0.173 A 
ATOM     90  C   UNL A   1      44.371  27.670  36.253  1.00  0.00     0.173 A 
ATOM     91  F   UNL A   1      45.869  30.499  34.524  1.00  0.00    -0.203 F 
ATOM     92  C   UNL A   1      46.875  28.626  35.534  1.00  0.00     0.198 A 
ATOM     93  C   UNL A   1      45.516  26.963  36.605  1.00  0.00     0.198 A 
ATOM     94  F   UNL A   1      43.174  27.180  36.610  1.00  0.00    -0.203 F 
ATOM     95  F   UNL A   1      48.081  29.071  35.155  1.00  0.00    -0.200 F 
ATOM     96  C   UNL A   1      46.766  27.437  36.239  1.00  0.00     0.200 A 
ATOM     97  F   UNL A   1      45.409  25.821  37.299  1.00  0.00    -0.200 F 
ATOM     98  F   UNL A   1      47.868  26.743  36.559  1.00  0.00    -0.200 F 
ENDBRANCH  65  88
ENDBRANCH  39  40
ENDBRANCH  31  34
ENDBRANCH  29  30
ENDBRANCH  28  29
ENDBRANCH  27  28
ENDBRANCH  26  27
ENDBRANCH  25  26
ENDBRANCH   1  25
TORSDOF 19
ENDMDL
