MODEL 1
REMARK VINA RESULT:     -13.3      0.000      0.000
REMARK SMILES [NH3+][C@]1(C(=O)NCCCCCCNC(=O)c2ccc(-c3c4nc(c(-c5c(F)c(F)c(F)c(F)c5F)c5ccc([nH]5)c(-c5c(F)c(F)c(F)c(F)c5F)c5nc(c(-c6c(F)c(F)c(F)c(F)c6F)c6ccc3[nH]6)C=C5)C=C4)cc2)CC[C@@H](Sc2cc3ccccc3[nH]2)C1
REMARK SMILES IDX 8 1 7 2 6 3 5 4 3 5 4 6 2 8 78 9 91 10 79 11 80 12 1 13
REMARK SMILES IDX 81 17 82 18 83 19 90 20 84 21 89 22 85 24 88 25 86 26 87 27
REMARK SMILES IDX 9 28 10 29 11 30 12 31 13 32 14 34 15 35 16 36 77 37 17 38
REMARK SMILES IDX 76 39 18 40 19 41 20 42 70 43 21 44 75 45 69 46 71 47 22 48
REMARK SMILES IDX 74 49 68 50 67 51 23 53 55 54 35 55 54 56 36 57 39 58 53 59
REMARK SMILES IDX 72 60 37 61 38 62 52 64 73 65 40 66 24 67 25 68 33 69 26 70
REMARK SMILES IDX 27 71 31 72 34 73 28 74 29 75 32 76 30 77 56 78 57 79 65 80
REMARK SMILES IDX 58 81 59 82 63 83 66 84 60 85 61 86 64 87 62 88 41 89 42 90
REMARK SMILES IDX 50 91 43 92 44 93 48 94 51 95 45 96 46 97 49 98 47 99
REMARK H PARENT 5 7 1 14 1 15 1 16 90 23 12 33 71 52 39 63
REMARK Flexibility Score: inf
ROOT
ATOM      1  C   UNL A   1      32.408  29.925  27.129  1.00  0.00     0.002 C 
ENDROOT
BRANCH   1   2
ATOM      2  C   UNL A   1      31.826  28.549  27.460  1.00  0.00     0.021 C 
BRANCH   2   3
ATOM      3  C   UNL A   1      31.587  27.647  26.254  1.00  0.00     0.116 C 
BRANCH   3   4
ATOM      4  N   UNL A   1      30.888  26.429  26.605  1.00  0.00    -0.351 N 
ATOM      5  C   UNL A   1      31.159  25.128  26.294  1.00  0.00     0.281 C 
ATOM      6  O   UNL A   1      30.442  24.271  26.815  1.00  0.00    -0.268 OA
ATOM      7  H   UNL A   1      30.086  26.561  27.158  1.00  0.00     0.163 HD
BRANCH   5   8
ATOM      8  C   UNL A   1      32.313  24.770  25.325  1.00  0.00     0.175 C 
ATOM      9  C   UNL A   1      33.686  25.001  25.981  1.00  0.00     0.080 C 
ATOM     10  C   UNL A   1      32.324  23.267  25.023  1.00  0.00     0.094 C 
ATOM     11  C   UNL A   1      34.627  24.099  25.198  1.00  0.00     0.022 C 
ATOM     12  C   UNL A   1      33.795  22.857  24.904  1.00  0.00     0.060 C 
BRANCH   8  13
ATOM     13  N   UNL A   1      32.259  25.576  24.083  1.00  0.00    -0.345 N 
ATOM     14  H   UNL A   1      33.162  26.023  23.928  1.00  0.00     0.345 HD
ATOM     15  H   UNL A   1      31.538  26.292  24.174  1.00  0.00     0.345 HD
ATOM     16  H   UNL A   1      32.039  24.970  23.294  1.00  0.00     0.345 HD
ENDBRANCH   8  13
BRANCH  12  17
ATOM     17  S   UNL A   1      34.014  21.368  25.890  1.00  0.00    -0.105 SA
BRANCH  17  18
ATOM     18  C   UNL A   1      32.826  20.201  25.403  1.00  0.00     0.073 A 
ATOM     19  C   UNL A   1      32.446  19.859  24.119  1.00  0.00     0.043 A 
ATOM     20  N   UNL A   1      32.744  19.049  26.145  1.00  0.00    -0.350 N 
ATOM     21  C   UNL A   1      32.878  18.496  24.001  1.00  0.00     0.001 A 
ATOM     22  C   UNL A   1      33.122  18.030  25.295  1.00  0.00     0.046 A 
ATOM     23  H   UNL A   1      32.473  18.968  27.088  1.00  0.00     0.167 HD
ATOM     24  C   UNL A   1      33.258  17.690  22.913  1.00  0.00     0.010 A 
ATOM     25  C   UNL A   1      33.758  16.821  25.575  1.00  0.00     0.027 A 
ATOM     26  C   UNL A   1      33.977  16.515  23.171  1.00  0.00     0.001 A 
ATOM     27  C   UNL A   1      34.232  16.097  24.479  1.00  0.00     0.002 A 
ENDBRANCH  17  18
ENDBRANCH  12  17
ENDBRANCH   5   8
ENDBRANCH   3   4
ENDBRANCH   2   3
ENDBRANCH   1   2
BRANCH   1  28
ATOM     28  C   UNL A   1      31.583  30.768  26.151  1.00  0.00     0.002 C 
BRANCH  28  29
ATOM     29  C   UNL A   1      31.421  32.241  26.530  1.00  0.00     0.021 C 
BRANCH  29  30
ATOM     30  C   UNL A   1      32.582  32.831  27.323  1.00  0.00     0.116 C 
BRANCH  30  31
ATOM     31  N   UNL A   1      32.364  34.226  27.664  1.00  0.00    -0.352 N 
ATOM     32  C   UNL A   1      32.980  34.998  28.619  1.00  0.00     0.251 C 
ATOM     33  H   UNL A   1      31.676  34.686  27.132  1.00  0.00     0.163 HD
ATOM     34  O   UNL A   1      32.543  36.109  28.890  1.00  0.00    -0.269 OA
BRANCH  32  35
ATOM     35  C   UNL A   1      34.160  34.473  29.340  1.00  0.00     0.039 A 
ATOM     36  C   UNL A   1      33.976  33.903  30.603  1.00  0.00     0.014 A 
ATOM     37  C   UNL A   1      35.439  34.547  28.784  1.00  0.00     0.014 A 
ATOM     38  C   UNL A   1      35.065  33.353  31.279  1.00  0.00     0.010 A 
ATOM     39  C   UNL A   1      36.510  33.930  29.424  1.00  0.00     0.010 A 
ATOM     40  C   UNL A   1      36.335  33.328  30.679  1.00  0.00    -0.014 A 
BRANCH  40  41
ATOM     41  C   UNL A   1      37.487  32.671  31.349  1.00  0.00     0.031 A 
ATOM     42  C   UNL A   1      38.197  31.524  30.687  1.00  0.00     0.074 A 
ATOM     43  C   UNL A   1      37.853  33.069  32.583  1.00  0.00     0.049 A 
ATOM     44  N   UNL A   1      39.180  30.785  31.139  1.00  0.00    -0.248 NA
ATOM     45  C   UNL A   1      37.723  31.134  29.349  1.00  0.00     0.031 C 
ATOM     46  C   UNL A   1      37.212  34.139  33.350  1.00  0.00     0.029 A 
ATOM     47  N   UNL A   1      38.846  32.616  33.415  1.00  0.00    -0.354 N 
ATOM     48  C   UNL A   1      39.429  29.841  30.152  1.00  0.00     0.074 A 
ATOM     49  C   UNL A   1      38.462  30.064  29.100  1.00  0.00     0.031 C 
ATOM     50  C   UNL A   1      37.838  34.271  34.531  1.00  0.00     0.029 A 
ATOM     51  C   UNL A   1      38.896  33.270  34.623  1.00  0.00     0.049 A 
ATOM     52  H   UNL A   1      39.464  31.889  33.170  1.00  0.00     0.167 HD
ATOM     53  C   UNL A   1      40.391  28.887  30.120  1.00  0.00     0.037 A 
ATOM     54  C   UNL A   1      39.696  33.074  35.689  1.00  0.00     0.037 A 
ATOM     55  C   UNL A   1      41.366  28.687  31.160  1.00  0.00     0.049 A 
ATOM     56  C   UNL A   1      40.751  32.003  35.628  1.00  0.00     0.074 A 
ATOM     57  C   UNL A   1      42.426  27.797  31.187  1.00  0.00     0.029 A 
ATOM     58  N   UNL A   1      41.396  29.379  32.361  1.00  0.00    -0.354 N 
ATOM     59  N   UNL A   1      41.031  31.170  34.655  1.00  0.00    -0.248 NA
ATOM     60  C   UNL A   1      41.607  31.848  36.812  1.00  0.00     0.031 C 
ATOM     61  C   UNL A   1      43.059  27.908  32.428  1.00  0.00     0.029 A 
ATOM     62  C   UNL A   1      42.436  28.913  33.150  1.00  0.00     0.049 A 
ATOM     63  H   UNL A   1      40.772  30.097  32.615  1.00  0.00     0.167 HD
ATOM     64  C   UNL A   1      42.109  30.415  35.096  1.00  0.00     0.074 A 
ATOM     65  C   UNL A   1      42.447  30.902  36.417  1.00  0.00     0.031 C 
ATOM     66  C   UNL A   1      42.763  29.410  34.462  1.00  0.00     0.037 A 
BRANCH  53  67
ATOM     67  C   UNL A   1      40.437  27.979  28.924  1.00  0.00     0.064 A 
ATOM     68  C   UNL A   1      39.718  26.775  28.880  1.00  0.00     0.173 A 
ATOM     69  C   UNL A   1      41.171  28.345  27.784  1.00  0.00     0.173 A 
ATOM     70  F   UNL A   1      39.009  26.373  29.945  1.00  0.00    -0.203 F 
ATOM     71  C   UNL A   1      39.753  25.958  27.752  1.00  0.00     0.198 A 
ATOM     72  C   UNL A   1      41.176  27.542  26.646  1.00  0.00     0.198 A 
ATOM     73  F   UNL A   1      41.872  29.489  27.768  1.00  0.00    -0.203 F 
ATOM     74  F   UNL A   1      39.097  24.790  27.753  1.00  0.00    -0.200 F 
ATOM     75  C   UNL A   1      40.475  26.347  26.634  1.00  0.00     0.200 A 
ATOM     76  F   UNL A   1      41.861  27.927  25.560  1.00  0.00    -0.200 F 
ATOM     77  F   UNL A   1      40.496  25.566  25.544  1.00  0.00    -0.200 F 
ENDBRANCH  53  67
BRANCH  54  78
ATOM     78  C   UNL A   1      39.536  33.918  36.903  1.00  0.00     0.064 A 
ATOM     79  C   UNL A   1      38.772  33.479  37.995  1.00  0.00     0.173 A 
ATOM     80  C   UNL A   1      40.128  35.186  36.992  1.00  0.00     0.173 A 
ATOM     81  F   UNL A   1      38.169  32.281  37.950  1.00  0.00    -0.203 F 
ATOM     82  C   UNL A   1      38.583  34.287  39.114  1.00  0.00     0.198 A 
ATOM     83  C   UNL A   1      39.966  35.980  38.127  1.00  0.00     0.198 A 
ATOM     84  F   UNL A   1      40.874  35.653  35.981  1.00  0.00    -0.203 F 
ATOM     85  F   UNL A   1      37.803  33.865  40.117  1.00  0.00    -0.200 F 
ATOM     86  C   UNL A   1      39.185  35.534  39.182  1.00  0.00     0.200 A 
ATOM     87  F   UNL A   1      40.564  37.178  38.195  1.00  0.00    -0.200 F 
ATOM     88  F   UNL A   1      39.005  36.310  40.259  1.00  0.00    -0.200 F 
ENDBRANCH  54  78
BRANCH  66  89
ATOM     89  C   UNL A   1      43.933  28.792  35.174  1.00  0.00     0.064 A 
ATOM     90  C   UNL A   1      45.232  29.308  35.051  1.00  0.00     0.173 A 
ATOM     91  C   UNL A   1      43.743  27.690  36.022  1.00  0.00     0.173 A 
ATOM     92  F   UNL A   1      45.469  30.352  34.241  1.00  0.00    -0.203 F 
ATOM     93  C   UNL A   1      46.300  28.727  35.728  1.00  0.00     0.198 A 
ATOM     94  C   UNL A   1      44.809  27.133  36.725  1.00  0.00     0.198 A 
ATOM     95  F   UNL A   1      42.521  27.160  36.182  1.00  0.00    -0.203 F 
ATOM     96  F   UNL A   1      47.541  29.205  35.553  1.00  0.00    -0.200 F 
ATOM     97  C   UNL A   1      46.087  27.646  36.571  1.00  0.00     0.200 A 
ATOM     98  F   UNL A   1      44.597  26.101  37.552  1.00  0.00    -0.200 F 
ATOM     99  F   UNL A   1      47.115  27.095  37.229  1.00  0.00    -0.200 F 
ENDBRANCH  66  89
ENDBRANCH  40  41
ENDBRANCH  32  35
ENDBRANCH  30  31
ENDBRANCH  29  30
ENDBRANCH  28  29
ENDBRANCH   1  28
TORSDOF 16
ENDMDL
MODEL 2
REMARK VINA RESULT:     -13.2      0.404      1.193
REMARK SMILES [NH3+][C@]1(C(=O)NCCCCCCNC(=O)c2ccc(-c3c4nc(c(-c5c(F)c(F)c(F)c(F)c5F)c5ccc([nH]5)c(-c5c(F)c(F)c(F)c(F)c5F)c5nc(c(-c6c(F)c(F)c(F)c(F)c6F)c6ccc3[nH]6)C=C5)C=C4)cc2)CC[C@@H](Sc2cc3ccccc3[nH]2)C1
REMARK SMILES IDX 8 1 7 2 6 3 5 4 3 5 4 6 2 8 78 9 91 10 79 11 80 12 1 13
REMARK SMILES IDX 81 17 82 18 83 19 90 20 84 21 89 22 85 24 88 25 86 26 87 27
REMARK SMILES IDX 9 28 10 29 11 30 12 31 13 32 14 34 15 35 16 36 77 37 17 38
REMARK SMILES IDX 76 39 18 40 19 41 20 42 70 43 21 44 75 45 69 46 71 47 22 48
REMARK SMILES IDX 74 49 68 50 67 51 23 53 55 54 35 55 54 56 36 57 39 58 53 59
REMARK SMILES IDX 72 60 37 61 38 62 52 64 73 65 40 66 24 67 25 68 33 69 26 70
REMARK SMILES IDX 27 71 31 72 34 73 28 74 29 75 32 76 30 77 56 78 57 79 65 80
REMARK SMILES IDX 58 81 59 82 63 83 66 84 60 85 61 86 64 87 62 88 41 89 42 90
REMARK SMILES IDX 50 91 43 92 44 93 48 94 51 95 45 96 46 97 49 98 47 99
REMARK H PARENT 5 7 1 14 1 15 1 16 90 23 12 33 71 52 39 63
REMARK Flexibility Score: inf
ROOT
ATOM      1  C   UNL A   1      32.204  29.811  27.221  1.00  0.00     0.002 C 
ENDROOT
BRANCH   1   2
ATOM      2  C   UNL A   1      33.571  29.204  26.896  1.00  0.00     0.021 C 
BRANCH   2   3
ATOM      3  C   UNL A   1      33.523  27.912  26.088  1.00  0.00     0.116 C 
BRANCH   3   4
ATOM      4  N   UNL A   1      32.465  27.026  26.524  1.00  0.00    -0.351 N 
ATOM      5  C   UNL A   1      32.209  25.724  26.208  1.00  0.00     0.281 C 
ATOM      6  O   UNL A   1      31.282  25.176  26.809  1.00  0.00    -0.268 OA
ATOM      7  H   UNL A   1      31.824  27.430  27.151  1.00  0.00     0.163 HD
BRANCH   5   8
ATOM      8  C   UNL A   1      33.052  24.991  25.135  1.00  0.00     0.175 C 
ATOM      9  C   UNL A   1      34.540  24.948  25.526  1.00  0.00     0.080 C 
ATOM     10  C   UNL A   1      32.672  23.506  25.064  1.00  0.00     0.094 C 
ATOM     11  C   UNL A   1      35.093  23.762  24.751  1.00  0.00     0.022 C 
ATOM     12  C   UNL A   1      33.965  22.738  24.779  1.00  0.00     0.060 C 
BRANCH   8  13
ATOM     13  N   UNL A   1      32.948  25.645  23.810  1.00  0.00    -0.345 N 
ATOM     14  H   UNL A   1      33.231  24.990  23.083  1.00  0.00     0.345 HD
ATOM     15  H   UNL A   1      33.557  26.463  23.787  1.00  0.00     0.345 HD
ATOM     16  H   UNL A   1      31.983  25.935  23.649  1.00  0.00     0.345 HD
ENDBRANCH   8  13
BRANCH  12  17
ATOM     17  S   UNL A   1      34.029  21.357  25.931  1.00  0.00    -0.105 SA
BRANCH  17  18
ATOM     18  C   UNL A   1      32.825  20.196  25.470  1.00  0.00     0.073 A 
ATOM     19  C   UNL A   1      32.403  19.868  24.196  1.00  0.00     0.043 A 
ATOM     20  N   UNL A   1      32.765  19.037  26.203  1.00  0.00    -0.350 N 
ATOM     21  C   UNL A   1      32.830  18.505  24.050  1.00  0.00     0.001 A 
ATOM     22  C   UNL A   1      33.114  18.025  25.330  1.00  0.00     0.046 A 
ATOM     23  H   UNL A   1      32.524  18.946  27.153  1.00  0.00     0.167 HD
ATOM     24  C   UNL A   1      33.174  17.710  22.942  1.00  0.00     0.010 A 
ATOM     25  C   UNL A   1      33.759  16.814  25.577  1.00  0.00     0.027 A 
ATOM     26  C   UNL A   1      33.900  16.532  23.165  1.00  0.00     0.001 A 
ATOM     27  C   UNL A   1      34.196  16.101  24.460  1.00  0.00     0.002 A 
ENDBRANCH  17  18
ENDBRANCH  12  17
ENDBRANCH   5   8
ENDBRANCH   3   4
ENDBRANCH   2   3
ENDBRANCH   1   2
BRANCH   1  28
ATOM     28  C   UNL A   1      31.625  30.734  26.144  1.00  0.00     0.002 C 
BRANCH  28  29
ATOM     29  C   UNL A   1      31.429  32.192  26.567  1.00  0.00     0.021 C 
BRANCH  29  30
ATOM     30  C   UNL A   1      32.618  32.816  27.289  1.00  0.00     0.116 C 
BRANCH  30  31
ATOM     31  N   UNL A   1      32.379  34.203  27.647  1.00  0.00    -0.352 N 
ATOM     32  C   UNL A   1      32.973  34.968  28.621  1.00  0.00     0.251 C 
ATOM     33  H   UNL A   1      31.692  34.663  27.113  1.00  0.00     0.163 HD
ATOM     34  O   UNL A   1      32.519  36.070  28.903  1.00  0.00    -0.269 OA
BRANCH  32  35
ATOM     35  C   UNL A   1      34.150  34.447  29.350  1.00  0.00     0.039 A 
ATOM     36  C   UNL A   1      33.951  33.808  30.576  1.00  0.00     0.014 A 
ATOM     37  C   UNL A   1      35.441  34.592  28.836  1.00  0.00     0.014 A 
ATOM     38  C   UNL A   1      35.039  33.261  31.257  1.00  0.00     0.010 A 
ATOM     39  C   UNL A   1      36.514  33.979  29.475  1.00  0.00     0.010 A 
ATOM     40  C   UNL A   1      36.325  33.309  30.694  1.00  0.00    -0.014 A 
BRANCH  40  41
ATOM     41  C   UNL A   1      37.481  32.658  31.364  1.00  0.00     0.031 A 
ATOM     42  C   UNL A   1      38.190  31.507  30.706  1.00  0.00     0.074 A 
ATOM     43  C   UNL A   1      37.851  33.064  32.594  1.00  0.00     0.049 A 
ATOM     44  N   UNL A   1      39.176  30.773  31.159  1.00  0.00    -0.248 NA
ATOM     45  C   UNL A   1      37.712  31.108  29.373  1.00  0.00     0.031 C 
ATOM     46  C   UNL A   1      37.210  34.137  33.357  1.00  0.00     0.029 A 
ATOM     47  N   UNL A   1      38.847  32.616  33.426  1.00  0.00    -0.354 N 
ATOM     48  C   UNL A   1      39.422  29.822  30.178  1.00  0.00     0.074 A 
ATOM     49  C   UNL A   1      38.452  30.037  29.127  1.00  0.00     0.031 C 
ATOM     50  C   UNL A   1      37.841  34.277  34.534  1.00  0.00     0.029 A 
ATOM     51  C   UNL A   1      38.900  33.278  34.629  1.00  0.00     0.049 A 
ATOM     52  H   UNL A   1      39.465  31.889  33.183  1.00  0.00     0.167 HD
ATOM     53  C   UNL A   1      40.386  28.870  30.148  1.00  0.00     0.037 A 
ATOM     54  C   UNL A   1      39.704  33.090  35.693  1.00  0.00     0.037 A 
ATOM     55  C   UNL A   1      41.365  28.677  31.186  1.00  0.00     0.049 A 
ATOM     56  C   UNL A   1      40.760  32.020  35.636  1.00  0.00     0.074 A 
ATOM     57  C   UNL A   1      42.425  27.789  31.214  1.00  0.00     0.029 A 
ATOM     58  N   UNL A   1      41.397  29.377  32.382  1.00  0.00    -0.354 N 
ATOM     59  N   UNL A   1      41.038  31.182  34.666  1.00  0.00    -0.248 NA
ATOM     60  C   UNL A   1      41.621  31.873  36.818  1.00  0.00     0.031 C 
ATOM     61  C   UNL A   1      43.062  27.908  32.453  1.00  0.00     0.029 A 
ATOM     62  C   UNL A   1      42.441  28.917  33.171  1.00  0.00     0.049 A 
ATOM     63  H   UNL A   1      40.773  30.095  32.635  1.00  0.00     0.167 HD
ATOM     64  C   UNL A   1      42.119  30.431  35.108  1.00  0.00     0.074 A 
ATOM     65  C   UNL A   1      42.460  30.925  36.425  1.00  0.00     0.031 C 
ATOM     66  C   UNL A   1      42.772  29.422  34.479  1.00  0.00     0.037 A 
BRANCH  53  67
ATOM     67  C   UNL A   1      40.429  27.955  28.957  1.00  0.00     0.064 A 
ATOM     68  C   UNL A   1      39.702  26.755  28.919  1.00  0.00     0.173 A 
ATOM     69  C   UNL A   1      41.168  28.309  27.818  1.00  0.00     0.173 A 
ATOM     70  F   UNL A   1      38.988  26.364  29.984  1.00  0.00    -0.203 F 
ATOM     71  C   UNL A   1      39.735  25.931  27.796  1.00  0.00     0.198 A 
ATOM     72  C   UNL A   1      41.171  27.499  26.684  1.00  0.00     0.198 A 
ATOM     73  F   UNL A   1      41.876  29.448  27.797  1.00  0.00    -0.203 F 
ATOM     74  F   UNL A   1      39.071  24.767  27.801  1.00  0.00    -0.200 F 
ATOM     75  C   UNL A   1      40.462  26.309  26.677  1.00  0.00     0.200 A 
ATOM     76  F   UNL A   1      41.861  27.874  25.598  1.00  0.00    -0.200 F 
ATOM     77  F   UNL A   1      40.481  25.522  25.592  1.00  0.00    -0.200 F 
ENDBRANCH  53  67
BRANCH  54  78
ATOM     78  C   UNL A   1      39.547  33.941  36.903  1.00  0.00     0.064 A 
ATOM     79  C   UNL A   1      38.791  33.506  38.002  1.00  0.00     0.173 A 
ATOM     80  C   UNL A   1      40.134  35.212  36.981  1.00  0.00     0.173 A 
ATOM     81  F   UNL A   1      38.192  32.306  37.968  1.00  0.00    -0.203 F 
ATOM     82  C   UNL A   1      38.604  34.321  39.117  1.00  0.00     0.198 A 
ATOM     83  C   UNL A   1      39.975  36.012  38.111  1.00  0.00     0.198 A 
ATOM     84  F   UNL A   1      40.873  35.675  35.963  1.00  0.00    -0.203 F 
ATOM     85  F   UNL A   1      37.830  33.902  40.127  1.00  0.00    -0.200 F 
ATOM     86  C   UNL A   1      39.201  35.571  39.174  1.00  0.00     0.200 A 
ATOM     87  F   UNL A   1      40.569  37.213  38.168  1.00  0.00    -0.200 F 
ATOM     88  F   UNL A   1      39.024  36.353  40.246  1.00  0.00    -0.200 F 
ENDBRANCH  54  78
BRANCH  66  89
ATOM     89  C   UNL A   1      43.945  28.810  35.190  1.00  0.00     0.064 A 
ATOM     90  C   UNL A   1      43.794  27.733  36.076  1.00  0.00     0.173 A 
ATOM     91  C   UNL A   1      45.244  29.284  34.950  1.00  0.00     0.173 A 
ATOM     92  F   UNL A   1      42.572  27.252  36.351  1.00  0.00    -0.203 F 
ATOM     93  C   UNL A   1      44.896  27.172  36.716  1.00  0.00     0.198 A 
ATOM     94  C   UNL A   1      46.347  28.697  35.565  1.00  0.00     0.198 A 
ATOM     95  F   UNL A   1      45.447  30.307  34.106  1.00  0.00    -0.203 F 
ATOM     96  F   UNL A   1      44.721  26.179  37.599  1.00  0.00    -0.200 F 
ATOM     97  C   UNL A   1      46.172  27.649  36.454  1.00  0.00     0.200 A 
ATOM     98  F   UNL A   1      47.580  29.149  35.296  1.00  0.00    -0.200 F 
ATOM     99  F   UNL A   1      47.231  27.101  37.063  1.00  0.00    -0.200 F 
ENDBRANCH  66  89
ENDBRANCH  40  41
ENDBRANCH  32  35
ENDBRANCH  30  31
ENDBRANCH  29  30
ENDBRANCH  28  29
ENDBRANCH   1  28
TORSDOF 16
ENDMDL
MODEL 3
REMARK VINA RESULT:     -13.1      0.477      7.245
REMARK SMILES [NH3+][C@]1(C(=O)NCCCCCCNC(=O)c2ccc(-c3c4nc(c(-c5c(F)c(F)c(F)c(F)c5F)c5ccc([nH]5)c(-c5c(F)c(F)c(F)c(F)c5F)c5nc(c(-c6c(F)c(F)c(F)c(F)c6F)c6ccc3[nH]6)C=C5)C=C4)cc2)CC[C@@H](Sc2cc3ccccc3[nH]2)C1
REMARK SMILES IDX 8 1 7 2 6 3 5 4 3 5 4 6 2 8 78 9 91 10 79 11 80 12 1 13
REMARK SMILES IDX 81 17 82 18 83 19 90 20 84 21 89 22 85 24 88 25 86 26 87 27
REMARK SMILES IDX 9 28 10 29 11 30 12 31 13 32 14 34 15 35 16 36 77 37 17 38
REMARK SMILES IDX 76 39 18 40 19 41 20 42 70 43 21 44 75 45 69 46 71 47 22 48
REMARK SMILES IDX 74 49 68 50 67 51 23 53 55 54 35 55 54 56 36 57 39 58 53 59
REMARK SMILES IDX 72 60 37 61 38 62 52 64 73 65 40 66 24 67 25 68 33 69 26 70
REMARK SMILES IDX 27 71 31 72 34 73 28 74 29 75 32 76 30 77 56 78 57 79 65 80
REMARK SMILES IDX 58 81 59 82 63 83 66 84 60 85 61 86 64 87 62 88 41 89 42 90
REMARK SMILES IDX 50 91 43 92 44 93 48 94 51 95 45 96 46 97 49 98 47 99
REMARK H PARENT 5 7 1 14 1 15 1 16 90 23 12 33 71 52 39 63
REMARK Flexibility Score: inf
ROOT
ATOM      1  C   UNL A   1      32.295  29.942  27.136  1.00  0.00     0.002 C 
ENDROOT
BRANCH   1   2
ATOM      2  C   UNL A   1      31.738  28.568  27.518  1.00  0.00     0.021 C 
BRANCH   2   3
ATOM      3  C   UNL A   1      31.503  27.623  26.346  1.00  0.00     0.116 C 
BRANCH   3   4
ATOM      4  N   UNL A   1      30.892  26.376  26.754  1.00  0.00    -0.351 N 
ATOM      5  C   UNL A   1      31.215  25.086  26.450  1.00  0.00     0.281 C 
ATOM      6  O   UNL A   1      30.576  24.202  27.024  1.00  0.00    -0.268 OA
ATOM      7  H   UNL A   1      30.116  26.476  27.351  1.00  0.00     0.163 HD
BRANCH   5   8
ATOM      8  C   UNL A   1      32.330  24.772  25.423  1.00  0.00     0.175 C 
ATOM      9  C   UNL A   1      33.728  25.010  26.023  1.00  0.00     0.080 C 
ATOM     10  C   UNL A   1      32.352  23.277  25.082  1.00  0.00     0.094 C 
ATOM     11  C   UNL A   1      34.646  24.142  25.177  1.00  0.00     0.022 C 
ATOM     12  C   UNL A   1      33.822  22.895  24.888  1.00  0.00     0.060 C 
BRANCH   8  13
ATOM     13  N   UNL A   1      32.209  25.607  24.205  1.00  0.00    -0.345 N 
ATOM     14  H   UNL A   1      32.981  26.273  24.170  1.00  0.00     0.345 HD
ATOM     15  H   UNL A   1      31.324  26.114  24.228  1.00  0.00     0.345 HD
ATOM     16  H   UNL A   1      32.237  25.010  23.379  1.00  0.00     0.345 HD
ENDBRANCH   8  13
BRANCH  12  17
ATOM     17  S   UNL A   1      34.108  21.386  25.825  1.00  0.00    -0.105 SA
BRANCH  17  18
ATOM     18  C   UNL A   1      32.891  20.227  25.394  1.00  0.00     0.073 A 
ATOM     19  C   UNL A   1      32.469  19.868  24.128  1.00  0.00     0.043 A 
ATOM     20  N   UNL A   1      32.816  19.089  26.158  1.00  0.00    -0.350 N 
ATOM     21  C   UNL A   1      32.880  18.497  24.022  1.00  0.00     0.001 A 
ATOM     22  C   UNL A   1      33.155  18.050  25.316  1.00  0.00     0.046 A 
ATOM     23  H   UNL A   1      32.571  19.028  27.110  1.00  0.00     0.167 HD
ATOM     24  C   UNL A   1      33.217  17.667  22.938  1.00  0.00     0.010 A 
ATOM     25  C   UNL A   1      33.784  16.838  25.598  1.00  0.00     0.027 A 
ATOM     26  C   UNL A   1      33.928  16.487  23.195  1.00  0.00     0.001 A 
ATOM     27  C   UNL A   1      34.215  16.089  24.503  1.00  0.00     0.002 A 
ENDBRANCH  17  18
ENDBRANCH  12  17
ENDBRANCH   5   8
ENDBRANCH   3   4
ENDBRANCH   2   3
ENDBRANCH   1   2
BRANCH   1  28
ATOM     28  C   UNL A   1      31.413  30.766  26.192  1.00  0.00     0.002 C 
BRANCH  28  29
ATOM     29  C   UNL A   1      31.363  32.267  26.485  1.00  0.00     0.021 C 
BRANCH  29  30
ATOM     30  C   UNL A   1      32.593  32.825  27.191  1.00  0.00     0.116 C 
BRANCH  30  31
ATOM     31  N   UNL A   1      32.407  34.200  27.620  1.00  0.00    -0.352 N 
ATOM     32  C   UNL A   1      33.028  34.890  28.632  1.00  0.00     0.251 C 
ATOM     33  H   UNL A   1      31.739  34.712  27.111  1.00  0.00     0.163 HD
ATOM     34  O   UNL A   1      32.616  35.992  28.971  1.00  0.00    -0.269 OA
BRANCH  32  35
ATOM     35  C   UNL A   1      34.184  34.288  29.332  1.00  0.00     0.039 A 
ATOM     36  C   UNL A   1      33.944  33.432  30.409  1.00  0.00     0.014 A 
ATOM     37  C   UNL A   1      35.494  34.569  28.938  1.00  0.00     0.014 A 
ATOM     38  C   UNL A   1      35.015  32.809  31.051  1.00  0.00     0.010 A 
ATOM     39  C   UNL A   1      36.556  33.890  29.527  1.00  0.00     0.010 A 
ATOM     40  C   UNL A   1      36.328  33.004  30.591  1.00  0.00    -0.014 A 
BRANCH  40  41
ATOM     41  C   UNL A   1      37.472  32.284  31.209  1.00  0.00     0.031 A 
ATOM     42  C   UNL A   1      37.971  32.678  32.571  1.00  0.00     0.074 A 
ATOM     43  C   UNL A   1      38.100  31.315  30.514  1.00  0.00     0.049 A 
ATOM     44  N   UNL A   1      38.991  32.210  33.247  1.00  0.00    -0.248 NA
ATOM     45  C   UNL A   1      37.245  33.759  33.256  1.00  0.00     0.031 C 
ATOM     46  C   UNL A   1      37.741  30.876  29.164  1.00  0.00     0.029 A 
ATOM     47  N   UNL A   1      39.180  30.532  30.840  1.00  0.00    -0.354 N 
ATOM     48  C   UNL A   1      39.037  32.948  34.422  1.00  0.00     0.074 A 
ATOM     49  C   UNL A   1      37.976  33.928  34.348  1.00  0.00     0.031 C 
ATOM     50  C   UNL A   1      38.572  29.892  28.786  1.00  0.00     0.029 A 
ATOM     51  C   UNL A   1      39.548  29.658  29.846  1.00  0.00     0.049 A 
ATOM     52  H   UNL A   1      39.647  30.593  31.705  1.00  0.00     0.167 HD
ATOM     53  C   UNL A   1      39.875  32.805  35.476  1.00  0.00     0.037 A 
ATOM     54  C   UNL A   1      40.566  28.778  29.790  1.00  0.00     0.037 A 
ATOM     55  C   UNL A   1      40.914  31.811  35.555  1.00  0.00     0.049 A 
ATOM     56  C   UNL A   1      41.487  28.646  30.972  1.00  0.00     0.074 A 
ATOM     57  C   UNL A   1      41.766  31.538  36.610  1.00  0.00     0.029 A 
ATOM     58  N   UNL A   1      41.246  30.932  34.535  1.00  0.00    -0.354 N 
ATOM     59  N   UNL A   1      41.468  29.292  32.113  1.00  0.00    -0.248 NA
ATOM     60  C   UNL A   1      42.568  27.656  30.864  1.00  0.00     0.031 C 
ATOM     61  C   UNL A   1      42.655  30.537  36.207  1.00  0.00     0.029 A 
ATOM     62  C   UNL A   1      42.314  30.138  34.924  1.00  0.00     0.049 A 
ATOM     63  H   UNL A   1      40.791  30.878  33.664  1.00  0.00     0.167 HD
ATOM     64  C   UNL A   1      42.511  28.770  32.866  1.00  0.00     0.074 A 
ATOM     65  C   UNL A   1      43.131  27.739  32.061  1.00  0.00     0.031 C 
ATOM     66  C   UNL A   1      42.919  29.112  34.114  1.00  0.00     0.037 A 
BRANCH  53  67
ATOM     67  C   UNL A   1      39.713  33.750  36.633  1.00  0.00     0.064 A 
ATOM     68  C   UNL A   1      38.911  33.434  37.740  1.00  0.00     0.173 A 
ATOM     69  C   UNL A   1      40.414  34.966  36.659  1.00  0.00     0.173 A 
ATOM     70  F   UNL A   1      38.212  32.289  37.763  1.00  0.00    -0.203 F 
ATOM     71  C   UNL A   1      38.793  34.312  38.815  1.00  0.00     0.198 A 
ATOM     72  C   UNL A   1      40.320  35.826  37.751  1.00  0.00     0.198 A 
ATOM     73  F   UNL A   1      41.201  35.316  35.630  1.00  0.00    -0.203 F 
ATOM     74  F   UNL A   1      37.982  34.010  39.838  1.00  0.00    -0.200 F 
ATOM     75  C   UNL A   1      39.504  35.502  38.823  1.00  0.00     0.200 A 
ATOM     76  F   UNL A   1      41.021  36.968  37.763  1.00  0.00    -0.200 F 
ATOM     77  F   UNL A   1      39.400  36.340  39.865  1.00  0.00    -0.200 F 
ENDBRANCH  53  67
BRANCH  54  78
ATOM     78  C   UNL A   1      40.765  27.946  28.573  1.00  0.00     0.064 A 
ATOM     79  C   UNL A   1      41.550  28.401  27.504  1.00  0.00     0.173 A 
ATOM     80  C   UNL A   1      40.160  26.686  28.446  1.00  0.00     0.173 A 
ATOM     81  F   UNL A   1      42.133  29.607  27.569  1.00  0.00    -0.203 F 
ATOM     82  C   UNL A   1      41.699  27.643  26.345  1.00  0.00     0.198 A 
ATOM     83  C   UNL A   1      40.337  25.914  27.300  1.00  0.00     0.198 A 
ATOM     84  F   UNL A   1      39.404  26.200  29.440  1.00  0.00    -0.203 F 
ATOM     85  F   UNL A   1      42.409  28.127  25.317  1.00  0.00    -0.200 F 
ATOM     86  C   UNL A   1      41.098  26.397  26.245  1.00  0.00     0.200 A 
ATOM     87  F   UNL A   1      39.768  24.703  27.216  1.00  0.00    -0.200 F 
ATOM     88  F   UNL A   1      41.243  25.667  25.132  1.00  0.00    -0.200 F 
ENDBRANCH  54  78
BRANCH  66  89
ATOM     89  C   UNL A   1      44.066  28.340  34.701  1.00  0.00     0.064 A 
ATOM     90  C   UNL A   1      45.393  28.777  34.574  1.00  0.00     0.173 A 
ATOM     91  C   UNL A   1      43.829  27.168  35.435  1.00  0.00     0.173 A 
ATOM     92  F   UNL A   1      45.676  29.884  33.870  1.00  0.00    -0.203 F 
ATOM     93  C   UNL A   1      46.442  28.053  35.136  1.00  0.00     0.198 A 
ATOM     94  C   UNL A   1      44.877  26.466  36.025  1.00  0.00     0.198 A 
ATOM     95  F   UNL A   1      42.578  26.709  35.594  1.00  0.00    -0.203 F 
ATOM     96  F   UNL A   1      47.706  28.461  34.955  1.00  0.00    -0.200 F 
ATOM     97  C   UNL A   1      46.182  26.904  35.868  1.00  0.00     0.200 A 
ATOM     98  F   UNL A   1      44.622  25.366  36.747  1.00  0.00    -0.200 F 
ATOM     99  F   UNL A   1      47.192  26.215  36.416  1.00  0.00    -0.200 F 
ENDBRANCH  66  89
ENDBRANCH  40  41
ENDBRANCH  32  35
ENDBRANCH  30  31
ENDBRANCH  29  30
ENDBRANCH  28  29
ENDBRANCH   1  28
TORSDOF 16
ENDMDL
