MODEL 1
REMARK VINA RESULT:     -11.5      0.000      0.000
REMARK SMILES CC(C)Cc1ccc([C@@H](C)C(=O)NCCCCCCNC(=O)c2ccc(-c3c4nc(c(-c5c(F)c(F)c(F)c(F)c5F)c5ccc([nH]5)c(-c5c(F)c(F)c(F)c(F)c5F)c5nc(c(-c6c(F)c(F)c(F)c(F)c6F)c6ccc3[nH]6)C=C5)C=C4)cc2)cc1
REMARK SMILES IDX 16 1 15 2 14 3 13 4 11 5 12 6 9 8 10 9 8 10 5 11 6 12 87 13
REMARK SMILES IDX 7 14 86 15 4 16 2 17 1 18 3 19 17 20 18 21 19 22 20 23 21 24
REMARK SMILES IDX 22 26 23 27 24 28 85 29 25 30 84 31 26 32 27 33 28 34 78 35
REMARK SMILES IDX 29 36 83 37 77 38 79 39 30 40 82 41 76 42 75 43 31 45 63 46
REMARK SMILES IDX 43 47 62 48 44 49 47 50 61 51 80 52 45 53 46 54 60 56 81 57
REMARK SMILES IDX 48 58 32 59 33 60 41 61 34 62 35 63 39 64 42 65 36 66 37 67
REMARK SMILES IDX 40 68 38 69 64 70 65 71 73 72 66 73 67 74 71 75 74 76 68 77
REMARK SMILES IDX 69 78 72 79 70 80 49 81 50 82 58 83 51 84 52 85 56 86 59 87
REMARK SMILES IDX 53 88 54 89 57 90 55 91
REMARK H PARENT 13 7 20 25 79 44 47 55
REMARK Flexibility Score: inf
ROOT
ATOM      1  C   UNL A   1      32.190  29.807  26.057  1.00  0.00     0.002 C 
ENDROOT
BRANCH   1   2
ATOM      2  C   UNL A   1      31.776  28.848  27.180  1.00  0.00     0.021 C 
BRANCH   2   3
ATOM      3  C   UNL A   1      31.549  27.408  26.719  1.00  0.00     0.116 C 
BRANCH   3   4
ATOM      4  N   UNL A   1      32.421  27.043  25.623  1.00  0.00    -0.356 N 
ATOM      5  C   UNL A   1      32.156  26.441  24.431  1.00  0.00     0.227 C 
ATOM      6  O   UNL A   1      33.128  26.183  23.711  1.00  0.00    -0.274 OA
ATOM      7  H   UNL A   1      33.369  27.272  25.763  1.00  0.00     0.163 HD
BRANCH   5   8
ATOM      8  C   UNL A   1      30.735  26.095  23.959  1.00  0.00     0.105 C 
ATOM      9  C   UNL A   1      30.670  24.805  23.141  1.00  0.00     0.023 C 
BRANCH   8  10
ATOM     10  C   UNL A   1      29.987  27.303  23.413  1.00  0.00    -0.036 A 
ATOM     11  C   UNL A   1      28.502  29.585  22.644  1.00  0.00    -0.048 A 
ATOM     12  C   UNL A   1      29.893  29.555  22.497  1.00  0.00     0.004 A 
ATOM     13  C   UNL A   1      27.850  28.446  23.122  1.00  0.00     0.004 A 
ATOM     14  C   UNL A   1      30.625  28.421  22.860  1.00  0.00     0.005 A 
ATOM     15  C   UNL A   1      28.585  27.323  23.509  1.00  0.00     0.005 A 
BRANCH  11  16
ATOM     16  C   UNL A   1      27.729  30.847  22.349  1.00  0.00     0.038 C 
BRANCH  16  17
ATOM     17  C   UNL A   1      28.607  31.980  21.774  1.00  0.00    -0.013 C 
ATOM     18  C   UNL A   1      28.024  32.583  20.491  1.00  0.00     0.008 C 
ATOM     19  C   UNL A   1      28.784  33.080  22.823  1.00  0.00     0.008 C 
ENDBRANCH  16  17
ENDBRANCH  11  16
ENDBRANCH   8  10
ENDBRANCH   5   8
ENDBRANCH   3   4
ENDBRANCH   2   3
ENDBRANCH   1   2
BRANCH   1  20
ATOM     20  C   UNL A   1      31.139  30.856  25.667  1.00  0.00     0.002 C 
BRANCH  20  21
ATOM     21  C   UNL A   1      31.142  32.142  26.502  1.00  0.00     0.021 C 
BRANCH  21  22
ATOM     22  C   UNL A   1      32.501  32.537  27.075  1.00  0.00     0.116 C 
BRANCH  22  23
ATOM     23  N   UNL A   1      32.527  33.923  27.514  1.00  0.00    -0.352 N 
ATOM     24  C   UNL A   1      33.283  34.529  28.484  1.00  0.00     0.251 C 
ATOM     25  H   UNL A   1      31.904  34.521  27.040  1.00  0.00     0.163 HD
ATOM     26  O   UNL A   1      33.013  35.668  28.847  1.00  0.00    -0.269 OA
BRANCH  24  27
ATOM     27  C   UNL A   1      34.421  33.817  29.108  1.00  0.00     0.039 A 
ATOM     28  C   UNL A   1      35.722  34.209  28.777  1.00  0.00     0.014 A 
ATOM     29  C   UNL A   1      34.217  32.733  29.969  1.00  0.00     0.014 A 
ATOM     30  C   UNL A   1      36.815  33.549  29.343  1.00  0.00     0.010 A 
ATOM     31  C   UNL A   1      35.306  32.116  30.582  1.00  0.00     0.010 A 
ATOM     32  C   UNL A   1      36.616  32.511  30.268  1.00  0.00    -0.014 A 
BRANCH  32  33
ATOM     33  C   UNL A   1      37.769  31.826  30.904  1.00  0.00     0.031 A 
ATOM     34  C   UNL A   1      38.186  32.183  32.304  1.00  0.00     0.074 A 
ATOM     35  C   UNL A   1      38.465  30.911  30.206  1.00  0.00     0.049 A 
ATOM     36  N   UNL A   1      39.181  31.715  33.016  1.00  0.00    -0.248 NA
ATOM     37  C   UNL A   1      37.397  33.220  32.983  1.00  0.00     0.031 C 
ATOM     38  C   UNL A   1      38.185  30.509  28.827  1.00  0.00     0.029 A 
ATOM     39  N   UNL A   1      39.553  30.154  30.559  1.00  0.00    -0.354 N 
ATOM     40  C   UNL A   1      39.140  32.405  34.221  1.00  0.00     0.074 A 
ATOM     41  C   UNL A   1      38.059  33.363  34.121  1.00  0.00     0.031 C 
ATOM     42  C   UNL A   1      39.058  29.557  28.462  1.00  0.00     0.029 A 
ATOM     43  C   UNL A   1      39.977  29.303  29.567  1.00  0.00     0.049 A 
ATOM     44  H   UNL A   1      39.990  30.215  31.439  1.00  0.00     0.167 HD
ATOM     45  C   UNL A   1      39.917  32.239  35.319  1.00  0.00     0.037 A 
ATOM     46  C   UNL A   1      40.988  28.415  29.556  1.00  0.00     0.037 A 
ATOM     47  C   UNL A   1      40.981  31.274  35.422  1.00  0.00     0.049 A 
ATOM     48  C   UNL A   1      41.838  28.252  30.785  1.00  0.00     0.074 A 
ATOM     49  C   UNL A   1      41.797  30.998  36.504  1.00  0.00     0.029 A 
ATOM     50  N   UNL A   1      41.375  30.424  34.398  1.00  0.00    -0.354 N 
ATOM     51  N   UNL A   1      41.755  28.870  31.938  1.00  0.00    -0.248 NA
ATOM     52  C   UNL A   1      42.919  27.259  30.711  1.00  0.00     0.031 C 
ATOM     53  C   UNL A   1      42.710  30.007  36.124  1.00  0.00     0.029 A 
ATOM     54  C   UNL A   1      42.433  29.634  34.819  1.00  0.00     0.049 A 
ATOM     55  H   UNL A   1      40.964  30.387  33.505  1.00  0.00     0.167 HD
ATOM     56  C   UNL A   1      42.750  28.323  32.736  1.00  0.00     0.074 A 
ATOM     57  C   UNL A   1      43.417  27.314  31.939  1.00  0.00     0.031 C 
ATOM     58  C   UNL A   1      43.083  28.630  34.014  1.00  0.00     0.037 A 
BRANCH  45  59
ATOM     59  C   UNL A   1      39.638  33.125  36.498  1.00  0.00     0.064 A 
ATOM     60  C   UNL A   1      38.708  32.763  37.484  1.00  0.00     0.173 A 
ATOM     61  C   UNL A   1      40.317  34.342  36.655  1.00  0.00     0.173 A 
ATOM     62  F   UNL A   1      38.022  31.614  37.375  1.00  0.00    -0.203 F 
ATOM     63  C   UNL A   1      38.441  33.602  38.563  1.00  0.00     0.198 A 
ATOM     64  C   UNL A   1      40.070  35.166  37.751  1.00  0.00     0.198 A 
ATOM     65  F   UNL A   1      41.222  34.736  35.746  1.00  0.00    -0.203 F 
ATOM     66  F   UNL A   1      37.506  33.259  39.461  1.00  0.00    -0.200 F 
ATOM     67  C   UNL A   1      39.126  34.799  38.699  1.00  0.00     0.200 A 
ATOM     68  F   UNL A   1      40.740  36.318  37.887  1.00  0.00    -0.200 F 
ATOM     69  F   UNL A   1      38.868  35.606  39.737  1.00  0.00    -0.200 F 
ENDBRANCH  45  59
BRANCH  46  70
ATOM     70  C   UNL A   1      41.220  27.575  28.353  1.00  0.00     0.064 A 
ATOM     71  C   UNL A   1      40.542  26.359  28.189  1.00  0.00     0.173 A 
ATOM     72  C   UNL A   1      42.111  27.968  27.345  1.00  0.00     0.173 A 
ATOM     73  F   UNL A   1      39.695  25.934  29.138  1.00  0.00    -0.203 F 
ATOM     74  C   UNL A   1      40.758  25.560  27.070  1.00  0.00     0.198 A 
ATOM     75  C   UNL A   1      42.309  27.180  26.214  1.00  0.00     0.198 A 
ATOM     76  F   UNL A   1      42.780  29.126  27.453  1.00  0.00    -0.203 F 
ATOM     77  F   UNL A   1      40.126  24.384  26.957  1.00  0.00    -0.200 F 
ATOM     78  C   UNL A   1      41.637  25.973  26.081  1.00  0.00     0.200 A 
ATOM     79  F   UNL A   1      43.148  27.588  25.253  1.00  0.00    -0.200 F 
ATOM     80  F   UNL A   1      41.841  25.206  25.000  1.00  0.00    -0.200 F 
ENDBRANCH  46  70
BRANCH  58  81
ATOM     81  C   UNL A   1      44.197  27.841  34.638  1.00  0.00     0.064 A 
ATOM     82  C   UNL A   1      43.958  26.632  35.305  1.00  0.00     0.173 A 
ATOM     83  C   UNL A   1      45.522  28.295  34.551  1.00  0.00     0.173 A 
ATOM     84  F   UNL A   1      42.706  26.165  35.428  1.00  0.00    -0.203 F 
ATOM     85  C   UNL A   1      45.002  25.918  35.889  1.00  0.00     0.198 A 
ATOM     86  C   UNL A   1      46.566  27.565  35.112  1.00  0.00     0.198 A 
ATOM     87  F   UNL A   1      45.804  29.444  33.920  1.00  0.00    -0.203 F 
ATOM     88  F   UNL A   1      44.743  24.792  36.569  1.00  0.00    -0.200 F 
ATOM     89  C   UNL A   1      46.304  26.384  35.789  1.00  0.00     0.200 A 
ATOM     90  F   UNL A   1      47.825  28.010  35.005  1.00  0.00    -0.200 F 
ATOM     91  F   UNL A   1      47.307  25.696  36.352  1.00  0.00    -0.200 F 
ENDBRANCH  58  81
ENDBRANCH  32  33
ENDBRANCH  24  27
ENDBRANCH  22  23
ENDBRANCH  21  22
ENDBRANCH  20  21
ENDBRANCH   1  20
TORSDOF 16
ENDMDL
MODEL 2
REMARK VINA RESULT:     -11.4      0.580      2.078
REMARK SMILES CC(C)Cc1ccc([C@@H](C)C(=O)NCCCCCCNC(=O)c2ccc(-c3c4nc(c(-c5c(F)c(F)c(F)c(F)c5F)c5ccc([nH]5)c(-c5c(F)c(F)c(F)c(F)c5F)c5nc(c(-c6c(F)c(F)c(F)c(F)c6F)c6ccc3[nH]6)C=C5)C=C4)cc2)cc1
REMARK SMILES IDX 16 1 15 2 14 3 13 4 11 5 12 6 9 8 10 9 8 10 5 11 6 12 87 13
REMARK SMILES IDX 7 14 86 15 4 16 2 17 1 18 3 19 17 20 18 21 19 22 20 23 21 24
REMARK SMILES IDX 22 26 23 27 24 28 85 29 25 30 84 31 26 32 27 33 28 34 78 35
REMARK SMILES IDX 29 36 83 37 77 38 79 39 30 40 82 41 76 42 75 43 31 45 63 46
REMARK SMILES IDX 43 47 62 48 44 49 47 50 61 51 80 52 45 53 46 54 60 56 81 57
REMARK SMILES IDX 48 58 32 59 33 60 41 61 34 62 35 63 39 64 42 65 36 66 37 67
REMARK SMILES IDX 40 68 38 69 64 70 65 71 73 72 66 73 67 74 71 75 74 76 68 77
REMARK SMILES IDX 69 78 72 79 70 80 49 81 50 82 58 83 51 84 52 85 56 86 59 87
REMARK SMILES IDX 53 88 54 89 57 90 55 91
REMARK H PARENT 13 7 20 25 79 44 47 55
REMARK Flexibility Score: inf
ROOT
ATOM      1  C   UNL A   1      32.359  29.893  26.908  1.00  0.00     0.002 C 
ENDROOT
BRANCH   1   2
ATOM      2  C   UNL A   1      33.506  29.277  26.099  1.00  0.00     0.021 C 
BRANCH   2   3
ATOM      3  C   UNL A   1      33.898  27.867  26.544  1.00  0.00     0.116 C 
BRANCH   3   4
ATOM      4  N   UNL A   1      33.921  26.935  25.436  1.00  0.00    -0.356 N 
ATOM      5  C   UNL A   1      32.915  26.263  24.811  1.00  0.00     0.227 C 
ATOM      6  O   UNL A   1      33.246  25.462  23.928  1.00  0.00    -0.274 OA
ATOM      7  H   UNL A   1      34.818  26.758  25.071  1.00  0.00     0.163 HD
BRANCH   5   8
ATOM      8  C   UNL A   1      31.429  26.468  25.146  1.00  0.00     0.105 C 
ATOM      9  C   UNL A   1      30.724  25.178  25.568  1.00  0.00     0.023 C 
BRANCH   8  10
ATOM     10  C   UNL A   1      30.715  27.351  24.133  1.00  0.00    -0.036 A 
ATOM     11  C   UNL A   1      29.239  29.084  22.452  1.00  0.00    -0.048 A 
ATOM     12  C   UNL A   1      30.626  29.219  22.577  1.00  0.00     0.004 A 
ATOM     13  C   UNL A   1      28.601  28.040  23.127  1.00  0.00     0.004 A 
ATOM     14  C   UNL A   1      31.357  28.352  23.393  1.00  0.00     0.005 A 
ATOM     15  C   UNL A   1      29.329  27.191  23.963  1.00  0.00     0.005 A 
BRANCH  11  16
ATOM     16  C   UNL A   1      28.441  30.085  21.653  1.00  0.00     0.038 C 
BRANCH  16  17
ATOM     17  C   UNL A   1      28.503  31.515  22.232  1.00  0.00    -0.013 C 
ATOM     18  C   UNL A   1      28.028  32.576  21.232  1.00  0.00     0.008 C 
ATOM     19  C   UNL A   1      27.656  31.596  23.504  1.00  0.00     0.008 C 
ENDBRANCH  16  17
ENDBRANCH  11  16
ENDBRANCH   8  10
ENDBRANCH   5   8
ENDBRANCH   3   4
ENDBRANCH   2   3
ENDBRANCH   1   2
BRANCH   1  20
ATOM     20  C   UNL A   1      31.401  30.792  26.113  1.00  0.00     0.002 C 
BRANCH  20  21
ATOM     21  C   UNL A   1      31.328  32.253  26.571  1.00  0.00     0.021 C 
BRANCH  21  22
ATOM     22  C   UNL A   1      32.674  32.901  26.883  1.00  0.00     0.116 C 
BRANCH  22  23
ATOM     23  N   UNL A   1      32.522  34.181  27.555  1.00  0.00    -0.352 N 
ATOM     24  C   UNL A   1      33.132  34.663  28.685  1.00  0.00     0.251 C 
ATOM     25  H   UNL A   1      31.882  34.798  27.134  1.00  0.00     0.163 HD
ATOM     26  O   UNL A   1      32.718  35.690  29.212  1.00  0.00    -0.269 OA
BRANCH  24  27
ATOM     27  C   UNL A   1      34.282  33.951  29.285  1.00  0.00     0.039 A 
ATOM     28  C   UNL A   1      35.569  34.455  29.072  1.00  0.00     0.014 A 
ATOM     29  C   UNL A   1      34.109  32.764  30.003  1.00  0.00     0.014 A 
ATOM     30  C   UNL A   1      36.675  33.798  29.617  1.00  0.00     0.010 A 
ATOM     31  C   UNL A   1      35.205  32.144  30.600  1.00  0.00     0.010 A 
ATOM     32  C   UNL A   1      36.500  32.650  30.405  1.00  0.00    -0.014 A 
BRANCH  32  33
ATOM     33  C   UNL A   1      37.663  31.963  31.021  1.00  0.00     0.031 A 
ATOM     34  C   UNL A   1      38.101  32.314  32.416  1.00  0.00     0.074 A 
ATOM     35  C   UNL A   1      38.352  31.053  30.307  1.00  0.00     0.049 A 
ATOM     36  N   UNL A   1      39.106  31.844  33.111  1.00  0.00    -0.248 NA
ATOM     37  C   UNL A   1      37.319  33.345  33.112  1.00  0.00     0.031 C 
ATOM     38  C   UNL A   1      38.051  30.659  28.930  1.00  0.00     0.029 A 
ATOM     39  N   UNL A   1      39.446  30.297  30.640  1.00  0.00    -0.354 N 
ATOM     40  C   UNL A   1      39.083  32.527  34.320  1.00  0.00     0.074 A 
ATOM     41  C   UNL A   1      37.998  33.483  34.242  1.00  0.00     0.031 C 
ATOM     42  C   UNL A   1      38.921  29.710  28.548  1.00  0.00     0.029 A 
ATOM     43  C   UNL A   1      39.856  29.452  29.638  1.00  0.00     0.049 A 
ATOM     44  H   UNL A   1      39.896  30.354  31.514  1.00  0.00     0.167 HD
ATOM     45  C   UNL A   1      39.876  32.356  35.405  1.00  0.00     0.037 A 
ATOM     46  C   UNL A   1      40.869  28.566  29.606  1.00  0.00     0.037 A 
ATOM     47  C   UNL A   1      40.943  31.394  35.488  1.00  0.00     0.049 A 
ATOM     48  C   UNL A   1      41.737  28.398  30.822  1.00  0.00     0.074 A 
ATOM     49  C   UNL A   1      41.775  31.113  36.556  1.00  0.00     0.029 A 
ATOM     50  N   UNL A   1      41.323  30.550  34.454  1.00  0.00    -0.354 N 
ATOM     51  N   UNL A   1      41.670  29.009  31.980  1.00  0.00    -0.248 NA
ATOM     52  C   UNL A   1      42.819  27.408  30.727  1.00  0.00     0.031 C 
ATOM     53  C   UNL A   1      42.685  30.126  36.157  1.00  0.00     0.029 A 
ATOM     54  C   UNL A   1      42.389  29.760  34.855  1.00  0.00     0.049 A 
ATOM     55  H   UNL A   1      40.899  30.516  33.566  1.00  0.00     0.167 HD
ATOM     56  C   UNL A   1      42.678  28.461  32.760  1.00  0.00     0.074 A 
ATOM     57  C   UNL A   1      43.335  27.457  31.948  1.00  0.00     0.031 C 
ATOM     58  C   UNL A   1      43.029  28.761  34.035  1.00  0.00     0.037 A 
BRANCH  45  59
ATOM     59  C   UNL A   1      39.613  33.236  36.594  1.00  0.00     0.064 A 
ATOM     60  C   UNL A   1      40.278  34.461  36.761  1.00  0.00     0.173 A 
ATOM     61  C   UNL A   1      38.676  32.862  37.568  1.00  0.00     0.173 A 
ATOM     62  F   UNL A   1      41.192  34.860  35.864  1.00  0.00    -0.203 F 
ATOM     63  C   UNL A   1      40.042  35.259  37.878  1.00  0.00     0.198 A 
ATOM     64  C   UNL A   1      38.421  33.677  38.668  1.00  0.00     0.198 A 
ATOM     65  F   UNL A   1      38.007  31.704  37.455  1.00  0.00    -0.203 F 
ATOM     66  F   UNL A   1      40.732  36.397  38.043  1.00  0.00    -0.200 F 
ATOM     67  C   UNL A   1      39.110  34.869  38.827  1.00  0.00     0.200 A 
ATOM     68  F   UNL A   1      37.511  33.304  39.580  1.00  0.00    -0.200 F 
ATOM     69  F   UNL A   1      38.885  35.638  39.901  1.00  0.00    -0.200 F 
ENDBRANCH  45  59
BRANCH  46  70
ATOM     70  C   UNL A   1      41.085  27.733  28.396  1.00  0.00     0.064 A 
ATOM     71  C   UNL A   1      41.954  28.159  27.382  1.00  0.00     0.173 A 
ATOM     72  C   UNL A   1      40.439  26.500  28.230  1.00  0.00     0.173 A 
ATOM     73  F   UNL A   1      42.578  29.341  27.489  1.00  0.00    -0.203 F 
ATOM     74  C   UNL A   1      42.157  27.390  26.238  1.00  0.00     0.198 A 
ATOM     75  C   UNL A   1      40.661  25.721  27.097  1.00  0.00     0.198 A 
ATOM     76  F   UNL A   1      39.602  26.047  29.174  1.00  0.00    -0.203 F 
ATOM     77  F   UNL A   1      42.964  27.838  25.267  1.00  0.00    -0.200 F 
ATOM     78  C   UNL A   1      41.515  26.169  26.100  1.00  0.00     0.200 A 
ATOM     79  F   UNL A   1      40.051  24.535  26.971  1.00  0.00    -0.200 F 
ATOM     80  F   UNL A   1      41.715  25.427  25.002  1.00  0.00    -0.200 F 
ENDBRANCH  46  70
BRANCH  58  81
ATOM     81  C   UNL A   1      44.153  27.971  34.637  1.00  0.00     0.064 A 
ATOM     82  C   UNL A   1      45.481  28.417  34.577  1.00  0.00     0.173 A 
ATOM     83  C   UNL A   1      43.895  26.760  35.297  1.00  0.00     0.173 A 
ATOM     84  F   UNL A   1      45.781  29.561  33.943  1.00  0.00    -0.203 F 
ATOM     85  C   UNL A   1      46.514  27.665  35.130  1.00  0.00     0.198 A 
ATOM     86  C   UNL A   1      44.927  26.024  35.873  1.00  0.00     0.198 A 
ATOM     87  F   UNL A   1      42.641  26.292  35.385  1.00  0.00    -0.203 F 
ATOM     88  F   UNL A   1      47.782  28.084  35.014  1.00  0.00    -0.200 F 
ATOM     89  C   UNL A   1      46.235  26.472  35.780  1.00  0.00     0.200 A 
ATOM     90  F   UNL A   1      44.655  24.877  36.510  1.00  0.00    -0.200 F 
ATOM     91  F   UNL A   1      47.231  25.749  36.311  1.00  0.00    -0.200 F 
ENDBRANCH  58  81
ENDBRANCH  32  33
ENDBRANCH  24  27
ENDBRANCH  22  23
ENDBRANCH  21  22
ENDBRANCH  20  21
ENDBRANCH   1  20
TORSDOF 16
ENDMDL
MODEL 3
REMARK VINA RESULT:     -11.4      5.835     11.465
REMARK SMILES CC(C)Cc1ccc([C@@H](C)C(=O)NCCCCCCNC(=O)c2ccc(-c3c4nc(c(-c5c(F)c(F)c(F)c(F)c5F)c5ccc([nH]5)c(-c5c(F)c(F)c(F)c(F)c5F)c5nc(c(-c6c(F)c(F)c(F)c(F)c6F)c6ccc3[nH]6)C=C5)C=C4)cc2)cc1
REMARK SMILES IDX 16 1 15 2 14 3 13 4 11 5 12 6 9 8 10 9 8 10 5 11 6 12 87 13
REMARK SMILES IDX 7 14 86 15 4 16 2 17 1 18 3 19 17 20 18 21 19 22 20 23 21 24
REMARK SMILES IDX 22 26 23 27 24 28 85 29 25 30 84 31 26 32 27 33 28 34 78 35
REMARK SMILES IDX 29 36 83 37 77 38 79 39 30 40 82 41 76 42 75 43 31 45 63 46
REMARK SMILES IDX 43 47 62 48 44 49 47 50 61 51 80 52 45 53 46 54 60 56 81 57
REMARK SMILES IDX 48 58 32 59 33 60 41 61 34 62 35 63 39 64 42 65 36 66 37 67
REMARK SMILES IDX 40 68 38 69 64 70 65 71 73 72 66 73 67 74 71 75 74 76 68 77
REMARK SMILES IDX 69 78 72 79 70 80 49 81 50 82 58 83 51 84 52 85 56 86 59 87
REMARK SMILES IDX 53 88 54 89 57 90 55 91
REMARK H PARENT 13 7 20 25 79 44 47 55
REMARK Flexibility Score: inf
ROOT
ATOM      1  C   UNL A   1      36.580  21.513  25.154  1.00  0.00     0.002 C 
ENDROOT
BRANCH   1   2
ATOM      2  C   UNL A   1      36.589  22.344  23.865  1.00  0.00     0.021 C 
BRANCH   2   3
ATOM      3  C   UNL A   1      35.439  23.347  23.761  1.00  0.00     0.116 C 
BRANCH   3   4
ATOM      4  N   UNL A   1      34.800  23.577  25.039  1.00  0.00    -0.356 N 
ATOM      5  C   UNL A   1      33.510  23.406  25.439  1.00  0.00     0.227 C 
ATOM      6  O   UNL A   1      33.232  23.762  26.590  1.00  0.00    -0.274 OA
ATOM      7  H   UNL A   1      35.403  23.914  25.741  1.00  0.00     0.163 HD
BRANCH   5   8
ATOM      8  C   UNL A   1      32.424  22.791  24.540  1.00  0.00     0.105 C 
ATOM      9  C   UNL A   1      31.036  23.386  24.781  1.00  0.00     0.023 C 
BRANCH   8  10
ATOM     10  C   UNL A   1      32.524  21.275  24.451  1.00  0.00    -0.036 A 
ATOM     11  C   UNL A   1      32.904  18.493  24.105  1.00  0.00    -0.048 A 
ATOM     12  C   UNL A   1      33.082  19.088  25.359  1.00  0.00     0.004 A 
ATOM     13  C   UNL A   1      32.477  19.286  23.038  1.00  0.00     0.004 A 
ATOM     14  C   UNL A   1      32.877  20.459  25.534  1.00  0.00     0.005 A 
ATOM     15  C   UNL A   1      32.298  20.661  23.208  1.00  0.00     0.005 A 
BRANCH  11  16
ATOM     16  C   UNL A   1      33.228  17.033  23.899  1.00  0.00     0.038 C 
BRANCH  16  17
ATOM     17  C   UNL A   1      33.571  16.293  25.209  1.00  0.00    -0.013 C 
ATOM     18  C   UNL A   1      32.687  15.061  25.438  1.00  0.00     0.008 C 
ATOM     19  C   UNL A   1      35.042  15.873  25.197  1.00  0.00     0.008 C 
ENDBRANCH  16  17
ENDBRANCH  11  16
ENDBRANCH   8  10
ENDBRANCH   5   8
ENDBRANCH   3   4
ENDBRANCH   2   3
ENDBRANCH   1   2
BRANCH   1  20
ATOM     20  C   UNL A   1      36.543  19.991  24.955  1.00  0.00     0.002 C 
BRANCH  20  21
ATOM     21  C   UNL A   1      37.906  19.290  24.935  1.00  0.00     0.021 C 
BRANCH  21  22
ATOM     22  C   UNL A   1      39.014  20.008  25.701  1.00  0.00     0.116 C 
BRANCH  22  23
ATOM     23  N   UNL A   1      40.158  19.145  25.943  1.00  0.00    -0.352 N 
ATOM     24  C   UNL A   1      41.467  19.464  26.201  1.00  0.00     0.251 C 
ATOM     25  H   UNL A   1      39.963  18.180  25.919  1.00  0.00     0.163 HD
ATOM     26  O   UNL A   1      42.326  18.589  26.175  1.00  0.00    -0.269 OA
BRANCH  24  27
ATOM     27  C   UNL A   1      41.858  20.859  26.503  1.00  0.00     0.039 A 
ATOM     28  C   UNL A   1      42.089  21.219  27.835  1.00  0.00     0.014 A 
ATOM     29  C   UNL A   1      41.943  21.825  25.495  1.00  0.00     0.014 A 
ATOM     30  C   UNL A   1      42.449  22.531  28.150  1.00  0.00     0.010 A 
ATOM     31  C   UNL A   1      42.364  23.117  25.802  1.00  0.00     0.010 A 
ATOM     32  C   UNL A   1      42.612  23.486  27.134  1.00  0.00    -0.014 A 
BRANCH  32  33
ATOM     33  C   UNL A   1      43.031  24.874  27.453  1.00  0.00     0.031 A 
ATOM     34  C   UNL A   1      44.440  25.323  27.180  1.00  0.00     0.074 A 
ATOM     35  C   UNL A   1      42.153  25.717  28.026  1.00  0.00     0.049 A 
ATOM     36  N   UNL A   1      44.998  26.485  27.415  1.00  0.00    -0.248 NA
ATOM     37  C   UNL A   1      45.347  24.329  26.589  1.00  0.00     0.031 C 
ATOM     38  C   UNL A   1      40.772  25.386  28.379  1.00  0.00     0.029 A 
ATOM     39  N   UNL A   1      42.293  27.025  28.416  1.00  0.00    -0.354 N 
ATOM     40  C   UNL A   1      46.320  26.358  27.008  1.00  0.00     0.074 A 
ATOM     41  C   UNL A   1      46.494  24.990  26.564  1.00  0.00     0.031 C 
ATOM     42  C   UNL A   1      40.182  26.472  28.903  1.00  0.00     0.029 A 
ATOM     43  C   UNL A   1      41.149  27.564  28.952  1.00  0.00     0.049 A 
ATOM     44  H   UNL A   1      43.133  27.530  28.321  1.00  0.00     0.167 HD
ATOM     45  C   UNL A   1      47.293  27.301  26.982  1.00  0.00     0.037 A 
ATOM     46  C   UNL A   1      40.908  28.801  29.424  1.00  0.00     0.037 A 
ATOM     47  C   UNL A   1      47.113  28.664  27.407  1.00  0.00     0.049 A 
ATOM     48  C   UNL A   1      42.005  29.829  29.388  1.00  0.00     0.074 A 
ATOM     49  C   UNL A   1      48.023  29.706  27.381  1.00  0.00     0.029 A 
ATOM     50  N   UNL A   1      45.937  29.175  27.937  1.00  0.00    -0.354 N 
ATOM     51  N   UNL A   1      43.235  29.713  28.948  1.00  0.00    -0.248 NA
ATOM     52  C   UNL A   1      41.676  31.163  29.908  1.00  0.00     0.031 C 
ATOM     53  C   UNL A   1      47.409  30.839  27.930  1.00  0.00     0.029 A 
ATOM     54  C   UNL A   1      46.103  30.514  28.257  1.00  0.00     0.049 A 
ATOM     55  H   UNL A   1      45.107  28.663  28.068  1.00  0.00     0.167 HD
ATOM     56  C   UNL A   1      43.817  30.963  29.111  1.00  0.00     0.074 A 
ATOM     57  C   UNL A   1      42.801  31.826  29.678  1.00  0.00     0.031 C 
ATOM     58  C   UNL A   1      45.080  31.360  28.817  1.00  0.00     0.037 A 
BRANCH  45  59
ATOM     59  C   UNL A   1      48.642  26.882  26.473  1.00  0.00     0.064 A 
ATOM     60  C   UNL A   1      49.606  26.321  27.326  1.00  0.00     0.173 A 
ATOM     61  C   UNL A   1      48.973  27.027  25.118  1.00  0.00     0.173 A 
ATOM     62  F   UNL A   1      49.344  26.171  28.634  1.00  0.00    -0.203 F 
ATOM     63  C   UNL A   1      50.862  25.955  26.848  1.00  0.00     0.198 A 
ATOM     64  C   UNL A   1      50.220  26.632  24.638  1.00  0.00     0.198 A 
ATOM     65  F   UNL A   1      48.088  27.551  24.257  1.00  0.00    -0.203 F 
ATOM     66  F   UNL A   1      51.785  25.475  27.694  1.00  0.00    -0.200 F 
ATOM     67  C   UNL A   1      51.166  26.106  25.504  1.00  0.00     0.200 A 
ATOM     68  F   UNL A   1      50.508  26.769  23.336  1.00  0.00    -0.200 F 
ATOM     69  F   UNL A   1      52.375  25.755  25.046  1.00  0.00    -0.200 F 
ENDBRANCH  45  59
BRANCH  46  70
ATOM     70  C   UNL A   1      39.555  29.151  29.925  1.00  0.00     0.064 A 
ATOM     71  C   UNL A   1      39.201  28.905  31.259  1.00  0.00     0.173 A 
ATOM     72  C   UNL A   1      38.594  29.740  29.091  1.00  0.00     0.173 A 
ATOM     73  F   UNL A   1      40.082  28.324  32.087  1.00  0.00    -0.203 F 
ATOM     74  C   UNL A   1      37.932  29.220  31.737  1.00  0.00     0.198 A 
ATOM     75  C   UNL A   1      37.332  30.077  29.577  1.00  0.00     0.198 A 
ATOM     76  F   UNL A   1      38.885  29.999  27.808  1.00  0.00    -0.203 F 
ATOM     77  F   UNL A   1      37.608  28.939  33.007  1.00  0.00    -0.200 F 
ATOM     78  C   UNL A   1      37.001  29.811  30.897  1.00  0.00     0.200 A 
ATOM     79  F   UNL A   1      36.438  30.660  28.767  1.00  0.00    -0.200 F 
ATOM     80  F   UNL A   1      35.781  30.120  31.359  1.00  0.00    -0.200 F 
ENDBRANCH  46  70
BRANCH  58  81
ATOM     81  C   UNL A   1      45.419  32.798  29.075  1.00  0.00     0.064 A 
ATOM     82  C   UNL A   1      45.187  33.793  28.115  1.00  0.00     0.173 A 
ATOM     83  C   UNL A   1      45.971  33.187  30.305  1.00  0.00     0.173 A 
ATOM     84  F   UNL A   1      44.677  33.469  26.917  1.00  0.00    -0.203 F 
ATOM     85  C   UNL A   1      45.520  35.122  28.366  1.00  0.00     0.198 A 
ATOM     86  C   UNL A   1      46.277  34.521  30.563  1.00  0.00     0.198 A 
ATOM     87  F   UNL A   1      46.209  32.274  31.259  1.00  0.00    -0.203 F 
ATOM     88  F   UNL A   1      45.339  36.047  27.413  1.00  0.00    -0.200 F 
ATOM     89  C   UNL A   1      46.061  35.484  29.590  1.00  0.00     0.200 A 
ATOM     90  F   UNL A   1      46.789  34.871  31.750  1.00  0.00    -0.200 F 
ATOM     91  F   UNL A   1      46.382  36.763  29.829  1.00  0.00    -0.200 F 
ENDBRANCH  58  81
ENDBRANCH  32  33
ENDBRANCH  24  27
ENDBRANCH  22  23
ENDBRANCH  21  22
ENDBRANCH  20  21
ENDBRANCH   1  20
TORSDOF 16
ENDMDL
