MODEL 1
REMARK VINA RESULT:     -12.6      0.000      0.000
REMARK SMILES COCCNC(=O)NC(=O)C[N@H+]1CC[C@H](C(=O)NCCCCCCNC(=O)c2ccc(-c3c4nc(c(-c5c(F)c(F)c(F)c(F)c5F)c5ccc([nH]5)c(-c5c(F)c(F)c(F)c(F)c5F)c5nc(c(-c6c(F)c(F)c(F)c(F)c6F)c6ccc3[nH]6)C=C5)C=C4)cc2)[C@@H]1C
REMARK SMILES IDX 20 1 19 2 18 3 16 4 17 5 15 7 12 8 13 9 91 10 14 12 92 13
REMARK SMILES IDX 11 14 9 15 5 16 6 17 7 19 8 20 10 22 4 23 3 24 2 25 1 26
REMARK SMILES IDX 21 27 22 28 23 29 24 30 25 31 26 32 27 34 28 35 29 36 90 37
REMARK SMILES IDX 30 38 89 39 31 40 32 41 33 42 83 43 34 44 88 45 82 46 84 47
REMARK SMILES IDX 35 48 87 49 81 50 80 51 36 53 68 54 48 55 67 56 49 57 52 58
REMARK SMILES IDX 66 59 85 60 50 61 51 62 65 64 86 65 53 66 37 67 38 68 46 69
REMARK SMILES IDX 39 70 40 71 44 72 47 73 41 74 42 75 45 76 43 77 69 78 70 79
REMARK SMILES IDX 78 80 71 81 72 82 76 83 79 84 73 85 74 86 77 87 75 88 54 89
REMARK SMILES IDX 55 90 63 91 56 92 57 93 61 94 64 95 58 96 59 97 62 98 60 99
REMARK H PARENT 18 6 12 11 5 18 8 21 25 33 84 52 52 63
REMARK Flexibility Score: inf
ROOT
ATOM      1  C   UNL A   1      32.961  28.942  26.373  1.00  0.00     0.021 C 
ENDROOT
BRANCH   1   2
ATOM      2  C   UNL A   1      32.831  27.432  26.686  1.00  0.00     0.116 C 
BRANCH   2   3
ATOM      3  N   UNL A   1      31.481  26.751  26.687  1.00  0.00    -0.356 N 
ATOM      4  C   UNL A   1      30.741  25.752  26.086  1.00  0.00     0.229 C 
ATOM      5  O   UNL A   1      29.628  25.586  26.619  1.00  0.00    -0.275 OA
ATOM      6  H   UNL A   1      30.918  27.183  27.371  1.00  0.00     0.163 HD
BRANCH   4   7
ATOM      7  C   UNL A   1      31.051  24.793  24.789  1.00  0.00     0.142 C 
ATOM      8  N   UNL A   1      33.960  23.887  23.886  1.00  0.00    -0.324 N 
ATOM      9  C   UNL A   1      33.302  25.025  22.450  1.00  0.00     0.263 C 
ATOM     10  C   UNL A   1      32.604  23.625  25.208  1.00  0.00     0.194 C 
ATOM     11  H   UNL A   1      34.744  24.426  24.255  1.00  0.00     0.348 HD
ATOM     12  C   UNL A   1      31.353  25.468  22.884  1.00  0.00     0.081 C 
ATOM     13  C   UNL A   1      33.052  23.397  26.651  1.00  0.00     0.076 C 
BRANCH   8  14
ATOM     14  C   UNL A   1      34.603  22.611  23.533  1.00  0.00     0.364 C 
BRANCH  14  15
ATOM     15  C   UNL A   1      36.090  22.722  23.366  1.00  0.00     0.283 C 
ATOM     16  N   UNL A   1      35.811  20.251  25.362  1.00  0.00    -0.335 N 
ATOM     17  C   UNL A   1      36.859  21.094  25.216  1.00  0.00     0.321 C 
ATOM     18  H   UNL A   1      36.039  19.490  25.945  1.00  0.00     0.165 HD
ATOM     19  O   UNL A   1      37.879  20.847  25.863  1.00  0.00    -0.248 OA
ATOM     20  N   UNL A   1      36.906  22.108  24.301  1.00  0.00    -0.273 N 
ATOM     21  H   UNL A   1      37.794  22.534  24.310  1.00  0.00     0.175 HD
ATOM     22  O   UNL A   1      36.598  23.398  22.468  1.00  0.00    -0.268 OA
BRANCH  16  23
ATOM     23  C   UNL A   1      34.284  20.154  24.839  1.00  0.00     0.146 C 
BRANCH  23  24
ATOM     24  C   UNL A   1      33.000  18.444  24.365  1.00  0.00     0.181 C 
BRANCH  24  25
ATOM     25  O   UNL A   1      32.223  17.466  25.351  1.00  0.00    -0.383 OA
ATOM     26  C   UNL A   1      32.513  16.063  25.590  1.00  0.00     0.194 C 
ENDBRANCH  24  25
ENDBRANCH  23  24
ENDBRANCH  16  23
ENDBRANCH  14  15
ENDBRANCH   8  14
ENDBRANCH   4   7
ENDBRANCH   2   3
ENDBRANCH   1   2
BRANCH   1  27
ATOM     27  C   UNL A   1      31.873  29.857  26.928  1.00  0.00     0.002 C 
BRANCH  27  28
ATOM     28  C   UNL A   1      31.349  30.915  25.965  1.00  0.00     0.002 C 
BRANCH  28  29
ATOM     29  C   UNL A   1      31.264  32.335  26.531  1.00  0.00     0.021 C 
BRANCH  29  30
ATOM     30  C   UNL A   1      32.524  32.826  27.244  1.00  0.00     0.116 C 
BRANCH  30  31
ATOM     31  N   UNL A   1      32.426  34.233  27.605  1.00  0.00    -0.352 N 
ATOM     32  C   UNL A   1      33.011  34.919  28.638  1.00  0.00     0.251 C 
ATOM     33  H   UNL A   1      31.853  34.776  27.016  1.00  0.00     0.163 HD
ATOM     34  O   UNL A   1      32.578  36.017  28.973  1.00  0.00    -0.269 OA
BRANCH  32  35
ATOM     35  C   UNL A   1      34.172  34.342  29.347  1.00  0.00     0.039 A 
ATOM     36  C   UNL A   1      33.965  33.636  30.535  1.00  0.00     0.014 A 
ATOM     37  C   UNL A   1      35.469  34.546  28.867  1.00  0.00     0.014 A 
ATOM     38  C   UNL A   1      35.056  33.092  31.214  1.00  0.00     0.010 A 
ATOM     39  C   UNL A   1      36.547  33.941  29.505  1.00  0.00     0.010 A 
ATOM     40  C   UNL A   1      36.353  33.217  30.690  1.00  0.00    -0.014 A 
BRANCH  40  41
ATOM     41  C   UNL A   1      37.521  32.601  31.370  1.00  0.00     0.031 A 
ATOM     42  C   UNL A   1      38.243  31.446  30.734  1.00  0.00     0.074 A 
ATOM     43  C   UNL A   1      37.881  33.039  32.592  1.00  0.00     0.049 A 
ATOM     44  N   UNL A   1      39.235  30.731  31.202  1.00  0.00    -0.248 NA
ATOM     45  C   UNL A   1      37.771  31.017  29.408  1.00  0.00     0.031 C 
ATOM     46  C   UNL A   1      37.222  34.117  33.331  1.00  0.00     0.029 A 
ATOM     47  N   UNL A   1      38.881  32.622  33.436  1.00  0.00    -0.354 N 
ATOM     48  C   UNL A   1      39.489  29.761  30.242  1.00  0.00     0.074 A 
ATOM     49  C   UNL A   1      38.520  29.947  29.185  1.00  0.00     0.031 C 
ATOM     50  C   UNL A   1      37.842  34.286  34.510  1.00  0.00     0.029 A 
ATOM     51  C   UNL A   1      38.913  33.302  34.629  1.00  0.00     0.049 A 
ATOM     52  H   UNL A   1      39.514  31.904  33.207  1.00  0.00     0.167 HD
ATOM     53  C   UNL A   1      40.455  28.812  30.236  1.00  0.00     0.037 A 
ATOM     54  C   UNL A   1      39.708  33.139  35.705  1.00  0.00     0.037 A 
ATOM     55  C   UNL A   1      41.435  28.654  31.279  1.00  0.00     0.049 A 
ATOM     56  C   UNL A   1      40.776  32.078  35.667  1.00  0.00     0.074 A 
ATOM     57  C   UNL A   1      42.508  27.783  31.329  1.00  0.00     0.029 A 
ATOM     58  N   UNL A   1      41.455  29.381  32.462  1.00  0.00    -0.354 N 
ATOM     59  N   UNL A   1      41.067  31.229  34.712  1.00  0.00    -0.248 NA
ATOM     60  C   UNL A   1      41.633  31.959  36.855  1.00  0.00     0.031 C 
ATOM     61  C   UNL A   1      43.139  27.935  32.567  1.00  0.00     0.029 A 
ATOM     62  C   UNL A   1      42.501  28.951  33.261  1.00  0.00     0.049 A 
ATOM     63  H   UNL A   1      40.820  30.095  32.697  1.00  0.00     0.167 HD
ATOM     64  C   UNL A   1      42.156  30.498  35.168  1.00  0.00     0.074 A 
ATOM     65  C   UNL A   1      42.486  31.017  36.479  1.00  0.00     0.031 C 
ATOM     66  C   UNL A   1      42.823  29.487  34.559  1.00  0.00     0.037 A 
BRANCH  53  67
ATOM     67  C   UNL A   1      40.505  27.861  29.075  1.00  0.00     0.064 A 
ATOM     68  C   UNL A   1      39.713  26.703  29.031  1.00  0.00     0.173 A 
ATOM     69  C   UNL A   1      41.307  28.147  27.959  1.00  0.00     0.173 A 
ATOM     70  F   UNL A   1      38.934  26.377  30.073  1.00  0.00    -0.203 F 
ATOM     71  C   UNL A   1      39.741  25.858  27.924  1.00  0.00     0.198 A 
ATOM     72  C   UNL A   1      41.309  27.317  26.842  1.00  0.00     0.198 A 
ATOM     73  F   UNL A   1      42.079  29.244  27.946  1.00  0.00    -0.203 F 
ATOM     74  F   UNL A   1      39.007  24.735  27.923  1.00  0.00    -0.200 F 
ATOM     75  C   UNL A   1      40.530  26.170  26.828  1.00  0.00     0.200 A 
ATOM     76  F   UNL A   1      42.058  27.629  25.776  1.00  0.00    -0.200 F 
ATOM     77  F   UNL A   1      40.542  25.364  25.757  1.00  0.00    -0.200 F 
ENDBRANCH  53  67
BRANCH  54  78
ATOM     78  C   UNL A   1      39.529  33.998  36.905  1.00  0.00     0.064 A 
ATOM     79  C   UNL A   1      40.135  35.261  36.988  1.00  0.00     0.173 A 
ATOM     80  C   UNL A   1      38.773  33.566  38.004  1.00  0.00     0.173 A 
ATOM     81  F   UNL A   1      40.884  35.713  35.971  1.00  0.00    -0.203 F 
ATOM     82  C   UNL A   1      40.019  36.041  38.137  1.00  0.00     0.198 A 
ATOM     83  C   UNL A   1      38.629  34.364  39.138  1.00  0.00     0.198 A 
ATOM     84  F   UNL A   1      38.165  32.372  37.975  1.00  0.00    -0.203 F 
ATOM     85  F   UNL A   1      40.660  37.215  38.214  1.00  0.00    -0.200 F 
ATOM     86  C   UNL A   1      39.263  35.594  39.209  1.00  0.00     0.200 A 
ATOM     87  F   UNL A   1      37.881  33.935  40.165  1.00  0.00    -0.200 F 
ATOM     88  F   UNL A   1      39.154  36.344  40.314  1.00  0.00    -0.200 F 
ENDBRANCH  54  78
BRANCH  66  89
ATOM     89  C   UNL A   1      44.003  28.903  35.282  1.00  0.00     0.064 A 
ATOM     90  C   UNL A   1      45.301  29.405  35.107  1.00  0.00     0.173 A 
ATOM     91  C   UNL A   1      43.822  27.852  36.195  1.00  0.00     0.173 A 
ATOM     92  F   UNL A   1      45.529  30.399  34.236  1.00  0.00    -0.203 F 
ATOM     93  C   UNL A   1      46.378  28.857  35.798  1.00  0.00     0.198 A 
ATOM     94  C   UNL A   1      44.896  27.331  36.910  1.00  0.00     0.198 A 
ATOM     95  F   UNL A   1      42.601  27.340  36.406  1.00  0.00    -0.203 F 
ATOM     96  F   UNL A   1      47.618  29.317  35.574  1.00  0.00    -0.200 F 
ATOM     97  C   UNL A   1      46.174  27.827  36.704  1.00  0.00     0.200 A 
ATOM     98  F   UNL A   1      44.695  26.349  37.799  1.00  0.00    -0.200 F 
ATOM     99  F   UNL A   1      47.212  27.309  37.375  1.00  0.00    -0.200 F 
ENDBRANCH  66  89
ENDBRANCH  40  41
ENDBRANCH  32  35
ENDBRANCH  30  31
ENDBRANCH  29  30
ENDBRANCH  28  29
ENDBRANCH  27  28
ENDBRANCH   1  27
TORSDOF 18
ENDMDL
MODEL 2
REMARK VINA RESULT:     -12.5      4.781      9.017
REMARK SMILES COCCNC(=O)NC(=O)C[N@H+]1CC[C@H](C(=O)NCCCCCCNC(=O)c2ccc(-c3c4nc(c(-c5c(F)c(F)c(F)c(F)c5F)c5ccc([nH]5)c(-c5c(F)c(F)c(F)c(F)c5F)c5nc(c(-c6c(F)c(F)c(F)c(F)c6F)c6ccc3[nH]6)C=C5)C=C4)cc2)[C@@H]1C
REMARK SMILES IDX 20 1 19 2 18 3 16 4 17 5 15 7 12 8 13 9 91 10 14 12 92 13
REMARK SMILES IDX 11 14 9 15 5 16 6 17 7 19 8 20 10 22 4 23 3 24 2 25 1 26
REMARK SMILES IDX 21 27 22 28 23 29 24 30 25 31 26 32 27 34 28 35 29 36 90 37
REMARK SMILES IDX 30 38 89 39 31 40 32 41 33 42 83 43 34 44 88 45 82 46 84 47
REMARK SMILES IDX 35 48 87 49 81 50 80 51 36 53 68 54 48 55 67 56 49 57 52 58
REMARK SMILES IDX 66 59 85 60 50 61 51 62 65 64 86 65 53 66 37 67 38 68 46 69
REMARK SMILES IDX 39 70 40 71 44 72 47 73 41 74 42 75 45 76 43 77 69 78 70 79
REMARK SMILES IDX 78 80 71 81 72 82 76 83 79 84 73 85 74 86 77 87 75 88 54 89
REMARK SMILES IDX 55 90 63 91 56 92 57 93 61 94 64 95 58 96 59 97 62 98 60 99
REMARK H PARENT 18 6 12 11 5 18 8 21 25 33 84 52 52 63
REMARK Flexibility Score: inf
ROOT
ATOM      1  C   UNL A   1      33.210  21.357  24.625  1.00  0.00     0.021 C 
ENDROOT
BRANCH   1   2
ATOM      2  C   UNL A   1      31.739  21.058  24.999  1.00  0.00     0.116 C 
BRANCH   2   3
ATOM      3  N   UNL A   1      31.005  21.909  26.012  1.00  0.00    -0.356 N 
ATOM      4  C   UNL A   1      31.035  23.121  26.673  1.00  0.00     0.229 C 
ATOM      5  O   UNL A   1      30.025  23.316  27.374  1.00  0.00    -0.275 OA
ATOM      6  H   UNL A   1      30.210  21.413  26.314  1.00  0.00     0.163 HD
BRANCH   4   7
ATOM      7  C   UNL A   1      32.168  24.309  26.727  1.00  0.00     0.142 C 
ATOM      8  N   UNL A   1      33.121  25.990  24.203  1.00  0.00    -0.324 N 
ATOM      9  C   UNL A   1      34.677  24.958  24.757  1.00  0.00     0.263 C 
ATOM     10  C   UNL A   1      31.675  25.730  25.426  1.00  0.00     0.194 C 
ATOM     11  H   UNL A   1      32.910  25.599  23.285  1.00  0.00     0.348 HD
ATOM     12  C   UNL A   1      34.178  24.015  26.501  1.00  0.00     0.081 C 
ATOM     13  C   UNL A   1      30.253  25.838  24.879  1.00  0.00     0.076 C 
BRANCH   8  14
ATOM     14  C   UNL A   1      33.299  27.418  23.896  1.00  0.00     0.364 C 
BRANCH  14  15
ATOM     15  C   UNL A   1      33.149  27.736  22.437  1.00  0.00     0.283 C 
ATOM     16  N   UNL A   1      30.828  29.480  23.755  1.00  0.00    -0.335 N 
ATOM     17  C   UNL A   1      30.896  28.996  22.494  1.00  0.00     0.321 C 
ATOM     18  H   UNL A   1      30.074  30.106  23.860  1.00  0.00     0.165 HD
ATOM     19  O   UNL A   1      30.004  29.327  21.710  1.00  0.00    -0.248 OA
ATOM     20  N   UNL A   1      31.956  28.286  22.001  1.00  0.00    -0.273 N 
ATOM     21  H   UNL A   1      31.831  28.112  21.039  1.00  0.00     0.175 HD
ATOM     22  O   UNL A   1      34.025  27.455  21.615  1.00  0.00    -0.268 OA
BRANCH  16  23
ATOM     23  C   UNL A   1      31.649  29.311  25.137  1.00  0.00     0.146 C 
BRANCH  23  24
ATOM     24  C   UNL A   1      32.331  30.764  26.629  1.00  0.00     0.181 C 
BRANCH  24  25
ATOM     25  O   UNL A   1      33.482  30.621  27.718  1.00  0.00    -0.383 OA
ATOM     26  C   UNL A   1      34.781  29.996  27.532  1.00  0.00     0.194 C 
ENDBRANCH  24  25
ENDBRANCH  23  24
ENDBRANCH  16  23
ENDBRANCH  14  15
ENDBRANCH   8  14
ENDBRANCH   4   7
ENDBRANCH   2   3
ENDBRANCH   1   2
BRANCH   1  27
ATOM     27  C   UNL A   1      34.149  20.159  24.511  1.00  0.00     0.002 C 
BRANCH  27  28
ATOM     28  C   UNL A   1      35.559  20.376  25.047  1.00  0.00     0.002 C 
BRANCH  28  29
ATOM     29  C   UNL A   1      36.336  21.529  24.405  1.00  0.00     0.021 C 
BRANCH  29  30
ATOM     30  C   UNL A   1      37.386  22.184  25.303  1.00  0.00     0.116 C 
BRANCH  30  31
ATOM     31  N   UNL A   1      38.216  21.193  25.973  1.00  0.00    -0.352 N 
ATOM     32  C   UNL A   1      39.476  21.313  26.501  1.00  0.00     0.251 C 
ATOM     33  H   UNL A   1      37.811  20.300  26.060  1.00  0.00     0.163 HD
ATOM     34  O   UNL A   1      40.140  20.311  26.745  1.00  0.00    -0.269 OA
BRANCH  32  35
ATOM     35  C   UNL A   1      40.035  22.650  26.787  1.00  0.00     0.039 A 
ATOM     36  C   UNL A   1      41.050  22.775  27.739  1.00  0.00     0.014 A 
ATOM     37  C   UNL A   1      39.519  23.785  26.156  1.00  0.00     0.014 A 
ATOM     38  C   UNL A   1      41.582  24.035  28.020  1.00  0.00     0.010 A 
ATOM     39  C   UNL A   1      40.100  25.029  26.383  1.00  0.00     0.010 A 
ATOM     40  C   UNL A   1      41.130  25.168  27.324  1.00  0.00    -0.014 A 
BRANCH  40  41
ATOM     41  C   UNL A   1      41.719  26.509  27.571  1.00  0.00     0.031 A 
ATOM     42  C   UNL A   1      43.109  26.824  27.093  1.00  0.00     0.074 A 
ATOM     43  C   UNL A   1      41.025  27.414  28.288  1.00  0.00     0.049 A 
ATOM     44  N   UNL A   1      43.821  27.908  27.273  1.00  0.00    -0.248 NA
ATOM     45  C   UNL A   1      43.805  25.771  26.335  1.00  0.00     0.031 C 
ATOM     46  C   UNL A   1      39.689  27.203  28.849  1.00  0.00     0.029 A 
ATOM     47  N   UNL A   1      41.351  28.688  28.682  1.00  0.00    -0.354 N 
ATOM     48  C   UNL A   1      45.048  27.659  26.673  1.00  0.00     0.074 A 
ATOM     49  C   UNL A   1      45.004  26.307  26.162  1.00  0.00     0.031 C 
ATOM     50  C   UNL A   1      39.305  28.311  29.502  1.00  0.00     0.029 A 
ATOM     51  C   UNL A   1      40.382  29.295  29.443  1.00  0.00     0.049 A 
ATOM     52  H   UNL A   1      42.200  29.125  28.441  1.00  0.00     0.167 HD
ATOM     53  C   UNL A   1      46.109  28.492  26.546  1.00  0.00     0.037 A 
ATOM     54  C   UNL A   1      40.369  30.503  30.039  1.00  0.00     0.037 A 
ATOM     55  C   UNL A   1      46.131  29.847  27.030  1.00  0.00     0.049 A 
ATOM     56  C   UNL A   1      41.562  31.407  29.875  1.00  0.00     0.074 A 
ATOM     57  C   UNL A   1      47.121  30.801  26.876  1.00  0.00     0.029 A 
ATOM     58  N   UNL A   1      45.119  30.439  27.773  1.00  0.00    -0.354 N 
ATOM     59  N   UNL A   1      42.680  31.196  29.224  1.00  0.00    -0.248 NA
ATOM     60  C   UNL A   1      41.487  32.725  30.524  1.00  0.00     0.031 C 
ATOM     61  C   UNL A   1      46.738  31.947  27.579  1.00  0.00     0.029 A 
ATOM     62  C   UNL A   1      45.477  31.733  28.113  1.00  0.00     0.049 A 
ATOM     63  H   UNL A   1      44.271  30.003  28.020  1.00  0.00     0.167 HD
ATOM     64  C   UNL A   1      43.426  32.360  29.357  1.00  0.00     0.074 A 
ATOM     65  C   UNL A   1      42.625  33.282  30.135  1.00  0.00     0.031 C 
ATOM     66  C   UNL A   1      44.663  32.641  28.879  1.00  0.00     0.037 A 
BRANCH  53  67
ATOM     67  C   UNL A   1      47.340  27.968  25.862  1.00  0.00     0.064 A 
ATOM     68  C   UNL A   1      47.438  27.900  24.465  1.00  0.00     0.173 A 
ATOM     69  C   UNL A   1      48.462  27.592  26.617  1.00  0.00     0.173 A 
ATOM     70  F   UNL A   1      46.393  28.240  23.696  1.00  0.00    -0.203 F 
ATOM     71  C   UNL A   1      48.606  27.454  23.850  1.00  0.00     0.198 A 
ATOM     72  C   UNL A   1      49.637  27.176  25.998  1.00  0.00     0.198 A 
ATOM     73  F   UNL A   1      48.424  27.643  27.957  1.00  0.00    -0.203 F 
ATOM     74  F   UNL A   1      48.662  27.358  22.513  1.00  0.00    -0.200 F 
ATOM     75  C   UNL A   1      49.706  27.102  24.615  1.00  0.00     0.200 A 
ATOM     76  F   UNL A   1      50.706  26.853  26.739  1.00  0.00    -0.200 F 
ATOM     77  F   UNL A   1      50.834  26.689  24.021  1.00  0.00    -0.200 F 
ENDBRANCH  53  67
BRANCH  54  78
ATOM     78  C   UNL A   1      39.193  30.929  30.842  1.00  0.00     0.064 A 
ATOM     79  C   UNL A   1      39.142  30.708  32.226  1.00  0.00     0.173 A 
ATOM     80  C   UNL A   1      38.084  31.542  30.241  1.00  0.00     0.173 A 
ATOM     81  F   UNL A   1      40.169  30.109  32.847  1.00  0.00    -0.203 F 
ATOM     82  C   UNL A   1      38.015  31.051  32.969  1.00  0.00     0.198 A 
ATOM     83  C   UNL A   1      36.971  31.916  30.992  1.00  0.00     0.198 A 
ATOM     84  F   UNL A   1      38.082  31.785  28.922  1.00  0.00    -0.203 F 
ATOM     85  F   UNL A   1      37.968  30.771  34.279  1.00  0.00    -0.200 F 
ATOM     86  C   UNL A   1      36.932  31.659  32.353  1.00  0.00     0.200 A 
ATOM     87  F   UNL A   1      35.935  32.522  30.394  1.00  0.00    -0.200 F 
ATOM     88  F   UNL A   1      35.848  31.987  33.069  1.00  0.00    -0.200 F 
ENDBRANCH  54  78
BRANCH  66  89
ATOM     89  C   UNL A   1      45.211  34.013  29.146  1.00  0.00     0.064 A 
ATOM     90  C   UNL A   1      45.998  34.290  30.274  1.00  0.00     0.173 A 
ATOM     91  C   UNL A   1      44.978  35.057  28.236  1.00  0.00     0.173 A 
ATOM     92  F   UNL A   1      46.238  33.332  31.182  1.00  0.00    -0.203 F 
ATOM     93  C   UNL A   1      46.506  35.567  30.495  1.00  0.00     0.198 A 
ATOM     94  C   UNL A   1      45.519  36.322  28.441  1.00  0.00     0.198 A 
ATOM     95  F   UNL A   1      44.239  34.844  27.137  1.00  0.00    -0.203 F 
ATOM     96  F   UNL A   1      47.210  35.822  31.607  1.00  0.00    -0.200 F 
ATOM     97  C   UNL A   1      46.274  36.579  29.575  1.00  0.00     0.200 A 
ATOM     98  F   UNL A   1      45.308  37.293  27.542  1.00  0.00    -0.200 F 
ATOM     99  F   UNL A   1      46.774  37.804  29.785  1.00  0.00    -0.200 F 
ENDBRANCH  66  89
ENDBRANCH  40  41
ENDBRANCH  32  35
ENDBRANCH  30  31
ENDBRANCH  29  30
ENDBRANCH  28  29
ENDBRANCH  27  28
ENDBRANCH   1  27
TORSDOF 18
ENDMDL
MODEL 3
REMARK VINA RESULT:     -12.1      6.034     10.947
REMARK SMILES COCCNC(=O)NC(=O)C[N@H+]1CC[C@H](C(=O)NCCCCCCNC(=O)c2ccc(-c3c4nc(c(-c5c(F)c(F)c(F)c(F)c5F)c5ccc([nH]5)c(-c5c(F)c(F)c(F)c(F)c5F)c5nc(c(-c6c(F)c(F)c(F)c(F)c6F)c6ccc3[nH]6)C=C5)C=C4)cc2)[C@@H]1C
REMARK SMILES IDX 20 1 19 2 18 3 16 4 17 5 15 7 12 8 13 9 91 10 14 12 92 13
REMARK SMILES IDX 11 14 9 15 5 16 6 17 7 19 8 20 10 22 4 23 3 24 2 25 1 26
REMARK SMILES IDX 21 27 22 28 23 29 24 30 25 31 26 32 27 34 28 35 29 36 90 37
REMARK SMILES IDX 30 38 89 39 31 40 32 41 33 42 83 43 34 44 88 45 82 46 84 47
REMARK SMILES IDX 35 48 87 49 81 50 80 51 36 53 68 54 48 55 67 56 49 57 52 58
REMARK SMILES IDX 66 59 85 60 50 61 51 62 65 64 86 65 53 66 37 67 38 68 46 69
REMARK SMILES IDX 39 70 40 71 44 72 47 73 41 74 42 75 45 76 43 77 69 78 70 79
REMARK SMILES IDX 78 80 71 81 72 82 76 83 79 84 73 85 74 86 77 87 75 88 54 89
REMARK SMILES IDX 55 90 63 91 56 92 57 93 61 94 64 95 58 96 59 97 62 98 60 99
REMARK H PARENT 18 6 12 11 5 18 8 21 25 33 84 52 52 63
REMARK Flexibility Score: inf
ROOT
ATOM      1  C   UNL A   1      40.341  22.854  26.986  1.00  0.00     0.021 C 
ENDROOT
BRANCH   1   2
ATOM      2  C   UNL A   1      38.953  22.739  26.312  1.00  0.00     0.116 C 
BRANCH   2   3
ATOM      3  N   UNL A   1      38.486  21.431  25.711  1.00  0.00    -0.356 N 
ATOM      4  C   UNL A   1      37.378  20.768  25.221  1.00  0.00     0.229 C 
ATOM      5  O   UNL A   1      37.655  19.654  24.740  1.00  0.00    -0.275 OA
ATOM      6  H   UNL A   1      39.261  20.827  25.648  1.00  0.00     0.163 HD
BRANCH   4   7
ATOM      7  C   UNL A   1      35.785  21.168  25.201  1.00  0.00     0.142 C 
ATOM      8  N   UNL A   1      34.685  24.120  24.778  1.00  0.00    -0.324 N 
ATOM      9  C   UNL A   1      34.184  23.635  26.597  1.00  0.00     0.263 C 
ATOM     10  C   UNL A   1      35.506  22.638  23.892  1.00  0.00     0.194 C 
ATOM     11  H   UNL A   1      35.347  24.882  24.926  1.00  0.00     0.348 HD
ATOM     12  C   UNL A   1      34.687  21.669  26.851  1.00  0.00     0.081 C 
ATOM     13  C   UNL A   1      36.546  22.941  22.814  1.00  0.00     0.076 C 
BRANCH   8  14
ATOM     14  C   UNL A   1      33.674  24.753  23.917  1.00  0.00     0.364 C 
BRANCH  14  15
ATOM     15  C   UNL A   1      33.125  26.029  24.484  1.00  0.00     0.283 C 
ATOM     16  N   UNL A   1      30.475  24.381  23.826  1.00  0.00    -0.335 N 
ATOM     17  C   UNL A   1      30.626  25.722  23.909  1.00  0.00     0.321 C 
ATOM     18  H   UNL A   1      29.526  24.130  23.751  1.00  0.00     0.165 HD
ATOM     19  O   UNL A   1      29.611  26.415  23.805  1.00  0.00    -0.248 OA
ATOM     20  N   UNL A   1      31.799  26.344  24.237  1.00  0.00    -0.273 N 
ATOM     21  H   UNL A   1      31.657  27.315  24.324  1.00  0.00     0.175 HD
ATOM     22  O   UNL A   1      33.835  26.830  25.096  1.00  0.00    -0.268 OA
BRANCH  16  23
ATOM     23  C   UNL A   1      31.431  23.077  23.817  1.00  0.00     0.146 C 
BRANCH  23  24
ATOM     24  C   UNL A   1      31.695  21.439  25.247  1.00  0.00     0.181 C 
BRANCH  24  25
ATOM     25  O   UNL A   1      31.894  19.885  24.970  1.00  0.00    -0.383 OA
ATOM     26  C   UNL A   1      32.762  19.285  23.970  1.00  0.00     0.194 C 
ENDBRANCH  24  25
ENDBRANCH  23  24
ENDBRANCH  16  23
ENDBRANCH  14  15
ENDBRANCH   8  14
ENDBRANCH   4   7
ENDBRANCH   2   3
ENDBRANCH   1   2
BRANCH   1  27
ATOM     27  C   UNL A   1      41.426  21.898  26.497  1.00  0.00     0.002 C 
BRANCH  27  28
ATOM     28  C   UNL A   1      41.957  20.919  27.537  1.00  0.00     0.002 C 
BRANCH  28  29
ATOM     29  C   UNL A   1      42.456  19.580  26.984  1.00  0.00     0.021 C 
BRANCH  29  30
ATOM     30  C   UNL A   1      42.362  19.429  25.466  1.00  0.00     0.116 C 
BRANCH  30  31
ATOM     31  N   UNL A   1      43.631  19.018  24.885  1.00  0.00    -0.352 N 
ATOM     32  C   UNL A   1      44.693  19.775  24.463  1.00  0.00     0.251 C 
ATOM     33  H   UNL A   1      43.745  18.045  24.778  1.00  0.00     0.163 HD
ATOM     34  O   UNL A   1      45.541  19.290  23.721  1.00  0.00    -0.269 OA
BRANCH  32  35
ATOM     35  C   UNL A   1      44.826  21.178  24.909  1.00  0.00     0.039 A 
ATOM     36  C   UNL A   1      45.386  21.446  26.161  1.00  0.00     0.014 A 
ATOM     37  C   UNL A   1      44.347  22.223  24.115  1.00  0.00     0.014 A 
ATOM     38  C   UNL A   1      45.511  22.768  26.593  1.00  0.00     0.010 A 
ATOM     39  C   UNL A   1      44.540  23.542  24.514  1.00  0.00     0.010 A 
ATOM     40  C   UNL A   1      45.115  23.827  25.761  1.00  0.00    -0.014 A 
BRANCH  40  41
ATOM     41  C   UNL A   1      45.288  25.241  26.180  1.00  0.00     0.031 A 
ATOM     42  C   UNL A   1      46.643  25.889  26.114  1.00  0.00     0.074 A 
ATOM     43  C   UNL A   1      44.236  25.914  26.686  1.00  0.00     0.049 A 
ATOM     44  N   UNL A   1      47.009  27.086  26.500  1.00  0.00    -0.248 NA
ATOM     45  C   UNL A   1      47.742  25.076  25.567  1.00  0.00     0.031 C 
ATOM     46  C   UNL A   1      42.886  25.373  26.849  1.00  0.00     0.029 A 
ATOM     47  N   UNL A   1      44.140  27.195  27.173  1.00  0.00    -0.354 N 
ATOM     48  C   UNL A   1      48.375  27.158  26.263  1.00  0.00     0.074 A 
ATOM     49  C   UNL A   1      48.785  25.873  25.743  1.00  0.00     0.031 C 
ATOM     50  C   UNL A   1      42.094  26.316  27.383  1.00  0.00     0.029 A 
ATOM     51  C   UNL A   1      42.888  27.513  27.641  1.00  0.00     0.049 A 
ATOM     52  H   UNL A   1      44.897  27.824  27.185  1.00  0.00     0.167 HD
ATOM     53  C   UNL A   1      49.208  28.211  26.449  1.00  0.00     0.037 A 
ATOM     54  C   UNL A   1      42.437  28.640  28.226  1.00  0.00     0.037 A 
ATOM     55  C   UNL A   1      48.784  29.496  26.938  1.00  0.00     0.049 A 
ATOM     56  C   UNL A   1      43.386  29.794  28.414  1.00  0.00     0.074 A 
ATOM     57  C   UNL A   1      49.530  30.653  27.079  1.00  0.00     0.029 A 
ATOM     58  N   UNL A   1      47.501  29.793  27.376  1.00  0.00    -0.354 N 
ATOM     59  N   UNL A   1      44.655  29.883  28.098  1.00  0.00    -0.248 NA
ATOM     60  C   UNL A   1      42.836  31.008  29.033  1.00  0.00     0.031 C 
ATOM     61  C   UNL A   1      48.716  31.630  27.663  1.00  0.00     0.029 A 
ATOM     62  C   UNL A   1      47.444  31.103  27.820  1.00  0.00     0.049 A 
ATOM     63  H   UNL A   1      46.743  29.164  27.371  1.00  0.00     0.167 HD
ATOM     64  C   UNL A   1      45.047  31.168  28.449  1.00  0.00     0.074 A 
ATOM     65  C   UNL A   1      43.875  31.829  28.985  1.00  0.00     0.031 C 
ATOM     66  C   UNL A   1      46.267  31.750  28.340  1.00  0.00     0.037 A 
BRANCH  53  67
ATOM     67  C   UNL A   1      50.663  28.024  26.130  1.00  0.00     0.064 A 
ATOM     68  C   UNL A   1      51.162  28.179  24.828  1.00  0.00     0.173 A 
ATOM     69  C   UNL A   1      51.583  27.751  27.154  1.00  0.00     0.173 A 
ATOM     70  F   UNL A   1      50.326  28.434  23.810  1.00  0.00    -0.203 F 
ATOM     71  C   UNL A   1      52.523  28.046  24.561  1.00  0.00     0.198 A 
ATOM     72  C   UNL A   1      52.946  27.649  26.889  1.00  0.00     0.198 A 
ATOM     73  F   UNL A   1      51.161  27.598  28.419  1.00  0.00    -0.203 F 
ATOM     74  F   UNL A   1      52.970  28.159  23.302  1.00  0.00    -0.200 F 
ATOM     75  C   UNL A   1      53.414  27.791  25.592  1.00  0.00     0.200 A 
ATOM     76  F   UNL A   1      53.808  27.420  27.889  1.00  0.00    -0.200 F 
ATOM     77  F   UNL A   1      54.725  27.680  25.335  1.00  0.00    -0.200 F 
ENDBRANCH  53  67
BRANCH  54  78
ATOM     78  C   UNL A   1      41.022  28.735  28.673  1.00  0.00     0.064 A 
ATOM     79  C   UNL A   1      40.656  28.416  29.989  1.00  0.00     0.173 A 
ATOM     80  C   UNL A   1      40.003  29.120  27.790  1.00  0.00     0.173 A 
ATOM     81  F   UNL A   1      41.590  28.025  30.868  1.00  0.00    -0.203 F 
ATOM     82  C   UNL A   1      39.323  28.445  30.393  1.00  0.00     0.198 A 
ATOM     83  C   UNL A   1      38.674  29.182  28.206  1.00  0.00     0.198 A 
ATOM     84  F   UNL A   1      40.297  29.443  26.523  1.00  0.00    -0.203 F 
ATOM     85  F   UNL A   1      38.994  28.075  31.639  1.00  0.00    -0.200 F 
ATOM     86  C   UNL A   1      38.333  28.833  29.503  1.00  0.00     0.200 A 
ATOM     87  F   UNL A   1      37.723  29.577  27.347  1.00  0.00    -0.200 F 
ATOM     88  F   UNL A   1      37.051  28.858  29.892  1.00  0.00    -0.200 F 
ENDBRANCH  54  78
BRANCH  66  89
ATOM     89  C   UNL A   1      46.389  33.184  28.767  1.00  0.00     0.064 A 
ATOM     90  C   UNL A   1      46.755  33.539  30.074  1.00  0.00     0.173 A 
ATOM     91  C   UNL A   1      46.176  34.218  27.841  1.00  0.00     0.173 A 
ATOM     92  F   UNL A   1      46.955  32.589  31.001  1.00  0.00    -0.203 F 
ATOM     93  C   UNL A   1      46.875  34.875  30.445  1.00  0.00     0.198 A 
ATOM     94  C   UNL A   1      46.333  35.551  28.207  1.00  0.00     0.198 A 
ATOM     95  F   UNL A   1      45.832  33.934  26.577  1.00  0.00    -0.203 F 
ATOM     96  F   UNL A   1      47.172  35.191  31.714  1.00  0.00    -0.200 F 
ATOM     97  C   UNL A   1      46.673  35.879  29.510  1.00  0.00     0.200 A 
ATOM     98  F   UNL A   1      46.155  36.519  27.297  1.00  0.00    -0.200 F 
ATOM     99  F   UNL A   1      46.799  37.164  29.868  1.00  0.00    -0.200 F 
ENDBRANCH  66  89
ENDBRANCH  40  41
ENDBRANCH  32  35
ENDBRANCH  30  31
ENDBRANCH  29  30
ENDBRANCH  28  29
ENDBRANCH  27  28
ENDBRANCH   1  27
TORSDOF 18
ENDMDL
