MODEL 1
REMARK VINA RESULT:     -12.3      0.000      0.000
REMARK SMILES O=C(NCCCCCCNC(=O)c1ccc(Cl)nc1NC[C@@H]1C[N@@H+]2CCC[C@@H]2CO1)c1ccc(-c2c3nc(c(-c4c(F)c(F)c(F)c(F)c4F)c4ccc([nH]4)c(-c4c(F)c(F)c(F)c(F)c4F)c4nc(c(-c5c(F)c(F)c(F)c(F)c5F)c5ccc2[nH]5)C=C4)C=C3)cc1
REMARK SMILES IDX 7 1 6 2 5 3 4 4 3 5 1 6 2 7 31 9 32 10 93 11 33 12 92 13
REMARK SMILES IDX 34 14 35 15 36 16 86 17 37 18 91 19 85 20 87 21 38 22 90 23
REMARK SMILES IDX 84 24 83 25 39 27 71 28 51 29 70 30 52 31 55 32 69 33 88 34
REMARK SMILES IDX 53 35 54 36 68 38 89 39 56 40 40 41 41 42 49 43 42 44 43 45
REMARK SMILES IDX 47 46 50 47 44 48 45 49 48 50 46 51 72 52 73 53 81 54 74 55
REMARK SMILES IDX 75 56 79 57 82 58 76 59 77 60 80 61 78 62 57 63 58 64 66 65
REMARK SMILES IDX 59 66 60 67 64 68 67 69 61 70 62 71 65 72 63 73 8 74 9 75
REMARK SMILES IDX 10 76 11 77 12 79 13 80 14 81 19 82 15 83 18 84 16 85 17 86
REMARK SMILES IDX 20 87 21 89 22 90 23 91 30 92 24 93 29 94 25 95 28 96 26 98
REMARK SMILES IDX 27 99
REMARK H PARENT 3 8 87 26 55 37 10 78 20 88 24 97
REMARK Flexibility Score: inf
ROOT
ATOM      1  C   UNL A   1      32.462  29.991  26.929  1.00  0.00     0.002 C 
ENDROOT
BRANCH   1   2
ATOM      2  C   UNL A   1      31.409  30.783  26.146  1.00  0.00     0.002 C 
BRANCH   2   3
ATOM      3  C   UNL A   1      31.300  32.266  26.500  1.00  0.00     0.021 C 
BRANCH   3   4
ATOM      4  C   UNL A   1      32.495  32.840  27.246  1.00  0.00     0.116 C 
BRANCH   4   5
ATOM      5  N   UNL A   1      32.295  34.226  27.627  1.00  0.00    -0.352 N 
ATOM      6  O   UNL A   1      32.528  36.065  28.914  1.00  0.00    -0.269 OA
ATOM      7  C   UNL A   1      32.931  34.945  28.605  1.00  0.00     0.251 C 
ATOM      8  H   UNL A   1      31.612  34.715  27.115  1.00  0.00     0.163 HD
BRANCH   7   9
ATOM      9  C   UNL A   1      34.097  34.367  29.305  1.00  0.00     0.039 A 
ATOM     10  C   UNL A   1      33.934  33.624  30.479  1.00  0.00     0.014 A 
ATOM     11  C   UNL A   1      35.370  34.540  28.754  1.00  0.00     0.014 A 
ATOM     12  C   UNL A   1      35.050  33.126  31.146  1.00  0.00     0.010 A 
ATOM     13  C   UNL A   1      36.482  33.985  29.389  1.00  0.00     0.010 A 
ATOM     14  C   UNL A   1      36.330  33.278  30.592  1.00  0.00    -0.014 A 
BRANCH  14  15
ATOM     15  C   UNL A   1      37.487  32.589  31.213  1.00  0.00     0.031 A 
ATOM     16  C   UNL A   1      38.168  31.439  30.532  1.00  0.00     0.074 A 
ATOM     17  C   UNL A   1      37.894  33.001  32.428  1.00  0.00     0.049 A 
ATOM     18  N   UNL A   1      39.159  30.699  30.963  1.00  0.00    -0.248 NA
ATOM     19  C   UNL A   1      37.672  31.062  29.200  1.00  0.00     0.031 C 
ATOM     20  C   UNL A   1      37.284  34.094  33.192  1.00  0.00     0.029 A 
ATOM     21  N   UNL A   1      38.902  32.552  33.241  1.00  0.00    -0.354 N 
ATOM     22  C   UNL A   1      39.391  29.758  29.970  1.00  0.00     0.074 A 
ATOM     23  C   UNL A   1      38.431  30.011  28.915  1.00  0.00     0.031 C 
ATOM     24  C   UNL A   1      37.936  34.235  34.355  1.00  0.00     0.029 A 
ATOM     25  C   UNL A   1      38.971  33.212  34.442  1.00  0.00     0.049 A 
ATOM     26  H   UNL A   1      39.517  31.825  32.988  1.00  0.00     0.167 HD
ATOM     27  C   UNL A   1      40.326  28.779  29.947  1.00  0.00     0.037 A 
ATOM     28  C   UNL A   1      39.757  32.996  35.513  1.00  0.00     0.037 A 
ATOM     29  C   UNL A   1      41.294  28.557  30.990  1.00  0.00     0.049 A 
ATOM     30  C   UNL A   1      40.764  31.885  35.466  1.00  0.00     0.074 A 
ATOM     31  C   UNL A   1      42.347  27.657  31.011  1.00  0.00     0.029 A 
ATOM     32  N   UNL A   1      41.320  29.230  32.202  1.00  0.00    -0.354 N 
ATOM     33  N   UNL A   1      41.026  31.052  34.488  1.00  0.00    -0.248 NA
ATOM     34  C   UNL A   1      41.577  31.676  36.669  1.00  0.00     0.031 C 
ATOM     35  C   UNL A   1      42.976  27.750  32.256  1.00  0.00     0.029 A 
ATOM     36  C   UNL A   1      42.341  28.735  32.995  1.00  0.00     0.049 A 
ATOM     37  H   UNL A   1      40.702  29.952  32.461  1.00  0.00     0.167 HD
ATOM     38  C   UNL A   1      42.034  30.224  34.955  1.00  0.00     0.074 A 
ATOM     39  C   UNL A   1      42.355  30.670  36.296  1.00  0.00     0.031 C 
ATOM     40  C   UNL A   1      42.635  29.182  34.332  1.00  0.00     0.037 A 
BRANCH  27  41
ATOM     41  C   UNL A   1      40.353  27.855  28.767  1.00  0.00     0.064 A 
ATOM     42  C   UNL A   1      41.132  28.127  27.634  1.00  0.00     0.173 A 
ATOM     43  C   UNL A   1      39.660  26.635  28.811  1.00  0.00     0.173 A 
ATOM     44  F   UNL A   1      41.807  29.282  27.542  1.00  0.00    -0.203 F 
ATOM     45  C   UNL A   1      41.210  27.216  26.584  1.00  0.00     0.198 A 
ATOM     46  C   UNL A   1      39.756  25.717  27.768  1.00  0.00     0.198 A 
ATOM     47  F   UNL A   1      38.906  26.324  29.875  1.00  0.00    -0.203 F 
ATOM     48  F   UNL A   1      41.946  27.506  25.501  1.00  0.00    -0.200 F 
ATOM     49  C   UNL A   1      40.531  26.009  26.655  1.00  0.00     0.200 A 
ATOM     50  F   UNL A   1      39.107  24.547  27.844  1.00  0.00    -0.200 F 
ATOM     51  F   UNL A   1      40.621  25.127  25.650  1.00  0.00    -0.200 F 
ENDBRANCH  27  41
BRANCH  28  52
ATOM     52  C   UNL A   1      39.591  33.833  36.729  1.00  0.00     0.064 A 
ATOM     53  C   UNL A   1      40.238  35.068  36.850  1.00  0.00     0.173 A 
ATOM     54  C   UNL A   1      38.770  33.416  37.787  1.00  0.00     0.173 A 
ATOM     55  F   UNL A   1      41.048  35.499  35.873  1.00  0.00    -0.203 F 
ATOM     56  C   UNL A   1      40.081  35.850  37.993  1.00  0.00     0.198 A 
ATOM     57  C   UNL A   1      38.591  34.211  38.915  1.00  0.00     0.198 A 
ATOM     58  F   UNL A   1      38.124  32.242  37.715  1.00  0.00    -0.203 F 
ATOM     59  F   UNL A   1      40.742  37.011  38.103  1.00  0.00    -0.200 F 
ATOM     60  C   UNL A   1      39.253  35.425  39.022  1.00  0.00     0.200 A 
ATOM     61  F   UNL A   1      37.778  33.803  39.899  1.00  0.00    -0.200 F 
ATOM     62  F   UNL A   1      39.098  36.181  40.115  1.00  0.00    -0.200 F 
ENDBRANCH  28  52
BRANCH  40  63
ATOM     63  C   UNL A   1      43.696  28.453  35.098  1.00  0.00     0.064 A 
ATOM     64  C   UNL A   1      43.391  27.315  35.858  1.00  0.00     0.173 A 
ATOM     65  C   UNL A   1      45.033  28.872  35.044  1.00  0.00     0.173 A 
ATOM     66  F   UNL A   1      42.122  26.890  35.955  1.00  0.00    -0.203 F 
ATOM     67  C   UNL A   1      44.385  26.630  36.549  1.00  0.00     0.198 A 
ATOM     68  C   UNL A   1      46.030  28.170  35.717  1.00  0.00     0.198 A 
ATOM     69  F   UNL A   1      45.375  29.953  34.327  1.00  0.00    -0.203 F 
ATOM     70  F   UNL A   1      44.066  25.567  37.301  1.00  0.00    -0.200 F 
ATOM     71  C   UNL A   1      45.704  27.053  36.472  1.00  0.00     0.200 A 
ATOM     72  F   UNL A   1      47.304  28.574  35.633  1.00  0.00    -0.200 F 
ATOM     73  F   UNL A   1      46.662  26.388  37.133  1.00  0.00    -0.200 F 
ENDBRANCH  40  63
ENDBRANCH  14  15
ENDBRANCH   7   9
ENDBRANCH   4   5
ENDBRANCH   3   4
ENDBRANCH   2   3
ENDBRANCH   1   2
BRANCH   1  74
ATOM     74  C   UNL A   1      33.501  29.243  26.086  1.00  0.00     0.021 C 
BRANCH  74  75
ATOM     75  C   UNL A   1      33.230  27.754  25.888  1.00  0.00     0.116 C 
BRANCH  75  76
ATOM     76  N   UNL A   1      33.665  27.300  24.582  1.00  0.00    -0.352 N 
ATOM     77  C   UNL A   1      32.915  27.055  23.466  1.00  0.00     0.255 C 
ATOM     78  H   UNL A   1      34.633  27.148  24.486  1.00  0.00     0.163 HD
ATOM     79  O   UNL A   1      33.417  26.457  22.515  1.00  0.00    -0.269 OA
BRANCH  77  80
ATOM     80  C   UNL A   1      31.517  27.513  23.388  1.00  0.00     0.082 A 
ATOM     81  C   UNL A   1      31.246  28.797  22.898  1.00  0.00     0.021 A 
ATOM     82  C   UNL A   1      30.461  26.643  23.695  1.00  0.00     0.140 A 
ATOM     83  C   UNL A   1      29.928  29.216  22.799  1.00  0.00     0.042 A 
ATOM     84  N   UNL A   1      29.181  27.072  23.629  1.00  0.00    -0.219 NA
ATOM     85  C   UNL A   1      28.947  28.325  23.187  1.00  0.00     0.131 A 
ATOM     86  Cl  UNL A   1      27.292  28.765  23.126  1.00  0.00    -0.062 Cl
BRANCH  82  87
ATOM     87  N   UNL A   1      30.711  25.335  24.101  1.00  0.00    -0.367 N 
ATOM     88  H   UNL A   1      30.931  25.156  25.044  1.00  0.00     0.162 HD
BRANCH  87  89
ATOM     89  C   UNL A   1      30.655  24.226  23.153  1.00  0.00     0.152 C 
BRANCH  89  90
ATOM     90  C   UNL A   1      31.387  22.941  23.624  1.00  0.00     0.192 C 
ATOM     91  C   UNL A   1      31.976  23.032  25.058  1.00  0.00     0.296 C 
ATOM     92  O   UNL A   1      32.288  22.407  22.642  1.00  0.00    -0.364 OA
ATOM     93  N   UNL A   1      33.423  23.012  25.230  1.00  0.00    -0.328 N 
ATOM     94  C   UNL A   1      33.576  23.013  22.687  1.00  0.00     0.225 C 
ATOM     95  C   UNL A   1      33.995  24.056  26.064  1.00  0.00     0.262 C 
ATOM     96  C   UNL A   1      34.250  22.798  24.041  1.00  0.00     0.210 C 
ATOM     97  H   UNL A   1      33.474  22.142  25.759  1.00  0.00     0.348 HD
ATOM     98  C   UNL A   1      35.472  24.015  25.715  1.00  0.00     0.068 C 
ATOM     99  C   UNL A   1      35.469  23.704  24.228  1.00  0.00     0.073 C 
ENDBRANCH  89  90
ENDBRANCH  87  89
ENDBRANCH  82  87
ENDBRANCH  77  80
ENDBRANCH  75  76
ENDBRANCH  74  75
ENDBRANCH   1  74
TORSDOF 16
ENDMDL
MODEL 2
REMARK VINA RESULT:     -12.3      0.322      1.934
REMARK SMILES O=C(NCCCCCCNC(=O)c1ccc(Cl)nc1NC[C@@H]1C[N@@H+]2CCC[C@@H]2CO1)c1ccc(-c2c3nc(c(-c4c(F)c(F)c(F)c(F)c4F)c4ccc([nH]4)c(-c4c(F)c(F)c(F)c(F)c4F)c4nc(c(-c5c(F)c(F)c(F)c(F)c5F)c5ccc2[nH]5)C=C4)C=C3)cc1
REMARK SMILES IDX 7 1 6 2 5 3 4 4 3 5 1 6 2 7 31 9 32 10 93 11 33 12 92 13
REMARK SMILES IDX 34 14 35 15 36 16 86 17 37 18 91 19 85 20 87 21 38 22 90 23
REMARK SMILES IDX 84 24 83 25 39 27 71 28 51 29 70 30 52 31 55 32 69 33 88 34
REMARK SMILES IDX 53 35 54 36 68 38 89 39 56 40 40 41 41 42 49 43 42 44 43 45
REMARK SMILES IDX 47 46 50 47 44 48 45 49 48 50 46 51 72 52 73 53 81 54 74 55
REMARK SMILES IDX 75 56 79 57 82 58 76 59 77 60 80 61 78 62 57 63 58 64 66 65
REMARK SMILES IDX 59 66 60 67 64 68 67 69 61 70 62 71 65 72 63 73 8 74 9 75
REMARK SMILES IDX 10 76 11 77 12 79 13 80 14 81 19 82 15 83 18 84 16 85 17 86
REMARK SMILES IDX 20 87 21 89 22 90 23 91 30 92 24 93 29 94 25 95 28 96 26 98
REMARK SMILES IDX 27 99
REMARK H PARENT 3 8 87 26 55 37 10 78 20 88 24 97
REMARK Flexibility Score: inf
ROOT
ATOM      1  C   UNL A   1      33.071  30.126  26.300  1.00  0.00     0.002 C 
ENDROOT
BRANCH   1   2
ATOM      2  C   UNL A   1      31.635  30.607  26.535  1.00  0.00     0.002 C 
BRANCH   2   3
ATOM      3  C   UNL A   1      31.469  32.111  26.750  1.00  0.00     0.021 C 
BRANCH   3   4
ATOM      4  C   UNL A   1      32.732  32.844  27.177  1.00  0.00     0.116 C 
BRANCH   4   5
ATOM      5  N   UNL A   1      32.464  34.206  27.603  1.00  0.00    -0.352 N 
ATOM      6  O   UNL A   1      32.573  35.999  28.969  1.00  0.00    -0.269 OA
ATOM      7  C   UNL A   1      33.030  34.907  28.634  1.00  0.00     0.251 C 
ATOM      8  H   UNL A   1      31.784  34.689  27.081  1.00  0.00     0.163 HD
BRANCH   7   9
ATOM      9  C   UNL A   1      34.188  34.344  29.361  1.00  0.00     0.039 A 
ATOM     10  C   UNL A   1      34.004  33.529  30.483  1.00  0.00     0.014 A 
ATOM     11  C   UNL A   1      35.476  34.606  28.886  1.00  0.00     0.014 A 
ATOM     12  C   UNL A   1      35.108  33.046  31.178  1.00  0.00     0.010 A 
ATOM     13  C   UNL A   1      36.581  34.067  29.546  1.00  0.00     0.010 A 
ATOM     14  C   UNL A   1      36.406  33.287  30.699  1.00  0.00    -0.014 A 
BRANCH  14  15
ATOM     15  C   UNL A   1      37.562  32.617  31.341  1.00  0.00     0.031 A 
ATOM     16  C   UNL A   1      38.253  31.457  30.688  1.00  0.00     0.074 A 
ATOM     17  C   UNL A   1      37.961  33.058  32.549  1.00  0.00     0.049 A 
ATOM     18  N   UNL A   1      39.245  30.732  31.139  1.00  0.00    -0.248 NA
ATOM     19  C   UNL A   1      37.766  31.049  29.362  1.00  0.00     0.031 C 
ATOM     20  C   UNL A   1      37.342  34.163  33.287  1.00  0.00     0.029 A 
ATOM     21  N   UNL A   1      38.968  32.631  33.377  1.00  0.00    -0.354 N 
ATOM     22  C   UNL A   1      39.487  29.771  30.168  1.00  0.00     0.074 A 
ATOM     23  C   UNL A   1      38.532  29.996  29.103  1.00  0.00     0.031 C 
ATOM     24  C   UNL A   1      37.987  34.332  34.449  1.00  0.00     0.029 A 
ATOM     25  C   UNL A   1      39.027  33.317  34.564  1.00  0.00     0.049 A 
ATOM     26  H   UNL A   1      39.587  31.902  33.142  1.00  0.00     0.167 HD
ATOM     27  C   UNL A   1      40.427  28.796  30.171  1.00  0.00     0.037 A 
ATOM     28  C   UNL A   1      39.808  33.128  35.643  1.00  0.00     0.037 A 
ATOM     29  C   UNL A   1      41.391  28.601  31.223  1.00  0.00     0.049 A 
ATOM     30  C   UNL A   1      40.821  32.021  35.624  1.00  0.00     0.074 A 
ATOM     31  C   UNL A   1      42.449  27.708  31.268  1.00  0.00     0.029 A 
ATOM     32  N   UNL A   1      41.407  29.300  32.420  1.00  0.00    -0.354 N 
ATOM     33  N   UNL A   1      41.092  31.169  34.665  1.00  0.00    -0.248 NA
ATOM     34  C   UNL A   1      41.630  31.842  36.836  1.00  0.00     0.031 C 
ATOM     35  C   UNL A   1      43.071  27.830  32.514  1.00  0.00     0.029 A 
ATOM     36  C   UNL A   1      42.427  28.828  33.229  1.00  0.00     0.049 A 
ATOM     37  H   UNL A   1      40.785  30.024  32.661  1.00  0.00     0.167 HD
ATOM     38  C   UNL A   1      42.103  30.356  35.156  1.00  0.00     0.074 A 
ATOM     39  C   UNL A   1      42.415  30.832  36.488  1.00  0.00     0.031 C 
ATOM     40  C   UNL A   1      42.712  29.304  34.558  1.00  0.00     0.037 A 
BRANCH  27  41
ATOM     41  C   UNL A   1      40.465  27.847  29.011  1.00  0.00     0.064 A 
ATOM     42  C   UNL A   1      39.665  26.697  28.972  1.00  0.00     0.173 A 
ATOM     43  C   UNL A   1      41.245  28.143  27.882  1.00  0.00     0.173 A 
ATOM     44  F   UNL A   1      38.906  26.368  30.028  1.00  0.00    -0.203 F 
ATOM     45  C   UNL A   1      39.650  25.873  27.850  1.00  0.00     0.198 A 
ATOM     46  C   UNL A   1      41.214  27.328  26.754  1.00  0.00     0.198 A 
ATOM     47  F   UNL A   1      42.024  29.235  27.867  1.00  0.00    -0.203 F 
ATOM     48  F   UNL A   1      38.893  24.766  27.843  1.00  0.00    -0.200 F 
ATOM     49  C   UNL A   1      40.417  26.193  26.740  1.00  0.00     0.200 A 
ATOM     50  F   UNL A   1      41.947  27.645  25.679  1.00  0.00    -0.200 F 
ATOM     51  F   UNL A   1      40.389  25.406  25.654  1.00  0.00    -0.200 F 
ENDBRANCH  27  41
BRANCH  28  52
ATOM     52  C   UNL A   1      39.632  33.989  36.840  1.00  0.00     0.064 A 
ATOM     53  C   UNL A   1      38.829  33.582  37.912  1.00  0.00     0.173 A 
ATOM     54  C   UNL A   1      40.274  35.232  36.937  1.00  0.00     0.173 A 
ATOM     55  F   UNL A   1      38.179  32.410  37.855  1.00  0.00    -0.203 F 
ATOM     56  C   UNL A   1      38.665  34.393  39.033  1.00  0.00     0.198 A 
ATOM     57  C   UNL A   1      40.132  36.029  38.070  1.00  0.00     0.198 A 
ATOM     58  F   UNL A   1      41.058  35.664  35.938  1.00  0.00    -0.203 F 
ATOM     59  F   UNL A   1      37.859  33.999  40.029  1.00  0.00    -0.200 F 
ATOM     60  C   UNL A   1      39.321  35.613  39.114  1.00  0.00     0.200 A 
ATOM     61  F   UNL A   1      40.780  37.199  38.150  1.00  0.00    -0.200 F 
ATOM     62  F   UNL A   1      39.167  36.387  40.195  1.00  0.00    -0.200 F 
ENDBRANCH  28  52
BRANCH  40  63
ATOM     63  C   UNL A   1      43.773  28.597  35.344  1.00  0.00     0.064 A 
ATOM     64  C   UNL A   1      45.115  28.999  35.279  1.00  0.00     0.173 A 
ATOM     65  C   UNL A   1      43.442  27.534  36.196  1.00  0.00     0.173 A 
ATOM     66  F   UNL A   1      45.480  29.998  34.461  1.00  0.00    -0.203 F 
ATOM     67  C   UNL A   1      46.091  28.351  36.028  1.00  0.00     0.198 A 
ATOM     68  C   UNL A   1      44.419  26.903  36.963  1.00  0.00     0.198 A 
ATOM     69  F   UNL A   1      42.172  27.115  36.295  1.00  0.00    -0.203 F 
ATOM     70  F   UNL A   1      47.374  28.726  35.922  1.00  0.00    -0.200 F 
ATOM     71  C   UNL A   1      45.742  27.309  36.875  1.00  0.00     0.200 A 
ATOM     72  F   UNL A   1      44.078  25.904  37.788  1.00  0.00    -0.200 F 
ATOM     73  F   UNL A   1      46.683  26.691  37.601  1.00  0.00    -0.200 F 
ENDBRANCH  40  63
ENDBRANCH  14  15
ENDBRANCH   7   9
ENDBRANCH   4   5
ENDBRANCH   3   4
ENDBRANCH   2   3
ENDBRANCH   1   2
BRANCH   1  74
ATOM     74  C   UNL A   1      33.484  28.858  27.056  1.00  0.00     0.021 C 
BRANCH  74  75
ATOM     75  C   UNL A   1      32.888  27.558  26.522  1.00  0.00     0.116 C 
BRANCH  75  76
ATOM     76  N   UNL A   1      33.501  27.163  25.270  1.00  0.00    -0.352 N 
ATOM     77  C   UNL A   1      32.912  26.964  24.052  1.00  0.00     0.255 C 
ATOM     78  H   UNL A   1      34.475  27.020  25.300  1.00  0.00     0.163 HD
ATOM     79  O   UNL A   1      33.545  26.411  23.154  1.00  0.00    -0.269 OA
BRANCH  77  80
ATOM     80  C   UNL A   1      31.534  27.420  23.804  1.00  0.00     0.082 A 
ATOM     81  C   UNL A   1      31.317  28.729  23.358  1.00  0.00     0.021 A 
ATOM     82  C   UNL A   1      30.456  26.527  23.906  1.00  0.00     0.140 A 
ATOM     83  C   UNL A   1      30.021  29.148  23.098  1.00  0.00     0.042 A 
ATOM     84  N   UNL A   1      29.193  26.954  23.685  1.00  0.00    -0.219 NA
ATOM     85  C   UNL A   1      29.007  28.231  23.290  1.00  0.00     0.131 A 
ATOM     86  Cl  UNL A   1      27.371  28.666  23.021  1.00  0.00    -0.062 Cl
BRANCH  82  87
ATOM     87  N   UNL A   1      30.664  25.199  24.265  1.00  0.00    -0.367 N 
ATOM     88  H   UNL A   1      30.790  24.969  25.214  1.00  0.00     0.162 HD
BRANCH  87  89
ATOM     89  C   UNL A   1      30.699  24.142  23.259  1.00  0.00     0.152 C 
BRANCH  89  90
ATOM     90  C   UNL A   1      31.459  22.862  23.698  1.00  0.00     0.192 C 
ATOM     91  C   UNL A   1      32.134  22.968  25.093  1.00  0.00     0.296 C 
ATOM     92  O   UNL A   1      32.300  22.318  22.669  1.00  0.00    -0.364 OA
ATOM     93  N   UNL A   1      33.588  22.950  25.177  1.00  0.00    -0.328 N 
ATOM     94  C   UNL A   1      33.587  22.924  22.629  1.00  0.00     0.225 C 
ATOM     95  C   UNL A   1      34.209  24.004  25.963  1.00  0.00     0.262 C 
ATOM     96  C   UNL A   1      34.342  22.724  23.942  1.00  0.00     0.210 C 
ATOM     97  H   UNL A   1      33.672  22.086  25.711  1.00  0.00     0.348 HD
ATOM     98  C   UNL A   1      35.663  23.959  25.526  1.00  0.00     0.068 C 
ATOM     99  C   UNL A   1      35.570  23.632  24.045  1.00  0.00     0.073 C 
ENDBRANCH  89  90
ENDBRANCH  87  89
ENDBRANCH  82  87
ENDBRANCH  77  80
ENDBRANCH  75  76
ENDBRANCH  74  75
ENDBRANCH   1  74
TORSDOF 16
ENDMDL
MODEL 3
REMARK VINA RESULT:     -12.1      5.607     11.076
REMARK SMILES O=C(NCCCCCCNC(=O)c1ccc(Cl)nc1NC[C@@H]1C[N@@H+]2CCC[C@@H]2CO1)c1ccc(-c2c3nc(c(-c4c(F)c(F)c(F)c(F)c4F)c4ccc([nH]4)c(-c4c(F)c(F)c(F)c(F)c4F)c4nc(c(-c5c(F)c(F)c(F)c(F)c5F)c5ccc2[nH]5)C=C4)C=C3)cc1
REMARK SMILES IDX 7 1 6 2 5 3 4 4 3 5 1 6 2 7 31 9 32 10 93 11 33 12 92 13
REMARK SMILES IDX 34 14 35 15 36 16 86 17 37 18 91 19 85 20 87 21 38 22 90 23
REMARK SMILES IDX 84 24 83 25 39 27 71 28 51 29 70 30 52 31 55 32 69 33 88 34
REMARK SMILES IDX 53 35 54 36 68 38 89 39 56 40 40 41 41 42 49 43 42 44 43 45
REMARK SMILES IDX 47 46 50 47 44 48 45 49 48 50 46 51 72 52 73 53 81 54 74 55
REMARK SMILES IDX 75 56 79 57 82 58 76 59 77 60 80 61 78 62 57 63 58 64 66 65
REMARK SMILES IDX 59 66 60 67 64 68 67 69 61 70 62 71 65 72 63 73 8 74 9 75
REMARK SMILES IDX 10 76 11 77 12 79 13 80 14 81 19 82 15 83 18 84 16 85 17 86
REMARK SMILES IDX 20 87 21 89 22 90 23 91 30 92 24 93 29 94 25 95 28 96 26 98
REMARK SMILES IDX 27 99
REMARK H PARENT 3 8 87 26 55 37 10 78 20 88 24 97
REMARK Flexibility Score: inf
ROOT
ATOM      1  C   UNL A   1      37.522  22.414  25.628  1.00  0.00     0.002 C 
ENDROOT
BRANCH   1   2
ATOM      2  C   UNL A   1      37.411  21.261  24.625  1.00  0.00     0.002 C 
BRANCH   2   3
ATOM      3  C   UNL A   1      38.203  20.001  24.975  1.00  0.00     0.021 C 
BRANCH   3   4
ATOM      4  C   UNL A   1      39.184  20.157  26.128  1.00  0.00     0.116 C 
BRANCH   4   5
ATOM      5  N   UNL A   1      40.243  19.165  26.090  1.00  0.00    -0.352 N 
ATOM      6  O   UNL A   1      42.366  18.421  25.917  1.00  0.00    -0.269 OA
ATOM      7  C   UNL A   1      41.598  19.359  26.125  1.00  0.00     0.251 C 
ATOM      8  H   UNL A   1      39.947  18.228  26.032  1.00  0.00     0.163 HD
BRANCH   7   9
ATOM      9  C   UNL A   1      42.144  20.706  26.398  1.00  0.00     0.039 A 
ATOM     10  C   UNL A   1      42.414  21.596  25.353  1.00  0.00     0.014 A 
ATOM     11  C   UNL A   1      42.351  21.094  27.725  1.00  0.00     0.014 A 
ATOM     12  C   UNL A   1      42.969  22.842  25.630  1.00  0.00     0.010 A 
ATOM     13  C   UNL A   1      42.847  22.369  28.004  1.00  0.00     0.010 A 
ATOM     14  C   UNL A   1      43.163  23.250  26.959  1.00  0.00    -0.014 A 
BRANCH  14  15
ATOM     15  C   UNL A   1      43.581  24.643  27.247  1.00  0.00     0.031 A 
ATOM     16  C   UNL A   1      42.612  25.655  27.780  1.00  0.00     0.074 A 
ATOM     17  C   UNL A   1      44.856  24.990  26.985  1.00  0.00     0.049 A 
ATOM     18  N   UNL A   1      42.806  26.924  28.037  1.00  0.00    -0.248 NA
ATOM     19  C   UNL A   1      41.243  25.190  28.054  1.00  0.00     0.031 C 
ATOM     20  C   UNL A   1      45.876  24.091  26.440  1.00  0.00     0.029 A 
ATOM     21  N   UNL A   1      45.511  26.186  27.129  1.00  0.00    -0.354 N 
ATOM     22  C   UNL A   1      41.586  27.414  28.479  1.00  0.00     0.074 A 
ATOM     23  C   UNL A   1      40.650  26.310  28.449  1.00  0.00     0.031 C 
ATOM     24  C   UNL A   1      47.029  24.763  26.304  1.00  0.00     0.029 A 
ATOM     25  C   UNL A   1      46.815  26.149  26.701  1.00  0.00     0.049 A 
ATOM     26  H   UNL A   1      45.087  26.993  27.502  1.00  0.00     0.167 HD
ATOM     27  C   UNL A   1      41.284  28.673  28.879  1.00  0.00     0.037 A 
ATOM     28  C   UNL A   1      47.730  27.131  26.604  1.00  0.00     0.037 A 
ATOM     29  C   UNL A   1      42.233  29.756  28.933  1.00  0.00     0.049 A 
ATOM     30  C   UNL A   1      47.355  28.520  27.029  1.00  0.00     0.074 A 
ATOM     31  C   UNL A   1      42.048  31.039  29.421  1.00  0.00     0.029 A 
ATOM     32  N   UNL A   1      43.538  29.688  28.471  1.00  0.00    -0.354 N 
ATOM     33  N   UNL A   1      46.219  28.953  27.521  1.00  0.00    -0.248 NA
ATOM     34  C   UNL A   1      48.381  29.559  26.879  1.00  0.00     0.031 C 
ATOM     35  C   UNL A   1      43.226  31.762  29.206  1.00  0.00     0.029 A 
ATOM     36  C   UNL A   1      44.157  30.918  28.621  1.00  0.00     0.049 A 
ATOM     37  H   UNL A   1      43.962  28.885  28.091  1.00  0.00     0.167 HD
ATOM     38  C   UNL A   1      46.395  30.311  27.741  1.00  0.00     0.074 A 
ATOM     39  C   UNL A   1      47.755  30.626  27.354  1.00  0.00     0.031 C 
ATOM     40  C   UNL A   1      45.505  31.216  28.216  1.00  0.00     0.037 A 
BRANCH  27  41
ATOM     41  C   UNL A   1      39.871  28.967  29.281  1.00  0.00     0.064 A 
ATOM     42  C   UNL A   1      38.910  29.384  28.349  1.00  0.00     0.173 A 
ATOM     43  C   UNL A   1      39.451  28.741  30.601  1.00  0.00     0.173 A 
ATOM     44  F   UNL A   1      39.263  29.620  27.076  1.00  0.00    -0.203 F 
ATOM     45  C   UNL A   1      37.583  29.571  28.725  1.00  0.00     0.198 A 
ATOM     46  C   UNL A   1      38.119  28.909  30.969  1.00  0.00     0.198 A 
ATOM     47  F   UNL A   1      40.330  28.335  31.529  1.00  0.00    -0.203 F 
ATOM     48  F   UNL A   1      36.684  29.990  27.821  1.00  0.00    -0.200 F 
ATOM     49  C   UNL A   1      37.186  29.326  30.031  1.00  0.00     0.200 A 
ATOM     50  F   UNL A   1      37.736  28.662  32.229  1.00  0.00    -0.200 F 
ATOM     51  F   UNL A   1      35.904  29.491  30.386  1.00  0.00    -0.200 F 
ENDBRANCH  27  41
BRANCH  28  52
ATOM     52  C   UNL A   1      49.074  26.833  26.049  1.00  0.00     0.064 A 
ATOM     53  C   UNL A   1      49.342  26.980  24.683  1.00  0.00     0.173 A 
ATOM     54  C   UNL A   1      50.122  26.406  26.880  1.00  0.00     0.173 A 
ATOM     55  F   UNL A   1      48.367  27.367  23.848  1.00  0.00    -0.203 F 
ATOM     56  C   UNL A   1      50.604  26.698  24.165  1.00  0.00     0.198 A 
ATOM     57  C   UNL A   1      51.390  26.152  26.365  1.00  0.00     0.198 A 
ATOM     58  F   UNL A   1      49.916  26.255  28.197  1.00  0.00    -0.203 F 
ATOM     59  F   UNL A   1      50.824  26.808  22.847  1.00  0.00    -0.200 F 
ATOM     60  C   UNL A   1      51.629  26.290  25.007  1.00  0.00     0.200 A 
ATOM     61  F   UNL A   1      52.380  25.774  27.185  1.00  0.00    -0.200 F 
ATOM     62  F   UNL A   1      52.843  26.027  24.508  1.00  0.00    -0.200 F 
ENDBRANCH  28  52
BRANCH  40  63
ATOM     63  C   UNL A   1      45.977  32.633  28.336  1.00  0.00     0.064 A 
ATOM     64  C   UNL A   1      45.772  33.557  27.301  1.00  0.00     0.173 A 
ATOM     65  C   UNL A   1      46.606  33.081  29.506  1.00  0.00     0.173 A 
ATOM     66  F   UNL A   1      45.194  33.167  26.155  1.00  0.00    -0.203 F 
ATOM     67  C   UNL A   1      46.194  34.876  27.428  1.00  0.00     0.198 A 
ATOM     68  C   UNL A   1      47.004  34.408  29.640  1.00  0.00     0.198 A 
ATOM     69  F   UNL A   1      46.821  32.235  30.525  1.00  0.00    -0.203 F 
ATOM     70  F   UNL A   1      46.023  35.733  26.412  1.00  0.00    -0.200 F 
ATOM     71  C   UNL A   1      46.803  35.303  28.599  1.00  0.00     0.200 A 
ATOM     72  F   UNL A   1      47.582  34.821  30.776  1.00  0.00    -0.200 F 
ATOM     73  F   UNL A   1      47.202  36.576  28.723  1.00  0.00    -0.200 F 
ENDBRANCH  40  63
ENDBRANCH  14  15
ENDBRANCH   7   9
ENDBRANCH   4   5
ENDBRANCH   3   4
ENDBRANCH   2   3
ENDBRANCH   1   2
BRANCH   1  74
ATOM     74  C   UNL A   1      36.831  23.722  25.224  1.00  0.00     0.021 C 
BRANCH  74  75
ATOM     75  C   UNL A   1      35.305  23.687  25.247  1.00  0.00     0.116 C 
BRANCH  75  76
ATOM     76  N   UNL A   1      34.798  23.326  26.557  1.00  0.00    -0.352 N 
ATOM     77  C   UNL A   1      33.880  22.368  26.887  1.00  0.00     0.255 C 
ATOM     78  H   UNL A   1      35.166  23.842  27.311  1.00  0.00     0.163 HD
ATOM     79  O   UNL A   1      33.398  22.353  28.018  1.00  0.00    -0.269 OA
BRANCH  77  80
ATOM     80  C   UNL A   1      33.478  21.348  25.904  1.00  0.00     0.082 A 
ATOM     81  C   UNL A   1      34.398  20.361  25.529  1.00  0.00     0.021 A 
ATOM     82  C   UNL A   1      32.159  21.293  25.429  1.00  0.00     0.140 A 
ATOM     83  C   UNL A   1      34.008  19.384  24.625  1.00  0.00     0.042 A 
ATOM     84  N   UNL A   1      31.798  20.358  24.522  1.00  0.00    -0.219 NA
ATOM     85  C   UNL A   1      32.713  19.439  24.149  1.00  0.00     0.131 A 
ATOM     86  Cl  UNL A   1      32.150  18.291  23.008  1.00  0.00    -0.062 Cl
BRANCH  82  87
ATOM     87  N   UNL A   1      31.209  22.215  25.859  1.00  0.00    -0.367 N 
ATOM     88  H   UNL A   1      30.716  22.046  26.694  1.00  0.00     0.162 HD
BRANCH  87  89
ATOM     89  C   UNL A   1      30.930  23.425  25.091  1.00  0.00     0.152 C 
BRANCH  89  90
ATOM     90  C   UNL A   1      30.559  24.661  25.953  1.00  0.00     0.192 C 
ATOM     91  C   UNL A   1      29.873  25.808  25.162  1.00  0.00     0.296 C 
ATOM     92  O   UNL A   1      31.619  25.088  26.822  1.00  0.00    -0.364 OA
ATOM     93  N   UNL A   1      30.577  27.073  25.000  1.00  0.00    -0.328 N 
ATOM     94  C   UNL A   1      32.542  25.961  26.180  1.00  0.00     0.225 C 
ATOM     95  C   UNL A   1      30.656  27.609  23.651  1.00  0.00     0.262 C 
ATOM     96  C   UNL A   1      31.859  27.236  25.690  1.00  0.00     0.210 C 
ATOM     97  H   UNL A   1      29.913  27.652  25.515  1.00  0.00     0.348 HD
ATOM     98  C   UNL A   1      31.754  28.653  23.751  1.00  0.00     0.068 C 
ATOM     99  C   UNL A   1      32.741  28.027  24.721  1.00  0.00     0.073 C 
ENDBRANCH  89  90
ENDBRANCH  87  89
ENDBRANCH  82  87
ENDBRANCH  77  80
ENDBRANCH  75  76
ENDBRANCH  74  75
ENDBRANCH   1  74
TORSDOF 16
ENDMDL
