MODEL 1
REMARK VINA RESULT:     -12.4      0.000      0.000
REMARK SMILES C[C@@H](O)[C@@H](NC(=O)Nc1ccc(F)cc1F)C(=O)NCCCCCCNC(=O)c1ccc(-c2c3nc(c(-c4c(F)c(F)c(F)c(F)c4F)c4ccc([nH]4)c(-c4c(F)c(F)c(F)c(F)c4F)c4nc(c(-c5c(F)c(F)c(F)c(F)c5F)c5ccc2[nH]5)C=C4)C=C3)cc1
REMARK SMILES IDX 22 1 21 2 20 3 19 4 17 5 18 6 4 8 2 9 1 10 3 11 5 13 6 14
REMARK SMILES IDX 7 16 8 17 9 19 10 20 15 21 11 22 14 23 16 24 12 25 13 26
REMARK SMILES IDX 23 27 24 28 25 29 26 30 27 31 28 33 29 34 30 35 91 36 31 37
REMARK SMILES IDX 90 38 32 39 33 40 34 41 84 42 35 43 89 44 83 45 85 46 36 47
REMARK SMILES IDX 88 48 82 49 81 50 37 52 69 53 49 54 68 55 50 56 53 57 67 58
REMARK SMILES IDX 86 59 51 60 52 61 66 63 87 64 54 65 38 66 39 67 47 68 40 69
REMARK SMILES IDX 41 70 45 71 48 72 42 73 43 74 46 75 44 76 70 77 71 78 79 79
REMARK SMILES IDX 72 80 73 81 77 82 80 83 74 84 75 85 78 86 76 87 55 88 56 89
REMARK SMILES IDX 64 90 57 91 58 92 62 93 65 94 59 95 60 96 63 97 61 98
REMARK H PARENT 19 7 3 12 5 15 8 18 26 32 85 51 53 62
REMARK Flexibility Score: inf
ROOT
ATOM      1  C   UNL A   1      32.567  29.845  27.134  1.00  0.00     0.002 C 
ENDROOT
BRANCH   1   2
ATOM      2  C   UNL A   1      33.856  29.306  26.485  1.00  0.00     0.021 C 
BRANCH   2   3
ATOM      3  C   UNL A   1      33.592  28.299  25.363  1.00  0.00     0.116 C 
BRANCH   3   4
ATOM      4  N   UNL A   1      33.587  29.027  24.118  1.00  0.00    -0.354 N 
ATOM      5  C   UNL A   1      33.512  28.470  22.882  1.00  0.00     0.245 C 
ATOM      6  O   UNL A   1      34.438  28.662  22.090  1.00  0.00    -0.273 OA
ATOM      7  H   UNL A   1      33.642  30.010  24.168  1.00  0.00     0.163 HD
BRANCH   5   8
ATOM      8  C   UNL A   1      32.336  27.550  22.535  1.00  0.00     0.201 C 
BRANCH   8   9
ATOM      9  C   UNL A   1      31.120  28.510  22.391  1.00  0.00     0.143 C 
ATOM     10  C   UNL A   1      30.281  28.661  23.651  1.00  0.00     0.041 C 
BRANCH   9  11
ATOM     11  O   UNL A   1      31.571  29.834  22.057  1.00  0.00    -0.391 OA
ATOM     12  H   UNL A   1      31.236  30.076  21.179  1.00  0.00     0.211 HD
ENDBRANCH   9  11
ENDBRANCH   8   9
BRANCH   8  13
ATOM     13  N   UNL A   1      32.597  26.675  21.377  1.00  0.00    -0.323 N 
ATOM     14  C   UNL A   1      32.876  25.362  21.223  1.00  0.00     0.320 C 
ATOM     15  H   UNL A   1      32.561  27.158  20.519  1.00  0.00     0.166 HD
ATOM     16  O   UNL A   1      33.046  24.968  20.066  1.00  0.00    -0.248 OA
ATOM     17  N   UNL A   1      33.171  24.523  22.239  1.00  0.00    -0.305 N 
ATOM     18  H   UNL A   1      33.746  23.770  21.971  1.00  0.00     0.171 HD
BRANCH  17  19
ATOM     19  C   UNL A   1      32.823  24.507  23.595  1.00  0.00     0.079 A 
ATOM     20  C   UNL A   1      33.755  24.733  24.607  1.00  0.00     0.032 A 
ATOM     21  C   UNL A   1      31.498  24.191  23.935  1.00  0.00     0.149 A 
ATOM     22  C   UNL A   1      33.392  24.506  25.937  1.00  0.00     0.041 A 
ATOM     23  C   UNL A   1      31.139  23.935  25.253  1.00  0.00     0.080 A 
ATOM     24  F   UNL A   1      30.595  23.973  22.967  1.00  0.00    -0.205 F 
ATOM     25  C   UNL A   1      32.102  24.076  26.242  1.00  0.00     0.126 A 
ATOM     26  F   UNL A   1      31.789  23.781  27.510  1.00  0.00    -0.207 F 
ENDBRANCH  17  19
ENDBRANCH   8  13
ENDBRANCH   5   8
ENDBRANCH   3   4
ENDBRANCH   2   3
ENDBRANCH   1   2
BRANCH   1  27
ATOM     27  C   UNL A   1      31.762  30.796  26.242  1.00  0.00     0.002 C 
BRANCH  27  28
ATOM     28  C   UNL A   1      31.452  32.142  26.897  1.00  0.00     0.021 C 
BRANCH  28  29
ATOM     29  C   UNL A   1      32.690  32.886  27.369  1.00  0.00     0.116 C 
BRANCH  29  30
ATOM     30  N   UNL A   1      32.418  34.283  27.652  1.00  0.00    -0.352 N 
ATOM     31  C   UNL A   1      33.010  35.078  28.604  1.00  0.00     0.251 C 
ATOM     32  H   UNL A   1      31.726  34.712  27.098  1.00  0.00     0.163 HD
ATOM     33  O   UNL A   1      32.588  36.192  28.854  1.00  0.00    -0.269 OA
BRANCH  31  34
ATOM     34  C   UNL A   1      34.161  34.523  29.344  1.00  0.00     0.039 A 
ATOM     35  C   UNL A   1      33.927  33.858  30.546  1.00  0.00     0.014 A 
ATOM     36  C   UNL A   1      35.450  34.609  28.809  1.00  0.00     0.014 A 
ATOM     37  C   UNL A   1      34.991  33.239  31.199  1.00  0.00     0.010 A 
ATOM     38  C   UNL A   1      36.492  33.923  29.419  1.00  0.00     0.010 A 
ATOM     39  C   UNL A   1      36.274  33.244  30.626  1.00  0.00    -0.014 A 
BRANCH  39  40
ATOM     40  C   UNL A   1      37.408  32.560  31.294  1.00  0.00     0.031 A 
ATOM     41  C   UNL A   1      38.116  31.434  30.595  1.00  0.00     0.074 A 
ATOM     42  C   UNL A   1      37.770  32.927  32.537  1.00  0.00     0.049 A 
ATOM     43  N   UNL A   1      39.104  30.690  31.022  1.00  0.00    -0.248 NA
ATOM     44  C   UNL A   1      37.635  31.077  29.251  1.00  0.00     0.031 C 
ATOM     45  C   UNL A   1      37.125  33.976  33.329  1.00  0.00     0.029 A 
ATOM     46  N   UNL A   1      38.769  32.462  33.354  1.00  0.00    -0.354 N 
ATOM     47  C   UNL A   1      39.355  29.781  30.004  1.00  0.00     0.074 A 
ATOM     48  C   UNL A   1      38.377  30.018  28.967  1.00  0.00     0.031 C 
ATOM     49  C   UNL A   1      37.766  34.098  34.501  1.00  0.00     0.029 A 
ATOM     50  C   UNL A   1      38.841  33.112  34.562  1.00  0.00     0.049 A 
ATOM     51  H   UNL A   1      39.376  31.730  33.099  1.00  0.00     0.167 HD
ATOM     52  C   UNL A   1      40.336  28.852  29.930  1.00  0.00     0.037 A 
ATOM     53  C   UNL A   1      39.682  32.932  35.599  1.00  0.00     0.037 A 
ATOM     54  C   UNL A   1      41.325  28.642  30.953  1.00  0.00     0.049 A 
ATOM     55  C   UNL A   1      40.755  31.883  35.497  1.00  0.00     0.074 A 
ATOM     56  C   UNL A   1      42.395  27.766  30.948  1.00  0.00     0.029 A 
ATOM     57  N   UNL A   1      41.365  29.320  32.163  1.00  0.00    -0.354 N 
ATOM     58  N   UNL A   1      41.024  31.072  34.503  1.00  0.00    -0.248 NA
ATOM     59  C   UNL A   1      41.644  31.726  36.657  1.00  0.00     0.031 C 
ATOM     60  C   UNL A   1      43.052  27.876  32.176  1.00  0.00     0.029 A 
ATOM     61  C   UNL A   1      42.428  28.861  32.924  1.00  0.00     0.049 A 
ATOM     62  H   UNL A   1      40.733  30.023  32.439  1.00  0.00     0.167 HD
ATOM     63  C   UNL A   1      42.124  30.326  34.904  1.00  0.00     0.074 A 
ATOM     64  C   UNL A   1      42.482  30.791  36.229  1.00  0.00     0.031 C 
ATOM     65  C   UNL A   1      42.775  29.342  34.237  1.00  0.00     0.037 A 
BRANCH  52  66
ATOM     66  C   UNL A   1      40.405  27.999  28.696  1.00  0.00     0.064 A 
ATOM     67  C   UNL A   1      39.779  26.745  28.660  1.00  0.00     0.173 A 
ATOM     68  C   UNL A   1      41.149  28.394  27.574  1.00  0.00     0.173 A 
ATOM     69  F   UNL A   1      39.058  26.318  29.708  1.00  0.00    -0.203 F 
ATOM     70  C   UNL A   1      39.908  25.911  27.552  1.00  0.00     0.198 A 
ATOM     71  C   UNL A   1      41.250  27.571  26.455  1.00  0.00     0.198 A 
ATOM     72  F   UNL A   1      41.757  29.590  27.552  1.00  0.00    -0.203 F 
ATOM     73  F   UNL A   1      39.329  24.702  27.555  1.00  0.00    -0.200 F 
ATOM     74  C   UNL A   1      40.639  26.326  26.451  1.00  0.00     0.200 A 
ATOM     75  F   UNL A   1      41.935  27.986  25.381  1.00  0.00    -0.200 F 
ATOM     76  F   UNL A   1      40.753  25.527  25.380  1.00  0.00    -0.200 F 
ENDBRANCH  52  66
BRANCH  53  77
ATOM     77  C   UNL A   1      39.558  33.795  36.803  1.00  0.00     0.064 A 
ATOM     78  C   UNL A   1      38.795  33.400  37.912  1.00  0.00     0.173 A 
ATOM     79  C   UNL A   1      40.179  35.050  36.854  1.00  0.00     0.173 A 
ATOM     80  F   UNL A   1      38.174  32.211  37.910  1.00  0.00    -0.203 F 
ATOM     81  C   UNL A   1      38.641  34.237  39.015  1.00  0.00     0.198 A 
ATOM     82  C   UNL A   1      40.048  35.875  37.970  1.00  0.00     0.198 A 
ATOM     83  F   UNL A   1      40.935  35.466  35.827  1.00  0.00    -0.203 F 
ATOM     84  F   UNL A   1      37.876  33.850  40.045  1.00  0.00    -0.200 F 
ATOM     85  C   UNL A   1      39.272  35.471  39.046  1.00  0.00     0.200 A 
ATOM     86  F   UNL A   1      40.680  37.056  38.006  1.00  0.00    -0.200 F 
ATOM     87  F   UNL A   1      39.135  36.269  40.113  1.00  0.00    -0.200 F 
ENDBRANCH  53  77
BRANCH  65  88
ATOM     88  C   UNL A   1      43.958  28.708  34.907  1.00  0.00     0.064 A 
ATOM     89  C   UNL A   1      43.785  27.602  35.755  1.00  0.00     0.173 A 
ATOM     90  C   UNL A   1      45.244  29.251  34.790  1.00  0.00     0.173 A 
ATOM     91  F   UNL A   1      42.571  27.052  35.909  1.00  0.00    -0.203 F 
ATOM     92  C   UNL A   1      44.852  27.079  36.478  1.00  0.00     0.198 A 
ATOM     93  C   UNL A   1      46.317  28.705  35.491  1.00  0.00     0.198 A 
ATOM     94  F   UNL A   1      45.464  30.300  33.983  1.00  0.00    -0.203 F 
ATOM     95  F   UNL A   1      44.653  26.052  37.315  1.00  0.00    -0.200 F 
ATOM     96  C   UNL A   1      46.117  27.629  36.343  1.00  0.00     0.200 A 
ATOM     97  F   UNL A   1      47.544  29.223  35.342  1.00  0.00    -0.200 F 
ATOM     98  F   UNL A   1      47.146  27.123  37.035  1.00  0.00    -0.200 F 
ENDBRANCH  65  88
ENDBRANCH  39  40
ENDBRANCH  31  34
ENDBRANCH  29  30
ENDBRANCH  28  29
ENDBRANCH  27  28
ENDBRANCH   1  27
TORSDOF 17
ENDMDL
MODEL 2
REMARK VINA RESULT:     -12.4      0.620      7.366
REMARK SMILES C[C@@H](O)[C@@H](NC(=O)Nc1ccc(F)cc1F)C(=O)NCCCCCCNC(=O)c1ccc(-c2c3nc(c(-c4c(F)c(F)c(F)c(F)c4F)c4ccc([nH]4)c(-c4c(F)c(F)c(F)c(F)c4F)c4nc(c(-c5c(F)c(F)c(F)c(F)c5F)c5ccc2[nH]5)C=C4)C=C3)cc1
REMARK SMILES IDX 22 1 21 2 20 3 19 4 17 5 18 6 4 8 2 9 1 10 3 11 5 13 6 14
REMARK SMILES IDX 7 16 8 17 9 19 10 20 15 21 11 22 14 23 16 24 12 25 13 26
REMARK SMILES IDX 23 27 24 28 25 29 26 30 27 31 28 33 29 34 30 35 91 36 31 37
REMARK SMILES IDX 90 38 32 39 33 40 34 41 84 42 35 43 89 44 83 45 85 46 36 47
REMARK SMILES IDX 88 48 82 49 81 50 37 52 69 53 49 54 68 55 50 56 53 57 67 58
REMARK SMILES IDX 86 59 51 60 52 61 66 63 87 64 54 65 38 66 39 67 47 68 40 69
REMARK SMILES IDX 41 70 45 71 48 72 42 73 43 74 46 75 44 76 70 77 71 78 79 79
REMARK SMILES IDX 72 80 73 81 77 82 80 83 74 84 75 85 78 86 76 87 55 88 56 89
REMARK SMILES IDX 64 90 57 91 58 92 62 93 65 94 59 95 60 96 63 97 61 98
REMARK H PARENT 19 7 3 12 5 15 8 18 26 32 85 51 53 62
REMARK Flexibility Score: inf
ROOT
ATOM      1  C   UNL A   1      33.039  30.139  26.636  1.00  0.00     0.002 C 
ENDROOT
BRANCH   1   2
ATOM      2  C   UNL A   1      33.161  28.611  26.802  1.00  0.00     0.021 C 
BRANCH   2   3
ATOM      3  C   UNL A   1      33.813  27.923  25.601  1.00  0.00     0.116 C 
BRANCH   3   4
ATOM      4  N   UNL A   1      33.666  28.800  24.465  1.00  0.00    -0.354 N 
ATOM      5  C   UNL A   1      33.531  28.398  23.174  1.00  0.00     0.245 C 
ATOM      6  O   UNL A   1      34.379  28.754  22.353  1.00  0.00    -0.273 OA
ATOM      7  H   UNL A   1      33.664  29.769  24.639  1.00  0.00     0.163 HD
BRANCH   5   8
ATOM      8  C   UNL A   1      32.391  27.448  22.792  1.00  0.00     0.201 C 
BRANCH   8   9
ATOM      9  C   UNL A   1      31.104  28.311  22.926  1.00  0.00     0.143 C 
ATOM     10  C   UNL A   1      30.258  28.002  24.153  1.00  0.00     0.041 C 
BRANCH   9  11
ATOM     11  O   UNL A   1      31.448  29.703  23.026  1.00  0.00    -0.391 OA
ATOM     12  H   UNL A   1      31.858  29.873  23.888  1.00  0.00     0.211 HD
ENDBRANCH   9  11
ENDBRANCH   8   9
BRANCH   8  13
ATOM     13  N   UNL A   1      32.586  26.793  21.485  1.00  0.00    -0.323 N 
ATOM     14  C   UNL A   1      32.760  25.515  21.080  1.00  0.00     0.320 C 
ATOM     15  H   UNL A   1      32.592  27.432  20.736  1.00  0.00     0.166 HD
ATOM     16  O   UNL A   1      32.903  25.338  19.867  1.00  0.00    -0.248 OA
ATOM     17  N   UNL A   1      32.983  24.477  21.914  1.00  0.00    -0.305 N 
ATOM     18  H   UNL A   1      33.497  23.746  21.501  1.00  0.00     0.171 HD
BRANCH  17  19
ATOM     19  C   UNL A   1      32.629  24.230  23.246  1.00  0.00     0.079 A 
ATOM     20  C   UNL A   1      31.309  24.024  23.641  1.00  0.00     0.032 A 
ATOM     21  C   UNL A   1      33.644  24.253  24.216  1.00  0.00     0.149 A 
ATOM     22  C   UNL A   1      30.998  23.984  25.002  1.00  0.00     0.041 A 
ATOM     23  C   UNL A   1      33.339  24.243  25.571  1.00  0.00     0.080 A 
ATOM     24  F   UNL A   1      34.919  24.450  23.844  1.00  0.00    -0.205 F 
ATOM     25  C   UNL A   1      32.009  24.129  25.951  1.00  0.00     0.126 A 
ATOM     26  F   UNL A   1      31.691  24.173  27.251  1.00  0.00    -0.207 F 
ENDBRANCH  17  19
ENDBRANCH   8  13
ENDBRANCH   5   8
ENDBRANCH   3   4
ENDBRANCH   2   3
ENDBRANCH   1   2
BRANCH   1  27
ATOM     27  C   UNL A   1      31.599  30.645  26.502  1.00  0.00     0.002 C 
BRANCH  27  28
ATOM     28  C   UNL A   1      31.471  32.166  26.578  1.00  0.00     0.021 C 
BRANCH  28  29
ATOM     29  C   UNL A   1      32.654  32.842  27.251  1.00  0.00     0.116 C 
BRANCH  29  30
ATOM     30  N   UNL A   1      32.365  34.214  27.625  1.00  0.00    -0.352 N 
ATOM     31  C   UNL A   1      32.961  34.959  28.613  1.00  0.00     0.251 C 
ATOM     32  H   UNL A   1      31.657  34.665  27.109  1.00  0.00     0.163 HD
ATOM     33  O   UNL A   1      32.526  36.048  28.939  1.00  0.00    -0.269 OA
BRANCH  31  34
ATOM     34  C   UNL A   1      34.134  34.379  29.298  1.00  0.00     0.039 A 
ATOM     35  C   UNL A   1      33.936  33.675  30.485  1.00  0.00     0.014 A 
ATOM     36  C   UNL A   1      35.406  34.481  28.727  1.00  0.00     0.014 A 
ATOM     37  C   UNL A   1      35.019  33.033  31.084  1.00  0.00     0.010 A 
ATOM     38  C   UNL A   1      36.464  33.774  29.280  1.00  0.00     0.010 A 
ATOM     39  C   UNL A   1      36.284  33.056  30.471  1.00  0.00    -0.014 A 
BRANCH  39  40
ATOM     40  C   UNL A   1      37.436  32.349  31.080  1.00  0.00     0.031 A 
ATOM     41  C   UNL A   1      37.904  32.731  32.455  1.00  0.00     0.074 A 
ATOM     42  C   UNL A   1      38.077  31.395  30.380  1.00  0.00     0.049 A 
ATOM     43  N   UNL A   1      38.910  32.257  33.145  1.00  0.00    -0.248 NA
ATOM     44  C   UNL A   1      37.165  33.806  33.135  1.00  0.00     0.031 C 
ATOM     45  C   UNL A   1      37.738  30.972  29.021  1.00  0.00     0.029 A 
ATOM     46  N   UNL A   1      39.149  30.605  30.715  1.00  0.00    -0.354 N 
ATOM     47  C   UNL A   1      38.924  32.978  34.331  1.00  0.00     0.074 A 
ATOM     48  C   UNL A   1      37.871  33.965  34.244  1.00  0.00     0.031 C 
ATOM     49  C   UNL A   1      38.560  29.978  28.651  1.00  0.00     0.029 A 
ATOM     50  C   UNL A   1      39.509  29.718  29.730  1.00  0.00     0.049 A 
ATOM     51  H   UNL A   1      39.615  30.669  31.579  1.00  0.00     0.167 HD
ATOM     52  C   UNL A   1      39.723  32.808  35.409  1.00  0.00     0.037 A 
ATOM     53  C   UNL A   1      40.494  28.800  29.703  1.00  0.00     0.037 A 
ATOM     54  C   UNL A   1      40.748  31.803  35.500  1.00  0.00     0.049 A 
ATOM     55  C   UNL A   1      41.379  28.640  30.910  1.00  0.00     0.074 A 
ATOM     56  C   UNL A   1      41.573  31.511  36.571  1.00  0.00     0.029 A 
ATOM     57  N   UNL A   1      41.084  30.924  34.480  1.00  0.00    -0.354 N 
ATOM     58  N   UNL A   1      41.341  29.283  32.051  1.00  0.00    -0.248 NA
ATOM     59  C   UNL A   1      42.439  27.625  30.827  1.00  0.00     0.031 C 
ATOM     60  C   UNL A   1      42.445  30.491  36.182  1.00  0.00     0.029 A 
ATOM     61  C   UNL A   1      42.125  30.106  34.890  1.00  0.00     0.049 A 
ATOM     62  H   UNL A   1      40.648  30.886  33.599  1.00  0.00     0.167 HD
ATOM     63  C   UNL A   1      42.352  28.739  32.831  1.00  0.00     0.074 A 
ATOM     64  C   UNL A   1      42.978  27.701  32.037  1.00  0.00     0.031 C 
ATOM     65  C   UNL A   1      42.730  29.071  34.089  1.00  0.00     0.037 A 
BRANCH  52  66
ATOM     66  C   UNL A   1      39.516  33.714  36.588  1.00  0.00     0.064 A 
ATOM     67  C   UNL A   1      40.176  34.950  36.662  1.00  0.00     0.173 A 
ATOM     68  C   UNL A   1      38.719  33.329  37.676  1.00  0.00     0.173 A 
ATOM     69  F   UNL A   1      40.953  35.364  35.650  1.00  0.00    -0.203 F 
ATOM     70  C   UNL A   1      40.057  35.759  37.789  1.00  0.00     0.198 A 
ATOM     71  C   UNL A   1      38.577  34.155  38.788  1.00  0.00     0.198 A 
ATOM     72  F   UNL A   1      38.057  32.163  37.650  1.00  0.00    -0.203 F 
ATOM     73  F   UNL A   1      40.725  36.919  37.852  1.00  0.00    -0.200 F 
ATOM     74  C   UNL A   1      39.255  35.363  38.847  1.00  0.00     0.200 A 
ATOM     75  F   UNL A   1      37.780  33.783  39.799  1.00  0.00    -0.200 F 
ATOM     76  F   UNL A   1      39.133  36.149  39.927  1.00  0.00    -0.200 F 
ENDBRANCH  52  66
BRANCH  53  77
ATOM     77  C   UNL A   1      40.663  27.940  28.502  1.00  0.00     0.064 A 
ATOM     78  C   UNL A   1      41.442  28.351  27.411  1.00  0.00     0.173 A 
ATOM     79  C   UNL A   1      40.021  26.697  28.412  1.00  0.00     0.173 A 
ATOM     80  F   UNL A   1      42.072  29.534  27.444  1.00  0.00    -0.203 F 
ATOM     81  C   UNL A   1      41.554  27.561  26.267  1.00  0.00     0.198 A 
ATOM     82  C   UNL A   1      40.156  25.896  27.280  1.00  0.00     0.198 A 
ATOM     83  F   UNL A   1      39.279  26.251  29.437  1.00  0.00    -0.203 F 
ATOM     84  F   UNL A   1      42.274  27.996  25.225  1.00  0.00    -0.200 F 
ATOM     85  C   UNL A   1      40.915  26.332  26.205  1.00  0.00     0.200 A 
ATOM     86  F   UNL A   1      39.557  24.698  27.235  1.00  0.00    -0.200 F 
ATOM     87  F   UNL A   1      41.034  25.569  25.111  1.00  0.00    -0.200 F 
ENDBRANCH  53  77
BRANCH  65  88
ATOM     88  C   UNL A   1      43.857  28.299  34.708  1.00  0.00     0.064 A 
ATOM     89  C   UNL A   1      43.599  27.129  35.440  1.00  0.00     0.173 A 
ATOM     90  C   UNL A   1      45.177  28.768  34.662  1.00  0.00     0.173 A 
ATOM     91  F   UNL A   1      42.351  26.645  35.523  1.00  0.00    -0.203 F 
ATOM     92  C   UNL A   1      44.618  26.471  36.121  1.00  0.00     0.198 A 
ATOM     93  C   UNL A   1      46.200  28.089  35.319  1.00  0.00     0.198 A 
ATOM     94  F   UNL A   1      45.477  29.875  33.966  1.00  0.00    -0.203 F 
ATOM     95  F   UNL A   1      44.340  25.381  36.850  1.00  0.00    -0.200 F 
ATOM     96  C   UNL A   1      45.917  26.949  36.058  1.00  0.00     0.200 A 
ATOM     97  F   UNL A   1      47.459  28.539  35.238  1.00  0.00    -0.200 F 
ATOM     98  F   UNL A   1      46.900  26.313  36.710  1.00  0.00    -0.200 F 
ENDBRANCH  65  88
ENDBRANCH  39  40
ENDBRANCH  31  34
ENDBRANCH  29  30
ENDBRANCH  28  29
ENDBRANCH  27  28
ENDBRANCH   1  27
TORSDOF 17
ENDMDL
MODEL 3
REMARK VINA RESULT:     -12.4      0.725      7.289
REMARK SMILES C[C@@H](O)[C@@H](NC(=O)Nc1ccc(F)cc1F)C(=O)NCCCCCCNC(=O)c1ccc(-c2c3nc(c(-c4c(F)c(F)c(F)c(F)c4F)c4ccc([nH]4)c(-c4c(F)c(F)c(F)c(F)c4F)c4nc(c(-c5c(F)c(F)c(F)c(F)c5F)c5ccc2[nH]5)C=C4)C=C3)cc1
REMARK SMILES IDX 22 1 21 2 20 3 19 4 17 5 18 6 4 8 2 9 1 10 3 11 5 13 6 14
REMARK SMILES IDX 7 16 8 17 9 19 10 20 15 21 11 22 14 23 16 24 12 25 13 26
REMARK SMILES IDX 23 27 24 28 25 29 26 30 27 31 28 33 29 34 30 35 91 36 31 37
REMARK SMILES IDX 90 38 32 39 33 40 34 41 84 42 35 43 89 44 83 45 85 46 36 47
REMARK SMILES IDX 88 48 82 49 81 50 37 52 69 53 49 54 68 55 50 56 53 57 67 58
REMARK SMILES IDX 86 59 51 60 52 61 66 63 87 64 54 65 38 66 39 67 47 68 40 69
REMARK SMILES IDX 41 70 45 71 48 72 42 73 43 74 46 75 44 76 70 77 71 78 79 79
REMARK SMILES IDX 72 80 73 81 77 82 80 83 74 84 75 85 78 86 76 87 55 88 56 89
REMARK SMILES IDX 64 90 57 91 58 92 62 93 65 94 59 95 60 96 63 97 61 98
REMARK H PARENT 19 7 3 12 5 15 8 18 26 32 85 51 53 62
REMARK Flexibility Score: inf
ROOT
ATOM      1  C   UNL A   1      33.229  30.185  26.607  1.00  0.00     0.002 C 
ENDROOT
BRANCH   1   2
ATOM      2  C   UNL A   1      33.471  28.685  26.866  1.00  0.00     0.021 C 
BRANCH   2   3
ATOM      3  C   UNL A   1      33.897  27.917  25.613  1.00  0.00     0.116 C 
BRANCH   3   4
ATOM      4  N   UNL A   1      33.743  28.804  24.486  1.00  0.00    -0.354 N 
ATOM      5  C   UNL A   1      33.613  28.415  23.191  1.00  0.00     0.245 C 
ATOM      6  O   UNL A   1      34.458  28.788  22.374  1.00  0.00    -0.273 OA
ATOM      7  H   UNL A   1      33.731  29.772  24.670  1.00  0.00     0.163 HD
BRANCH   5   8
ATOM      8  C   UNL A   1      32.482  27.458  22.797  1.00  0.00     0.201 C 
BRANCH   8   9
ATOM      9  C   UNL A   1      31.184  28.299  22.965  1.00  0.00     0.143 C 
ATOM     10  C   UNL A   1      30.378  27.976  24.215  1.00  0.00     0.041 C 
BRANCH   9  11
ATOM     11  O   UNL A   1      31.507  29.697  23.056  1.00  0.00    -0.391 OA
ATOM     12  H   UNL A   1      32.159  29.922  22.374  1.00  0.00     0.211 HD
ENDBRANCH   9  11
ENDBRANCH   8   9
BRANCH   8  13
ATOM     13  N   UNL A   1      32.673  26.838  21.473  1.00  0.00    -0.323 N 
ATOM     14  C   UNL A   1      32.779  25.567  21.026  1.00  0.00     0.320 C 
ATOM     15  H   UNL A   1      32.738  27.501  20.748  1.00  0.00     0.166 HD
ATOM     16  O   UNL A   1      32.944  25.423  19.811  1.00  0.00    -0.248 OA
ATOM     17  N   UNL A   1      32.917  24.489  21.826  1.00  0.00    -0.305 N 
ATOM     18  H   UNL A   1      33.396  23.742  21.400  1.00  0.00     0.171 HD
BRANCH  17  19
ATOM     19  C   UNL A   1      32.512  24.217  23.139  1.00  0.00     0.079 A 
ATOM     20  C   UNL A   1      31.180  23.983  23.476  1.00  0.00     0.032 A 
ATOM     21  C   UNL A   1      33.485  24.246  24.152  1.00  0.00     0.149 A 
ATOM     22  C   UNL A   1      30.814  23.919  24.823  1.00  0.00     0.041 A 
ATOM     23  C   UNL A   1      33.124  24.213  25.492  1.00  0.00     0.080 A 
ATOM     24  F   UNL A   1      34.770  24.470  23.835  1.00  0.00    -0.205 F 
ATOM     25  C   UNL A   1      31.782  24.070  25.815  1.00  0.00     0.126 A 
ATOM     26  F   UNL A   1      31.410  24.091  27.101  1.00  0.00    -0.207 F 
ENDBRANCH  17  19
ENDBRANCH   8  13
ENDBRANCH   5   8
ENDBRANCH   3   4
ENDBRANCH   2   3
ENDBRANCH   1   2
BRANCH   1  27
ATOM     27  C   UNL A   1      31.750  30.585  26.551  1.00  0.00     0.002 C 
BRANCH  27  28
ATOM     28  C   UNL A   1      31.506  32.076  26.776  1.00  0.00     0.021 C 
BRANCH  28  29
ATOM     29  C   UNL A   1      32.744  32.833  27.229  1.00  0.00     0.116 C 
BRANCH  29  30
ATOM     30  N   UNL A   1      32.440  34.192  27.636  1.00  0.00    -0.352 N 
ATOM     31  C   UNL A   1      33.023  34.916  28.648  1.00  0.00     0.251 C 
ATOM     32  H   UNL A   1      31.732  34.650  27.128  1.00  0.00     0.163 HD
ATOM     33  O   UNL A   1      32.576  35.992  28.999  1.00  0.00    -0.269 OA
BRANCH  31  34
ATOM     34  C   UNL A   1      34.196  34.328  29.326  1.00  0.00     0.039 A 
ATOM     35  C   UNL A   1      33.986  33.448  30.385  1.00  0.00     0.014 A 
ATOM     36  C   UNL A   1      35.487  34.603  28.865  1.00  0.00     0.014 A 
ATOM     37  C   UNL A   1      35.079  32.806  30.964  1.00  0.00     0.010 A 
ATOM     38  C   UNL A   1      36.565  33.902  29.387  1.00  0.00     0.010 A 
ATOM     39  C   UNL A   1      36.372  33.008  30.451  1.00  0.00    -0.014 A 
BRANCH  39  40
ATOM     40  C   UNL A   1      37.540  32.305  31.034  1.00  0.00     0.031 A 
ATOM     41  C   UNL A   1      38.027  32.678  32.405  1.00  0.00     0.074 A 
ATOM     42  C   UNL A   1      38.178  31.362  30.316  1.00  0.00     0.049 A 
ATOM     43  N   UNL A   1      39.048  32.206  33.075  1.00  0.00    -0.248 NA
ATOM     44  C   UNL A   1      37.290  33.741  33.108  1.00  0.00     0.031 C 
ATOM     45  C   UNL A   1      37.820  30.949  28.958  1.00  0.00     0.029 A 
ATOM     46  N   UNL A   1      39.261  30.578  30.626  1.00  0.00    -0.354 N 
ATOM     47  C   UNL A   1      39.075  32.916  34.267  1.00  0.00     0.074 A 
ATOM     48  C   UNL A   1      38.013  33.895  34.206  1.00  0.00     0.031 C 
ATOM     49  C   UNL A   1      38.644  29.965  28.566  1.00  0.00     0.029 A 
ATOM     50  C   UNL A   1      39.612  29.703  29.627  1.00  0.00     0.049 A 
ATOM     51  H   UNL A   1      39.740  30.638  31.483  1.00  0.00     0.167 HD
ATOM     52  C   UNL A   1      39.893  32.742  35.330  1.00  0.00     0.037 A 
ATOM     53  C   UNL A   1      40.604  28.793  29.576  1.00  0.00     0.037 A 
ATOM     54  C   UNL A   1      40.927  31.745  35.396  1.00  0.00     0.049 A 
ATOM     55  C   UNL A   1      41.509  28.629  30.766  1.00  0.00     0.074 A 
ATOM     56  C   UNL A   1      41.772  31.450  36.450  1.00  0.00     0.029 A 
ATOM     57  N   UNL A   1      41.254  30.878  34.363  1.00  0.00    -0.354 N 
ATOM     58  N   UNL A   1      41.485  29.262  31.914  1.00  0.00    -0.248 NA
ATOM     59  C   UNL A   1      42.576  27.624  30.658  1.00  0.00     0.031 C 
ATOM     60  C   UNL A   1      42.645  30.440  36.038  1.00  0.00     0.029 A 
ATOM     61  C   UNL A   1      42.308  30.065  34.748  1.00  0.00     0.049 A 
ATOM     62  H   UNL A   1      40.804  30.844  33.488  1.00  0.00     0.167 HD
ATOM     63  C   UNL A   1      42.513  28.719  32.672  1.00  0.00     0.074 A 
ATOM     64  C   UNL A   1      43.134  27.693  31.859  1.00  0.00     0.031 C 
ATOM     65  C   UNL A   1      42.908  29.043  33.928  1.00  0.00     0.037 A 
BRANCH  52  66
ATOM     66  C   UNL A   1      39.698  33.636  36.521  1.00  0.00     0.064 A 
ATOM     67  C   UNL A   1      38.834  33.259  37.560  1.00  0.00     0.173 A 
ATOM     68  C   UNL A   1      40.312  34.894  36.602  1.00  0.00     0.173 A 
ATOM     69  F   UNL A   1      38.218  32.068  37.530  1.00  0.00    -0.203 F 
ATOM     70  C   UNL A   1      38.580  34.117  38.627  1.00  0.00     0.198 A 
ATOM     71  C   UNL A   1      40.081  35.736  37.686  1.00  0.00     0.198 A 
ATOM     72  F   UNL A   1      41.157  35.297  35.640  1.00  0.00    -0.203 F 
ATOM     73  F   UNL A   1      37.723  33.750  39.590  1.00  0.00    -0.200 F 
ATOM     74  C   UNL A   1      39.207  35.352  38.691  1.00  0.00     0.200 A 
ATOM     75  F   UNL A   1      40.709  36.918  37.759  1.00  0.00    -0.200 F 
ATOM     76  F   UNL A   1      38.970  36.172  39.725  1.00  0.00    -0.200 F 
ENDBRANCH  52  66
BRANCH  53  77
ATOM     77  C   UNL A   1      40.760  27.946  28.364  1.00  0.00     0.064 A 
ATOM     78  C   UNL A   1      40.154  26.684  28.270  1.00  0.00     0.173 A 
ATOM     79  C   UNL A   1      41.547  28.372  27.286  1.00  0.00     0.173 A 
ATOM     80  F   UNL A   1      39.397  26.226  29.278  1.00  0.00    -0.203 F 
ATOM     81  C   UNL A   1      40.347  25.873  27.153  1.00  0.00     0.198 A 
ATOM     82  C   UNL A   1      41.716  27.573  26.157  1.00  0.00     0.198 A 
ATOM     83  F   UNL A   1      42.132  29.578  27.319  1.00  0.00    -0.203 F 
ATOM     84  F   UNL A   1      39.787  24.657  27.106  1.00  0.00    -0.200 F 
ATOM     85  C   UNL A   1      41.124  26.320  26.095  1.00  0.00     0.200 A 
ATOM     86  F   UNL A   1      42.447  28.019  25.126  1.00  0.00    -0.200 F 
ATOM     87  F   UNL A   1      41.298  25.546  25.016  1.00  0.00    -0.200 F 
ENDBRANCH  53  77
BRANCH  65  88
ATOM     88  C   UNL A   1      44.051  28.275  34.521  1.00  0.00     0.064 A 
ATOM     89  C   UNL A   1      45.372  28.715  34.340  1.00  0.00     0.173 A 
ATOM     90  C   UNL A   1      43.850  27.054  35.181  1.00  0.00     0.173 A 
ATOM     91  F   UNL A   1      45.619  29.871  33.706  1.00  0.00    -0.203 F 
ATOM     92  C   UNL A   1      46.449  27.950  34.778  1.00  0.00     0.198 A 
ATOM     93  C   UNL A   1      44.929  26.307  35.646  1.00  0.00     0.198 A 
ATOM     94  F   UNL A   1      42.606  26.596  35.389  1.00  0.00    -0.203 F 
ATOM     95  F   UNL A   1      47.702  28.370  34.554  1.00  0.00    -0.200 F 
ATOM     96  C   UNL A   1      46.227  26.749  35.432  1.00  0.00     0.200 A 
ATOM     97  F   UNL A   1      44.712  25.157  36.299  1.00  0.00    -0.200 F 
ATOM     98  F   UNL A   1      47.263  26.015  35.859  1.00  0.00    -0.200 F 
ENDBRANCH  65  88
ENDBRANCH  39  40
ENDBRANCH  31  34
ENDBRANCH  29  30
ENDBRANCH  28  29
ENDBRANCH  27  28
ENDBRANCH   1  27
TORSDOF 17
ENDMDL
