MODEL 1
REMARK VINA RESULT:     -13.2      0.000      0.000
REMARK SMILES Cc1ccccc1C(=O)N1CSC[C@H]1C(=O)NCCCCCCNC(=O)c1ccc(-c2c3nc(c(-c4c(F)c(F)c(F)c(F)c4F)c4ccc([nH]4)c(-c4c(F)c(F)c(F)c(F)c4F)c4nc(c(-c5c(F)c(F)c(F)c(F)c5F)c5ccc2[nH]5)C=C4)C=C3)cc1
REMARK SMILES IDX 20 1 19 2 18 3 17 4 15 5 16 6 14 8 10 9 11 10 12 11 13 12
REMARK SMILES IDX 8 13 9 14 7 15 1 16 2 17 3 18 4 19 6 20 5 21 21 22 22 23
REMARK SMILES IDX 23 24 24 25 25 26 26 28 27 29 28 30 89 31 29 32 88 33 30 34
REMARK SMILES IDX 31 35 32 36 82 37 33 38 87 39 81 40 83 41 34 42 86 43 80 44
REMARK SMILES IDX 79 45 35 47 67 48 47 49 66 50 48 51 51 52 65 53 84 54 49 55
REMARK SMILES IDX 50 56 64 58 85 59 52 60 36 61 37 62 45 63 38 64 39 65 43 66
REMARK SMILES IDX 46 67 40 68 41 69 44 70 42 71 68 72 69 73 77 74 70 75 71 76
REMARK SMILES IDX 75 77 78 78 72 79 73 80 76 81 74 82 53 83 54 84 62 85 55 86
REMARK SMILES IDX 56 87 60 88 63 89 57 90 58 91 61 92 59 93
REMARK H PARENT 17 7 24 27 83 46 51 57
REMARK Flexibility Score: inf
ROOT
ATOM      1  C   UNL A   1      32.304  27.694  26.036  1.00  0.00     0.002 C 
ENDROOT
BRANCH   1   2
ATOM      2  C   UNL A   1      33.646  26.962  25.894  1.00  0.00     0.021 C 
BRANCH   2   3
ATOM      3  C   UNL A   1      33.550  25.463  25.632  1.00  0.00     0.116 C 
BRANCH   3   4
ATOM      4  N   UNL A   1      34.279  25.037  24.464  1.00  0.00    -0.354 N 
ATOM      5  C   UNL A   1      35.060  23.939  24.262  1.00  0.00     0.243 C 
ATOM      6  O   UNL A   1      35.221  23.608  23.079  1.00  0.00    -0.273 OA
ATOM      7  H   UNL A   1      34.201  25.636  23.687  1.00  0.00     0.163 HD
BRANCH   5   8
ATOM      8  C   UNL A   1      35.636  23.059  25.398  1.00  0.00     0.185 C 
ATOM      9  N   UNL A   1      35.496  21.603  25.281  1.00  0.00    -0.317 N 
ATOM     10  C   UNL A   1      36.701  20.886  24.950  1.00  0.00     0.190 C 
ATOM     11  S   UNL A   1      38.075  21.887  25.565  1.00  0.00    -0.138 SA
ATOM     12  C   UNL A   1      37.077  23.400  25.772  1.00  0.00     0.106 C 
BRANCH   9  13
ATOM     13  C   UNL A   1      34.270  21.049  25.613  1.00  0.00     0.255 C 
ATOM     14  O   UNL A   1      33.748  21.258  26.708  1.00  0.00    -0.269 OA
BRANCH  13  15
ATOM     15  C   UNL A   1      33.568  20.109  24.696  1.00  0.00     0.042 A 
ATOM     16  C   UNL A   1      32.156  21.927  23.530  1.00  0.00     0.045 C 
ATOM     17  C   UNL A   1      32.641  20.516  23.711  1.00  0.00    -0.038 A 
ATOM     18  C   UNL A   1      32.150  19.555  22.807  1.00  0.00     0.004 A 
ATOM     19  C   UNL A   1      32.622  18.243  22.821  1.00  0.00     0.000 A 
ATOM     20  C   UNL A   1      34.043  18.785  24.692  1.00  0.00     0.014 A 
ATOM     21  C   UNL A   1      33.578  17.860  23.756  1.00  0.00     0.001 A 
ENDBRANCH  13  15
ENDBRANCH   9  13
ENDBRANCH   5   8
ENDBRANCH   3   4
ENDBRANCH   2   3
ENDBRANCH   1   2
BRANCH   1  22
ATOM     22  C   UNL A   1      32.070  28.481  27.338  1.00  0.00     0.002 C 
BRANCH  22  23
ATOM     23  C   UNL A   1      32.172  30.006  27.252  1.00  0.00     0.021 C 
BRANCH  23  24
ATOM     24  C   UNL A   1      33.596  30.530  27.105  1.00  0.00     0.116 C 
BRANCH  24  25
ATOM     25  N   UNL A   1      33.990  31.471  28.139  1.00  0.00    -0.352 N 
ATOM     26  C   UNL A   1      35.051  31.374  29.041  1.00  0.00     0.251 C 
ATOM     27  H   UNL A   1      33.437  32.282  28.215  1.00  0.00     0.163 HD
ATOM     28  O   UNL A   1      35.254  32.242  29.871  1.00  0.00    -0.269 OA
BRANCH  26  29
ATOM     29  C   UNL A   1      35.994  30.248  28.877  1.00  0.00     0.039 A 
ATOM     30  C   UNL A   1      36.393  29.560  30.026  1.00  0.00     0.014 A 
ATOM     31  C   UNL A   1      36.651  30.056  27.667  1.00  0.00     0.014 A 
ATOM     32  C   UNL A   1      37.608  28.876  30.018  1.00  0.00     0.010 A 
ATOM     33  C   UNL A   1      37.898  29.462  27.681  1.00  0.00     0.010 A 
ATOM     34  C   UNL A   1      38.408  28.939  28.876  1.00  0.00    -0.014 A 
BRANCH  34  35
ATOM     35  C   UNL A   1      39.821  28.578  28.871  1.00  0.00     0.031 A 
ATOM     36  C   UNL A   1      40.246  27.215  28.492  1.00  0.00     0.074 A 
ATOM     37  C   UNL A   1      40.760  29.515  29.131  1.00  0.00     0.049 A 
ATOM     38  N   UNL A   1      41.400  26.711  28.773  1.00  0.00    -0.248 NA
ATOM     39  C   UNL A   1      39.370  26.289  27.788  1.00  0.00     0.031 C 
ATOM     40  C   UNL A   1      42.199  29.415  28.896  1.00  0.00     0.029 A 
ATOM     41  N   UNL A   1      40.616  30.693  29.883  1.00  0.00    -0.354 N 
ATOM     42  C   UNL A   1      41.528  25.530  28.083  1.00  0.00     0.074 A 
ATOM     43  C   UNL A   1      40.215  25.287  27.528  1.00  0.00     0.031 C 
ATOM     44  C   UNL A   1      42.832  30.256  29.726  1.00  0.00     0.029 A 
ATOM     45  C   UNL A   1      41.830  30.827  30.605  1.00  0.00     0.049 A 
ATOM     46  H   UNL A   1      39.838  31.297  29.905  1.00  0.00     0.167 HD
ATOM     47  C   UNL A   1      42.764  24.957  27.974  1.00  0.00     0.037 A 
ATOM     48  C   UNL A   1      41.848  30.777  31.969  1.00  0.00     0.037 A 
ATOM     49  C   UNL A   1      43.761  25.662  28.782  1.00  0.00     0.049 A 
ATOM     50  C   UNL A   1      42.663  29.643  32.554  1.00  0.00     0.074 A 
ATOM     51  C   UNL A   1      44.772  26.573  28.521  1.00  0.00     0.029 A 
ATOM     52  N   UNL A   1      43.610  25.654  30.157  1.00  0.00    -0.354 N 
ATOM     53  N   UNL A   1      43.300  28.751  31.847  1.00  0.00    -0.248 NA
ATOM     54  C   UNL A   1      42.729  29.363  33.990  1.00  0.00     0.031 C 
ATOM     55  C   UNL A   1      45.232  27.100  29.763  1.00  0.00     0.029 A 
ATOM     56  C   UNL A   1      44.497  26.513  30.774  1.00  0.00     0.049 A 
ATOM     57  H   UNL A   1      42.951  25.102  30.637  1.00  0.00     0.167 HD
ATOM     58  C   UNL A   1      43.789  27.779  32.679  1.00  0.00     0.074 A 
ATOM     59  C   UNL A   1      43.413  28.207  34.011  1.00  0.00     0.031 C 
ATOM     60  C   UNL A   1      44.425  26.664  32.217  1.00  0.00     0.037 A 
BRANCH  47  61
ATOM     61  C   UNL A   1      43.117  23.884  26.966  1.00  0.00     0.064 A 
ATOM     62  C   UNL A   1      42.754  22.537  27.189  1.00  0.00     0.173 A 
ATOM     63  C   UNL A   1      43.857  24.101  25.790  1.00  0.00     0.173 A 
ATOM     64  F   UNL A   1      41.952  22.184  28.200  1.00  0.00    -0.203 F 
ATOM     65  C   UNL A   1      43.206  21.492  26.378  1.00  0.00     0.198 A 
ATOM     66  C   UNL A   1      44.363  23.053  25.014  1.00  0.00     0.198 A 
ATOM     67  F   UNL A   1      44.059  25.334  25.311  1.00  0.00    -0.203 F 
ATOM     68  F   UNL A   1      42.831  20.233  26.647  1.00  0.00    -0.200 F 
ATOM     69  C   UNL A   1      44.047  21.745  25.316  1.00  0.00     0.200 A 
ATOM     70  F   UNL A   1      45.156  23.323  23.967  1.00  0.00    -0.200 F 
ATOM     71  F   UNL A   1      44.525  20.740  24.571  1.00  0.00    -0.200 F 
ENDBRANCH  47  61
BRANCH  48  72
ATOM     72  C   UNL A   1      40.608  31.347  32.562  1.00  0.00     0.064 A 
ATOM     73  C   UNL A   1      40.408  32.738  32.446  1.00  0.00     0.173 A 
ATOM     74  C   UNL A   1      39.490  30.547  32.816  1.00  0.00     0.173 A 
ATOM     75  F   UNL A   1      41.453  33.548  32.210  1.00  0.00    -0.203 F 
ATOM     76  C   UNL A   1      39.127  33.279  32.415  1.00  0.00     0.198 A 
ATOM     77  C   UNL A   1      38.210  31.101  32.818  1.00  0.00     0.198 A 
ATOM     78  F   UNL A   1      39.616  29.217  32.927  1.00  0.00    -0.203 F 
ATOM     79  F   UNL A   1      38.958  34.581  32.141  1.00  0.00    -0.200 F 
ATOM     80  C   UNL A   1      38.027  32.453  32.567  1.00  0.00     0.200 A 
ATOM     81  F   UNL A   1      37.143  30.300  32.950  1.00  0.00    -0.200 F 
ATOM     82  F   UNL A   1      36.791  32.949  32.422  1.00  0.00    -0.200 F 
ENDBRANCH  48  72
BRANCH  60  83
ATOM     83  C   UNL A   1      45.007  25.608  33.112  1.00  0.00     0.064 A 
ATOM     84  C   UNL A   1      46.376  25.300  33.113  1.00  0.00     0.173 A 
ATOM     85  C   UNL A   1      44.186  24.789  33.916  1.00  0.00     0.173 A 
ATOM     86  F   UNL A   1      47.232  25.975  32.331  1.00  0.00    -0.203 F 
ATOM     87  C   UNL A   1      46.897  24.275  33.906  1.00  0.00     0.198 A 
ATOM     88  C   UNL A   1      44.700  23.734  34.666  1.00  0.00     0.198 A 
ATOM     89  F   UNL A   1      42.866  25.004  34.016  1.00  0.00    -0.203 F 
ATOM     90  F   UNL A   1      48.218  24.050  33.919  1.00  0.00    -0.200 F 
ATOM     91  C   UNL A   1      46.058  23.485  34.673  1.00  0.00     0.200 A 
ATOM     92  F   UNL A   1      43.871  22.965  35.387  1.00  0.00    -0.200 F 
ATOM     93  F   UNL A   1      46.556  22.489  35.418  1.00  0.00    -0.200 F 
ENDBRANCH  60  83
ENDBRANCH  34  35
ENDBRANCH  26  29
ENDBRANCH  24  25
ENDBRANCH  23  24
ENDBRANCH  22  23
ENDBRANCH   1  22
TORSDOF 15
ENDMDL
MODEL 2
REMARK VINA RESULT:     -13.1      3.391      9.592
REMARK SMILES Cc1ccccc1C(=O)N1CSC[C@H]1C(=O)NCCCCCCNC(=O)c1ccc(-c2c3nc(c(-c4c(F)c(F)c(F)c(F)c4F)c4ccc([nH]4)c(-c4c(F)c(F)c(F)c(F)c4F)c4nc(c(-c5c(F)c(F)c(F)c(F)c5F)c5ccc2[nH]5)C=C4)C=C3)cc1
REMARK SMILES IDX 20 1 19 2 18 3 17 4 15 5 16 6 14 8 10 9 11 10 12 11 13 12
REMARK SMILES IDX 8 13 9 14 7 15 1 16 2 17 3 18 4 19 6 20 5 21 21 22 22 23
REMARK SMILES IDX 23 24 24 25 25 26 26 28 27 29 28 30 89 31 29 32 88 33 30 34
REMARK SMILES IDX 31 35 32 36 82 37 33 38 87 39 81 40 83 41 34 42 86 43 80 44
REMARK SMILES IDX 79 45 35 47 67 48 47 49 66 50 48 51 51 52 65 53 84 54 49 55
REMARK SMILES IDX 50 56 64 58 85 59 52 60 36 61 37 62 45 63 38 64 39 65 43 66
REMARK SMILES IDX 46 67 40 68 41 69 44 70 42 71 68 72 69 73 77 74 70 75 71 76
REMARK SMILES IDX 75 77 78 78 72 79 73 80 76 81 74 82 53 83 54 84 62 85 55 86
REMARK SMILES IDX 56 87 60 88 63 89 57 90 58 91 61 92 59 93
REMARK H PARENT 17 7 24 27 83 46 51 57
REMARK Flexibility Score: inf
ROOT
ATOM      1  C   UNL A   1      36.995  22.803  24.460  1.00  0.00     0.002 C 
ENDROOT
BRANCH   1   2
ATOM      2  C   UNL A   1      36.249  22.952  23.127  1.00  0.00     0.021 C 
BRANCH   2   3
ATOM      3  C   UNL A   1      34.841  23.531  23.224  1.00  0.00     0.116 C 
BRANCH   3   4
ATOM      4  N   UNL A   1      34.705  24.539  24.245  1.00  0.00    -0.354 N 
ATOM      5  C   UNL A   1      33.598  24.995  24.894  1.00  0.00     0.243 C 
ATOM      6  O   UNL A   1      33.805  25.547  25.983  1.00  0.00    -0.273 OA
ATOM      7  H   UNL A   1      35.548  24.968  24.516  1.00  0.00     0.163 HD
BRANCH   5   8
ATOM      8  C   UNL A   1      32.146  24.763  24.407  1.00  0.00     0.185 C 
ATOM      9  N   UNL A   1      31.138  24.379  25.402  1.00  0.00    -0.317 N 
ATOM     10  C   UNL A   1      30.198  25.408  25.766  1.00  0.00     0.190 C 
ATOM     11  S   UNL A   1      30.079  26.517  24.343  1.00  0.00    -0.138 SA
ATOM     12  C   UNL A   1      31.598  25.897  23.543  1.00  0.00     0.106 C 
BRANCH   9  13
ATOM     13  C   UNL A   1      31.106  23.053  25.801  1.00  0.00     0.255 C 
ATOM     14  O   UNL A   1      30.201  22.619  26.512  1.00  0.00    -0.269 OA
BRANCH  13  15
ATOM     15  C   UNL A   1      32.209  22.112  25.458  1.00  0.00     0.042 A 
ATOM     16  C   UNL A   1      33.462  22.392  27.697  1.00  0.00     0.045 C 
ATOM     17  C   UNL A   1      33.256  21.773  26.343  1.00  0.00    -0.038 A 
ATOM     18  C   UNL A   1      34.162  20.764  25.963  1.00  0.00     0.004 A 
ATOM     19  C   UNL A   1      33.991  20.051  24.777  1.00  0.00     0.000 A 
ATOM     20  C   UNL A   1      32.044  21.379  24.270  1.00  0.00     0.014 A 
ATOM     21  C   UNL A   1      32.926  20.349  23.935  1.00  0.00     0.001 A 
ENDBRANCH  13  15
ENDBRANCH   9  13
ENDBRANCH   5   8
ENDBRANCH   3   4
ENDBRANCH   2   3
ENDBRANCH   1   2
BRANCH   1  22
ATOM     22  C   UNL A   1      37.493  21.395  24.830  1.00  0.00     0.002 C 
BRANCH  22  23
ATOM     23  C   UNL A   1      38.649  21.311  25.831  1.00  0.00     0.021 C 
BRANCH  23  24
ATOM     24  C   UNL A   1      39.096  22.660  26.383  1.00  0.00     0.116 C 
BRANCH  24  25
ATOM     25  N   UNL A   1      40.533  22.868  26.344  1.00  0.00    -0.352 N 
ATOM     26  C   UNL A   1      41.241  24.061  26.497  1.00  0.00     0.251 C 
ATOM     27  H   UNL A   1      41.079  22.063  26.189  1.00  0.00     0.163 HD
ATOM     28  O   UNL A   1      42.457  24.086  26.425  1.00  0.00    -0.269 OA
BRANCH  26  29
ATOM     29  C   UNL A   1      40.480  25.270  26.871  1.00  0.00     0.039 A 
ATOM     30  C   UNL A   1      40.783  26.463  26.208  1.00  0.00     0.014 A 
ATOM     31  C   UNL A   1      39.686  25.272  28.012  1.00  0.00     0.014 A 
ATOM     32  C   UNL A   1      40.502  27.676  26.834  1.00  0.00     0.010 A 
ATOM     33  C   UNL A   1      39.492  26.467  28.679  1.00  0.00     0.010 A 
ATOM     34  C   UNL A   1      39.968  27.661  28.123  1.00  0.00    -0.014 A 
BRANCH  34  35
ATOM     35  C   UNL A   1      39.967  28.826  29.000  1.00  0.00     0.031 A 
ATOM     36  C   UNL A   1      38.934  29.872  28.856  1.00  0.00     0.074 A 
ATOM     37  C   UNL A   1      40.861  28.914  30.010  1.00  0.00     0.049 A 
ATOM     38  N   UNL A   1      39.039  31.065  29.336  1.00  0.00    -0.248 NA
ATOM     39  C   UNL A   1      37.701  29.658  28.112  1.00  0.00     0.031 C 
ATOM     40  C   UNL A   1      40.832  29.841  31.141  1.00  0.00     0.029 A 
ATOM     41  N   UNL A   1      42.126  28.308  30.095  1.00  0.00    -0.354 N 
ATOM     42  C   UNL A   1      37.819  31.684  29.208  1.00  0.00     0.074 A 
ATOM     43  C   UNL A   1      37.037  30.784  28.390  1.00  0.00     0.031 C 
ATOM     44  C   UNL A   1      42.080  29.997  31.604  1.00  0.00     0.029 A 
ATOM     45  C   UNL A   1      42.964  29.277  30.708  1.00  0.00     0.049 A 
ATOM     46  H   UNL A   1      42.378  27.405  29.794  1.00  0.00     0.167 HD
ATOM     47  C   UNL A   1      37.585  32.836  29.905  1.00  0.00     0.037 A 
ATOM     48  C   UNL A   1      44.027  29.812  30.041  1.00  0.00     0.037 A 
ATOM     49  C   UNL A   1      38.790  33.314  30.584  1.00  0.00     0.049 A 
ATOM     50  C   UNL A   1      43.957  31.310  29.828  1.00  0.00     0.074 A 
ATOM     51  C   UNL A   1      39.264  33.279  31.886  1.00  0.00     0.029 A 
ATOM     52  N   UNL A   1      39.862  33.715  29.806  1.00  0.00    -0.354 N 
ATOM     53  N   UNL A   1      42.969  32.065  30.220  1.00  0.00    -0.248 NA
ATOM     54  C   UNL A   1      44.951  32.055  29.053  1.00  0.00     0.031 C 
ATOM     55  C   UNL A   1      40.633  33.679  31.875  1.00  0.00     0.029 A 
ATOM     56  C   UNL A   1      40.988  33.949  30.568  1.00  0.00     0.049 A 
ATOM     57  H   UNL A   1      39.825  33.821  28.828  1.00  0.00     0.167 HD
ATOM     58  C   UNL A   1      43.141  33.330  29.723  1.00  0.00     0.074 A 
ATOM     59  C   UNL A   1      44.398  33.278  29.005  1.00  0.00     0.031 C 
ATOM     60  C   UNL A   1      42.218  34.320  29.891  1.00  0.00     0.037 A 
BRANCH  47  61
ATOM     61  C   UNL A   1      36.208  33.418  30.146  1.00  0.00     0.064 A 
ATOM     62  C   UNL A   1      35.452  33.953  29.079  1.00  0.00     0.173 A 
ATOM     63  C   UNL A   1      35.595  33.529  31.407  1.00  0.00     0.173 A 
ATOM     64  F   UNL A   1      35.844  33.821  27.806  1.00  0.00    -0.203 F 
ATOM     65  C   UNL A   1      34.258  34.652  29.279  1.00  0.00     0.198 A 
ATOM     66  C   UNL A   1      34.435  34.283  31.617  1.00  0.00     0.198 A 
ATOM     67  F   UNL A   1      36.057  32.859  32.469  1.00  0.00    -0.203 F 
ATOM     68  F   UNL A   1      33.592  35.142  28.224  1.00  0.00    -0.200 F 
ATOM     69  C   UNL A   1      33.772  34.856  30.552  1.00  0.00     0.200 A 
ATOM     70  F   UNL A   1      33.962  34.443  32.862  1.00  0.00    -0.200 F 
ATOM     71  F   UNL A   1      32.658  35.572  30.750  1.00  0.00    -0.200 F 
ENDBRANCH  47  61
BRANCH  48  72
ATOM     72  C   UNL A   1      44.646  28.833  29.107  1.00  0.00     0.064 A 
ATOM     73  C   UNL A   1      45.445  27.814  29.663  1.00  0.00     0.173 A 
ATOM     74  C   UNL A   1      44.133  28.630  27.822  1.00  0.00     0.173 A 
ATOM     75  F   UNL A   1      45.967  27.967  30.892  1.00  0.00    -0.203 F 
ATOM     76  C   UNL A   1      45.579  26.581  29.033  1.00  0.00     0.198 A 
ATOM     77  C   UNL A   1      44.300  27.404  27.180  1.00  0.00     0.198 A 
ATOM     78  F   UNL A   1      43.359  29.559  27.244  1.00  0.00    -0.203 F 
ATOM     79  F   UNL A   1      46.208  25.575  29.659  1.00  0.00    -0.200 F 
ATOM     80  C   UNL A   1      44.976  26.367  27.806  1.00  0.00     0.200 A 
ATOM     81  F   UNL A   1      43.704  27.189  25.998  1.00  0.00    -0.200 F 
ATOM     82  F   UNL A   1      45.004  25.148  27.249  1.00  0.00    -0.200 F 
ENDBRANCH  48  72
BRANCH  60  83
ATOM     83  C   UNL A   1      42.407  35.725  29.393  1.00  0.00     0.064 A 
ATOM     84  C   UNL A   1      41.872  36.163  28.172  1.00  0.00     0.173 A 
ATOM     85  C   UNL A   1      43.233  36.643  30.075  1.00  0.00     0.173 A 
ATOM     86  F   UNL A   1      41.128  35.342  27.415  1.00  0.00    -0.203 F 
ATOM     87  C   UNL A   1      42.104  37.453  27.691  1.00  0.00     0.198 A 
ATOM     88  C   UNL A   1      43.505  37.912  29.567  1.00  0.00     0.198 A 
ATOM     89  F   UNL A   1      43.778  36.347  31.263  1.00  0.00    -0.203 F 
ATOM     90  F   UNL A   1      41.528  37.850  26.547  1.00  0.00    -0.200 F 
ATOM     91  C   UNL A   1      42.929  38.323  28.382  1.00  0.00     0.200 A 
ATOM     92  F   UNL A   1      44.325  38.734  30.238  1.00  0.00    -0.200 F 
ATOM     93  F   UNL A   1      43.168  39.554  27.909  1.00  0.00    -0.200 F 
ENDBRANCH  60  83
ENDBRANCH  34  35
ENDBRANCH  26  29
ENDBRANCH  24  25
ENDBRANCH  23  24
ENDBRANCH  22  23
ENDBRANCH   1  22
TORSDOF 15
ENDMDL
MODEL 3
REMARK VINA RESULT:     -13.1      1.541      2.542
REMARK SMILES Cc1ccccc1C(=O)N1CSC[C@H]1C(=O)NCCCCCCNC(=O)c1ccc(-c2c3nc(c(-c4c(F)c(F)c(F)c(F)c4F)c4ccc([nH]4)c(-c4c(F)c(F)c(F)c(F)c4F)c4nc(c(-c5c(F)c(F)c(F)c(F)c5F)c5ccc2[nH]5)C=C4)C=C3)cc1
REMARK SMILES IDX 20 1 19 2 18 3 17 4 15 5 16 6 14 8 10 9 11 10 12 11 13 12
REMARK SMILES IDX 8 13 9 14 7 15 1 16 2 17 3 18 4 19 6 20 5 21 21 22 22 23
REMARK SMILES IDX 23 24 24 25 25 26 26 28 27 29 28 30 89 31 29 32 88 33 30 34
REMARK SMILES IDX 31 35 32 36 82 37 33 38 87 39 81 40 83 41 34 42 86 43 80 44
REMARK SMILES IDX 79 45 35 47 67 48 47 49 66 50 48 51 51 52 65 53 84 54 49 55
REMARK SMILES IDX 50 56 64 58 85 59 52 60 36 61 37 62 45 63 38 64 39 65 43 66
REMARK SMILES IDX 46 67 40 68 41 69 44 70 42 71 68 72 69 73 77 74 70 75 71 76
REMARK SMILES IDX 75 77 78 78 72 79 73 80 76 81 74 82 53 83 54 84 62 85 55 86
REMARK SMILES IDX 56 87 60 88 63 89 57 90 58 91 61 92 59 93
REMARK H PARENT 17 7 24 27 83 46 51 57
REMARK Flexibility Score: inf
ROOT
ATOM      1  C   UNL A   1      33.829  28.208  26.930  1.00  0.00     0.002 C 
ENDROOT
BRANCH   1   2
ATOM      2  C   UNL A   1      33.624  26.933  26.101  1.00  0.00     0.021 C 
BRANCH   2   3
ATOM      3  C   UNL A   1      32.213  26.723  25.561  1.00  0.00     0.116 C 
BRANCH   3   4
ATOM      4  N   UNL A   1      31.491  25.672  26.234  1.00  0.00    -0.354 N 
ATOM      5  C   UNL A   1      31.703  24.327  26.252  1.00  0.00     0.243 C 
ATOM      6  O   UNL A   1      31.209  23.721  27.212  1.00  0.00    -0.273 OA
ATOM      7  H   UNL A   1      30.721  25.976  26.766  1.00  0.00     0.163 HD
BRANCH   5   8
ATOM      8  C   UNL A   1      32.590  23.571  25.233  1.00  0.00     0.185 C 
ATOM      9  N   UNL A   1      32.907  22.164  25.505  1.00  0.00    -0.317 N 
ATOM     10  C   UNL A   1      32.216  21.200  24.687  1.00  0.00     0.190 C 
ATOM     11  S   UNL A   1      31.826  22.036  23.131  1.00  0.00    -0.138 SA
ATOM     12  C   UNL A   1      32.123  23.714  23.785  1.00  0.00     0.106 C 
BRANCH   9  13
ATOM     13  C   UNL A   1      33.914  21.901  26.419  1.00  0.00     0.255 C 
ATOM     14  O   UNL A   1      33.658  21.569  27.576  1.00  0.00    -0.269 OA
BRANCH  13  15
ATOM     15  C   UNL A   1      35.350  22.089  26.070  1.00  0.00     0.042 A 
ATOM     16  C   UNL A   1      35.629  19.773  24.967  1.00  0.00     0.045 C 
ATOM     17  C   UNL A   1      36.117  21.138  25.362  1.00  0.00    -0.038 A 
ATOM     18  C   UNL A   1      37.423  21.485  24.964  1.00  0.00     0.004 A 
ATOM     19  C   UNL A   1      37.928  22.766  25.184  1.00  0.00     0.000 A 
ATOM     20  C   UNL A   1      35.868  23.380  26.277  1.00  0.00     0.014 A 
ATOM     21  C   UNL A   1      37.147  23.718  25.830  1.00  0.00     0.001 A 
ENDBRANCH  13  15
ENDBRANCH   9  13
ENDBRANCH   5   8
ENDBRANCH   3   4
ENDBRANCH   2   3
ENDBRANCH   1   2
BRANCH   1  22
ATOM     22  C   UNL A   1      32.620  29.150  27.078  1.00  0.00     0.002 C 
BRANCH  22  23
ATOM     23  C   UNL A   1      32.920  30.612  27.420  1.00  0.00     0.021 C 
BRANCH  23  24
ATOM     24  C   UNL A   1      34.402  30.969  27.387  1.00  0.00     0.116 C 
BRANCH  24  25
ATOM     25  N   UNL A   1      34.866  31.678  28.568  1.00  0.00    -0.352 N 
ATOM     26  C   UNL A   1      35.863  31.302  29.469  1.00  0.00     0.251 C 
ATOM     27  H   UNL A   1      34.418  32.534  28.757  1.00  0.00     0.163 HD
ATOM     28  O   UNL A   1      36.138  31.996  30.431  1.00  0.00    -0.269 OA
BRANCH  26  29
ATOM     29  C   UNL A   1      36.660  30.099  29.152  1.00  0.00     0.039 A 
ATOM     30  C   UNL A   1      36.970  29.227  30.200  1.00  0.00     0.014 A 
ATOM     31  C   UNL A   1      37.289  29.981  27.918  1.00  0.00     0.014 A 
ATOM     32  C   UNL A   1      38.091  28.406  30.089  1.00  0.00     0.010 A 
ATOM     33  C   UNL A   1      38.453  29.241  27.840  1.00  0.00     0.010 A 
ATOM     34  C   UNL A   1      38.893  28.513  28.953  1.00  0.00    -0.014 A 
BRANCH  34  35
ATOM     35  C   UNL A   1      40.251  27.985  28.882  1.00  0.00     0.031 A 
ATOM     36  C   UNL A   1      40.487  26.562  28.565  1.00  0.00     0.074 A 
ATOM     37  C   UNL A   1      41.309  28.816  29.022  1.00  0.00     0.049 A 
ATOM     38  N   UNL A   1      41.591  25.939  28.805  1.00  0.00    -0.248 NA
ATOM     39  C   UNL A   1      39.463  25.710  27.978  1.00  0.00     0.031 C 
ATOM     40  C   UNL A   1      42.707  28.530  28.703  1.00  0.00     0.029 A 
ATOM     41  N   UNL A   1      41.355  30.043  29.704  1.00  0.00    -0.354 N 
ATOM     42  C   UNL A   1      41.532  24.714  28.186  1.00  0.00     0.074 A 
ATOM     43  C   UNL A   1      40.165  24.600  27.731  1.00  0.00     0.031 C 
ATOM     44  C   UNL A   1      43.489  29.334  29.437  1.00  0.00     0.029 A 
ATOM     45  C   UNL A   1      42.625  30.070  30.338  1.00  0.00     0.049 A 
ATOM     46  H   UNL A   1      40.656  30.736  29.736  1.00  0.00     0.167 HD
ATOM     47  C   UNL A   1      42.683  23.992  28.036  1.00  0.00     0.037 A 
ATOM     48  C   UNL A   1      42.732  30.095  31.698  1.00  0.00     0.037 A 
ATOM     49  C   UNL A   1      43.809  24.615  28.733  1.00  0.00     0.049 A 
ATOM     50  C   UNL A   1      43.448  28.906  32.303  1.00  0.00     0.074 A 
ATOM     51  C   UNL A   1      44.898  25.383  28.351  1.00  0.00     0.029 A 
ATOM     52  N   UNL A   1      43.755  24.703  30.113  1.00  0.00    -0.354 N 
ATOM     53  N   UNL A   1      43.926  27.905  31.616  1.00  0.00    -0.248 NA
ATOM     54  C   UNL A   1      43.582  28.701  33.747  1.00  0.00     0.031 C 
ATOM     55  C   UNL A   1      45.502  25.919  29.525  1.00  0.00     0.029 A 
ATOM     56  C   UNL A   1      44.776  25.483  30.616  1.00  0.00     0.049 A 
ATOM     57  H   UNL A   1      43.072  24.263  30.667  1.00  0.00     0.167 HD
ATOM     58  C   UNL A   1      44.356  26.930  32.476  1.00  0.00     0.074 A 
ATOM     59  C   UNL A   1      44.127  27.475  33.799  1.00  0.00     0.031 C 
ATOM     60  C   UNL A   1      44.824  25.723  32.048  1.00  0.00     0.037 A 
BRANCH  47  61
ATOM     61  C   UNL A   1      42.837  22.828  27.079  1.00  0.00     0.064 A 
ATOM     62  C   UNL A   1      42.159  21.610  27.308  1.00  0.00     0.173 A 
ATOM     63  C   UNL A   1      43.676  22.825  25.950  1.00  0.00     0.173 A 
ATOM     64  F   UNL A   1      41.238  21.489  28.271  1.00  0.00    -0.203 F 
ATOM     65  C   UNL A   1      42.404  20.460  26.553  1.00  0.00     0.198 A 
ATOM     66  C   UNL A   1      43.971  21.660  25.234  1.00  0.00     0.198 A 
ATOM     67  F   UNL A   1      44.187  23.959  25.458  1.00  0.00    -0.203 F 
ATOM     68  F   UNL A   1      41.732  19.331  26.825  1.00  0.00    -0.200 F 
ATOM     69  C   UNL A   1      43.343  20.472  25.544  1.00  0.00     0.200 A 
ATOM     70  F   UNL A   1      44.866  21.702  24.237  1.00  0.00    -0.200 F 
ATOM     71  F   UNL A   1      43.619  19.357  24.857  1.00  0.00    -0.200 F 
ENDBRANCH  47  61
BRANCH  48  72
ATOM     72  C   UNL A   1      41.611  30.843  32.330  1.00  0.00     0.064 A 
ATOM     73  C   UNL A   1      41.631  32.249  32.239  1.00  0.00     0.173 A 
ATOM     74  C   UNL A   1      40.387  30.224  32.601  1.00  0.00     0.173 A 
ATOM     75  F   UNL A   1      42.786  32.889  31.989  1.00  0.00    -0.203 F 
ATOM     76  C   UNL A   1      40.451  32.987  32.248  1.00  0.00     0.198 A 
ATOM     77  C   UNL A   1      39.211  30.973  32.643  1.00  0.00     0.198 A 
ATOM     78  F   UNL A   1      40.303  28.890  32.690  1.00  0.00    -0.203 F 
ATOM     79  F   UNL A   1      40.485  34.304  31.997  1.00  0.00    -0.200 F 
ATOM     80  C   UNL A   1      39.238  32.342  32.416  1.00  0.00     0.200 A 
ATOM     81  F   UNL A   1      38.034  30.348  32.790  1.00  0.00    -0.200 F 
ATOM     82  F   UNL A   1      38.093  33.029  32.309  1.00  0.00    -0.200 F 
ENDBRANCH  48  72
BRANCH  60  83
ATOM     83  C   UNL A   1      45.340  24.656  32.971  1.00  0.00     0.064 A 
ATOM     84  C   UNL A   1      44.545  23.577  33.386  1.00  0.00     0.173 A 
ATOM     85  C   UNL A   1      46.618  24.750  33.563  1.00  0.00     0.173 A 
ATOM     86  F   UNL A   1      43.290  23.436  32.934  1.00  0.00    -0.203 F 
ATOM     87  C   UNL A   1      45.016  22.625  34.292  1.00  0.00     0.198 A 
ATOM     88  C   UNL A   1      47.067  23.827  34.505  1.00  0.00     0.198 A 
ATOM     89  F   UNL A   1      47.477  25.722  33.225  1.00  0.00    -0.203 F 
ATOM     90  F   UNL A   1      44.245  21.578  34.619  1.00  0.00    -0.200 F 
ATOM     91  C   UNL A   1      46.271  22.756  34.860  1.00  0.00     0.200 A 
ATOM     92  F   UNL A   1      48.277  23.981  35.062  1.00  0.00    -0.200 F 
ATOM     93  F   UNL A   1      46.715  21.852  35.744  1.00  0.00    -0.200 F 
ENDBRANCH  60  83
ENDBRANCH  34  35
ENDBRANCH  26  29
ENDBRANCH  24  25
ENDBRANCH  23  24
ENDBRANCH  22  23
ENDBRANCH   1  22
TORSDOF 15
ENDMDL
