MODEL 1
REMARK VINA RESULT:     -11.3      0.000      0.000
REMARK SMILES CSc1cccc(N2C[C@@H](C(=O)NCCCCCCNC(=O)c3ccc(-c4c5nc(c(-c6c(F)c(F)c(F)c(F)c6F)c6ccc([nH]6)c(-c6c(F)c(F)c(F)c(F)c6F)c6nc(c(-c7c(F)c(F)c(F)c(F)c7F)c7ccc4[nH]7)C=C6)C=C5)cc3)CC2=O)c1
REMARK SMILES IDX 16 1 15 2 14 3 13 4 11 5 12 6 10 8 8 9 9 10 87 11 86 12
REMARK SMILES IDX 88 13 7 14 3 15 4 16 89 17 5 18 6 19 2 20 1 21 17 22 18 23
REMARK SMILES IDX 19 24 20 25 21 26 22 28 23 29 24 30 85 31 25 32 84 33 26 34
REMARK SMILES IDX 27 35 28 36 78 37 29 38 83 39 77 40 79 41 30 42 82 43 76 44
REMARK SMILES IDX 75 45 31 47 63 48 43 49 62 50 44 51 47 52 61 53 80 54 45 55
REMARK SMILES IDX 46 56 60 58 81 59 48 60 32 61 33 62 41 63 34 64 35 65 39 66
REMARK SMILES IDX 42 67 36 68 37 69 40 70 38 71 64 72 65 73 73 74 66 75 67 76
REMARK SMILES IDX 71 77 74 78 68 79 69 80 72 81 70 82 49 83 50 84 58 85 51 86
REMARK SMILES IDX 52 87 56 88 59 89 53 90 54 91 57 92 55 93
REMARK H PARENT 13 7 20 27 79 46 47 57
REMARK Flexibility Score: inf
ROOT
ATOM      1  C   UNL A   1      41.757  21.431  26.738  1.00  0.00     0.002 C 
ENDROOT
BRANCH   1   2
ATOM      2  C   UNL A   1      40.745  22.275  27.522  1.00  0.00     0.021 C 
BRANCH   2   3
ATOM      3  C   UNL A   1      39.617  22.855  26.668  1.00  0.00     0.116 C 
BRANCH   3   4
ATOM      4  N   UNL A   1      38.808  21.802  26.083  1.00  0.00    -0.356 N 
ATOM      5  C   UNL A   1      37.703  21.842  25.297  1.00  0.00     0.225 C 
ATOM      6  O   UNL A   1      37.205  20.762  24.968  1.00  0.00    -0.275 OA
ATOM      7  H   UNL A   1      39.117  20.892  26.295  1.00  0.00     0.163 HD
BRANCH   5   8
ATOM      8  C   UNL A   1      37.105  23.134  24.782  1.00  0.00     0.107 C 
ATOM      9  N   UNL A   1      34.970  24.131  24.899  1.00  0.00    -0.312 N 
ATOM     10  C   UNL A   1      36.068  23.702  25.731  1.00  0.00     0.139 C 
ATOM     11  C   UNL A   1      35.097  23.690  23.584  1.00  0.00     0.227 C 
ATOM     12  C   UNL A   1      36.452  23.054  23.413  1.00  0.00     0.116 C 
ATOM     13  O   UNL A   1      34.298  23.805  22.663  1.00  0.00    -0.274 OA
BRANCH   9  14
ATOM     14  C   UNL A   1      33.867  24.855  25.419  1.00  0.00     0.045 A 
ATOM     15  C   UNL A   1      32.838  26.964  26.107  1.00  0.00     0.009 A 
ATOM     16  C   UNL A   1      31.696  26.258  26.505  1.00  0.00     0.015 A 
ATOM     17  C   UNL A   1      33.928  26.247  25.594  1.00  0.00     0.041 A 
ATOM     18  C   UNL A   1      31.626  24.875  26.353  1.00  0.00     0.003 A 
ATOM     19  C   UNL A   1      32.696  24.182  25.787  1.00  0.00     0.026 A 
BRANCH  15  20
ATOM     20  S   UNL A   1      32.787  28.742  26.315  1.00  0.00    -0.130 SA
ATOM     21  C   UNL A   1      34.392  29.118  27.068  1.00  0.00     0.091 C 
ENDBRANCH  15  20
ENDBRANCH   9  14
ENDBRANCH   5   8
ENDBRANCH   3   4
ENDBRANCH   2   3
ENDBRANCH   1   2
BRANCH   1  22
ATOM     22  C   UNL A   1      41.905  19.983  27.219  1.00  0.00     0.002 C 
BRANCH  22  23
ATOM     23  C   UNL A   1      42.269  18.973  26.129  1.00  0.00     0.021 C 
BRANCH  23  24
ATOM     24  C   UNL A   1      43.738  18.565  26.104  1.00  0.00     0.116 C 
BRANCH  24  25
ATOM     25  N   UNL A   1      44.273  18.532  24.755  1.00  0.00    -0.352 N 
ATOM     26  C   UNL A   1      44.662  19.562  23.939  1.00  0.00     0.251 C 
ATOM     27  H   UNL A   1      44.373  17.632  24.366  1.00  0.00     0.163 HD
ATOM     28  O   UNL A   1      44.898  19.347  22.753  1.00  0.00    -0.269 OA
BRANCH  26  29
ATOM     29  C   UNL A   1      44.780  20.937  24.472  1.00  0.00     0.039 A 
ATOM     30  C   UNL A   1      45.398  21.118  25.712  1.00  0.00     0.014 A 
ATOM     31  C   UNL A   1      44.258  22.037  23.784  1.00  0.00     0.014 A 
ATOM     32  C   UNL A   1      45.530  22.404  26.238  1.00  0.00     0.010 A 
ATOM     33  C   UNL A   1      44.465  23.326  24.271  1.00  0.00     0.010 A 
ATOM     34  C   UNL A   1      45.092  23.524  25.509  1.00  0.00    -0.014 A 
BRANCH  34  35
ATOM     35  C   UNL A   1      45.295  24.893  26.047  1.00  0.00     0.031 A 
ATOM     36  C   UNL A   1      46.644  25.553  25.988  1.00  0.00     0.074 A 
ATOM     37  C   UNL A   1      44.252  25.541  26.603  1.00  0.00     0.049 A 
ATOM     38  N   UNL A   1      46.993  26.760  26.362  1.00  0.00    -0.248 NA
ATOM     39  C   UNL A   1      47.758  24.749  25.463  1.00  0.00     0.031 C 
ATOM     40  C   UNL A   1      42.909  24.984  26.777  1.00  0.00     0.029 A 
ATOM     41  N   UNL A   1      44.155  26.810  27.117  1.00  0.00    -0.354 N 
ATOM     42  C   UNL A   1      48.356  26.856  26.119  1.00  0.00     0.074 A 
ATOM     43  C   UNL A   1      48.787  25.565  25.628  1.00  0.00     0.031 C 
ATOM     44  C   UNL A   1      42.111  25.920  27.313  1.00  0.00     0.029 A 
ATOM     45  C   UNL A   1      42.893  27.128  27.555  1.00  0.00     0.049 A 
ATOM     46  H   UNL A   1      44.916  27.432  27.167  1.00  0.00     0.167 HD
ATOM     47  C   UNL A   1      49.171  27.930  26.263  1.00  0.00     0.037 A 
ATOM     48  C   UNL A   1      42.417  28.272  28.085  1.00  0.00     0.037 A 
ATOM     49  C   UNL A   1      48.734  29.216  26.745  1.00  0.00     0.049 A 
ATOM     50  C   UNL A   1      43.342  29.449  28.233  1.00  0.00     0.074 A 
ATOM     51  C   UNL A   1      49.469  30.382  26.880  1.00  0.00     0.029 A 
ATOM     52  N   UNL A   1      47.448  29.503  27.179  1.00  0.00    -0.354 N 
ATOM     53  N   UNL A   1      44.610  29.553  27.920  1.00  0.00    -0.248 NA
ATOM     54  C   UNL A   1      42.760  30.675  28.794  1.00  0.00     0.031 C 
ATOM     55  C   UNL A   1      48.642  31.356  27.451  1.00  0.00     0.029 A 
ATOM     56  C   UNL A   1      47.375  30.821  27.607  1.00  0.00     0.049 A 
ATOM     57  H   UNL A   1      46.698  28.867  27.182  1.00  0.00     0.167 HD
ATOM     58  C   UNL A   1      44.972  30.860  28.218  1.00  0.00     0.074 A 
ATOM     59  C   UNL A   1      43.778  31.516  28.710  1.00  0.00     0.031 C 
ATOM     60  C   UNL A   1      46.182  31.461  28.101  1.00  0.00     0.037 A 
BRANCH  47  61
ATOM     61  C   UNL A   1      50.618  27.759  25.895  1.00  0.00     0.064 A 
ATOM     62  C   UNL A   1      51.594  27.457  26.858  1.00  0.00     0.173 A 
ATOM     63  C   UNL A   1      51.032  27.862  24.558  1.00  0.00     0.173 A 
ATOM     64  F   UNL A   1      51.257  27.357  28.153  1.00  0.00    -0.203 F 
ATOM     65  C   UNL A   1      52.931  27.298  26.503  1.00  0.00     0.198 A 
ATOM     66  C   UNL A   1      52.365  27.667  24.201  1.00  0.00     0.198 A 
ATOM     67  F   UNL A   1      50.143  28.142  23.593  1.00  0.00    -0.203 F 
ATOM     68  F   UNL A   1      53.851  27.065  27.448  1.00  0.00    -0.200 F 
ATOM     69  C   UNL A   1      53.314  27.395  25.173  1.00  0.00     0.200 A 
ATOM     70  F   UNL A   1      52.730  27.745  22.913  1.00  0.00    -0.200 F 
ATOM     71  F   UNL A   1      54.600  27.232  24.831  1.00  0.00    -0.200 F 
ENDBRANCH  47  61
BRANCH  48  72
ATOM     72  C   UNL A   1      40.986  28.370  28.481  1.00  0.00     0.064 A 
ATOM     73  C   UNL A   1      40.032  28.925  27.618  1.00  0.00     0.173 A 
ATOM     74  C   UNL A   1      40.547  27.923  29.736  1.00  0.00     0.173 A 
ATOM     75  F   UNL A   1      40.405  29.384  26.413  1.00  0.00    -0.203 F 
ATOM     76  C   UNL A   1      38.700  29.058  28.004  1.00  0.00     0.198 A 
ATOM     77  C   UNL A   1      39.208  28.024  30.108  1.00  0.00     0.198 A 
ATOM     78  F   UNL A   1      41.417  27.375  30.597  1.00  0.00    -0.203 F 
ATOM     79  F   UNL A   1      37.821  29.645  27.181  1.00  0.00    -0.200 F 
ATOM     80  C   UNL A   1      38.288  28.602  29.247  1.00  0.00     0.200 A 
ATOM     81  F   UNL A   1      38.811  27.564  31.302  1.00  0.00    -0.200 F 
ATOM     82  F   UNL A   1      37.006  28.726  29.618  1.00  0.00    -0.200 F 
ENDBRANCH  48  72
BRANCH  60  83
ATOM     83  C   UNL A   1      46.260  32.914  28.481  1.00  0.00     0.064 A 
ATOM     84  C   UNL A   1      46.576  33.323  29.787  1.00  0.00     0.173 A 
ATOM     85  C   UNL A   1      46.005  33.913  27.528  1.00  0.00     0.173 A 
ATOM     86  F   UNL A   1      46.818  32.412  30.740  1.00  0.00    -0.203 F 
ATOM     87  C   UNL A   1      46.581  34.672  30.135  1.00  0.00     0.198 A 
ATOM     88  C   UNL A   1      46.051  35.262  27.870  1.00  0.00     0.198 A 
ATOM     89  F   UNL A   1      45.709  33.581  26.262  1.00  0.00    -0.203 F 
ATOM     90  F   UNL A   1      46.806  35.033  31.405  1.00  0.00    -0.200 F 
ATOM     91  C   UNL A   1      46.322  35.639  29.175  1.00  0.00     0.200 A 
ATOM     92  F   UNL A   1      45.819  36.195  26.938  1.00  0.00    -0.200 F 
ATOM     93  F   UNL A   1      46.321  36.936  29.514  1.00  0.00    -0.200 F 
ENDBRANCH  60  83
ENDBRANCH  34  35
ENDBRANCH  26  29
ENDBRANCH  24  25
ENDBRANCH  23  24
ENDBRANCH  22  23
ENDBRANCH   1  22
TORSDOF 15
ENDMDL
MODEL 2
REMARK VINA RESULT:     -11.2      0.385      1.330
REMARK SMILES CSc1cccc(N2C[C@@H](C(=O)NCCCCCCNC(=O)c3ccc(-c4c5nc(c(-c6c(F)c(F)c(F)c(F)c6F)c6ccc([nH]6)c(-c6c(F)c(F)c(F)c(F)c6F)c6nc(c(-c7c(F)c(F)c(F)c(F)c7F)c7ccc4[nH]7)C=C6)C=C5)cc3)CC2=O)c1
REMARK SMILES IDX 16 1 15 2 14 3 13 4 11 5 12 6 10 8 8 9 9 10 87 11 86 12
REMARK SMILES IDX 88 13 7 14 3 15 4 16 89 17 5 18 6 19 2 20 1 21 17 22 18 23
REMARK SMILES IDX 19 24 20 25 21 26 22 28 23 29 24 30 85 31 25 32 84 33 26 34
REMARK SMILES IDX 27 35 28 36 78 37 29 38 83 39 77 40 79 41 30 42 82 43 76 44
REMARK SMILES IDX 75 45 31 47 63 48 43 49 62 50 44 51 47 52 61 53 80 54 45 55
REMARK SMILES IDX 46 56 60 58 81 59 48 60 32 61 33 62 41 63 34 64 35 65 39 66
REMARK SMILES IDX 42 67 36 68 37 69 40 70 38 71 64 72 65 73 73 74 66 75 67 76
REMARK SMILES IDX 71 77 74 78 68 79 69 80 72 81 70 82 49 83 50 84 58 85 51 86
REMARK SMILES IDX 52 87 56 88 59 89 53 90 54 91 57 92 55 93
REMARK H PARENT 13 7 20 27 79 46 47 57
REMARK Flexibility Score: inf
ROOT
ATOM      1  C   UNL A   1      41.944  21.465  27.127  1.00  0.00     0.002 C 
ENDROOT
BRANCH   1   2
ATOM      2  C   UNL A   1      40.744  22.284  27.618  1.00  0.00     0.021 C 
BRANCH   2   3
ATOM      3  C   UNL A   1      39.829  22.787  26.502  1.00  0.00     0.116 C 
BRANCH   3   4
ATOM      4  N   UNL A   1      38.927  21.743  26.052  1.00  0.00    -0.356 N 
ATOM      5  C   UNL A   1      37.774  21.788  25.340  1.00  0.00     0.225 C 
ATOM      6  O   UNL A   1      37.198  20.717  25.127  1.00  0.00    -0.275 OA
ATOM      7  H   UNL A   1      39.203  20.834  26.312  1.00  0.00     0.163 HD
BRANCH   5   8
ATOM      8  C   UNL A   1      37.209  23.072  24.770  1.00  0.00     0.107 C 
ATOM      9  N   UNL A   1      35.094  24.116  24.822  1.00  0.00    -0.312 N 
ATOM     10  C   UNL A   1      36.173  23.697  25.684  1.00  0.00     0.139 C 
ATOM     11  C   UNL A   1      35.227  23.623  23.527  1.00  0.00     0.227 C 
ATOM     12  C   UNL A   1      36.570  22.953  23.397  1.00  0.00     0.116 C 
ATOM     13  O   UNL A   1      34.442  23.720  22.592  1.00  0.00    -0.274 OA
BRANCH   9  14
ATOM     14  C   UNL A   1      34.001  24.882  25.301  1.00  0.00     0.045 A 
ATOM     15  C   UNL A   1      32.878  27.033  25.605  1.00  0.00     0.009 A 
ATOM     16  C   UNL A   1      31.858  26.383  26.309  1.00  0.00     0.015 A 
ATOM     17  C   UNL A   1      33.960  26.275  25.133  1.00  0.00     0.041 A 
ATOM     18  C   UNL A   1      31.891  25.003  26.497  1.00  0.00     0.003 A 
ATOM     19  C   UNL A   1      32.944  24.254  25.972  1.00  0.00     0.026 A 
BRANCH  15  20
ATOM     20  S   UNL A   1      32.697  28.802  25.394  1.00  0.00    -0.130 SA
ATOM     21  C   UNL A   1      31.188  28.951  24.402  1.00  0.00     0.091 C 
ENDBRANCH  15  20
ENDBRANCH   9  14
ENDBRANCH   5   8
ENDBRANCH   3   4
ENDBRANCH   2   3
ENDBRANCH   1   2
BRANCH   1  22
ATOM     22  C   UNL A   1      41.898  19.973  27.478  1.00  0.00     0.002 C 
BRANCH  22  23
ATOM     23  C   UNL A   1      42.211  19.026  26.318  1.00  0.00     0.021 C 
BRANCH  23  24
ATOM     24  C   UNL A   1      43.682  18.649  26.182  1.00  0.00     0.116 C 
BRANCH  24  25
ATOM     25  N   UNL A   1      44.106  18.592  24.794  1.00  0.00    -0.352 N 
ATOM     26  C   UNL A   1      44.518  19.597  23.959  1.00  0.00     0.251 C 
ATOM     27  H   UNL A   1      44.096  17.693  24.391  1.00  0.00     0.163 HD
ATOM     28  O   UNL A   1      44.641  19.381  22.757  1.00  0.00    -0.269 OA
BRANCH  26  29
ATOM     29  C   UNL A   1      44.796  20.948  24.494  1.00  0.00     0.039 A 
ATOM     30  C   UNL A   1      44.350  22.056  23.768  1.00  0.00     0.014 A 
ATOM     31  C   UNL A   1      45.519  21.134  25.676  1.00  0.00     0.014 A 
ATOM     32  C   UNL A   1      44.593  23.343  24.250  1.00  0.00     0.010 A 
ATOM     33  C   UNL A   1      45.687  22.415  26.199  1.00  0.00     0.010 A 
ATOM     34  C   UNL A   1      45.236  23.534  25.485  1.00  0.00    -0.014 A 
BRANCH  34  35
ATOM     35  C   UNL A   1      45.433  24.905  26.023  1.00  0.00     0.031 A 
ATOM     36  C   UNL A   1      46.781  25.568  25.971  1.00  0.00     0.074 A 
ATOM     37  C   UNL A   1      44.386  25.551  26.573  1.00  0.00     0.049 A 
ATOM     38  N   UNL A   1      47.125  26.776  26.346  1.00  0.00    -0.248 NA
ATOM     39  C   UNL A   1      47.900  24.765  25.453  1.00  0.00     0.031 C 
ATOM     40  C   UNL A   1      43.043  24.991  26.740  1.00  0.00     0.029 A 
ATOM     41  N   UNL A   1      44.282  26.820  27.085  1.00  0.00    -0.354 N 
ATOM     42  C   UNL A   1      48.490  26.875  26.111  1.00  0.00     0.074 A 
ATOM     43  C   UNL A   1      48.926  25.584  25.623  1.00  0.00     0.031 C 
ATOM     44  C   UNL A   1      42.240  25.925  27.271  1.00  0.00     0.029 A 
ATOM     45  C   UNL A   1      43.017  27.136  27.516  1.00  0.00     0.049 A 
ATOM     46  H   UNL A   1      45.042  27.443  27.139  1.00  0.00     0.167 HD
ATOM     47  C   UNL A   1      49.300  27.950  26.258  1.00  0.00     0.037 A 
ATOM     48  C   UNL A   1      42.536  28.278  28.042  1.00  0.00     0.037 A 
ATOM     49  C   UNL A   1      48.859  29.236  26.737  1.00  0.00     0.049 A 
ATOM     50  C   UNL A   1      43.457  29.458  28.194  1.00  0.00     0.074 A 
ATOM     51  C   UNL A   1      49.590  30.404  26.876  1.00  0.00     0.029 A 
ATOM     52  N   UNL A   1      47.570  29.521  27.163  1.00  0.00    -0.354 N 
ATOM     53  N   UNL A   1      44.727  29.565  27.888  1.00  0.00    -0.248 NA
ATOM     54  C   UNL A   1      42.869  30.683  28.751  1.00  0.00     0.031 C 
ATOM     55  C   UNL A   1      48.758  31.377  27.441  1.00  0.00     0.029 A 
ATOM     56  C   UNL A   1      47.491  30.839  27.590  1.00  0.00     0.049 A 
ATOM     57  H   UNL A   1      46.821  28.882  27.163  1.00  0.00     0.167 HD
ATOM     58  C   UNL A   1      45.084  30.872  28.188  1.00  0.00     0.074 A 
ATOM     59  C   UNL A   1      43.886  31.527  28.672  1.00  0.00     0.031 C 
ATOM     60  C   UNL A   1      46.293  31.477  28.076  1.00  0.00     0.037 A 
BRANCH  47  61
ATOM     61  C   UNL A   1      50.751  27.783  25.899  1.00  0.00     0.064 A 
ATOM     62  C   UNL A   1      51.207  27.940  24.580  1.00  0.00     0.173 A 
ATOM     63  C   UNL A   1      51.704  27.500  26.889  1.00  0.00     0.173 A 
ATOM     64  F   UNL A   1      50.338  28.201  23.591  1.00  0.00    -0.203 F 
ATOM     65  C   UNL A   1      52.554  27.786  24.261  1.00  0.00     0.198 A 
ATOM     66  C   UNL A   1      53.056  27.382  26.573  1.00  0.00     0.198 A 
ATOM     67  F   UNL A   1      51.327  27.347  28.167  1.00  0.00    -0.203 F 
ATOM     68  F   UNL A   1      52.955  27.885  22.987  1.00  0.00    -0.200 F 
ATOM     69  C   UNL A   1      53.478  27.516  25.260  1.00  0.00     0.200 A 
ATOM     70  F   UNL A   1      53.949  27.137  27.541  1.00  0.00    -0.200 F 
ATOM     71  F   UNL A   1      54.776  27.377  24.953  1.00  0.00    -0.200 F 
ENDBRANCH  47  61
BRANCH  48  72
ATOM     72  C   UNL A   1      41.103  28.374  28.430  1.00  0.00     0.064 A 
ATOM     73  C   UNL A   1      40.147  28.897  27.549  1.00  0.00     0.173 A 
ATOM     74  C   UNL A   1      40.662  27.955  29.694  1.00  0.00     0.173 A 
ATOM     75  F   UNL A   1      40.521  29.328  26.334  1.00  0.00    -0.203 F 
ATOM     76  C   UNL A   1      38.812  29.028  27.927  1.00  0.00     0.198 A 
ATOM     77  C   UNL A   1      39.321  28.053  30.059  1.00  0.00     0.198 A 
ATOM     78  F   UNL A   1      41.533  27.438  30.573  1.00  0.00    -0.203 F 
ATOM     79  F   UNL A   1      37.931  29.585  27.085  1.00  0.00    -0.200 F 
ATOM     80  C   UNL A   1      38.399  28.600  29.179  1.00  0.00     0.200 A 
ATOM     81  F   UNL A   1      38.923  27.621  31.263  1.00  0.00    -0.200 F 
ATOM     82  F   UNL A   1      37.115  28.722  29.541  1.00  0.00    -0.200 F 
ENDBRANCH  48  72
BRANCH  60  83
ATOM     83  C   UNL A   1      46.366  32.930  28.456  1.00  0.00     0.064 A 
ATOM     84  C   UNL A   1      46.644  33.341  29.770  1.00  0.00     0.173 A 
ATOM     85  C   UNL A   1      46.143  33.928  27.494  1.00  0.00     0.173 A 
ATOM     86  F   UNL A   1      46.853  32.430  30.732  1.00  0.00    -0.203 F 
ATOM     87  C   UNL A   1      46.644  34.690  30.115  1.00  0.00     0.198 A 
ATOM     88  C   UNL A   1      46.185  35.277  27.834  1.00  0.00     0.198 A 
ATOM     89  F   UNL A   1      45.884  33.594  26.220  1.00  0.00    -0.203 F 
ATOM     90  F   UNL A   1      46.832  35.053  31.391  1.00  0.00    -0.200 F 
ATOM     91  C   UNL A   1      46.419  35.657  29.146  1.00  0.00     0.200 A 
ATOM     92  F   UNL A   1      45.985  36.210  26.894  1.00  0.00    -0.200 F 
ATOM     93  F   UNL A   1      46.412  36.954  29.483  1.00  0.00    -0.200 F 
ENDBRANCH  60  83
ENDBRANCH  34  35
ENDBRANCH  26  29
ENDBRANCH  24  25
ENDBRANCH  23  24
ENDBRANCH  22  23
ENDBRANCH   1  22
TORSDOF 15
ENDMDL
MODEL 3
REMARK VINA RESULT:     -11.2      6.983     12.625
REMARK SMILES CSc1cccc(N2C[C@@H](C(=O)NCCCCCCNC(=O)c3ccc(-c4c5nc(c(-c6c(F)c(F)c(F)c(F)c6F)c6ccc([nH]6)c(-c6c(F)c(F)c(F)c(F)c6F)c6nc(c(-c7c(F)c(F)c(F)c(F)c7F)c7ccc4[nH]7)C=C6)C=C5)cc3)CC2=O)c1
REMARK SMILES IDX 16 1 15 2 14 3 13 4 11 5 12 6 10 8 8 9 9 10 87 11 86 12
REMARK SMILES IDX 88 13 7 14 3 15 4 16 89 17 5 18 6 19 2 20 1 21 17 22 18 23
REMARK SMILES IDX 19 24 20 25 21 26 22 28 23 29 24 30 85 31 25 32 84 33 26 34
REMARK SMILES IDX 27 35 28 36 78 37 29 38 83 39 77 40 79 41 30 42 82 43 76 44
REMARK SMILES IDX 75 45 31 47 63 48 43 49 62 50 44 51 47 52 61 53 80 54 45 55
REMARK SMILES IDX 46 56 60 58 81 59 48 60 32 61 33 62 41 63 34 64 35 65 39 66
REMARK SMILES IDX 42 67 36 68 37 69 40 70 38 71 64 72 65 73 73 74 66 75 67 76
REMARK SMILES IDX 71 77 74 78 68 79 69 80 72 81 70 82 49 83 50 84 58 85 51 86
REMARK SMILES IDX 52 87 56 88 59 89 53 90 54 91 57 92 55 93
REMARK H PARENT 13 7 20 27 79 46 47 57
REMARK Flexibility Score: inf
ROOT
ATOM      1  C   UNL A   1      35.040  33.320  27.874  1.00  0.00     0.002 C 
ENDROOT
BRANCH   1   2
ATOM      2  C   UNL A   1      35.939  32.095  28.078  1.00  0.00     0.021 C 
BRANCH   2   3
ATOM      3  C   UNL A   1      35.235  30.756  27.859  1.00  0.00     0.116 C 
BRANCH   3   4
ATOM      4  N   UNL A   1      34.006  30.926  27.109  1.00  0.00    -0.356 N 
ATOM      5  C   UNL A   1      33.044  30.045  26.738  1.00  0.00     0.225 C 
ATOM      6  O   UNL A   1      32.105  30.482  26.065  1.00  0.00    -0.275 OA
ATOM      7  H   UNL A   1      33.839  31.850  26.815  1.00  0.00     0.163 HD
BRANCH   5   8
ATOM      8  C   UNL A   1      33.057  28.589  27.152  1.00  0.00     0.107 C 
ATOM      9  N   UNL A   1      32.976  26.537  25.990  1.00  0.00    -0.312 N 
ATOM     10  C   UNL A   1      33.791  27.716  26.153  1.00  0.00     0.139 C 
ATOM     11  C   UNL A   1      31.723  26.673  26.581  1.00  0.00     0.227 C 
ATOM     12  C   UNL A   1      31.692  27.957  27.368  1.00  0.00     0.116 C 
ATOM     13  O   UNL A   1      30.776  25.897  26.542  1.00  0.00    -0.274 OA
BRANCH   9  14
ATOM     14  C   UNL A   1      33.413  25.416  25.240  1.00  0.00     0.045 A 
ATOM     15  C   UNL A   1      34.120  23.078  25.120  1.00  0.00     0.009 A 
ATOM     16  C   UNL A   1      34.334  23.230  23.745  1.00  0.00     0.015 A 
ATOM     17  C   UNL A   1      33.688  24.187  25.861  1.00  0.00     0.041 A 
ATOM     18  C   UNL A   1      34.080  24.446  23.116  1.00  0.00     0.003 A 
ATOM     19  C   UNL A   1      33.596  25.525  23.856  1.00  0.00     0.026 A 
BRANCH  15  20
ATOM     20  S   UNL A   1      34.442  21.453  25.801  1.00  0.00    -0.130 SA
ATOM     21  C   UNL A   1      34.091  21.664  27.566  1.00  0.00     0.091 C 
ENDBRANCH  15  20
ENDBRANCH   9  14
ENDBRANCH   5   8
ENDBRANCH   3   4
ENDBRANCH   2   3
ENDBRANCH   1   2
BRANCH   1  22
ATOM     22  C   UNL A   1      34.547  33.984  29.164  1.00  0.00     0.002 C 
BRANCH  22  23
ATOM     23  C   UNL A   1      33.266  34.809  29.020  1.00  0.00     0.021 C 
BRANCH  23  24
ATOM     24  C   UNL A   1      33.272  36.134  29.775  1.00  0.00     0.116 C 
BRANCH  24  25
ATOM     25  N   UNL A   1      32.386  36.111  30.925  1.00  0.00    -0.352 N 
ATOM     26  C   UNL A   1      32.530  35.478  32.132  1.00  0.00     0.251 C 
ATOM     27  H   UNL A   1      31.555  36.631  30.824  1.00  0.00     0.163 HD
ATOM     28  O   UNL A   1      31.578  35.411  32.904  1.00  0.00    -0.269 OA
BRANCH  26  29
ATOM     29  C   UNL A   1      33.821  34.856  32.503  1.00  0.00     0.039 A 
ATOM     30  C   UNL A   1      33.821  33.521  32.915  1.00  0.00     0.014 A 
ATOM     31  C   UNL A   1      35.016  35.581  32.482  1.00  0.00     0.014 A 
ATOM     32  C   UNL A   1      35.024  32.905  33.266  1.00  0.00     0.010 A 
ATOM     33  C   UNL A   1      36.225  34.942  32.751  1.00  0.00     0.010 A 
ATOM     34  C   UNL A   1      36.241  33.600  33.158  1.00  0.00    -0.014 A 
BRANCH  34  35
ATOM     35  C   UNL A   1      37.523  32.918  33.470  1.00  0.00     0.031 A 
ATOM     36  C   UNL A   1      38.272  33.226  34.737  1.00  0.00     0.074 A 
ATOM     37  C   UNL A   1      38.020  32.023  32.594  1.00  0.00     0.049 A 
ATOM     38  N   UNL A   1      39.377  32.691  35.195  1.00  0.00    -0.248 NA
ATOM     39  C   UNL A   1      37.724  34.289  35.594  1.00  0.00     0.031 C 
ATOM     40  C   UNL A   1      37.421  31.685  31.302  1.00  0.00     0.029 A 
ATOM     41  N   UNL A   1      39.136  31.226  32.661  1.00  0.00    -0.354 N 
ATOM     42  C   UNL A   1      39.654  33.351  36.386  1.00  0.00     0.074 A 
ATOM     43  C   UNL A   1      38.640  34.370  36.547  1.00  0.00     0.031 C 
ATOM     44  C   UNL A   1      38.148  30.720  30.719  1.00  0.00     0.029 A 
ATOM     45  C   UNL A   1      39.283  30.396  31.577  1.00  0.00     0.049 A 
ATOM     46  H   UNL A   1      39.770  31.248  33.414  1.00  0.00     0.167 HD
ATOM     47  C   UNL A   1      40.645  33.110  37.278  1.00  0.00     0.037 A 
ATOM     48  C   UNL A   1      40.224  29.471  31.310  1.00  0.00     0.037 A 
ATOM     49  C   UNL A   1      41.649  32.088  37.116  1.00  0.00     0.049 A 
ATOM     50  C   UNL A   1      41.313  29.222  32.318  1.00  0.00     0.074 A 
ATOM     51  C   UNL A   1      42.665  31.731  37.985  1.00  0.00     0.029 A 
ATOM     52  N   UNL A   1      41.766  31.265  36.006  1.00  0.00    -0.354 N 
ATOM     53  N   UNL A   1      41.515  29.795  33.480  1.00  0.00    -0.248 NA
ATOM     54  C   UNL A   1      42.296  28.185  31.981  1.00  0.00     0.031 C 
ATOM     55  C   UNL A   1      43.432  30.733  37.375  1.00  0.00     0.029 A 
ATOM     56  C   UNL A   1      42.855  30.418  36.156  1.00  0.00     0.049 A 
ATOM     57  H   UNL A   1      41.166  31.279  35.226  1.00  0.00     0.167 HD
ATOM     58  C   UNL A   1      42.628  29.170  34.025  1.00  0.00     0.074 A 
ATOM     59  C   UNL A   1      43.038  28.155  33.077  1.00  0.00     0.031 C 
ATOM     60  C   UNL A   1      43.257  29.416  35.202  1.00  0.00     0.037 A 
BRANCH  47  61
ATOM     61  C   UNL A   1      40.694  33.969  38.512  1.00  0.00     0.064 A 
ATOM     62  C   UNL A   1      41.442  35.156  38.555  1.00  0.00     0.173 A 
ATOM     63  C   UNL A   1      39.954  33.622  39.653  1.00  0.00     0.173 A 
ATOM     64  F   UNL A   1      42.177  35.531  37.497  1.00  0.00    -0.203 F 
ATOM     65  C   UNL A   1      41.476  35.944  39.704  1.00  0.00     0.198 A 
ATOM     66  C   UNL A   1      39.961  34.431  40.787  1.00  0.00     0.198 A 
ATOM     67  F   UNL A   1      39.215  32.502  39.666  1.00  0.00    -0.203 F 
ATOM     68  F   UNL A   1      42.241  37.042  39.739  1.00  0.00    -0.200 F 
ATOM     69  C   UNL A   1      40.728  35.585  40.815  1.00  0.00     0.200 A 
ATOM     70  F   UNL A   1      39.226  34.090  41.855  1.00  0.00    -0.200 F 
ATOM     71  F   UNL A   1      40.754  36.349  41.916  1.00  0.00    -0.200 F 
ENDBRANCH  47  61
BRANCH  48  72
ATOM     72  C   UNL A   1      40.158  28.685  30.048  1.00  0.00     0.064 A 
ATOM     73  C   UNL A   1      39.496  27.450  29.997  1.00  0.00     0.173 A 
ATOM     74  C   UNL A   1      40.767  29.145  28.871  1.00  0.00     0.173 A 
ATOM     75  F   UNL A   1      38.913  26.958  31.101  1.00  0.00    -0.203 F 
ATOM     76  C   UNL A   1      39.470  26.693  28.829  1.00  0.00     0.198 A 
ATOM     77  C   UNL A   1      40.711  28.403  27.693  1.00  0.00     0.198 A 
ATOM     78  F   UNL A   1      41.406  30.324  28.862  1.00  0.00    -0.203 F 
ATOM     79  F   UNL A   1      38.880  25.490  28.825  1.00  0.00    -0.200 F 
ATOM     80  C   UNL A   1      40.073  27.173  27.676  1.00  0.00     0.200 A 
ATOM     81  F   UNL A   1      41.278  28.880  26.577  1.00  0.00    -0.200 F 
ATOM     82  F   UNL A   1      40.046  26.446  26.551  1.00  0.00    -0.200 F 
ENDBRANCH  48  72
BRANCH  60  83
ATOM     83  C   UNL A   1      44.435  28.545  35.539  1.00  0.00     0.064 A 
ATOM     84  C   UNL A   1      45.745  28.891  35.167  1.00  0.00     0.173 A 
ATOM     85  C   UNL A   1      44.252  27.340  36.235  1.00  0.00     0.173 A 
ATOM     86  F   UNL A   1      45.976  30.025  34.489  1.00  0.00    -0.203 F 
ATOM     87  C   UNL A   1      46.815  28.040  35.432  1.00  0.00     0.198 A 
ATOM     88  C   UNL A   1      45.330  26.511  36.535  1.00  0.00     0.198 A 
ATOM     89  F   UNL A   1      43.025  26.964  36.626  1.00  0.00    -0.203 F 
ATOM     90  F   UNL A   1      48.042  28.355  34.996  1.00  0.00    -0.200 F 
ATOM     91  C   UNL A   1      46.607  26.854  36.119  1.00  0.00     0.200 A 
ATOM     92  F   UNL A   1      45.131  25.375  37.215  1.00  0.00    -0.200 F 
ATOM     93  F   UNL A   1      47.638  26.034  36.367  1.00  0.00    -0.200 F 
ENDBRANCH  60  83
ENDBRANCH  34  35
ENDBRANCH  26  29
ENDBRANCH  24  25
ENDBRANCH  23  24
ENDBRANCH  22  23
ENDBRANCH   1  22
TORSDOF 15
ENDMDL
