MODEL 1
REMARK VINA RESULT:     -12.0      0.000      0.000
REMARK SMILES O=C(NCCCCCCNC(=O)[C@@H]1C=C[C@@H](NS(=O)(=O)c2ccc(F)c(F)c2F)C1)c1ccc(-c2c3nc(c(-c4c(F)c(F)c(F)c(F)c4F)c4ccc([nH]4)c(-c4c(F)c(F)c(F)c(F)c4F)c4nc(c(-c5c(F)c(F)c(F)c(F)c5F)c5ccc2[nH]5)C=C4)C=C3)cc1
REMARK SMILES IDX 7 1 6 2 5 3 4 4 3 5 1 6 2 7 31 9 32 10 93 11 33 12 92 13
REMARK SMILES IDX 34 14 35 15 36 16 86 17 37 18 91 19 85 20 87 21 38 22 90 23
REMARK SMILES IDX 84 24 83 25 39 27 71 28 51 29 70 30 52 31 55 32 69 33 88 34
REMARK SMILES IDX 53 35 54 36 68 38 89 39 56 40 40 41 41 42 49 43 42 44 43 45
REMARK SMILES IDX 47 46 50 47 44 48 45 49 48 50 46 51 72 52 73 53 81 54 74 55
REMARK SMILES IDX 75 56 79 57 82 58 76 59 77 60 80 61 78 62 57 63 58 64 66 65
REMARK SMILES IDX 59 66 60 67 64 68 67 69 61 70 62 71 65 72 63 73 8 74 9 75
REMARK SMILES IDX 10 76 11 77 12 79 13 80 14 81 30 82 15 83 16 84 17 85 18 87
REMARK SMILES IDX 19 88 20 89 21 90 22 91 28 92 23 93 26 94 29 95 24 96 27 97
REMARK SMILES IDX 25 98
REMARK H PARENT 3 8 87 26 55 37 10 78 17 86
REMARK Flexibility Score: inf
ROOT
ATOM      1  C   UNL A   1      35.395  33.871  28.880  1.00  0.00     0.002 C 
ENDROOT
BRANCH   1   2
ATOM      2  C   UNL A   1      34.498  34.821  28.080  1.00  0.00     0.002 C 
BRANCH   2   3
ATOM      3  C   UNL A   1      33.230  35.276  28.802  1.00  0.00     0.021 C 
BRANCH   3   4
ATOM      4  C   UNL A   1      33.442  36.428  29.774  1.00  0.00     0.116 C 
BRANCH   4   5
ATOM      5  N   UNL A   1      32.469  36.424  30.854  1.00  0.00    -0.352 N 
ATOM      6  O   UNL A   1      31.506  35.694  32.763  1.00  0.00    -0.269 OA
ATOM      7  C   UNL A   1      32.494  35.729  32.038  1.00  0.00     0.251 C 
ATOM      8  H   UNL A   1      31.682  37.000  30.717  1.00  0.00     0.163 HD
BRANCH   7   9
ATOM      9  C   UNL A   1      33.721  35.002  32.425  1.00  0.00     0.039 A 
ATOM     10  C   UNL A   1      34.967  35.629  32.353  1.00  0.00     0.014 A 
ATOM     11  C   UNL A   1      33.623  33.680  32.866  1.00  0.00     0.014 A 
ATOM     12  C   UNL A   1      36.123  34.896  32.586  1.00  0.00     0.010 A 
ATOM     13  C   UNL A   1      34.782  32.972  33.193  1.00  0.00     0.010 A 
ATOM     14  C   UNL A   1      36.043  33.567  33.034  1.00  0.00    -0.014 A 
BRANCH  14  15
ATOM     15  C   UNL A   1      37.289  32.855  33.413  1.00  0.00     0.031 A 
ATOM     16  C   UNL A   1      37.917  31.838  32.505  1.00  0.00     0.074 A 
ATOM     17  C   UNL A   1      37.864  33.161  34.593  1.00  0.00     0.049 A 
ATOM     18  N   UNL A   1      39.006  31.135  32.690  1.00  0.00    -0.248 NA
ATOM     19  C   UNL A   1      37.238  31.567  31.229  1.00  0.00     0.031 C 
ATOM     20  C   UNL A   1      37.334  34.131  35.555  1.00  0.00     0.029 A 
ATOM     21  N   UNL A   1      39.019  32.710  35.177  1.00  0.00    -0.354 N 
ATOM     22  C   UNL A   1      39.136  30.332  31.565  1.00  0.00     0.074 A 
ATOM     23  C   UNL A   1      38.001  30.612  30.712  1.00  0.00     0.031 C 
ATOM     24  C   UNL A   1      38.186  34.240  36.583  1.00  0.00     0.029 A 
ATOM     25  C   UNL A   1      39.282  33.297  36.391  1.00  0.00     0.049 A 
ATOM     26  H   UNL A   1      39.603  32.032  34.767  1.00  0.00     0.167 HD
ATOM     27  C   UNL A   1      40.122  29.450  31.273  1.00  0.00     0.037 A 
ATOM     28  C   UNL A   1      40.281  33.087  37.267  1.00  0.00     0.037 A 
ATOM     29  C   UNL A   1      41.256  29.190  32.127  1.00  0.00     0.049 A 
ATOM     30  C   UNL A   1      41.338  32.075  36.935  1.00  0.00     0.074 A 
ATOM     31  C   UNL A   1      42.325  28.341  31.900  1.00  0.00     0.029 A 
ATOM     32  N   UNL A   1      41.463  29.771  33.370  1.00  0.00    -0.354 N 
ATOM     33  N   UNL A   1      41.465  31.343  35.855  1.00  0.00    -0.248 NA
ATOM     34  C   UNL A   1      42.384  31.852  37.941  1.00  0.00     0.031 C 
ATOM     35  C   UNL A   1      43.148  28.363  33.029  1.00  0.00     0.029 A 
ATOM     36  C   UNL A   1      42.628  29.275  33.934  1.00  0.00     0.049 A 
ATOM     37  H   UNL A   1      40.872  30.437  33.789  1.00  0.00     0.167 HD
ATOM     38  C   UNL A   1      42.610  30.583  36.043  1.00  0.00     0.074 A 
ATOM     39  C   UNL A   1      43.152  30.958  37.333  1.00  0.00     0.031 C 
ATOM     40  C   UNL A   1      43.158  29.656  35.220  1.00  0.00     0.037 A 
BRANCH  27  41
ATOM     41  C   UNL A   1      40.034  28.686  29.983  1.00  0.00     0.064 A 
ATOM     42  C   UNL A   1      39.459  27.405  29.954  1.00  0.00     0.173 A 
ATOM     43  C   UNL A   1      40.606  29.173  28.799  1.00  0.00     0.173 A 
ATOM     44  F   UNL A   1      38.906  26.887  31.062  1.00  0.00    -0.203 F 
ATOM     45  C   UNL A   1      39.479  26.635  28.795  1.00  0.00     0.198 A 
ATOM     46  C   UNL A   1      40.598  28.411  27.632  1.00  0.00     0.198 A 
ATOM     47  F   UNL A   1      41.161  30.395  28.769  1.00  0.00    -0.203 F 
ATOM     48  F   UNL A   1      38.960  25.399  28.804  1.00  0.00    -0.200 F 
ATOM     49  C   UNL A   1      40.046  27.139  27.634  1.00  0.00     0.200 A 
ATOM     50  F   UNL A   1      41.128  28.909  26.506  1.00  0.00    -0.200 F 
ATOM     51  F   UNL A   1      40.062  26.398  26.518  1.00  0.00    -0.200 F 
ENDBRANCH  27  41
BRANCH  28  52
ATOM     52  C   UNL A   1      40.315  33.866  38.531  1.00  0.00     0.064 A 
ATOM     53  C   UNL A   1      41.093  35.028  38.650  1.00  0.00     0.173 A 
ATOM     54  C   UNL A   1      39.619  33.427  39.666  1.00  0.00     0.173 A 
ATOM     55  F   UNL A   1      41.785  35.484  37.596  1.00  0.00    -0.203 F 
ATOM     56  C   UNL A   1      41.199  35.703  39.864  1.00  0.00     0.198 A 
ATOM     57  C   UNL A   1      39.701  34.122  40.870  1.00  0.00     0.198 A 
ATOM     58  F   UNL A   1      38.850  32.331  39.597  1.00  0.00    -0.203 F 
ATOM     59  F   UNL A   1      41.991  36.779  39.962  1.00  0.00    -0.200 F 
ATOM     60  C   UNL A   1      40.500  35.252  40.972  1.00  0.00     0.200 A 
ATOM     61  F   UNL A   1      39.007  33.696  41.934  1.00  0.00    -0.200 F 
ATOM     62  F   UNL A   1      40.598  35.903  42.139  1.00  0.00    -0.200 F 
ENDBRANCH  28  52
BRANCH  40  63
ATOM     63  C   UNL A   1      44.421  28.984  35.674  1.00  0.00     0.064 A 
ATOM     64  C   UNL A   1      44.364  27.824  36.460  1.00  0.00     0.173 A 
ATOM     65  C   UNL A   1      45.682  29.533  35.400  1.00  0.00     0.173 A 
ATOM     66  F   UNL A   1      43.181  27.263  36.755  1.00  0.00    -0.203 F 
ATOM     67  C   UNL A   1      45.523  27.250  36.975  1.00  0.00     0.198 A 
ATOM     68  C   UNL A   1      46.841  28.939  35.891  1.00  0.00     0.198 A 
ATOM     69  F   UNL A   1      45.789  30.632  34.640  1.00  0.00    -0.203 F 
ATOM     70  F   UNL A   1      45.441  26.166  37.760  1.00  0.00    -0.200 F 
ATOM     71  C   UNL A   1      46.760  27.806  36.688  1.00  0.00     0.200 A 
ATOM     72  F   UNL A   1      48.038  29.461  35.591  1.00  0.00    -0.200 F 
ATOM     73  F   UNL A   1      47.876  27.249  37.177  1.00  0.00    -0.200 F 
ENDBRANCH  40  63
ENDBRANCH  14  15
ENDBRANCH   7   9
ENDBRANCH   4   5
ENDBRANCH   3   4
ENDBRANCH   2   3
ENDBRANCH   1   2
BRANCH   1  74
ATOM     74  C   UNL A   1      34.713  32.589  29.374  1.00  0.00     0.021 C 
BRANCH  74  75
ATOM     75  C   UNL A   1      34.745  31.438  28.372  1.00  0.00     0.116 C 
BRANCH  75  76
ATOM     76  N   UNL A   1      33.570  31.451  27.522  1.00  0.00    -0.356 N 
ATOM     77  C   UNL A   1      32.808  30.423  27.058  1.00  0.00     0.226 C 
ATOM     78  H   UNL A   1      33.276  32.346  27.235  1.00  0.00     0.163 HD
ATOM     79  O   UNL A   1      31.873  30.684  26.299  1.00  0.00    -0.274 OA
BRANCH  77  80
ATOM     80  C   UNL A   1      33.115  28.995  27.501  1.00  0.00     0.103 C 
ATOM     81  C   UNL A   1      33.938  28.277  26.482  1.00  0.00    -0.016 C 
ATOM     82  C   UNL A   1      31.821  28.174  27.561  1.00  0.00     0.042 C 
ATOM     83  C   UNL A   1      33.240  27.318  25.865  1.00  0.00    -0.011 C 
ATOM     84  C   UNL A   1      31.825  27.266  26.322  1.00  0.00     0.093 C 
BRANCH  84  85
ATOM     85  N   UNL A   1      31.429  25.927  26.714  1.00  0.00    -0.204 NA
ATOM     86  H   UNL A   1      31.164  25.991  27.698  1.00  0.00     0.142 HD
BRANCH  85  87
ATOM     87  S   UNL A   1      30.207  25.081  25.967  1.00  0.00     0.244 S 
ATOM     88  O   UNL A   1      29.333  24.559  26.990  1.00  0.00    -0.207 OA
ATOM     89  O   UNL A   1      29.684  25.936  24.921  1.00  0.00    -0.207 OA
BRANCH  87  90
ATOM     90  C   UNL A   1      31.023  23.724  25.204  1.00  0.00     0.121 A 
ATOM     91  C   UNL A   1      31.016  23.616  23.805  1.00  0.00     0.028 A 
ATOM     92  C   UNL A   1      31.656  22.766  25.986  1.00  0.00     0.181 A 
ATOM     93  C   UNL A   1      31.653  22.536  23.194  1.00  0.00     0.044 A 
ATOM     94  C   UNL A   1      32.290  21.694  25.370  1.00  0.00     0.195 A 
ATOM     95  F   UNL A   1      31.642  22.841  27.323  1.00  0.00    -0.202 F 
ATOM     96  C   UNL A   1      32.289  21.582  23.983  1.00  0.00     0.161 A 
ATOM     97  F   UNL A   1      32.896  20.757  26.114  1.00  0.00    -0.200 F 
ATOM     98  F   UNL A   1      32.897  20.547  23.389  1.00  0.00    -0.204 F 
ENDBRANCH  87  90
ENDBRANCH  85  87
ENDBRANCH  84  85
ENDBRANCH  77  80
ENDBRANCH  75  76
ENDBRANCH  74  75
ENDBRANCH   1  74
TORSDOF 16
ENDMDL
MODEL 2
REMARK VINA RESULT:     -11.9      7.235     12.531
REMARK SMILES O=C(NCCCCCCNC(=O)[C@@H]1C=C[C@@H](NS(=O)(=O)c2ccc(F)c(F)c2F)C1)c1ccc(-c2c3nc(c(-c4c(F)c(F)c(F)c(F)c4F)c4ccc([nH]4)c(-c4c(F)c(F)c(F)c(F)c4F)c4nc(c(-c5c(F)c(F)c(F)c(F)c5F)c5ccc2[nH]5)C=C4)C=C3)cc1
REMARK SMILES IDX 7 1 6 2 5 3 4 4 3 5 1 6 2 7 31 9 32 10 93 11 33 12 92 13
REMARK SMILES IDX 34 14 35 15 36 16 86 17 37 18 91 19 85 20 87 21 38 22 90 23
REMARK SMILES IDX 84 24 83 25 39 27 71 28 51 29 70 30 52 31 55 32 69 33 88 34
REMARK SMILES IDX 53 35 54 36 68 38 89 39 56 40 40 41 41 42 49 43 42 44 43 45
REMARK SMILES IDX 47 46 50 47 44 48 45 49 48 50 46 51 72 52 73 53 81 54 74 55
REMARK SMILES IDX 75 56 79 57 82 58 76 59 77 60 80 61 78 62 57 63 58 64 66 65
REMARK SMILES IDX 59 66 60 67 64 68 67 69 61 70 62 71 65 72 63 73 8 74 9 75
REMARK SMILES IDX 10 76 11 77 12 79 13 80 14 81 30 82 15 83 16 84 17 85 18 87
REMARK SMILES IDX 19 88 20 89 21 90 22 91 28 92 23 93 26 94 29 95 24 96 27 97
REMARK SMILES IDX 25 98
REMARK H PARENT 3 8 87 26 55 37 10 78 17 86
REMARK Flexibility Score: inf
ROOT
ATOM      1  C   UNL A   1      41.897  21.388  27.110  1.00  0.00     0.002 C 
ENDROOT
BRANCH   1   2
ATOM      2  C   UNL A   1      42.040  19.998  27.738  1.00  0.00     0.002 C 
BRANCH   2   3
ATOM      3  C   UNL A   1      42.535  18.908  26.788  1.00  0.00     0.021 C 
BRANCH   3   4
ATOM      4  C   UNL A   1      42.570  19.321  25.323  1.00  0.00     0.116 C 
BRANCH   4   5
ATOM      5  N   UNL A   1      43.757  18.833  24.641  1.00  0.00    -0.352 N 
ATOM      6  O   UNL A   1      45.707  19.005  23.513  1.00  0.00    -0.269 OA
ATOM      7  C   UNL A   1      44.871  19.529  24.240  1.00  0.00     0.251 C 
ATOM      8  H   UNL A   1      43.764  17.870  24.438  1.00  0.00     0.163 HD
BRANCH   7   9
ATOM      9  C   UNL A   1      45.047  20.929  24.679  1.00  0.00     0.039 A 
ATOM     10  C   UNL A   1      45.595  21.215  25.931  1.00  0.00     0.014 A 
ATOM     11  C   UNL A   1      44.660  21.967  23.826  1.00  0.00     0.014 A 
ATOM     12  C   UNL A   1      45.628  22.526  26.387  1.00  0.00     0.010 A 
ATOM     13  C   UNL A   1      44.783  23.292  24.249  1.00  0.00     0.010 A 
ATOM     14  C   UNL A   1      45.246  23.582  25.542  1.00  0.00    -0.014 A 
BRANCH  14  15
ATOM     15  C   UNL A   1      45.428  24.980  26.005  1.00  0.00     0.031 A 
ATOM     16  C   UNL A   1      44.295  25.759  26.607  1.00  0.00     0.074 A 
ATOM     17  C   UNL A   1      46.651  25.535  25.892  1.00  0.00     0.049 A 
ATOM     18  N   UNL A   1      44.294  26.987  27.064  1.00  0.00    -0.248 NA
ATOM     19  C   UNL A   1      42.994  25.082  26.708  1.00  0.00     0.031 C 
ATOM     20  C   UNL A   1      47.822  24.869  25.316  1.00  0.00     0.029 A 
ATOM     21  N   UNL A   1      47.121  26.766  26.268  1.00  0.00    -0.354 N 
ATOM     22  C   UNL A   1      42.997  27.233  27.492  1.00  0.00     0.074 A 
ATOM     23  C   UNL A   1      42.228  26.038  27.217  1.00  0.00     0.031 C 
ATOM     24  C   UNL A   1      48.885  25.678  25.423  1.00  0.00     0.029 A 
ATOM     25  C   UNL A   1      48.457  26.945  26.007  1.00  0.00     0.049 A 
ATOM     26  H   UNL A   1      46.556  27.456  26.686  1.00  0.00     0.167 HD
ATOM     27  C   UNL A   1      42.503  28.354  28.069  1.00  0.00     0.037 A 
ATOM     28  C   UNL A   1      49.251  28.015  26.192  1.00  0.00     0.037 A 
ATOM     29  C   UNL A   1      43.285  29.533  28.350  1.00  0.00     0.049 A 
ATOM     30  C   UNL A   1      48.667  29.257  26.798  1.00  0.00     0.074 A 
ATOM     31  C   UNL A   1      42.882  30.705  28.966  1.00  0.00     0.029 A 
ATOM     32  N   UNL A   1      44.626  29.692  28.028  1.00  0.00    -0.354 N 
ATOM     33  N   UNL A   1      47.446  29.467  27.226  1.00  0.00    -0.248 NA
ATOM     34  C   UNL A   1      49.563  30.411  26.942  1.00  0.00     0.031 C 
ATOM     35  C   UNL A   1      43.960  31.593  28.964  1.00  0.00     0.029 A 
ATOM     36  C   UNL A   1      45.055  30.954  28.407  1.00  0.00     0.049 A 
ATOM     37  H   UNL A   1      45.188  29.010  27.596  1.00  0.00     0.167 HD
ATOM     38  C   UNL A   1      47.427  30.770  27.701  1.00  0.00     0.074 A 
ATOM     39  C   UNL A   1      48.767  31.295  27.528  1.00  0.00     0.031 C 
ATOM     40  C   UNL A   1      46.391  31.466  28.229  1.00  0.00     0.037 A 
BRANCH  27  41
ATOM     41  C   UNL A   1      41.047  28.381  28.441  1.00  0.00     0.064 A 
ATOM     42  C   UNL A   1      40.101  28.929  27.560  1.00  0.00     0.173 A 
ATOM     43  C   UNL A   1      40.602  27.960  29.702  1.00  0.00     0.173 A 
ATOM     44  F   UNL A   1      40.475  29.355  26.344  1.00  0.00    -0.203 F 
ATOM     45  C   UNL A   1      38.768  29.072  27.938  1.00  0.00     0.198 A 
ATOM     46  C   UNL A   1      39.261  28.078  30.065  1.00  0.00     0.198 A 
ATOM     47  F   UNL A   1      41.464  27.421  30.578  1.00  0.00    -0.203 F 
ATOM     48  F   UNL A   1      37.892  29.636  27.094  1.00  0.00    -0.200 F 
ATOM     49  C   UNL A   1      38.349  28.645  29.188  1.00  0.00     0.200 A 
ATOM     50  F   UNL A   1      38.855  27.645  31.266  1.00  0.00    -0.200 F 
ATOM     51  F   UNL A   1      37.066  28.780  29.549  1.00  0.00    -0.200 F 
ENDBRANCH  27  41
BRANCH  28  52
ATOM     52  C   UNL A   1      50.682  27.935  25.801  1.00  0.00     0.064 A 
ATOM     53  C   UNL A   1      51.689  27.734  26.758  1.00  0.00     0.173 A 
ATOM     54  C   UNL A   1      51.075  28.122  24.469  1.00  0.00     0.173 A 
ATOM     55  F   UNL A   1      51.364  27.559  28.047  1.00  0.00    -0.203 F 
ATOM     56  C   UNL A   1      53.035  27.756  26.402  1.00  0.00     0.198 A 
ATOM     57  C   UNL A   1      52.421  28.111  24.110  1.00  0.00     0.198 A 
ATOM     58  F   UNL A   1      50.148  28.302  23.516  1.00  0.00    -0.203 F 
ATOM     59  F   UNL A   1      53.977  27.615  27.345  1.00  0.00    -0.200 F 
ATOM     60  C   UNL A   1      53.400  27.941  25.078  1.00  0.00     0.200 A 
ATOM     61  F   UNL A   1      52.770  28.269  22.826  1.00  0.00    -0.200 F 
ATOM     62  F   UNL A   1      54.695  27.957  24.734  1.00  0.00    -0.200 F 
ENDBRANCH  28  52
BRANCH  40  63
ATOM     63  C   UNL A   1      46.657  32.874  28.677  1.00  0.00     0.064 A 
ATOM     64  C   UNL A   1      46.515  33.943  27.781  1.00  0.00     0.173 A 
ATOM     65  C   UNL A   1      47.132  33.154  29.967  1.00  0.00     0.173 A 
ATOM     66  F   UNL A   1      46.071  33.726  26.533  1.00  0.00    -0.203 F 
ATOM     67  C   UNL A   1      46.859  35.239  28.152  1.00  0.00     0.198 A 
ATOM     68  C   UNL A   1      47.445  34.457  30.345  1.00  0.00     0.198 A 
ATOM     69  F   UNL A   1      47.270  32.168  30.865  1.00  0.00    -0.203 F 
ATOM     70  F   UNL A   1      46.754  36.240  27.265  1.00  0.00    -0.200 F 
ATOM     71  C   UNL A   1      47.320  35.496  29.434  1.00  0.00     0.200 A 
ATOM     72  F   UNL A   1      47.866  34.708  31.592  1.00  0.00    -0.200 F 
ATOM     73  F   UNL A   1      47.644  36.746  29.794  1.00  0.00    -0.200 F 
ENDBRANCH  40  63
ENDBRANCH  14  15
ENDBRANCH   7   9
ENDBRANCH   4   5
ENDBRANCH   3   4
ENDBRANCH   2   3
ENDBRANCH   1   2
BRANCH   1  74
ATOM     74  C   UNL A   1      40.765  22.250  27.682  1.00  0.00     0.021 C 
BRANCH  74  75
ATOM     75  C   UNL A   1      39.794  22.783  26.632  1.00  0.00     0.116 C 
BRANCH  75  76
ATOM     76  N   UNL A   1      38.859  21.757  26.214  1.00  0.00    -0.356 N 
ATOM     77  C   UNL A   1      37.739  21.848  25.446  1.00  0.00     0.226 C 
ATOM     78  H   UNL A   1      39.067  20.850  26.536  1.00  0.00     0.163 HD
ATOM     79  O   UNL A   1      37.070  20.828  25.264  1.00  0.00    -0.274 OA
BRANCH  77  80
ATOM     80  C   UNL A   1      37.358  23.186  24.820  1.00  0.00     0.103 C 
ATOM     81  C   UNL A   1      36.381  23.926  25.676  1.00  0.00    -0.016 C 
ATOM     82  C   UNL A   1      36.587  22.955  23.514  1.00  0.00     0.042 C 
ATOM     83  C   UNL A   1      35.168  23.977  25.115  1.00  0.00    -0.011 C 
ATOM     84  C   UNL A   1      35.110  23.240  23.824  1.00  0.00     0.093 C 
BRANCH  84  85
ATOM     85  N   UNL A   1      34.549  24.049  22.760  1.00  0.00    -0.204 NA
ATOM     86  H   UNL A   1      35.261  24.083  22.030  1.00  0.00     0.142 HD
BRANCH  85  87
ATOM     87  S   UNL A   1      33.122  23.681  21.989  1.00  0.00     0.244 S 
ATOM     88  O   UNL A   1      33.323  23.853  20.570  1.00  0.00    -0.207 OA
ATOM     89  O   UNL A   1      32.675  22.409  22.518  1.00  0.00    -0.207 OA
BRANCH  87  90
ATOM     90  C   UNL A   1      32.002  24.922  22.534  1.00  0.00     0.121 A 
ATOM     91  C   UNL A   1      30.866  24.547  23.268  1.00  0.00     0.028 A 
ATOM     92  C   UNL A   1      32.241  26.255  22.228  1.00  0.00     0.181 A 
ATOM     93  C   UNL A   1      29.969  25.526  23.694  1.00  0.00     0.044 A 
ATOM     94  C   UNL A   1      31.342  27.225  22.657  1.00  0.00     0.195 A 
ATOM     95  F   UNL A   1      33.304  26.621  21.500  1.00  0.00    -0.202 F 
ATOM     96  C   UNL A   1      30.216  26.861  23.387  1.00  0.00     0.161 A 
ATOM     97  F   UNL A   1      31.556  28.515  22.359  1.00  0.00    -0.200 F 
ATOM     98  F   UNL A   1      29.348  27.794  23.799  1.00  0.00    -0.204 F 
ENDBRANCH  87  90
ENDBRANCH  85  87
ENDBRANCH  84  85
ENDBRANCH  77  80
ENDBRANCH  75  76
ENDBRANCH  74  75
ENDBRANCH   1  74
TORSDOF 16
ENDMDL
MODEL 3
REMARK VINA RESULT:     -11.8      7.175     12.467
REMARK SMILES O=C(NCCCCCCNC(=O)[C@@H]1C=C[C@@H](NS(=O)(=O)c2ccc(F)c(F)c2F)C1)c1ccc(-c2c3nc(c(-c4c(F)c(F)c(F)c(F)c4F)c4ccc([nH]4)c(-c4c(F)c(F)c(F)c(F)c4F)c4nc(c(-c5c(F)c(F)c(F)c(F)c5F)c5ccc2[nH]5)C=C4)C=C3)cc1
REMARK SMILES IDX 7 1 6 2 5 3 4 4 3 5 1 6 2 7 31 9 32 10 93 11 33 12 92 13
REMARK SMILES IDX 34 14 35 15 36 16 86 17 37 18 91 19 85 20 87 21 38 22 90 23
REMARK SMILES IDX 84 24 83 25 39 27 71 28 51 29 70 30 52 31 55 32 69 33 88 34
REMARK SMILES IDX 53 35 54 36 68 38 89 39 56 40 40 41 41 42 49 43 42 44 43 45
REMARK SMILES IDX 47 46 50 47 44 48 45 49 48 50 46 51 72 52 73 53 81 54 74 55
REMARK SMILES IDX 75 56 79 57 82 58 76 59 77 60 80 61 78 62 57 63 58 64 66 65
REMARK SMILES IDX 59 66 60 67 64 68 67 69 61 70 62 71 65 72 63 73 8 74 9 75
REMARK SMILES IDX 10 76 11 77 12 79 13 80 14 81 30 82 15 83 16 84 17 85 18 87
REMARK SMILES IDX 19 88 20 89 21 90 22 91 28 92 23 93 26 94 29 95 24 96 27 97
REMARK SMILES IDX 25 98
REMARK H PARENT 3 8 87 26 55 37 10 78 17 86
REMARK Flexibility Score: inf
ROOT
ATOM      1  C   UNL A   1      41.927  21.554  27.512  1.00  0.00     0.002 C 
ENDROOT
BRANCH   1   2
ATOM      2  C   UNL A   1      41.618  20.057  27.624  1.00  0.00     0.002 C 
BRANCH   2   3
ATOM      3  C   UNL A   1      42.552  19.143  26.831  1.00  0.00     0.021 C 
BRANCH   3   4
ATOM      4  C   UNL A   1      42.538  19.383  25.328  1.00  0.00     0.116 C 
BRANCH   4   5
ATOM      5  N   UNL A   1      43.737  18.883  24.678  1.00  0.00    -0.352 N 
ATOM      6  O   UNL A   1      45.716  19.034  23.599  1.00  0.00    -0.269 OA
ATOM      7  C   UNL A   1      44.867  19.569  24.303  1.00  0.00     0.251 C 
ATOM      8  H   UNL A   1      43.741  17.919  24.479  1.00  0.00     0.163 HD
BRANCH   7   9
ATOM      9  C   UNL A   1      45.043  20.969  24.740  1.00  0.00     0.039 A 
ATOM     10  C   UNL A   1      45.519  21.255  26.021  1.00  0.00     0.014 A 
ATOM     11  C   UNL A   1      44.730  22.006  23.857  1.00  0.00     0.014 A 
ATOM     12  C   UNL A   1      45.549  22.570  26.468  1.00  0.00     0.010 A 
ATOM     13  C   UNL A   1      44.853  23.333  24.276  1.00  0.00     0.010 A 
ATOM     14  C   UNL A   1      45.241  23.625  25.593  1.00  0.00    -0.014 A 
BRANCH  14  15
ATOM     15  C   UNL A   1      45.422  25.023  26.054  1.00  0.00     0.031 A 
ATOM     16  C   UNL A   1      44.286  25.805  26.648  1.00  0.00     0.074 A 
ATOM     17  C   UNL A   1      46.646  25.577  25.949  1.00  0.00     0.049 A 
ATOM     18  N   UNL A   1      44.284  27.033  27.103  1.00  0.00    -0.248 NA
ATOM     19  C   UNL A   1      42.983  25.130  26.741  1.00  0.00     0.031 C 
ATOM     20  C   UNL A   1      47.820  24.908  25.383  1.00  0.00     0.029 A 
ATOM     21  N   UNL A   1      47.115  26.808  26.327  1.00  0.00    -0.354 N 
ATOM     22  C   UNL A   1      42.984  27.282  27.522  1.00  0.00     0.074 A 
ATOM     23  C   UNL A   1      42.215  26.088  27.244  1.00  0.00     0.031 C 
ATOM     24  C   UNL A   1      48.883  25.716  25.496  1.00  0.00     0.029 A 
ATOM     25  C   UNL A   1      48.454  26.984  26.074  1.00  0.00     0.049 A 
ATOM     26  H   UNL A   1      46.548  27.499  26.740  1.00  0.00     0.167 HD
ATOM     27  C   UNL A   1      42.488  28.404  28.094  1.00  0.00     0.037 A 
ATOM     28  C   UNL A   1      49.248  28.053  26.264  1.00  0.00     0.037 A 
ATOM     29  C   UNL A   1      43.269  29.583  28.379  1.00  0.00     0.049 A 
ATOM     30  C   UNL A   1      48.661  29.297  26.863  1.00  0.00     0.074 A 
ATOM     31  C   UNL A   1      42.864  30.756  28.990  1.00  0.00     0.029 A 
ATOM     32  N   UNL A   1      44.612  29.739  28.066  1.00  0.00    -0.354 N 
ATOM     33  N   UNL A   1      47.437  29.509  27.283  1.00  0.00    -0.248 NA
ATOM     34  C   UNL A   1      49.558  30.450  27.012  1.00  0.00     0.031 C 
ATOM     35  C   UNL A   1      43.943  31.643  28.994  1.00  0.00     0.029 A 
ATOM     36  C   UNL A   1      45.041  31.002  28.445  1.00  0.00     0.049 A 
ATOM     37  H   UNL A   1      45.177  29.056  27.638  1.00  0.00     0.167 HD
ATOM     38  C   UNL A   1      47.418  30.813  27.756  1.00  0.00     0.074 A 
ATOM     39  C   UNL A   1      48.759  31.336  27.591  1.00  0.00     0.031 C 
ATOM     40  C   UNL A   1      46.379  31.511  28.276  1.00  0.00     0.037 A 
BRANCH  27  41
ATOM     41  C   UNL A   1      41.030  28.434  28.456  1.00  0.00     0.064 A 
ATOM     42  C   UNL A   1      40.089  28.978  27.566  1.00  0.00     0.173 A 
ATOM     43  C   UNL A   1      40.576  28.019  29.716  1.00  0.00     0.173 A 
ATOM     44  F   UNL A   1      40.472  29.399  26.351  1.00  0.00    -0.203 F 
ATOM     45  C   UNL A   1      38.754  29.124  27.934  1.00  0.00     0.198 A 
ATOM     46  C   UNL A   1      39.232  28.140  30.069  1.00  0.00     0.198 A 
ATOM     47  F   UNL A   1      41.431  27.484  30.601  1.00  0.00    -0.203 F 
ATOM     48  F   UNL A   1      37.884  29.685  27.082  1.00  0.00    -0.200 F 
ATOM     49  C   UNL A   1      38.326  28.703  29.183  1.00  0.00     0.200 A 
ATOM     50  F   UNL A   1      38.817  27.713  31.270  1.00  0.00    -0.200 F 
ATOM     51  F   UNL A   1      37.041  28.841  29.535  1.00  0.00    -0.200 F 
ENDBRANCH  27  41
BRANCH  28  52
ATOM     52  C   UNL A   1      50.681  27.971  25.882  1.00  0.00     0.064 A 
ATOM     53  C   UNL A   1      51.086  28.085  24.543  1.00  0.00     0.173 A 
ATOM     54  C   UNL A   1      51.668  27.712  26.843  1.00  0.00     0.173 A 
ATOM     55  F   UNL A   1      50.178  28.324  23.585  1.00  0.00    -0.203 F 
ATOM     56  C   UNL A   1      52.418  27.912  24.175  1.00  0.00     0.198 A 
ATOM     57  C   UNL A   1      53.005  27.570  26.477  1.00  0.00     0.198 A 
ATOM     58  F   UNL A   1      51.333  27.610  28.137  1.00  0.00    -0.203 F 
ATOM     59  F   UNL A   1      52.767  27.973  22.884  1.00  0.00    -0.200 F 
ATOM     60  C   UNL A   1      53.377  27.658  25.143  1.00  0.00     0.200 A 
ATOM     61  F   UNL A   1      53.933  27.347  27.417  1.00  0.00    -0.200 F 
ATOM     62  F   UNL A   1      54.659  27.496  24.791  1.00  0.00    -0.200 F 
ENDBRANCH  28  52
BRANCH  40  63
ATOM     63  C   UNL A   1      46.644  32.919  28.724  1.00  0.00     0.064 A 
ATOM     64  C   UNL A   1      47.016  33.184  30.051  1.00  0.00     0.173 A 
ATOM     65  C   UNL A   1      46.450  34.010  27.865  1.00  0.00     0.173 A 
ATOM     66  F   UNL A   1      47.207  32.174  30.914  1.00  0.00    -0.203 F 
ATOM     67  C   UNL A   1      47.161  34.490  30.507  1.00  0.00     0.198 A 
ATOM     68  C   UNL A   1      46.627  35.315  28.316  1.00  0.00     0.198 A 
ATOM     69  F   UNL A   1      46.109  33.808  26.584  1.00  0.00    -0.203 F 
ATOM     70  F   UNL A   1      47.476  34.720  31.790  1.00  0.00    -0.200 F 
ATOM     71  C   UNL A   1      46.970  35.555  29.639  1.00  0.00     0.200 A 
ATOM     72  F   UNL A   1      46.468  36.342  27.470  1.00  0.00    -0.200 F 
ATOM     73  F   UNL A   1      47.118  36.813  30.076  1.00  0.00    -0.200 F 
ENDBRANCH  40  63
ENDBRANCH  14  15
ENDBRANCH   7   9
ENDBRANCH   4   5
ENDBRANCH   3   4
ENDBRANCH   2   3
ENDBRANCH   1   2
BRANCH   1  74
ATOM     74  C   UNL A   1      41.153  22.302  26.420  1.00  0.00     0.021 C 
BRANCH  74  75
ATOM     75  C   UNL A   1      39.698  22.597  26.775  1.00  0.00     0.116 C 
BRANCH  75  76
ATOM     76  N   UNL A   1      38.812  21.581  26.239  1.00  0.00    -0.356 N 
ATOM     77  C   UNL A   1      37.728  21.701  25.425  1.00  0.00     0.226 C 
ATOM     78  H   UNL A   1      39.030  20.659  26.506  1.00  0.00     0.163 HD
ATOM     79  O   UNL A   1      37.097  20.682  25.139  1.00  0.00    -0.274 OA
BRANCH  77  80
ATOM     80  C   UNL A   1      37.341  23.072  24.878  1.00  0.00     0.103 C 
ATOM     81  C   UNL A   1      36.312  23.729  25.740  1.00  0.00    -0.016 C 
ATOM     82  C   UNL A   1      36.631  22.917  23.527  1.00  0.00     0.042 C 
ATOM     83  C   UNL A   1      35.123  23.793  25.133  1.00  0.00    -0.011 C 
ATOM     84  C   UNL A   1      35.136  23.148  23.793  1.00  0.00     0.093 C 
BRANCH  84  85
ATOM     85  N   UNL A   1      34.600  24.018  22.764  1.00  0.00    -0.204 NA
ATOM     86  H   UNL A   1      35.291  24.020  22.012  1.00  0.00     0.142 HD
BRANCH  85  87
ATOM     87  S   UNL A   1      33.128  23.767  22.031  1.00  0.00     0.244 S 
ATOM     88  O   UNL A   1      33.307  23.909  20.606  1.00  0.00    -0.207 OA
ATOM     89  O   UNL A   1      32.588  22.542  22.584  1.00  0.00    -0.207 OA
BRANCH  87  90
ATOM     90  C   UNL A   1      32.132  25.103  22.590  1.00  0.00     0.121 A 
ATOM     91  C   UNL A   1      30.907  24.831  23.219  1.00  0.00     0.028 A 
ATOM     92  C   UNL A   1      32.555  26.412  22.397  1.00  0.00     0.181 A 
ATOM     93  C   UNL A   1      30.108  25.887  23.656  1.00  0.00     0.044 A 
ATOM     94  C   UNL A   1      31.753  27.459  22.836  1.00  0.00     0.195 A 
ATOM     95  F   UNL A   1      33.706  26.684  21.769  1.00  0.00    -0.202 F 
ATOM     96  C   UNL A   1      30.539  27.196  23.462  1.00  0.00     0.161 A 
ATOM     97  F   UNL A   1      32.146  28.727  22.646  1.00  0.00    -0.200 F 
ATOM     98  F   UNL A   1      29.765  28.205  23.883  1.00  0.00    -0.204 F 
ENDBRANCH  87  90
ENDBRANCH  85  87
ENDBRANCH  84  85
ENDBRANCH  77  80
ENDBRANCH  75  76
ENDBRANCH  74  75
ENDBRANCH   1  74
TORSDOF 16
ENDMDL
