MODEL 1
REMARK VINA RESULT:     -12.6      0.000      0.000
REMARK SMILES O=C(NCCCCCCNC(=O)c1cc(-c2ccn(C(F)F)c(=O)c2)ccc1O)c1ccc(-c2c3nc(c(-c4c(F)c(F)c(F)c(F)c4F)c4ccc([nH]4)c(-c4c(F)c(F)c(F)c(F)c4F)c4nc(c(-c5c(F)c(F)c(F)c(F)c5F)c5ccc2[nH]5)C=C4)C=C3)cc1
REMARK SMILES IDX 6 1 5 2 4 3 3 4 1 5 2 6 30 8 31 9 92 10 32 11 91 12 33 13
REMARK SMILES IDX 34 14 35 15 85 16 36 17 90 18 84 19 86 20 37 21 89 22 83 23
REMARK SMILES IDX 82 24 38 26 70 27 50 28 69 29 51 30 54 31 68 32 87 33 52 34
REMARK SMILES IDX 53 35 67 37 88 38 55 39 39 40 40 41 48 42 41 43 42 44 46 45
REMARK SMILES IDX 49 46 43 47 44 48 47 49 45 50 71 51 72 52 80 53 73 54 74 55
REMARK SMILES IDX 78 56 81 57 75 58 76 59 79 60 77 61 56 62 57 63 65 64 58 65
REMARK SMILES IDX 59 66 63 67 66 68 60 69 61 70 64 71 62 72 7 73 8 74 9 75
REMARK SMILES IDX 10 76 11 77 12 79 13 80 14 81 28 82 15 83 27 84 26 85 29 86
REMARK SMILES IDX 16 88 17 89 25 90 18 91 23 92 19 93 24 94 20 95 21 96 22 97
REMARK H PARENT 3 7 86 25 54 36 10 78 29 87
REMARK Flexibility Score: inf
ROOT
ATOM      1  C   UNL A   1      31.587  30.796  26.089  1.00  0.00     0.002 C 
ENDROOT
BRANCH   1   2
ATOM      2  C   UNL A   1      31.395  32.148  26.779  1.00  0.00     0.021 C 
BRANCH   2   3
ATOM      3  C   UNL A   1      32.677  32.855  27.206  1.00  0.00     0.116 C 
BRANCH   3   4
ATOM      4  N   UNL A   1      32.448  34.235  27.594  1.00  0.00    -0.352 N 
ATOM      5  O   UNL A   1      32.561  36.083  28.869  1.00  0.00    -0.269 OA
ATOM      6  C   UNL A   1      33.006  34.967  28.608  1.00  0.00     0.251 C 
ATOM      7  H   UNL A   1      31.790  34.719  27.043  1.00  0.00     0.163 HD
BRANCH   6   8
ATOM      8  C   UNL A   1      34.136  34.433  29.403  1.00  0.00     0.039 A 
ATOM      9  C   UNL A   1      35.430  34.561  28.888  1.00  0.00     0.014 A 
ATOM     10  C   UNL A   1      33.929  33.742  30.600  1.00  0.00     0.014 A 
ATOM     11  C   UNL A   1      36.514  34.012  29.575  1.00  0.00     0.010 A 
ATOM     12  C   UNL A   1      35.018  33.250  31.320  1.00  0.00     0.010 A 
ATOM     13  C   UNL A   1      36.317  33.354  30.798  1.00  0.00    -0.014 A 
BRANCH  13  14
ATOM     14  C   UNL A   1      37.445  32.685  31.495  1.00  0.00     0.031 A 
ATOM     15  C   UNL A   1      38.176  31.561  30.814  1.00  0.00     0.074 A 
ATOM     16  C   UNL A   1      37.807  33.073  32.733  1.00  0.00     0.049 A 
ATOM     17  N   UNL A   1      39.146  30.807  31.267  1.00  0.00    -0.248 NA
ATOM     18  C   UNL A   1      37.747  31.228  29.446  1.00  0.00     0.031 C 
ATOM     19  C   UNL A   1      37.174  34.145  33.500  1.00  0.00     0.029 A 
ATOM     20  N   UNL A   1      38.800  32.610  33.559  1.00  0.00    -0.354 N 
ATOM     21  C   UNL A   1      39.430  29.906  30.248  1.00  0.00     0.074 A 
ATOM     22  C   UNL A   1      38.498  30.171  29.174  1.00  0.00     0.031 C 
ATOM     23  C   UNL A   1      37.814  34.278  34.674  1.00  0.00     0.029 A 
ATOM     24  C   UNL A   1      38.877  33.280  34.755  1.00  0.00     0.049 A 
ATOM     25  H   UNL A   1      39.399  31.868  33.318  1.00  0.00     0.167 HD
ATOM     26  C   UNL A   1      40.397  28.962  30.200  1.00  0.00     0.037 A 
ATOM     27  C   UNL A   1      39.713  33.106  35.798  1.00  0.00     0.037 A 
ATOM     28  C   UNL A   1      41.349  28.722  31.251  1.00  0.00     0.049 A 
ATOM     29  C   UNL A   1      40.765  32.032  35.731  1.00  0.00     0.074 A 
ATOM     30  C   UNL A   1      42.390  27.811  31.282  1.00  0.00     0.029 A 
ATOM     31  N   UNL A   1      41.382  29.411  32.455  1.00  0.00    -0.354 N 
ATOM     32  N   UNL A   1      41.034  31.198  34.756  1.00  0.00    -0.248 NA
ATOM     33  C   UNL A   1      41.628  31.874  36.910  1.00  0.00     0.031 C 
ATOM     34  C   UNL A   1      43.032  27.924  32.518  1.00  0.00     0.029 A 
ATOM     35  C   UNL A   1      42.417  28.934  33.241  1.00  0.00     0.049 A 
ATOM     36  H   UNL A   1      40.762  30.130  32.712  1.00  0.00     0.167 HD
ATOM     37  C   UNL A   1      42.105  30.433  35.193  1.00  0.00     0.074 A 
ATOM     38  C   UNL A   1      42.448  30.908  36.518  1.00  0.00     0.031 C 
ATOM     39  C   UNL A   1      42.747  29.423  34.555  1.00  0.00     0.037 A 
BRANCH  26  40
ATOM     40  C   UNL A   1      40.489  28.123  28.959  1.00  0.00     0.064 A 
ATOM     41  C   UNL A   1      39.773  26.924  28.833  1.00  0.00     0.173 A 
ATOM     42  C   UNL A   1      41.260  28.547  27.867  1.00  0.00     0.173 A 
ATOM     43  F   UNL A   1      39.031  26.470  29.855  1.00  0.00    -0.203 F 
ATOM     44  C   UNL A   1      39.844  26.166  27.668  1.00  0.00     0.198 A 
ATOM     45  C   UNL A   1      41.307  27.801  26.692  1.00  0.00     0.198 A 
ATOM     46  F   UNL A   1      41.959  29.690  27.934  1.00  0.00    -0.203 F 
ATOM     47  F   UNL A   1      39.183  25.003  27.585  1.00  0.00    -0.200 F 
ATOM     48  C   UNL A   1      40.604  26.609  26.596  1.00  0.00     0.200 A 
ATOM     49  F   UNL A   1      42.032  28.235  25.652  1.00  0.00    -0.200 F 
ATOM     50  F   UNL A   1      40.662  25.884  25.471  1.00  0.00    -0.200 F 
ENDBRANCH  26  40
BRANCH  27  51
ATOM     51  C   UNL A   1      39.608  33.997  36.981  1.00  0.00     0.064 A 
ATOM     52  C   UNL A   1      38.837  33.623  38.090  1.00  0.00     0.173 A 
ATOM     53  C   UNL A   1      40.283  35.224  37.038  1.00  0.00     0.173 A 
ATOM     54  F   UNL A   1      38.155  32.468  38.073  1.00  0.00    -0.203 F 
ATOM     55  C   UNL A   1      38.739  34.447  39.210  1.00  0.00     0.198 A 
ATOM     56  C   UNL A   1      40.203  36.037  38.167  1.00  0.00     0.198 A 
ATOM     57  F   UNL A   1      41.034  35.626  36.002  1.00  0.00    -0.203 F 
ATOM     58  F   UNL A   1      37.971  34.080  40.244  1.00  0.00    -0.200 F 
ATOM     59  C   UNL A   1      39.428  35.650  39.250  1.00  0.00     0.200 A 
ATOM     60  F   UNL A   1      40.880  37.193  38.208  1.00  0.00    -0.200 F 
ATOM     61  F   UNL A   1      39.342  36.438  40.330  1.00  0.00    -0.200 F 
ENDBRANCH  27  51
BRANCH  39  62
ATOM     62  C   UNL A   1      43.894  28.770  35.265  1.00  0.00     0.064 A 
ATOM     63  C   UNL A   1      43.700  27.661  36.100  1.00  0.00     0.173 A 
ATOM     64  C   UNL A   1      45.209  29.208  35.046  1.00  0.00     0.173 A 
ATOM     65  F   UNL A   1      42.459  27.215  36.350  1.00  0.00    -0.203 F 
ATOM     66  C   UNL A   1      44.780  27.018  36.697  1.00  0.00     0.198 A 
ATOM     67  C   UNL A   1      46.289  28.548  35.625  1.00  0.00     0.198 A 
ATOM     68  F   UNL A   1      45.447  30.260  34.248  1.00  0.00    -0.203 F 
ATOM     69  F   UNL A   1      44.570  25.977  37.514  1.00  0.00    -0.200 F 
ATOM     70  C   UNL A   1      46.074  27.457  36.452  1.00  0.00     0.200 A 
ATOM     71  F   UNL A   1      47.539  28.964  35.376  1.00  0.00    -0.200 F 
ATOM     72  F   UNL A   1      47.113  26.827  37.015  1.00  0.00    -0.200 F 
ENDBRANCH  39  62
ENDBRANCH  13  14
ENDBRANCH   6   8
ENDBRANCH   3   4
ENDBRANCH   2   3
ENDBRANCH   1   2
BRANCH   1  73
ATOM     73  C   UNL A   1      32.435  29.773  26.849  1.00  0.00     0.002 C 
BRANCH  73  74
ATOM     74  C   UNL A   1      31.702  28.511  27.312  1.00  0.00     0.021 C 
BRANCH  74  75
ATOM     75  C   UNL A   1      32.383  27.190  26.959  1.00  0.00     0.116 C 
BRANCH  75  76
ATOM     76  N   UNL A   1      31.494  26.054  27.103  1.00  0.00    -0.352 N 
ATOM     77  C   UNL A   1      30.788  25.399  26.126  1.00  0.00     0.255 C 
ATOM     78  H   UNL A   1      31.381  25.708  28.018  1.00  0.00     0.163 HD
ATOM     79  O   UNL A   1      30.027  24.476  26.418  1.00  0.00    -0.269 OA
BRANCH  77  80
ATOM     80  C   UNL A   1      30.870  25.850  24.724  1.00  0.00     0.082 A 
ATOM     81  C   UNL A   1      30.240  27.060  24.403  1.00  0.00     0.026 A 
ATOM     82  C   UNL A   1      31.518  25.108  23.729  1.00  0.00     0.128 A 
ATOM     83  C   UNL A   1      30.297  27.556  23.095  1.00  0.00    -0.017 A 
ATOM     84  C   UNL A   1      31.579  25.597  22.426  1.00  0.00     0.047 A 
ATOM     85  C   UNL A   1      30.977  26.819  22.114  1.00  0.00     0.012 A 
BRANCH  82  86
ATOM     86  O   UNL A   1      32.096  23.906  24.024  1.00  0.00    -0.507 OA
ATOM     87  H   UNL A   1      32.361  23.331  23.333  1.00  0.00     0.293 HD
ENDBRANCH  82  86
BRANCH  83  88
ATOM     88  C   UNL A   1      29.651  28.831  22.731  1.00  0.00    -0.011 A 
ATOM     89  C   UNL A   1      30.164  29.688  21.678  1.00  0.00     0.027 A 
ATOM     90  C   UNL A   1      28.570  29.227  23.425  1.00  0.00     0.080 A 
ATOM     91  C   UNL A   1      29.592  30.869  21.422  1.00  0.00     0.095 A 
ATOM     92  C   UNL A   1      27.917  30.537  23.145  1.00  0.00     0.255 A 
ATOM     93  N   UNL A   1      28.493  31.299  22.142  1.00  0.00    -0.258 N 
ATOM     94  O   UNL A   1      26.940  30.857  23.816  1.00  0.00    -0.269 OA
BRANCH  93  95
ATOM     95  C   UNL A   1      27.905  32.588  21.880  1.00  0.00     0.451 C 
ATOM     96  F   UNL A   1      28.597  33.578  22.491  1.00  0.00    -0.185 F 
ATOM     97  F   UNL A   1      27.884  32.846  20.549  1.00  0.00    -0.185 F 
ENDBRANCH  93  95
ENDBRANCH  83  88
ENDBRANCH  77  80
ENDBRANCH  75  76
ENDBRANCH  74  75
ENDBRANCH  73  74
ENDBRANCH   1  73
TORSDOF 16
ENDMDL
MODEL 2
REMARK VINA RESULT:     -12.6      6.273     11.638
REMARK SMILES O=C(NCCCCCCNC(=O)c1cc(-c2ccn(C(F)F)c(=O)c2)ccc1O)c1ccc(-c2c3nc(c(-c4c(F)c(F)c(F)c(F)c4F)c4ccc([nH]4)c(-c4c(F)c(F)c(F)c(F)c4F)c4nc(c(-c5c(F)c(F)c(F)c(F)c5F)c5ccc2[nH]5)C=C4)C=C3)cc1
REMARK SMILES IDX 6 1 5 2 4 3 3 4 1 5 2 6 30 8 31 9 92 10 32 11 91 12 33 13
REMARK SMILES IDX 34 14 35 15 85 16 36 17 90 18 84 19 86 20 37 21 89 22 83 23
REMARK SMILES IDX 82 24 38 26 70 27 50 28 69 29 51 30 54 31 68 32 87 33 52 34
REMARK SMILES IDX 53 35 67 37 88 38 55 39 39 40 40 41 48 42 41 43 42 44 46 45
REMARK SMILES IDX 49 46 43 47 44 48 47 49 45 50 71 51 72 52 80 53 73 54 74 55
REMARK SMILES IDX 78 56 81 57 75 58 76 59 79 60 77 61 56 62 57 63 65 64 58 65
REMARK SMILES IDX 59 66 63 67 66 68 60 69 61 70 64 71 62 72 7 73 8 74 9 75
REMARK SMILES IDX 10 76 11 77 12 79 13 80 14 81 28 82 15 83 27 84 26 85 29 86
REMARK SMILES IDX 16 88 17 89 25 90 18 91 23 92 19 93 24 94 20 95 21 96 22 97
REMARK H PARENT 3 7 86 25 54 36 10 78 29 87
REMARK Flexibility Score: inf
ROOT
ATOM      1  C   UNL A   1      37.135  21.048  24.600  1.00  0.00     0.002 C 
ENDROOT
BRANCH   1   2
ATOM      2  C   UNL A   1      38.079  19.898  24.956  1.00  0.00     0.021 C 
BRANCH   2   3
ATOM      3  C   UNL A   1      39.204  20.249  25.925  1.00  0.00     0.116 C 
BRANCH   3   4
ATOM      4  N   UNL A   1      40.252  19.244  25.948  1.00  0.00    -0.352 N 
ATOM      5  O   UNL A   1      42.343  18.420  25.920  1.00  0.00    -0.269 OA
ATOM      6  C   UNL A   1      41.606  19.391  26.083  1.00  0.00     0.251 C 
ATOM      7  H   UNL A   1      39.940  18.315  25.849  1.00  0.00     0.163 HD
BRANCH   6   8
ATOM      8  C   UNL A   1      42.202  20.705  26.418  1.00  0.00     0.039 A 
ATOM      9  C   UNL A   1      42.295  21.070  27.765  1.00  0.00     0.014 A 
ATOM     10  C   UNL A   1      42.593  21.608  25.425  1.00  0.00     0.014 A 
ATOM     11  C   UNL A   1      42.788  22.327  28.118  1.00  0.00     0.010 A 
ATOM     12  C   UNL A   1      43.148  22.838  25.778  1.00  0.00     0.010 A 
ATOM     13  C   UNL A   1      43.221  23.221  27.127  1.00  0.00    -0.014 A 
BRANCH  13  14
ATOM     14  C   UNL A   1      43.663  24.594  27.479  1.00  0.00     0.031 A 
ATOM     15  C   UNL A   1      42.639  25.629  27.853  1.00  0.00     0.074 A 
ATOM     16  C   UNL A   1      44.970  24.916  27.454  1.00  0.00     0.049 A 
ATOM     17  N   UNL A   1      42.804  26.897  28.135  1.00  0.00    -0.248 NA
ATOM     18  C   UNL A   1      41.236  25.184  27.898  1.00  0.00     0.031 C 
ATOM     19  C   UNL A   1      46.058  24.005  27.103  1.00  0.00     0.029 A 
ATOM     20  N   UNL A   1      45.603  26.102  27.733  1.00  0.00    -0.354 N 
ATOM     21  C   UNL A   1      41.531  27.399  28.376  1.00  0.00     0.074 A 
ATOM     22  C   UNL A   1      40.598  26.316  28.158  1.00  0.00     0.031 C 
ATOM     23  C   UNL A   1      47.228  24.656  27.218  1.00  0.00     0.029 A 
ATOM     24  C   UNL A   1      46.969  26.037  27.617  1.00  0.00     0.049 A 
ATOM     25  H   UNL A   1      45.123  26.920  27.994  1.00  0.00     0.167 HD
ATOM     26  C   UNL A   1      41.175  28.643  28.771  1.00  0.00     0.037 A 
ATOM     27  C   UNL A   1      47.906  26.986  27.809  1.00  0.00     0.037 A 
ATOM     28  C   UNL A   1      42.104  29.711  29.027  1.00  0.00     0.049 A 
ATOM     29  C   UNL A   1      47.481  28.369  28.224  1.00  0.00     0.074 A 
ATOM     30  C   UNL A   1      41.842  30.997  29.464  1.00  0.00     0.029 A 
ATOM     31  N   UNL A   1      43.479  29.609  28.878  1.00  0.00    -0.354 N 
ATOM     32  N   UNL A   1      46.277  28.827  28.465  1.00  0.00    -0.248 NA
ATOM     33  C   UNL A   1      48.547  29.368  28.392  1.00  0.00     0.031 C 
ATOM     34  C   UNL A   1      43.055  31.685  29.549  1.00  0.00     0.029 A 
ATOM     35  C   UNL A   1      44.077  30.815  29.202  1.00  0.00     0.049 A 
ATOM     36  H   UNL A   1      43.958  28.801  28.585  1.00  0.00     0.167 HD
ATOM     37  C   UNL A   1      46.439  30.156  28.831  1.00  0.00     0.074 A 
ATOM     38  C   UNL A   1      47.861  30.430  28.794  1.00  0.00     0.031 C 
ATOM     39  C   UNL A   1      45.495  31.068  29.165  1.00  0.00     0.037 A 
BRANCH  26  40
ATOM     40  C   UNL A   1      39.713  28.915  28.970  1.00  0.00     0.064 A 
ATOM     41  C   UNL A   1      38.895  29.330  27.908  1.00  0.00     0.173 A 
ATOM     42  C   UNL A   1      39.113  28.713  30.221  1.00  0.00     0.173 A 
ATOM     43  F   UNL A   1      39.425  29.550  26.695  1.00  0.00    -0.203 F 
ATOM     44  C   UNL A   1      37.535  29.556  28.097  1.00  0.00     0.198 A 
ATOM     45  C   UNL A   1      37.746  28.913  30.401  1.00  0.00     0.198 A 
ATOM     46  F   UNL A   1      39.849  28.312  31.269  1.00  0.00    -0.203 F 
ATOM     47  F   UNL A   1      36.781  29.991  27.078  1.00  0.00    -0.200 F 
ATOM     48  C   UNL A   1      36.960  29.339  29.340  1.00  0.00     0.200 A 
ATOM     49  F   UNL A   1      37.189  28.692  31.600  1.00  0.00    -0.200 F 
ATOM     50  F   UNL A   1      35.648  29.545  29.518  1.00  0.00    -0.200 F 
ENDBRANCH  26  40
BRANCH  27  51
ATOM     51  C   UNL A   1      49.342  26.648  27.645  1.00  0.00     0.064 A 
ATOM     52  C   UNL A   1      49.922  26.595  26.370  1.00  0.00     0.173 A 
ATOM     53  C   UNL A   1      50.166  26.387  28.749  1.00  0.00     0.173 A 
ATOM     54  F   UNL A   1      49.168  26.815  25.282  1.00  0.00    -0.203 F 
ATOM     55  C   UNL A   1      51.271  26.287  26.204  1.00  0.00     0.198 A 
ATOM     56  C   UNL A   1      51.520  26.102  28.585  1.00  0.00     0.198 A 
ATOM     57  F   UNL A   1      49.658  26.426  29.990  1.00  0.00    -0.203 F 
ATOM     58  F   UNL A   1      51.793  26.213  24.973  1.00  0.00    -0.200 F 
ATOM     59  C   UNL A   1      52.070  26.048  27.313  1.00  0.00     0.200 A 
ATOM     60  F   UNL A   1      52.292  25.884  29.657  1.00  0.00    -0.200 F 
ATOM     61  F   UNL A   1      53.369  25.761  27.154  1.00  0.00    -0.200 F 
ENDBRANCH  27  51
BRANCH  39  62
ATOM     62  C   UNL A   1      45.958  32.445  29.534  1.00  0.00     0.064 A 
ATOM     63  C   UNL A   1      46.030  33.471  28.582  1.00  0.00     0.173 A 
ATOM     64  C   UNL A   1      46.256  32.762  30.868  1.00  0.00     0.173 A 
ATOM     65  F   UNL A   1      45.766  33.212  27.291  1.00  0.00    -0.203 F 
ATOM     66  C   UNL A   1      46.393  34.763  28.949  1.00  0.00     0.198 A 
ATOM     67  C   UNL A   1      46.594  34.061  31.237  1.00  0.00     0.198 A 
ATOM     68  F   UNL A   1      46.193  31.817  31.818  1.00  0.00    -0.203 F 
ATOM     69  F   UNL A   1      46.482  35.723  28.018  1.00  0.00    -0.200 F 
ATOM     70  C   UNL A   1      46.666  35.059  30.278  1.00  0.00     0.200 A 
ATOM     71  F   UNL A   1      46.845  34.348  32.522  1.00  0.00    -0.200 F 
ATOM     72  F   UNL A   1      46.999  36.308  30.631  1.00  0.00    -0.200 F 
ENDBRANCH  39  62
ENDBRANCH  13  14
ENDBRANCH   6   8
ENDBRANCH   3   4
ENDBRANCH   2   3
ENDBRANCH   1   2
BRANCH   1  73
ATOM     73  C   UNL A   1      36.511  21.792  25.783  1.00  0.00     0.002 C 
BRANCH  73  74
ATOM     74  C   UNL A   1      36.732  23.307  25.810  1.00  0.00     0.021 C 
BRANCH  74  75
ATOM     75  C   UNL A   1      35.729  24.130  25.004  1.00  0.00     0.116 C 
BRANCH  75  76
ATOM     76  N   UNL A   1      34.587  24.542  25.798  1.00  0.00    -0.352 N 
ATOM     77  C   UNL A   1      33.281  24.138  25.681  1.00  0.00     0.255 C 
ATOM     78  H   UNL A   1      34.772  25.194  26.512  1.00  0.00     0.163 HD
ATOM     79  O   UNL A   1      32.412  24.625  26.403  1.00  0.00    -0.269 OA
BRANCH  77  80
ATOM     80  C   UNL A   1      32.895  23.178  24.629  1.00  0.00     0.082 A 
ATOM     81  C   UNL A   1      33.045  21.816  24.920  1.00  0.00     0.026 A 
ATOM     82  C   UNL A   1      32.423  23.582  23.375  1.00  0.00     0.128 A 
ATOM     83  C   UNL A   1      32.678  20.851  23.974  1.00  0.00    -0.017 A 
ATOM     84  C   UNL A   1      32.056  22.628  22.430  1.00  0.00     0.047 A 
ATOM     85  C   UNL A   1      32.177  21.269  22.732  1.00  0.00     0.012 A 
BRANCH  82  86
ATOM     86  O   UNL A   1      32.316  24.909  23.067  1.00  0.00    -0.507 OA
ATOM     87  H   UNL A   1      32.832  25.541  23.530  1.00  0.00     0.293 HD
ENDBRANCH  82  86
BRANCH  83  88
ATOM     88  C   UNL A   1      32.817  19.410  24.256  1.00  0.00    -0.011 A 
ATOM     89  C   UNL A   1      32.488  18.837  25.548  1.00  0.00     0.027 A 
ATOM     90  C   UNL A   1      33.301  18.608  23.292  1.00  0.00     0.080 A 
ATOM     91  C   UNL A   1      32.692  17.537  25.788  1.00  0.00     0.095 A 
ATOM     92  C   UNL A   1      33.525  17.157  23.542  1.00  0.00     0.255 A 
ATOM     93  N   UNL A   1      33.209  16.706  24.813  1.00  0.00    -0.258 N 
ATOM     94  O   UNL A   1      33.981  16.471  22.632  1.00  0.00    -0.269 OA
BRANCH  93  95
ATOM     95  C   UNL A   1      33.454  15.314  25.093  1.00  0.00     0.451 C 
ATOM     96  F   UNL A   1      34.749  15.101  25.429  1.00  0.00    -0.185 F 
ATOM     97  F   UNL A   1      32.677  14.883  26.116  1.00  0.00    -0.185 F 
ENDBRANCH  93  95
ENDBRANCH  83  88
ENDBRANCH  77  80
ENDBRANCH  75  76
ENDBRANCH  74  75
ENDBRANCH  73  74
ENDBRANCH   1  73
TORSDOF 16
ENDMDL
MODEL 3
REMARK VINA RESULT:     -12.4      4.260      9.435
REMARK SMILES O=C(NCCCCCCNC(=O)c1cc(-c2ccn(C(F)F)c(=O)c2)ccc1O)c1ccc(-c2c3nc(c(-c4c(F)c(F)c(F)c(F)c4F)c4ccc([nH]4)c(-c4c(F)c(F)c(F)c(F)c4F)c4nc(c(-c5c(F)c(F)c(F)c(F)c5F)c5ccc2[nH]5)C=C4)C=C3)cc1
REMARK SMILES IDX 6 1 5 2 4 3 3 4 1 5 2 6 30 8 31 9 92 10 32 11 91 12 33 13
REMARK SMILES IDX 34 14 35 15 85 16 36 17 90 18 84 19 86 20 37 21 89 22 83 23
REMARK SMILES IDX 82 24 38 26 70 27 50 28 69 29 51 30 54 31 68 32 87 33 52 34
REMARK SMILES IDX 53 35 67 37 88 38 55 39 39 40 40 41 48 42 41 43 42 44 46 45
REMARK SMILES IDX 49 46 43 47 44 48 47 49 45 50 71 51 72 52 80 53 73 54 74 55
REMARK SMILES IDX 78 56 81 57 75 58 76 59 79 60 77 61 56 62 57 63 65 64 58 65
REMARK SMILES IDX 59 66 63 67 66 68 60 69 61 70 64 71 62 72 7 73 8 74 9 75
REMARK SMILES IDX 10 76 11 77 12 79 13 80 14 81 28 82 15 83 27 84 26 85 29 86
REMARK SMILES IDX 16 88 17 89 25 90 18 91 23 92 19 93 24 94 20 95 21 96 22 97
REMARK H PARENT 3 7 86 25 54 36 10 78 29 87
REMARK Flexibility Score: inf
ROOT
ATOM      1  C   UNL A   1      33.612  27.271  23.527  1.00  0.00     0.002 C 
ENDROOT
BRANCH   1   2
ATOM      2  C   UNL A   1      34.174  28.506  24.234  1.00  0.00     0.021 C 
BRANCH   2   3
ATOM      3  C   UNL A   1      34.275  28.405  25.753  1.00  0.00     0.116 C 
BRANCH   3   4
ATOM      4  N   UNL A   1      33.785  29.595  26.423  1.00  0.00    -0.352 N 
ATOM      5  O   UNL A   1      33.659  31.188  28.005  1.00  0.00    -0.269 OA
ATOM      6  C   UNL A   1      34.312  30.287  27.481  1.00  0.00     0.251 C 
ATOM      7  H   UNL A   1      32.944  29.961  26.062  1.00  0.00     0.163 HD
BRANCH   6   8
ATOM      8  C   UNL A   1      35.657  29.966  28.010  1.00  0.00     0.039 A 
ATOM      9  C   UNL A   1      36.766  30.188  27.188  1.00  0.00     0.014 A 
ATOM     10  C   UNL A   1      35.830  29.377  29.266  1.00  0.00     0.014 A 
ATOM     11  C   UNL A   1      38.044  29.834  27.625  1.00  0.00     0.010 A 
ATOM     12  C   UNL A   1      37.112  29.084  29.730  1.00  0.00     0.010 A 
ATOM     13  C   UNL A   1      38.228  29.282  28.902  1.00  0.00    -0.014 A 
BRANCH  13  14
ATOM     14  C   UNL A   1      39.566  28.817  29.347  1.00  0.00     0.031 A 
ATOM     15  C   UNL A   1      40.348  29.643  30.331  1.00  0.00     0.074 A 
ATOM     16  C   UNL A   1      40.084  27.671  28.866  1.00  0.00     0.049 A 
ATOM     17  N   UNL A   1      41.555  29.451  30.802  1.00  0.00    -0.248 NA
ATOM     18  C   UNL A   1      39.693  30.858  30.841  1.00  0.00     0.031 C 
ATOM     19  C   UNL A   1      39.428  26.786  27.904  1.00  0.00     0.029 A 
ATOM     20  N   UNL A   1      41.282  27.054  29.126  1.00  0.00    -0.354 N 
ATOM     21  C   UNL A   1      41.804  30.524  31.648  1.00  0.00     0.074 A 
ATOM     22  C   UNL A   1      40.649  31.391  31.588  1.00  0.00     0.031 C 
ATOM     23  C   UNL A   1      40.218  25.723  27.678  1.00  0.00     0.029 A 
ATOM     24  C   UNL A   1      41.449  25.870  28.451  1.00  0.00     0.049 A 
ATOM     25  H   UNL A   1      41.957  27.425  29.738  1.00  0.00     0.167 HD
ATOM     26  C   UNL A   1      42.887  30.752  32.426  1.00  0.00     0.037 A 
ATOM     27  C   UNL A   1      42.480  25.003  28.457  1.00  0.00     0.037 A 
ATOM     28  C   UNL A   1      44.021  29.872  32.517  1.00  0.00     0.049 A 
ATOM     29  C   UNL A   1      43.684  25.292  29.312  1.00  0.00     0.074 A 
ATOM     30  C   UNL A   1      45.152  29.999  33.304  1.00  0.00     0.029 A 
ATOM     31  N   UNL A   1      44.159  28.691  31.803  1.00  0.00    -0.354 N 
ATOM     32  N   UNL A   1      43.901  26.301  30.120  1.00  0.00    -0.248 NA
ATOM     33  C   UNL A   1      44.787  24.322  29.254  1.00  0.00     0.031 C 
ATOM     34  C   UNL A   1      45.990  28.912  33.042  1.00  0.00     0.029 A 
ATOM     35  C   UNL A   1      45.364  28.087  32.121  1.00  0.00     0.049 A 
ATOM     36  H   UNL A   1      43.500  28.336  31.164  1.00  0.00     0.167 HD
ATOM     37  C   UNL A   1      45.151  26.079  30.680  1.00  0.00     0.074 A 
ATOM     38  C   UNL A   1      45.641  24.832  30.131  1.00  0.00     0.031 C 
ATOM     39  C   UNL A   1      45.833  26.843  31.568  1.00  0.00     0.037 A 
BRANCH  26  40
ATOM     40  C   UNL A   1      42.893  32.000  33.260  1.00  0.00     0.064 A 
ATOM     41  C   UNL A   1      42.375  32.011  34.563  1.00  0.00     0.173 A 
ATOM     42  C   UNL A   1      43.465  33.182  32.769  1.00  0.00     0.173 A 
ATOM     43  F   UNL A   1      41.805  30.908  35.072  1.00  0.00    -0.203 F 
ATOM     44  C   UNL A   1      42.407  33.167  35.337  1.00  0.00     0.198 A 
ATOM     45  C   UNL A   1      43.521  34.330  33.556  1.00  0.00     0.198 A 
ATOM     46  F   UNL A   1      43.980  33.224  31.531  1.00  0.00    -0.203 F 
ATOM     47  F   UNL A   1      41.869  33.165  36.565  1.00  0.00    -0.200 F 
ATOM     48  C   UNL A   1      42.988  34.322  34.837  1.00  0.00     0.200 A 
ATOM     49  F   UNL A   1      44.093  35.444  33.077  1.00  0.00    -0.200 F 
ATOM     50  F   UNL A   1      43.029  35.432  35.588  1.00  0.00    -0.200 F 
ENDBRANCH  26  40
BRANCH  27  51
ATOM     51  C   UNL A   1      42.400  23.759  27.649  1.00  0.00     0.064 A 
ATOM     52  C   UNL A   1      42.814  23.749  26.311  1.00  0.00     0.173 A 
ATOM     53  C   UNL A   1      41.927  22.558  28.196  1.00  0.00     0.173 A 
ATOM     54  F   UNL A   1      43.253  24.880  25.738  1.00  0.00    -0.203 F 
ATOM     55  C   UNL A   1      42.753  22.586  25.546  1.00  0.00     0.198 A 
ATOM     56  C   UNL A   1      41.887  21.389  27.438  1.00  0.00     0.198 A 
ATOM     57  F   UNL A   1      41.519  22.516  29.473  1.00  0.00    -0.203 F 
ATOM     58  F   UNL A   1      43.126  22.611  24.260  1.00  0.00    -0.200 F 
ATOM     59  C   UNL A   1      42.295  21.406  26.113  1.00  0.00     0.200 A 
ATOM     60  F   UNL A   1      41.456  20.248  27.991  1.00  0.00    -0.200 F 
ATOM     61  F   UNL A   1      42.245  20.285  25.381  1.00  0.00    -0.200 F 
ENDBRANCH  27  51
BRANCH  39  62
ATOM     62  C   UNL A   1      47.176  26.351  32.020  1.00  0.00     0.064 A 
ATOM     63  C   UNL A   1      47.303  25.471  33.104  1.00  0.00     0.173 A 
ATOM     64  C   UNL A   1      48.336  26.699  31.313  1.00  0.00     0.173 A 
ATOM     65  F   UNL A   1      46.223  25.121  33.818  1.00  0.00    -0.203 F 
ATOM     66  C   UNL A   1      48.546  24.965  33.471  1.00  0.00     0.198 A 
ATOM     67  C   UNL A   1      49.575  26.171  31.666  1.00  0.00     0.198 A 
ATOM     68  F   UNL A   1      48.264  27.531  30.262  1.00  0.00    -0.203 F 
ATOM     69  F   UNL A   1      48.651  24.148  34.527  1.00  0.00    -0.200 F 
ATOM     70  C   UNL A   1      49.680  25.308  32.746  1.00  0.00     0.200 A 
ATOM     71  F   UNL A   1      50.666  26.493  30.957  1.00  0.00    -0.200 F 
ATOM     72  F   UNL A   1      50.873  24.806  33.090  1.00  0.00    -0.200 F 
ENDBRANCH  39  62
ENDBRANCH  13  14
ENDBRANCH   6   8
ENDBRANCH   3   4
ENDBRANCH   2   3
ENDBRANCH   1   2
BRANCH   1  73
ATOM     73  C   UNL A   1      32.300  27.476  22.766  1.00  0.00     0.002 C 
BRANCH  73  74
ATOM     74  C   UNL A   1      31.274  26.345  22.889  1.00  0.00     0.021 C 
BRANCH  74  75
ATOM     75  C   UNL A   1      30.125  26.606  23.860  1.00  0.00     0.116 C 
BRANCH  75  76
ATOM     76  N   UNL A   1      30.567  27.262  25.076  1.00  0.00    -0.352 N 
ATOM     77  C   UNL A   1      31.137  26.696  26.187  1.00  0.00     0.255 C 
ATOM     78  H   UNL A   1      30.441  28.238  25.108  1.00  0.00     0.163 HD
ATOM     79  O   UNL A   1      31.411  27.387  27.168  1.00  0.00    -0.269 OA
BRANCH  77  80
ATOM     80  C   UNL A   1      31.351  25.237  26.249  1.00  0.00     0.082 A 
ATOM     81  C   UNL A   1      32.648  24.769  25.999  1.00  0.00     0.026 A 
ATOM     82  C   UNL A   1      30.315  24.333  26.512  1.00  0.00     0.128 A 
ATOM     83  C   UNL A   1      32.923  23.398  26.061  1.00  0.00    -0.017 A 
ATOM     84  C   UNL A   1      30.583  22.968  26.577  1.00  0.00     0.047 A 
ATOM     85  C   UNL A   1      31.883  22.505  26.359  1.00  0.00     0.012 A 
BRANCH  82  86
ATOM     86  O   UNL A   1      29.038  24.778  26.712  1.00  0.00    -0.507 OA
ATOM     87  H   UNL A   1      28.654  24.733  27.567  1.00  0.00     0.293 HD
ENDBRANCH  82  86
BRANCH  83  88
ATOM     88  C   UNL A   1      34.281  22.877  25.812  1.00  0.00    -0.011 A 
ATOM     89  C   UNL A   1      34.539  21.471  25.567  1.00  0.00     0.027 A 
ATOM     90  C   UNL A   1      35.317  23.733  25.852  1.00  0.00     0.080 A 
ATOM     91  C   UNL A   1      35.792  21.025  25.414  1.00  0.00     0.095 A 
ATOM     92  C   UNL A   1      36.716  23.253  25.675  1.00  0.00     0.255 A 
ATOM     93  N   UNL A   1      36.867  21.891  25.474  1.00  0.00    -0.258 N 
ATOM     94  O   UNL A   1      37.627  24.074  25.732  1.00  0.00    -0.269 OA
BRANCH  93  95
ATOM     95  C   UNL A   1      38.213  21.395  25.340  1.00  0.00     0.451 C 
ATOM     96  F   UNL A   1      38.895  21.502  26.505  1.00  0.00    -0.185 F 
ATOM     97  F   UNL A   1      38.212  20.091  24.970  1.00  0.00    -0.185 F 
ENDBRANCH  93  95
ENDBRANCH  83  88
ENDBRANCH  77  80
ENDBRANCH  75  76
ENDBRANCH  74  75
ENDBRANCH  73  74
ENDBRANCH   1  73
TORSDOF 16
ENDMDL
