MODEL 1
REMARK VINA RESULT:     -11.5      0.000      0.000
REMARK SMILES C[C@@H]1CCC[C@H](NC(=O)N(C)CC(=O)NCCCCCCNC(=O)c2ccc(-c3c4nc(c(-c5c(F)c(F)c(F)c(F)c5F)c5ccc([nH]5)c(-c5c(F)c(F)c(F)c(F)c5F)c5nc(c(-c6c(F)c(F)c(F)c(F)c6F)c6ccc3[nH]6)C=C5)C=C4)cc2)C1
REMARK SMILES IDX 18 1 17 2 16 3 15 4 13 5 14 6 12 8 10 9 11 10 8 11 7 12 9 14
REMARK SMILES IDX 6 15 1 16 2 17 3 18 88 19 4 20 5 21 19 22 20 23 21 24 22 25
REMARK SMILES IDX 23 26 24 28 25 29 26 30 87 31 27 32 86 33 28 34 29 35 30 36
REMARK SMILES IDX 80 37 31 38 85 39 79 40 81 41 32 42 84 43 78 44 77 45 33 47
REMARK SMILES IDX 65 48 45 49 64 50 46 51 49 52 63 53 82 54 47 55 48 56 62 58
REMARK SMILES IDX 83 59 50 60 34 61 35 62 43 63 36 64 37 65 41 66 44 67 38 68
REMARK SMILES IDX 39 69 42 70 40 71 66 72 67 73 75 74 68 75 69 76 73 77 76 78
REMARK SMILES IDX 70 79 71 80 74 81 72 82 51 83 52 84 60 85 53 86 54 87 58 88
REMARK SMILES IDX 61 89 55 90 56 91 59 92 57 93
REMARK H PARENT 15 7 7 13 22 27 81 46 49 57
REMARK Flexibility Score: inf
ROOT
ATOM      1  C   UNL A   1      32.554  29.949  26.928  1.00  0.00     0.002 C 
ENDROOT
BRANCH   1   2
ATOM      2  C   UNL A   1      33.698  29.311  26.127  1.00  0.00     0.021 C 
BRANCH   2   3
ATOM      3  C   UNL A   1      33.239  28.235  25.147  1.00  0.00     0.116 C 
BRANCH   3   4
ATOM      4  N   UNL A   1      33.949  28.324  23.893  1.00  0.00    -0.355 N 
ATOM      5  C   UNL A   1      33.630  27.791  22.679  1.00  0.00     0.239 C 
ATOM      6  O   UNL A   1      34.290  28.179  21.708  1.00  0.00    -0.273 OA
ATOM      7  H   UNL A   1      34.784  28.846  23.918  1.00  0.00     0.163 HD
BRANCH   5   8
ATOM      8  C   UNL A   1      32.354  26.954  22.488  1.00  0.00     0.220 C 
BRANCH   8   9
ATOM      9  N   UNL A   1      32.286  25.624  23.114  1.00  0.00    -0.319 N 
ATOM     10  C   UNL A   1      30.987  25.228  23.634  1.00  0.00     0.149 C 
BRANCH   9  11
ATOM     11  C   UNL A   1      33.308  24.772  22.801  1.00  0.00     0.317 C 
ATOM     12  N   UNL A   1      34.252  24.406  23.686  1.00  0.00    -0.335 N 
ATOM     13  H   UNL A   1      34.798  23.661  23.345  1.00  0.00     0.165 HD
ATOM     14  O   UNL A   1      33.433  24.296  21.671  1.00  0.00    -0.249 OA
BRANCH  12  15
ATOM     15  C   UNL A   1      34.680  24.823  25.018  1.00  0.00     0.084 C 
ATOM     16  C   UNL A   1      35.609  21.646  24.730  1.00  0.00     0.008 C 
ATOM     17  C   UNL A   1      35.742  22.617  25.907  1.00  0.00    -0.012 C 
ATOM     18  C   UNL A   1      34.569  22.491  26.886  1.00  0.00     0.003 C 
ATOM     19  C   UNL A   1      35.947  24.076  25.464  1.00  0.00     0.028 C 
ATOM     20  C   UNL A   1      33.295  23.169  26.386  1.00  0.00     0.002 C 
ATOM     21  C   UNL A   1      33.536  24.635  26.023  1.00  0.00     0.025 C 
ENDBRANCH  12  15
ENDBRANCH   9  11
ENDBRANCH   8   9
ENDBRANCH   5   8
ENDBRANCH   3   4
ENDBRANCH   2   3
ENDBRANCH   1   2
BRANCH   1  22
ATOM     22  C   UNL A   1      31.571  30.789  26.103  1.00  0.00     0.002 C 
BRANCH  22  23
ATOM     23  C   UNL A   1      31.362  32.220  26.605  1.00  0.00     0.021 C 
BRANCH  23  24
ATOM     24  C   UNL A   1      32.566  32.815  27.326  1.00  0.00     0.116 C 
BRANCH  24  25
ATOM     25  N   UNL A   1      32.374  34.224  27.635  1.00  0.00    -0.352 N 
ATOM     26  C   UNL A   1      32.976  34.996  28.598  1.00  0.00     0.251 C 
ATOM     27  H   UNL A   1      31.717  34.692  27.071  1.00  0.00     0.163 HD
ATOM     28  O   UNL A   1      32.544  36.111  28.858  1.00  0.00    -0.269 OA
BRANCH  26  29
ATOM     29  C   UNL A   1      34.140  34.465  29.338  1.00  0.00     0.039 A 
ATOM     30  C   UNL A   1      33.933  33.846  30.573  1.00  0.00     0.014 A 
ATOM     31  C   UNL A   1      35.432  34.586  28.818  1.00  0.00     0.014 A 
ATOM     32  C   UNL A   1      35.015  33.292  31.257  1.00  0.00     0.010 A 
ATOM     33  C   UNL A   1      36.497  33.964  29.463  1.00  0.00     0.010 A 
ATOM     34  C   UNL A   1      36.300  33.314  30.690  1.00  0.00    -0.014 A 
BRANCH  34  35
ATOM     35  C   UNL A   1      37.451  32.660  31.365  1.00  0.00     0.031 A 
ATOM     36  C   UNL A   1      38.165  31.515  30.703  1.00  0.00     0.074 A 
ATOM     37  C   UNL A   1      37.811  33.058  32.600  1.00  0.00     0.049 A 
ATOM     38  N   UNL A   1      39.143  30.773  31.159  1.00  0.00    -0.248 NA
ATOM     39  C   UNL A   1      37.700  31.134  29.360  1.00  0.00     0.031 C 
ATOM     40  C   UNL A   1      37.168  34.129  33.365  1.00  0.00     0.029 A 
ATOM     41  N   UNL A   1      38.800  32.603  33.436  1.00  0.00    -0.354 N 
ATOM     42  C   UNL A   1      39.401  29.836  30.167  1.00  0.00     0.074 A 
ATOM     43  C   UNL A   1      38.439  30.063  29.111  1.00  0.00     0.031 C 
ATOM     44  C   UNL A   1      37.793  34.263  34.544  1.00  0.00     0.029 A 
ATOM     45  C   UNL A   1      38.851  33.264  34.639  1.00  0.00     0.049 A 
ATOM     46  H   UNL A   1      39.415  31.873  33.195  1.00  0.00     0.167 HD
ATOM     47  C   UNL A   1      40.369  28.890  30.130  1.00  0.00     0.037 A 
ATOM     48  C   UNL A   1      39.656  33.075  35.704  1.00  0.00     0.037 A 
ATOM     49  C   UNL A   1      41.334  28.680  31.177  1.00  0.00     0.049 A 
ATOM     50  C   UNL A   1      40.708  32.000  35.646  1.00  0.00     0.074 A 
ATOM     51  C   UNL A   1      42.388  27.784  31.213  1.00  0.00     0.029 A 
ATOM     52  N   UNL A   1      41.360  29.375  32.379  1.00  0.00    -0.354 N 
ATOM     53  N   UNL A   1      40.987  31.164  34.675  1.00  0.00    -0.248 NA
ATOM     54  C   UNL A   1      41.562  31.846  36.832  1.00  0.00     0.031 C 
ATOM     55  C   UNL A   1      43.015  27.894  32.459  1.00  0.00     0.029 A 
ATOM     56  C   UNL A   1      42.395  28.906  33.174  1.00  0.00     0.049 A 
ATOM     57  H   UNL A   1      40.737  30.094  32.630  1.00  0.00     0.167 HD
ATOM     58  C   UNL A   1      42.066  30.412  35.118  1.00  0.00     0.074 A 
ATOM     59  C   UNL A   1      42.401  30.899  36.438  1.00  0.00     0.031 C 
ATOM     60  C   UNL A   1      42.721  29.407  34.485  1.00  0.00     0.037 A 
BRANCH  47  61
ATOM     61  C   UNL A   1      40.431  28.004  28.918  1.00  0.00     0.064 A 
ATOM     62  C   UNL A   1      39.724  26.794  28.851  1.00  0.00     0.173 A 
ATOM     63  C   UNL A   1      41.174  28.389  27.792  1.00  0.00     0.173 A 
ATOM     64  F   UNL A   1      39.005  26.373  29.903  1.00  0.00    -0.203 F 
ATOM     65  C   UNL A   1      39.786  25.987  27.718  1.00  0.00     0.198 A 
ATOM     66  C   UNL A   1      41.207  27.596  26.647  1.00  0.00     0.198 A 
ATOM     67  F   UNL A   1      41.865  29.539  27.797  1.00  0.00    -0.203 F 
ATOM     68  F   UNL A   1      39.147  24.809  27.700  1.00  0.00    -0.200 F 
ATOM     69  C   UNL A   1      40.520  26.392  26.614  1.00  0.00     0.200 A 
ATOM     70  F   UNL A   1      41.905  27.998  25.576  1.00  0.00    -0.200 F 
ATOM     71  F   UNL A   1      40.573  25.620  25.521  1.00  0.00    -0.200 F 
ENDBRANCH  47  61
BRANCH  48  72
ATOM     72  C   UNL A   1      39.509  33.935  36.909  1.00  0.00     0.064 A 
ATOM     73  C   UNL A   1      40.136  35.187  36.980  1.00  0.00     0.173 A 
ATOM     74  C   UNL A   1      38.752  33.521  38.015  1.00  0.00     0.173 A 
ATOM     75  F   UNL A   1      40.887  35.619  35.957  1.00  0.00    -0.203 F 
ATOM     76  C   UNL A   1      40.032  35.980  38.122  1.00  0.00     0.198 A 
ATOM     77  C   UNL A   1      38.622  34.330  39.142  1.00  0.00     0.198 A 
ATOM     78  F   UNL A   1      38.127  32.334  37.996  1.00  0.00    -0.203 F 
ATOM     79  F   UNL A   1      40.684  37.149  38.184  1.00  0.00    -0.200 F 
ATOM     80  C   UNL A   1      39.270  35.553  39.199  1.00  0.00     0.200 A 
ATOM     81  F   UNL A   1      37.871  33.920  40.173  1.00  0.00    -0.200 F 
ATOM     82  F   UNL A   1      39.169  36.318  40.295  1.00  0.00    -0.200 F 
ENDBRANCH  48  72
BRANCH  60  83
ATOM     83  C   UNL A   1      43.895  28.794  35.196  1.00  0.00     0.064 A 
ATOM     84  C   UNL A   1      43.744  27.722  36.087  1.00  0.00     0.173 A 
ATOM     85  C   UNL A   1      45.196  29.263  34.948  1.00  0.00     0.173 A 
ATOM     86  F   UNL A   1      42.522  27.245  36.369  1.00  0.00    -0.203 F 
ATOM     87  C   UNL A   1      44.847  27.161  36.726  1.00  0.00     0.198 A 
ATOM     88  C   UNL A   1      46.299  28.677  35.562  1.00  0.00     0.198 A 
ATOM     89  F   UNL A   1      45.397  30.281  34.098  1.00  0.00    -0.203 F 
ATOM     90  F   UNL A   1      44.673  26.173  37.614  1.00  0.00    -0.200 F 
ATOM     91  C   UNL A   1      46.123  27.633  36.457  1.00  0.00     0.200 A 
ATOM     92  F   UNL A   1      47.532  29.123  35.286  1.00  0.00    -0.200 F 
ATOM     93  F   UNL A   1      47.184  27.086  37.066  1.00  0.00    -0.200 F 
ENDBRANCH  60  83
ENDBRANCH  34  35
ENDBRANCH  26  29
ENDBRANCH  24  25
ENDBRANCH  23  24
ENDBRANCH  22  23
ENDBRANCH   1  22
TORSDOF 16
ENDMDL
MODEL 2
REMARK VINA RESULT:     -11.4      1.851      7.787
REMARK SMILES C[C@@H]1CCC[C@H](NC(=O)N(C)CC(=O)NCCCCCCNC(=O)c2ccc(-c3c4nc(c(-c5c(F)c(F)c(F)c(F)c5F)c5ccc([nH]5)c(-c5c(F)c(F)c(F)c(F)c5F)c5nc(c(-c6c(F)c(F)c(F)c(F)c6F)c6ccc3[nH]6)C=C5)C=C4)cc2)C1
REMARK SMILES IDX 18 1 17 2 16 3 15 4 13 5 14 6 12 8 10 9 11 10 8 11 7 12 9 14
REMARK SMILES IDX 6 15 1 16 2 17 3 18 88 19 4 20 5 21 19 22 20 23 21 24 22 25
REMARK SMILES IDX 23 26 24 28 25 29 26 30 87 31 27 32 86 33 28 34 29 35 30 36
REMARK SMILES IDX 80 37 31 38 85 39 79 40 81 41 32 42 84 43 78 44 77 45 33 47
REMARK SMILES IDX 65 48 45 49 64 50 46 51 49 52 63 53 82 54 47 55 48 56 62 58
REMARK SMILES IDX 83 59 50 60 34 61 35 62 43 63 36 64 37 65 41 66 44 67 38 68
REMARK SMILES IDX 39 69 42 70 40 71 66 72 67 73 75 74 68 75 69 76 73 77 76 78
REMARK SMILES IDX 70 79 71 80 74 81 72 82 51 83 52 84 60 85 53 86 54 87 58 88
REMARK SMILES IDX 61 89 55 90 56 91 59 92 57 93
REMARK H PARENT 15 7 7 13 22 27 81 46 49 57
REMARK Flexibility Score: inf
ROOT
ATOM      1  C   UNL A   1      34.892  32.593  28.016  1.00  0.00     0.002 C 
ENDROOT
BRANCH   1   2
ATOM      2  C   UNL A   1      34.521  31.121  28.245  1.00  0.00     0.021 C 
BRANCH   2   3
ATOM      3  C   UNL A   1      33.705  30.507  27.111  1.00  0.00     0.116 C 
BRANCH   3   4
ATOM      4  N   UNL A   1      32.592  29.738  27.615  1.00  0.00    -0.355 N 
ATOM      5  C   UNL A   1      32.188  28.479  27.283  1.00  0.00     0.239 C 
ATOM      6  O   UNL A   1      31.328  27.960  28.003  1.00  0.00    -0.273 OA
ATOM      7  H   UNL A   1      32.045  30.189  28.300  1.00  0.00     0.163 HD
BRANCH   5   8
ATOM      8  C   UNL A   1      32.947  27.652  26.231  1.00  0.00     0.220 C 
BRANCH   8   9
ATOM      9  N   UNL A   1      32.256  26.518  25.596  1.00  0.00    -0.319 N 
ATOM     10  C   UNL A   1      31.774  26.739  24.243  1.00  0.00     0.149 C 
BRANCH   9  11
ATOM     11  C   UNL A   1      32.479  25.297  26.170  1.00  0.00     0.317 C 
ATOM     12  N   UNL A   1      33.621  24.608  26.003  1.00  0.00    -0.335 N 
ATOM     13  H   UNL A   1      33.677  23.844  26.622  1.00  0.00     0.165 HD
ATOM     14  O   UNL A   1      31.628  24.744  26.870  1.00  0.00    -0.249 OA
BRANCH  12  15
ATOM     15  C   UNL A   1      34.800  24.694  25.145  1.00  0.00     0.084 C 
ATOM     16  C   UNL A   1      33.122  22.025  24.097  1.00  0.00     0.008 C 
ATOM     17  C   UNL A   1      34.455  22.610  23.622  1.00  0.00    -0.012 C 
ATOM     18  C   UNL A   1      35.649  21.949  24.320  1.00  0.00     0.003 C 
ATOM     19  C   UNL A   1      34.517  24.142  23.739  1.00  0.00     0.028 C 
ATOM     20  C   UNL A   1      35.863  22.451  25.747  1.00  0.00     0.002 C 
ATOM     21  C   UNL A   1      35.985  23.975  25.801  1.00  0.00     0.025 C 
ENDBRANCH  12  15
ENDBRANCH   9  11
ENDBRANCH   8   9
ENDBRANCH   5   8
ENDBRANCH   3   4
ENDBRANCH   2   3
ENDBRANCH   1   2
BRANCH   1  22
ATOM     22  C   UNL A   1      34.569  33.535  29.182  1.00  0.00     0.002 C 
BRANCH  22  23
ATOM     23  C   UNL A   1      33.320  34.398  28.991  1.00  0.00     0.021 C 
BRANCH  23  24
ATOM     24  C   UNL A   1      33.475  35.840  29.460  1.00  0.00     0.116 C 
BRANCH  24  25
ATOM     25  N   UNL A   1      32.595  36.147  30.578  1.00  0.00    -0.352 N 
ATOM     26  C   UNL A   1      32.658  35.719  31.880  1.00  0.00     0.251 C 
ATOM     27  H   UNL A   1      31.846  36.751  30.369  1.00  0.00     0.163 HD
ATOM     28  O   UNL A   1      31.717  35.907  32.641  1.00  0.00    -0.269 OA
BRANCH  26  29
ATOM     29  C   UNL A   1      33.863  35.010  32.360  1.00  0.00     0.039 A 
ATOM     30  C   UNL A   1      33.729  33.717  32.871  1.00  0.00     0.014 A 
ATOM     31  C   UNL A   1      35.118  35.622  32.312  1.00  0.00     0.014 A 
ATOM     32  C   UNL A   1      34.864  33.014  33.276  1.00  0.00     0.010 A 
ATOM     33  C   UNL A   1      36.256  34.892  32.642  1.00  0.00     0.010 A 
ATOM     34  C   UNL A   1      36.140  33.582  33.131  1.00  0.00    -0.014 A 
BRANCH  34  35
ATOM     35  C   UNL A   1      37.366  32.820  33.481  1.00  0.00     0.031 A 
ATOM     36  C   UNL A   1      38.104  33.120  34.756  1.00  0.00     0.074 A 
ATOM     37  C   UNL A   1      37.849  31.903  32.621  1.00  0.00     0.049 A 
ATOM     38  N   UNL A   1      39.226  32.614  35.203  1.00  0.00    -0.248 NA
ATOM     39  C   UNL A   1      37.518  34.146  35.634  1.00  0.00     0.031 C 
ATOM     40  C   UNL A   1      37.247  31.554  31.332  1.00  0.00     0.029 A 
ATOM     41  N   UNL A   1      38.961  31.103  32.694  1.00  0.00    -0.354 N 
ATOM     42  C   UNL A   1      39.483  33.265  36.403  1.00  0.00     0.074 A 
ATOM     43  C   UNL A   1      38.434  34.245  36.586  1.00  0.00     0.031 C 
ATOM     44  C   UNL A   1      37.982  30.595  30.750  1.00  0.00     0.029 A 
ATOM     45  C   UNL A   1      39.129  30.291  31.598  1.00  0.00     0.049 A 
ATOM     46  H   UNL A   1      39.580  31.110  33.460  1.00  0.00     0.167 HD
ATOM     47  C   UNL A   1      40.488  33.047  37.284  1.00  0.00     0.037 A 
ATOM     48  C   UNL A   1      40.105  29.410  31.308  1.00  0.00     0.037 A 
ATOM     49  C   UNL A   1      41.520  32.059  37.104  1.00  0.00     0.049 A 
ATOM     50  C   UNL A   1      41.224  29.204  32.293  1.00  0.00     0.074 A 
ATOM     51  C   UNL A   1      42.552  31.724  37.963  1.00  0.00     0.029 A 
ATOM     52  N   UNL A   1      41.653  31.250  35.985  1.00  0.00    -0.354 N 
ATOM     53  N   UNL A   1      41.420  29.777  33.456  1.00  0.00    -0.248 NA
ATOM     54  C   UNL A   1      42.256  28.224  31.927  1.00  0.00     0.031 C 
ATOM     55  C   UNL A   1      43.343  30.754  37.338  1.00  0.00     0.029 A 
ATOM     56  C   UNL A   1      42.767  30.436  36.119  1.00  0.00     0.049 A 
ATOM     57  H   UNL A   1      41.046  31.252  35.210  1.00  0.00     0.167 HD
ATOM     58  C   UNL A   1      42.573  29.203  33.975  1.00  0.00     0.074 A 
ATOM     59  C   UNL A   1      43.026  28.228  33.007  1.00  0.00     0.031 C 
ATOM     60  C   UNL A   1      43.201  29.463  35.149  1.00  0.00     0.037 A 
BRANCH  47  61
ATOM     61  C   UNL A   1      40.524  33.897  38.523  1.00  0.00     0.064 A 
ATOM     62  C   UNL A   1      39.827  33.535  39.686  1.00  0.00     0.173 A 
ATOM     63  C   UNL A   1      41.297  35.067  38.562  1.00  0.00     0.173 A 
ATOM     64  F   UNL A   1      39.065  32.431  39.700  1.00  0.00    -0.203 F 
ATOM     65  C   UNL A   1      39.875  34.329  40.829  1.00  0.00     0.198 A 
ATOM     66  C   UNL A   1      41.370  35.841  39.718  1.00  0.00     0.198 A 
ATOM     67  F   UNL A   1      41.989  35.458  37.481  1.00  0.00    -0.203 F 
ATOM     68  F   UNL A   1      39.156  33.991  41.908  1.00  0.00    -0.200 F 
ATOM     69  C   UNL A   1      40.652  35.477  40.847  1.00  0.00     0.200 A 
ATOM     70  F   UNL A   1      42.134  36.943  39.737  1.00  0.00    -0.200 F 
ATOM     71  F   UNL A   1      40.705  36.236  41.949  1.00  0.00    -0.200 F 
ENDBRANCH  47  61
BRANCH  48  72
ATOM     72  C   UNL A   1      40.059  28.642  30.034  1.00  0.00     0.064 A 
ATOM     73  C   UNL A   1      39.436  27.388  29.972  1.00  0.00     0.173 A 
ATOM     74  C   UNL A   1      40.646  29.137  28.860  1.00  0.00     0.173 A 
ATOM     75  F   UNL A   1      38.879  26.862  31.072  1.00  0.00    -0.203 F 
ATOM     76  C   UNL A   1      39.423  26.648  28.791  1.00  0.00     0.198 A 
ATOM     77  C   UNL A   1      40.602  28.412  27.672  1.00  0.00     0.198 A 
ATOM     78  F   UNL A   1      41.250  30.336  28.864  1.00  0.00    -0.203 F 
ATOM     79  F   UNL A   1      38.867  25.429  28.773  1.00  0.00    -0.200 F 
ATOM     80  C   UNL A   1      40.001  27.163  27.641  1.00  0.00     0.200 A 
ATOM     81  F   UNL A   1      41.147  28.921  26.559  1.00  0.00    -0.200 F 
ATOM     82  F   UNL A   1      39.986  26.452  26.505  1.00  0.00    -0.200 F 
ENDBRANCH  48  72
BRANCH  60  83
ATOM     83  C   UNL A   1      44.422  28.649  35.472  1.00  0.00     0.064 A 
ATOM     84  C   UNL A   1      45.712  29.081  35.130  1.00  0.00     0.173 A 
ATOM     85  C   UNL A   1      44.300  27.438  36.172  1.00  0.00     0.173 A 
ATOM     86  F   UNL A   1      45.883  30.224  34.449  1.00  0.00    -0.203 F 
ATOM     87  C   UNL A   1      46.831  28.316  35.450  1.00  0.00     0.198 A 
ATOM     88  C   UNL A   1      45.424  26.694  36.521  1.00  0.00     0.198 A 
ATOM     89  F   UNL A   1      43.090  26.983  36.532  1.00  0.00    -0.203 F 
ATOM     90  F   UNL A   1      48.049  28.722  35.065  1.00  0.00    -0.200 F 
ATOM     91  C   UNL A   1      46.687  27.129  36.152  1.00  0.00     0.200 A 
ATOM     92  F   UNL A   1      45.283  25.556  37.215  1.00  0.00    -0.200 F 
ATOM     93  F   UNL A   1      47.766  26.400  36.466  1.00  0.00    -0.200 F 
ENDBRANCH  60  83
ENDBRANCH  34  35
ENDBRANCH  26  29
ENDBRANCH  24  25
ENDBRANCH  23  24
ENDBRANCH  22  23
ENDBRANCH   1  22
TORSDOF 16
ENDMDL
MODEL 3
REMARK VINA RESULT:     -11.3      0.954      2.274
REMARK SMILES C[C@@H]1CCC[C@H](NC(=O)N(C)CC(=O)NCCCCCCNC(=O)c2ccc(-c3c4nc(c(-c5c(F)c(F)c(F)c(F)c5F)c5ccc([nH]5)c(-c5c(F)c(F)c(F)c(F)c5F)c5nc(c(-c6c(F)c(F)c(F)c(F)c6F)c6ccc3[nH]6)C=C5)C=C4)cc2)C1
REMARK SMILES IDX 18 1 17 2 16 3 15 4 13 5 14 6 12 8 10 9 11 10 8 11 7 12 9 14
REMARK SMILES IDX 6 15 1 16 2 17 3 18 88 19 4 20 5 21 19 22 20 23 21 24 22 25
REMARK SMILES IDX 23 26 24 28 25 29 26 30 87 31 27 32 86 33 28 34 29 35 30 36
REMARK SMILES IDX 80 37 31 38 85 39 79 40 81 41 32 42 84 43 78 44 77 45 33 47
REMARK SMILES IDX 65 48 45 49 64 50 46 51 49 52 63 53 82 54 47 55 48 56 62 58
REMARK SMILES IDX 83 59 50 60 34 61 35 62 43 63 36 64 37 65 41 66 44 67 38 68
REMARK SMILES IDX 39 69 42 70 40 71 66 72 67 73 75 74 68 75 69 76 73 77 76 78
REMARK SMILES IDX 70 79 71 80 74 81 72 82 51 83 52 84 60 85 53 86 54 87 58 88
REMARK SMILES IDX 61 89 55 90 56 91 59 92 57 93
REMARK H PARENT 15 7 7 13 22 27 81 46 49 57
REMARK Flexibility Score: inf
ROOT
ATOM      1  C   UNL A   1      32.534  29.972  27.228  1.00  0.00     0.002 C 
ENDROOT
BRANCH   1   2
ATOM      2  C   UNL A   1      33.767  29.378  26.532  1.00  0.00     0.021 C 
BRANCH   2   3
ATOM      3  C   UNL A   1      33.457  28.164  25.661  1.00  0.00     0.116 C 
BRANCH   3   4
ATOM      4  N   UNL A   1      32.528  27.270  26.310  1.00  0.00    -0.355 N 
ATOM      5  C   UNL A   1      31.433  26.638  25.798  1.00  0.00     0.239 C 
ATOM      6  O   UNL A   1      30.915  25.761  26.498  1.00  0.00    -0.273 OA
ATOM      7  H   UNL A   1      32.712  27.089  27.261  1.00  0.00     0.163 HD
BRANCH   5   8
ATOM      8  C   UNL A   1      31.023  26.824  24.327  1.00  0.00     0.220 C 
BRANCH   8   9
ATOM      9  N   UNL A   1      31.711  26.025  23.300  1.00  0.00    -0.319 N 
ATOM     10  C   UNL A   1      32.709  26.725  22.508  1.00  0.00     0.149 C 
BRANCH   9  11
ATOM     11  C   UNL A   1      31.630  24.669  23.455  1.00  0.00     0.317 C 
ATOM     12  N   UNL A   1      32.680  23.910  23.815  1.00  0.00    -0.335 N 
ATOM     13  H   UNL A   1      32.401  22.995  24.048  1.00  0.00     0.165 HD
ATOM     14  O   UNL A   1      30.579  24.056  23.257  1.00  0.00    -0.249 OA
BRANCH  12  15
ATOM     15  C   UNL A   1      34.123  24.086  23.951  1.00  0.00     0.084 C 
ATOM     16  C   UNL A   1      33.546  20.874  24.582  1.00  0.00     0.008 C 
ATOM     17  C   UNL A   1      34.853  21.673  24.606  1.00  0.00    -0.012 C 
ATOM     18  C   UNL A   1      35.178  22.193  26.011  1.00  0.00     0.003 C 
ATOM     19  C   UNL A   1      34.886  22.808  23.568  1.00  0.00     0.028 C 
ATOM     20  C   UNL A   1      34.348  23.414  26.406  1.00  0.00     0.002 C 
ATOM     21  C   UNL A   1      34.468  24.538  25.375  1.00  0.00     0.025 C 
ENDBRANCH  12  15
ENDBRANCH   9  11
ENDBRANCH   8   9
ENDBRANCH   5   8
ENDBRANCH   3   4
ENDBRANCH   2   3
ENDBRANCH   1   2
BRANCH   1  22
ATOM     22  C   UNL A   1      31.578  30.746  26.311  1.00  0.00     0.002 C 
BRANCH  22  23
ATOM     23  C   UNL A   1      31.420  32.231  26.646  1.00  0.00     0.021 C 
BRANCH  23  24
ATOM     24  C   UNL A   1      32.661  32.872  27.257  1.00  0.00     0.116 C 
BRANCH  24  25
ATOM     25  N   UNL A   1      32.430  34.261  27.628  1.00  0.00    -0.352 N 
ATOM     26  C   UNL A   1      32.991  34.998  28.641  1.00  0.00     0.251 C 
ATOM     27  H   UNL A   1      31.776  34.741  27.071  1.00  0.00     0.163 HD
ATOM     28  O   UNL A   1      32.529  36.090  28.943  1.00  0.00    -0.269 OA
BRANCH  26  29
ATOM     29  C   UNL A   1      34.149  34.457  29.384  1.00  0.00     0.039 A 
ATOM     30  C   UNL A   1      33.940  33.883  30.640  1.00  0.00     0.014 A 
ATOM     31  C   UNL A   1      35.438  34.524  28.845  1.00  0.00     0.014 A 
ATOM     32  C   UNL A   1      35.015  33.319  31.329  1.00  0.00     0.010 A 
ATOM     33  C   UNL A   1      36.492  33.892  29.496  1.00  0.00     0.010 A 
ATOM     34  C   UNL A   1      36.292  33.286  30.747  1.00  0.00    -0.014 A 
BRANCH  34  35
ATOM     35  C   UNL A   1      37.433  32.621  31.428  1.00  0.00     0.031 A 
ATOM     36  C   UNL A   1      38.130  31.461  30.776  1.00  0.00     0.074 A 
ATOM     37  C   UNL A   1      37.797  33.023  32.661  1.00  0.00     0.049 A 
ATOM     38  N   UNL A   1      39.097  30.708  31.239  1.00  0.00    -0.248 NA
ATOM     39  C   UNL A   1      37.661  31.075  29.435  1.00  0.00     0.031 C 
ATOM     40  C   UNL A   1      37.169  34.109  33.416  1.00  0.00     0.029 A 
ATOM     41  N   UNL A   1      38.778  32.560  33.502  1.00  0.00    -0.354 N 
ATOM     42  C   UNL A   1      39.342  29.759  30.255  1.00  0.00     0.074 A 
ATOM     43  C   UNL A   1      38.384  29.991  29.196  1.00  0.00     0.031 C 
ATOM     44  C   UNL A   1      37.795  34.245  34.594  1.00  0.00     0.029 A 
ATOM     45  C   UNL A   1      38.838  33.230  34.699  1.00  0.00     0.049 A 
ATOM     46  H   UNL A   1      39.382  31.819  33.267  1.00  0.00     0.167 HD
ATOM     47  C   UNL A   1      40.296  28.798  30.227  1.00  0.00     0.037 A 
ATOM     48  C   UNL A   1      39.638  33.038  35.766  1.00  0.00     0.037 A 
ATOM     49  C   UNL A   1      41.257  28.582  31.278  1.00  0.00     0.049 A 
ATOM     50  C   UNL A   1      40.674  31.947  35.719  1.00  0.00     0.074 A 
ATOM     51  C   UNL A   1      42.297  27.671  31.322  1.00  0.00     0.029 A 
ATOM     52  N   UNL A   1      41.291  29.286  32.474  1.00  0.00    -0.354 N 
ATOM     53  N   UNL A   1      40.942  31.100  34.755  1.00  0.00    -0.248 NA
ATOM     54  C   UNL A   1      41.524  31.790  36.907  1.00  0.00     0.031 C 
ATOM     55  C   UNL A   1      42.924  27.782  32.567  1.00  0.00     0.029 A 
ATOM     56  C   UNL A   1      42.318  28.809  33.274  1.00  0.00     0.049 A 
ATOM     57  H   UNL A   1      40.678  30.017  32.718  1.00  0.00     0.167 HD
ATOM     58  C   UNL A   1      42.009  30.335  35.205  1.00  0.00     0.074 A 
ATOM     59  C   UNL A   1      42.350  30.827  36.522  1.00  0.00     0.031 C 
ATOM     60  C   UNL A   1      42.650  29.315  34.581  1.00  0.00     0.037 A 
BRANCH  47  61
ATOM     61  C   UNL A   1      40.346  27.902  29.022  1.00  0.00     0.064 A 
ATOM     62  C   UNL A   1      41.117  28.224  27.895  1.00  0.00     0.173 A 
ATOM     63  C   UNL A   1      39.646  26.686  29.008  1.00  0.00     0.173 A 
ATOM     64  F   UNL A   1      41.798  29.380  27.850  1.00  0.00    -0.203 F 
ATOM     65  C   UNL A   1      41.158  27.382  26.787  1.00  0.00     0.198 A 
ATOM     66  C   UNL A   1      39.717  25.829  27.913  1.00  0.00     0.198 A 
ATOM     67  F   UNL A   1      38.898  26.324  30.062  1.00  0.00    -0.203 F 
ATOM     68  F   UNL A   1      41.857  27.738  25.701  1.00  0.00    -0.200 F 
ATOM     69  C   UNL A   1      40.465  26.180  26.800  1.00  0.00     0.200 A 
ATOM     70  F   UNL A   1      39.058  24.661  27.935  1.00  0.00    -0.200 F 
ATOM     71  F   UNL A   1      40.512  25.365  25.738  1.00  0.00    -0.200 F 
ENDBRANCH  47  61
BRANCH  48  72
ATOM     72  C   UNL A   1      39.502  33.910  36.964  1.00  0.00     0.064 A 
ATOM     73  C   UNL A   1      38.737  33.504  38.066  1.00  0.00     0.173 A 
ATOM     74  C   UNL A   1      40.120  35.167  37.028  1.00  0.00     0.173 A 
ATOM     75  F   UNL A   1      38.109  32.319  38.046  1.00  0.00    -0.203 F 
ATOM     76  C   UNL A   1      38.576  34.332  39.176  1.00  0.00     0.198 A 
ATOM     77  C   UNL A   1      39.986  35.980  38.151  1.00  0.00     0.198 A 
ATOM     78  F   UNL A   1      40.869  35.601  36.002  1.00  0.00    -0.203 F 
ATOM     79  F   UNL A   1      37.796  33.942  40.193  1.00  0.00    -0.200 F 
ATOM     80  C   UNL A   1      39.205  35.567  39.219  1.00  0.00     0.200 A 
ATOM     81  F   UNL A   1      40.610  37.165  38.195  1.00  0.00    -0.200 F 
ATOM     82  F   UNL A   1      39.052  36.362  40.287  1.00  0.00    -0.200 F 
ENDBRANCH  48  72
BRANCH  60  83
ATOM     83  C   UNL A   1      43.814  28.691  35.298  1.00  0.00     0.064 A 
ATOM     84  C   UNL A   1      45.126  29.156  35.124  1.00  0.00     0.173 A 
ATOM     85  C   UNL A   1      43.606  27.639  36.204  1.00  0.00     0.173 A 
ATOM     86  F   UNL A   1      45.381  30.150  34.260  1.00  0.00    -0.203 F 
ATOM     87  C   UNL A   1      46.189  28.571  35.808  1.00  0.00     0.198 A 
ATOM     88  C   UNL A   1      44.666  27.080  36.912  1.00  0.00     0.198 A 
ATOM     89  F   UNL A   1      42.369  27.162  36.415  1.00  0.00    -0.203 F 
ATOM     90  F   UNL A   1      47.440  28.995  35.585  1.00  0.00    -0.200 F 
ATOM     91  C   UNL A   1      45.957  27.540  36.706  1.00  0.00     0.200 A 
ATOM     92  F   UNL A   1      44.437  26.097  37.793  1.00  0.00    -0.200 F 
ATOM     93  F   UNL A   1      46.981  26.985  37.370  1.00  0.00    -0.200 F 
ENDBRANCH  60  83
ENDBRANCH  34  35
ENDBRANCH  26  29
ENDBRANCH  24  25
ENDBRANCH  23  24
ENDBRANCH  22  23
ENDBRANCH   1  22
TORSDOF 16
ENDMDL
