MODEL 1
REMARK VINA RESULT:     -12.6      0.000      0.000
REMARK SMILES O=C(NCCCCCCNC(=O)[C@H]1CCCN(C(=O)C2CCN(S(=O)(=O)c3ccccc3)CC2)C1)c1ccc(-c2c3nc(c(-c4c(F)c(F)c(F)c(F)c4F)c4ccc([nH]4)c(-c4c(F)c(F)c(F)c(F)c4F)c4nc(c(-c5c(F)c(F)c(F)c(F)c5F)c5ccc2[nH]5)C=C4)C=C3)cc1
REMARK SMILES IDX 7 1 6 2 5 3 4 4 3 5 1 6 2 7 36 9 37 10 98 11 38 12 97 13
REMARK SMILES IDX 39 14 40 15 41 16 91 17 42 18 96 19 90 20 92 21 43 22 95 23
REMARK SMILES IDX 89 24 88 25 44 27 76 28 56 29 75 30 57 31 60 32 74 33 93 34
REMARK SMILES IDX 58 35 59 36 73 38 94 39 61 40 45 41 46 42 54 43 47 44 48 45
REMARK SMILES IDX 52 46 55 47 49 48 50 49 53 50 51 51 77 52 78 53 86 54 79 55
REMARK SMILES IDX 80 56 84 57 87 58 81 59 82 60 85 61 83 62 62 63 63 64 71 65
REMARK SMILES IDX 64 66 65 67 69 68 72 69 66 70 67 71 70 72 68 73 8 74 9 75
REMARK SMILES IDX 10 76 11 77 12 79 13 80 14 81 35 82 15 83 17 84 16 85 18 86
REMARK SMILES IDX 19 87 20 88 21 89 34 90 22 91 33 92 23 93 24 94 25 95 26 96
REMARK SMILES IDX 27 97 28 98 32 99 29 100 31 101 30 102
REMARK H PARENT 3 8 92 26 60 37 10 78
REMARK Flexibility Score: inf
ROOT
ATOM      1  C   UNL A   1      34.700  32.922  29.104  1.00  0.00     0.002 C 
ENDROOT
BRANCH   1   2
ATOM      2  C   UNL A   1      34.626  34.383  28.639  1.00  0.00     0.002 C 
BRANCH   2   3
ATOM      3  C   UNL A   1      33.304  35.090  28.939  1.00  0.00     0.021 C 
BRANCH   3   4
ATOM      4  C   UNL A   1      33.471  36.431  29.634  1.00  0.00     0.116 C 
BRANCH   4   5
ATOM      5  N   UNL A   1      32.538  36.579  30.740  1.00  0.00    -0.352 N 
ATOM      6  O   UNL A   1      31.533  35.976  32.671  1.00  0.00    -0.269 OA
ATOM      7  C   UNL A   1      32.515  35.911  31.939  1.00  0.00     0.251 C 
ATOM      8  H   UNL A   1      31.827  37.247  30.611  1.00  0.00     0.163 HD
BRANCH   7   9
ATOM      9  C   UNL A   1      33.687  35.106  32.339  1.00  0.00     0.039 A 
ATOM     10  C   UNL A   1      34.949  35.698  32.408  1.00  0.00     0.014 A 
ATOM     11  C   UNL A   1      33.521  33.756  32.662  1.00  0.00     0.014 A 
ATOM     12  C   UNL A   1      36.062  34.915  32.675  1.00  0.00     0.010 A 
ATOM     13  C   UNL A   1      34.632  32.989  33.026  1.00  0.00     0.010 A 
ATOM     14  C   UNL A   1      35.913  33.560  33.019  1.00  0.00    -0.014 A 
BRANCH  14  15
ATOM     15  C   UNL A   1      37.115  32.813  33.461  1.00  0.00     0.031 A 
ATOM     16  C   UNL A   1      37.803  31.825  32.567  1.00  0.00     0.074 A 
ATOM     17  C   UNL A   1      37.615  33.096  34.680  1.00  0.00     0.049 A 
ATOM     18  N   UNL A   1      38.906  31.152  32.781  1.00  0.00    -0.248 NA
ATOM     19  C   UNL A   1      37.174  31.546  31.267  1.00  0.00     0.031 C 
ATOM     20  C   UNL A   1      37.006  34.018  35.642  1.00  0.00     0.029 A 
ATOM     21  N   UNL A   1      38.758  32.672  35.306  1.00  0.00    -0.354 N 
ATOM     22  C   UNL A   1      39.099  30.367  31.654  1.00  0.00     0.074 A 
ATOM     23  C   UNL A   1      37.984  30.622  30.767  1.00  0.00     0.031 C 
ATOM     24  C   UNL A   1      37.811  34.142  36.705  1.00  0.00     0.029 A 
ATOM     25  C   UNL A   1      38.959  33.262  36.530  1.00  0.00     0.049 A 
ATOM     26  H   UNL A   1      39.375  32.010  34.917  1.00  0.00     0.167 HD
ATOM     27  C   UNL A   1      40.123  29.521  31.385  1.00  0.00     0.037 A 
ATOM     28  C   UNL A   1      39.955  33.106  37.420  1.00  0.00     0.037 A 
ATOM     29  C   UNL A   1      41.231  29.278  32.275  1.00  0.00     0.049 A 
ATOM     30  C   UNL A   1      41.078  32.169  37.087  1.00  0.00     0.074 A 
ATOM     31  C   UNL A   1      42.319  28.440  32.094  1.00  0.00     0.029 A 
ATOM     32  N   UNL A   1      41.394  29.879  33.515  1.00  0.00    -0.354 N 
ATOM     33  N   UNL A   1      41.259  31.447  36.008  1.00  0.00    -0.248 NA
ATOM     34  C   UNL A   1      42.138  32.025  38.093  1.00  0.00     0.031 C 
ATOM     35  C   UNL A   1      43.121  28.508  33.240  1.00  0.00     0.029 A 
ATOM     36  C   UNL A   1      42.557  29.422  34.116  1.00  0.00     0.049 A 
ATOM     37  H   UNL A   1      40.774  30.533  33.912  1.00  0.00     0.167 HD
ATOM     38  C   UNL A   1      42.446  30.761  36.204  1.00  0.00     0.074 A 
ATOM     39  C   UNL A   1      42.966  31.186  37.488  1.00  0.00     0.031 C 
ATOM     40  C   UNL A   1      43.048  29.850  35.401  1.00  0.00     0.037 A 
BRANCH  27  41
ATOM     41  C   UNL A   1      40.096  28.784  30.076  1.00  0.00     0.064 A 
ATOM     42  C   UNL A   1      40.721  29.299  28.932  1.00  0.00     0.173 A 
ATOM     43  C   UNL A   1      39.488  27.522  29.980  1.00  0.00     0.173 A 
ATOM     44  F   UNL A   1      41.305  30.506  28.968  1.00  0.00    -0.203 F 
ATOM     45  C   UNL A   1      40.729  28.585  27.735  1.00  0.00     0.198 A 
ATOM     46  C   UNL A   1      39.520  26.800  28.790  1.00  0.00     0.198 A 
ATOM     47  F   UNL A   1      38.880  26.981  31.046  1.00  0.00    -0.203 F 
ATOM     48  F   UNL A   1      41.305  29.112  26.646  1.00  0.00    -0.200 F 
ATOM     49  C   UNL A   1      40.136  27.333  27.667  1.00  0.00     0.200 A 
ATOM     50  F   UNL A   1      38.957  25.586  28.728  1.00  0.00    -0.200 F 
ATOM     51  F   UNL A   1      40.155  26.643  26.519  1.00  0.00    -0.200 F 
ENDBRANCH  27  41
BRANCH  28  52
ATOM     52  C   UNL A   1      39.921  33.850  38.704  1.00  0.00     0.064 A 
ATOM     53  C   UNL A   1      39.202  33.367  39.806  1.00  0.00     0.173 A 
ATOM     54  C   UNL A   1      40.624  35.055  38.860  1.00  0.00     0.173 A 
ATOM     55  F   UNL A   1      38.503  32.228  39.702  1.00  0.00    -0.203 F 
ATOM     56  C   UNL A   1      39.172  34.070  41.008  1.00  0.00     0.198 A 
ATOM     57  C   UNL A   1      40.620  35.740  40.072  1.00  0.00     0.198 A 
ATOM     58  F   UNL A   1      41.333  35.555  37.838  1.00  0.00    -0.203 F 
ATOM     59  F   UNL A   1      38.443  33.609  42.033  1.00  0.00    -0.200 F 
ATOM     60  C   UNL A   1      39.887  35.251  41.143  1.00  0.00     0.200 A 
ATOM     61  F   UNL A   1      41.328  36.869  40.203  1.00  0.00    -0.200 F 
ATOM     62  F   UNL A   1      39.866  35.921  42.303  1.00  0.00    -0.200 F 
ENDBRANCH  28  52
BRANCH  40  63
ATOM     63  C   UNL A   1      44.335  29.262  35.898  1.00  0.00     0.064 A 
ATOM     64  C   UNL A   1      44.352  28.093  36.674  1.00  0.00     0.173 A 
ATOM     65  C   UNL A   1      45.560  29.874  35.600  1.00  0.00     0.173 A 
ATOM     66  F   UNL A   1      43.202  27.483  37.001  1.00  0.00    -0.203 F 
ATOM     67  C   UNL A   1      45.548  27.578  37.163  1.00  0.00     0.198 A 
ATOM     68  C   UNL A   1      46.758  29.338  36.066  1.00  0.00     0.198 A 
ATOM     69  F   UNL A   1      45.598  30.990  34.858  1.00  0.00    -0.203 F 
ATOM     70  F   UNL A   1      45.535  26.494  37.952  1.00  0.00    -0.200 F 
ATOM     71  C   UNL A   1      46.750  28.198  36.856  1.00  0.00     0.200 A 
ATOM     72  F   UNL A   1      47.919  29.933  35.761  1.00  0.00    -0.200 F 
ATOM     73  F   UNL A   1      47.901  27.703  37.332  1.00  0.00    -0.200 F 
ENDBRANCH  40  63
ENDBRANCH  14  15
ENDBRANCH   7   9
ENDBRANCH   4   5
ENDBRANCH   3   4
ENDBRANCH   2   3
ENDBRANCH   1   2
BRANCH   1  74
ATOM     74  C   UNL A   1      35.373  31.958  28.118  1.00  0.00     0.021 C 
BRANCH  74  75
ATOM     75  C   UNL A   1      34.457  30.826  27.655  1.00  0.00     0.116 C 
BRANCH  75  76
ATOM     76  N   UNL A   1      33.163  31.316  27.229  1.00  0.00    -0.356 N 
ATOM     77  C   UNL A   1      32.102  30.760  26.603  1.00  0.00     0.224 C 
ATOM     78  H   UNL A   1      33.025  32.268  27.443  1.00  0.00     0.163 HD
ATOM     79  O   UNL A   1      31.119  31.501  26.465  1.00  0.00    -0.275 OA
BRANCH  77  80
ATOM     80  C   UNL A   1      32.056  29.360  25.993  1.00  0.00     0.098 C 
ATOM     81  C   UNL A   1      31.620  28.383  27.099  1.00  0.00     0.017 C 
ATOM     82  C   UNL A   1      31.258  29.153  24.707  1.00  0.00     0.133 C 
ATOM     83  C   UNL A   1      31.554  26.958  26.569  1.00  0.00     0.022 C 
ATOM     84  N   UNL A   1      31.159  27.754  24.285  1.00  0.00    -0.342 N 
ATOM     85  C   UNL A   1      30.661  26.906  25.342  1.00  0.00     0.119 C 
BRANCH  84  86
ATOM     86  C   UNL A   1      31.241  27.451  22.937  1.00  0.00     0.225 C 
ATOM     87  O   UNL A   1      30.535  28.086  22.137  1.00  0.00    -0.275 OA
BRANCH  86  88
ATOM     88  C   UNL A   1      32.155  26.356  22.327  1.00  0.00     0.081 C 
ATOM     89  C   UNL A   1      31.569  24.967  22.144  1.00  0.00     0.030 C 
ATOM     90  C   UNL A   1      33.610  26.271  22.749  1.00  0.00     0.030 C 
ATOM     91  C   UNL A   1      31.813  23.995  23.282  1.00  0.00     0.103 C 
ATOM     92  C   UNL A   1      33.909  25.341  23.910  1.00  0.00     0.103 C 
ATOM     93  N   UNL A   1      33.170  24.050  23.934  1.00  0.00    -0.198 NA
BRANCH  93  94
ATOM     94  S   UNL A   1      33.069  23.237  25.483  1.00  0.00     0.243 S 
ATOM     95  O   UNL A   1      34.167  23.722  26.306  1.00  0.00    -0.207 OA
ATOM     96  O   UNL A   1      31.710  23.401  25.942  1.00  0.00    -0.207 OA
BRANCH  94  97
ATOM     97  C   UNL A   1      33.386  21.505  25.243  1.00  0.00     0.082 A 
ATOM     98  C   UNL A   1      34.703  21.046  25.226  1.00  0.00     0.022 A 
ATOM     99  C   UNL A   1      32.348  20.656  24.833  1.00  0.00     0.022 A 
ATOM    100  C   UNL A   1      34.969  19.726  24.850  1.00  0.00     0.001 A 
ATOM    101  C   UNL A   1      32.611  19.328  24.507  1.00  0.00     0.001 A 
ATOM    102  C   UNL A   1      33.924  18.865  24.510  1.00  0.00     0.000 A 
ENDBRANCH  94  97
ENDBRANCH  93  94
ENDBRANCH  86  88
ENDBRANCH  84  86
ENDBRANCH  77  80
ENDBRANCH  75  76
ENDBRANCH  74  75
ENDBRANCH   1  74
TORSDOF 17
ENDMDL
MODEL 2
REMARK VINA RESULT:     -12.5      2.080      7.886
REMARK SMILES O=C(NCCCCCCNC(=O)[C@H]1CCCN(C(=O)C2CCN(S(=O)(=O)c3ccccc3)CC2)C1)c1ccc(-c2c3nc(c(-c4c(F)c(F)c(F)c(F)c4F)c4ccc([nH]4)c(-c4c(F)c(F)c(F)c(F)c4F)c4nc(c(-c5c(F)c(F)c(F)c(F)c5F)c5ccc2[nH]5)C=C4)C=C3)cc1
REMARK SMILES IDX 7 1 6 2 5 3 4 4 3 5 1 6 2 7 36 9 37 10 98 11 38 12 97 13
REMARK SMILES IDX 39 14 40 15 41 16 91 17 42 18 96 19 90 20 92 21 43 22 95 23
REMARK SMILES IDX 89 24 88 25 44 27 76 28 56 29 75 30 57 31 60 32 74 33 93 34
REMARK SMILES IDX 58 35 59 36 73 38 94 39 61 40 45 41 46 42 54 43 47 44 48 45
REMARK SMILES IDX 52 46 55 47 49 48 50 49 53 50 51 51 77 52 78 53 86 54 79 55
REMARK SMILES IDX 80 56 84 57 87 58 81 59 82 60 85 61 83 62 62 63 63 64 71 65
REMARK SMILES IDX 64 66 65 67 69 68 72 69 66 70 67 71 70 72 68 73 8 74 9 75
REMARK SMILES IDX 10 76 11 77 12 79 13 80 14 81 35 82 15 83 17 84 16 85 18 86
REMARK SMILES IDX 19 87 20 88 21 89 34 90 22 91 33 92 23 93 24 94 25 95 26 96
REMARK SMILES IDX 27 97 28 98 32 99 29 100 31 101 30 102
REMARK H PARENT 3 8 92 26 60 37 10 78
REMARK Flexibility Score: inf
ROOT
ATOM      1  C   UNL A   1      30.743  29.345  24.429  1.00  0.00     0.002 C 
ENDROOT
BRANCH   1   2
ATOM      2  C   UNL A   1      31.890  29.838  25.323  1.00  0.00     0.002 C 
BRANCH   2   3
ATOM      3  C   UNL A   1      31.520  30.968  26.284  1.00  0.00     0.021 C 
BRANCH   3   4
ATOM      4  C   UNL A   1      32.719  31.620  26.953  1.00  0.00     0.116 C 
BRANCH   4   5
ATOM      5  N   UNL A   1      32.474  33.025  27.237  1.00  0.00    -0.352 N 
ATOM      6  O   UNL A   1      32.621  34.931  28.441  1.00  0.00    -0.269 OA
ATOM      7  C   UNL A   1      33.095  33.836  28.154  1.00  0.00     0.251 C 
ATOM      8  H   UNL A   1      31.769  33.451  26.700  1.00  0.00     0.163 HD
BRANCH   7   9
ATOM      9  C   UNL A   1      34.342  33.375  28.799  1.00  0.00     0.039 A 
ATOM     10  C   UNL A   1      34.287  32.432  29.827  1.00  0.00     0.014 A 
ATOM     11  C   UNL A   1      35.572  33.874  28.362  1.00  0.00     0.014 A 
ATOM     12  C   UNL A   1      35.447  32.085  30.504  1.00  0.00     0.010 A 
ATOM     13  C   UNL A   1      36.751  33.449  28.982  1.00  0.00     0.010 A 
ATOM     14  C   UNL A   1      36.694  32.564  30.068  1.00  0.00    -0.014 A 
BRANCH  14  15
ATOM     15  C   UNL A   1      37.916  32.028  30.717  1.00  0.00     0.031 A 
ATOM     16  C   UNL A   1      38.318  32.440  32.102  1.00  0.00     0.074 A 
ATOM     17  C   UNL A   1      38.628  31.102  30.045  1.00  0.00     0.049 A 
ATOM     18  N   UNL A   1      39.313  32.002  32.833  1.00  0.00    -0.248 NA
ATOM     19  C   UNL A   1      37.509  33.481  32.753  1.00  0.00     0.031 C 
ATOM     20  C   UNL A   1      38.340  30.654  28.680  1.00  0.00     0.029 A 
ATOM     21  N   UNL A   1      39.709  30.349  30.421  1.00  0.00    -0.354 N 
ATOM     22  C   UNL A   1      39.257  32.716  34.021  1.00  0.00     0.074 A 
ATOM     23  C   UNL A   1      38.147  33.639  33.906  1.00  0.00     0.031 C 
ATOM     24  C   UNL A   1      39.178  29.660  28.357  1.00  0.00     0.029 A 
ATOM     25  C   UNL A   1      40.101  29.444  29.464  1.00  0.00     0.049 A 
ATOM     26  H   UNL A   1      40.160  30.446  31.291  1.00  0.00     0.167 HD
ATOM     27  C   UNL A   1      40.055  32.599  35.110  1.00  0.00     0.037 A 
ATOM     28  C   UNL A   1      41.099  28.544  29.474  1.00  0.00     0.037 A 
ATOM     29  C   UNL A   1      41.154  31.673  35.215  1.00  0.00     0.049 A 
ATOM     30  C   UNL A   1      41.958  28.433  30.699  1.00  0.00     0.074 A 
ATOM     31  C   UNL A   1      42.023  31.476  36.276  1.00  0.00     0.029 A 
ATOM     32  N   UNL A   1      41.536  30.783  34.220  1.00  0.00    -0.354 N 
ATOM     33  N   UNL A   1      41.881  29.101  31.824  1.00  0.00    -0.248 NA
ATOM     34  C   UNL A   1      43.041  27.442  30.658  1.00  0.00     0.031 C 
ATOM     35  C   UNL A   1      42.949  30.492  35.909  1.00  0.00     0.029 A 
ATOM     36  C   UNL A   1      42.632  30.044  34.637  1.00  0.00     0.049 A 
ATOM     37  H   UNL A   1      41.093  30.690  33.345  1.00  0.00     0.167 HD
ATOM     38  C   UNL A   1      42.904  28.617  32.623  1.00  0.00     0.074 A 
ATOM     39  C   UNL A   1      43.561  27.568  31.870  1.00  0.00     0.031 C 
ATOM     40  C   UNL A   1      43.277  29.014  33.865  1.00  0.00     0.037 A 
BRANCH  27  41
ATOM     41  C   UNL A   1      39.777  33.499  36.280  1.00  0.00     0.064 A 
ATOM     42  C   UNL A   1      40.347  34.776  36.374  1.00  0.00     0.173 A 
ATOM     43  C   UNL A   1      38.885  33.103  37.289  1.00  0.00     0.173 A 
ATOM     44  F   UNL A   1      41.215  35.197  35.443  1.00  0.00    -0.203 F 
ATOM     45  C   UNL A   1      40.045  35.620  37.441  1.00  0.00     0.198 A 
ATOM     46  C   UNL A   1      38.566  33.958  38.341  1.00  0.00     0.198 A 
ATOM     47  F   UNL A   1      38.307  31.893  37.245  1.00  0.00    -0.203 F 
ATOM     48  F   UNL A   1      40.627  36.825  37.526  1.00  0.00    -0.200 F 
ATOM     49  C   UNL A   1      39.149  35.214  38.418  1.00  0.00     0.200 A 
ATOM     50  F   UNL A   1      37.690  33.569  39.278  1.00  0.00    -0.200 F 
ATOM     51  F   UNL A   1      38.850  36.032  39.437  1.00  0.00    -0.200 F 
ENDBRANCH  27  41
BRANCH  28  52
ATOM     52  C   UNL A   1      41.336  27.691  28.281  1.00  0.00     0.064 A 
ATOM     53  C   UNL A   1      42.170  28.115  27.239  1.00  0.00     0.173 A 
ATOM     54  C   UNL A   1      40.742  26.424  28.170  1.00  0.00     0.173 A 
ATOM     55  F   UNL A   1      42.748  29.324  27.292  1.00  0.00    -0.203 F 
ATOM     56  C   UNL A   1      42.387  27.311  26.121  1.00  0.00     0.198 A 
ATOM     57  C   UNL A   1      40.986  25.609  27.068  1.00  0.00     0.198 A 
ATOM     58  F   UNL A   1      39.942  25.970  29.144  1.00  0.00    -0.203 F 
ATOM     59  F   UNL A   1      43.155  27.758  25.118  1.00  0.00    -0.200 F 
ATOM     60  C   UNL A   1      41.802  26.057  26.040  1.00  0.00     0.200 A 
ATOM     61  F   UNL A   1      40.434  24.390  27.004  1.00  0.00    -0.200 F 
ATOM     62  F   UNL A   1      42.019  25.281  24.970  1.00  0.00    -0.200 F 
ENDBRANCH  28  52
BRANCH  40  63
ATOM     63  C   UNL A   1      44.447  28.301  34.474  1.00  0.00     0.064 A 
ATOM     64  C   UNL A   1      44.277  27.129  35.228  1.00  0.00     0.173 A 
ATOM     65  C   UNL A   1      45.749  28.793  34.307  1.00  0.00     0.173 A 
ATOM     66  F   UNL A   1      43.048  26.631  35.432  1.00  0.00    -0.203 F 
ATOM     67  C   UNL A   1      45.365  26.497  35.821  1.00  0.00     0.198 A 
ATOM     68  C   UNL A   1      46.838  28.141  34.877  1.00  0.00     0.198 A 
ATOM     69  F   UNL A   1      45.965  29.907  33.591  1.00  0.00    -0.203 F 
ATOM     70  F   UNL A   1      45.172  25.414  36.587  1.00  0.00    -0.200 F 
ATOM     71  C   UNL A   1      46.645  27.002  35.643  1.00  0.00     0.200 A 
ATOM     72  F   UNL A   1      48.075  28.624  34.697  1.00  0.00    -0.200 F 
ATOM     73  F   UNL A   1      47.691  26.394  36.220  1.00  0.00    -0.200 F 
ENDBRANCH  40  63
ENDBRANCH  14  15
ENDBRANCH   7   9
ENDBRANCH   4   5
ENDBRANCH   3   4
ENDBRANCH   2   3
ENDBRANCH   1   2
BRANCH   1  74
ATOM     74  C   UNL A   1      31.109  29.140  22.953  1.00  0.00     0.021 C 
BRANCH  74  75
ATOM     75  C   UNL A   1      30.634  27.802  22.390  1.00  0.00     0.116 C 
BRANCH  75  76
ATOM     76  N   UNL A   1      31.708  27.071  21.750  1.00  0.00    -0.356 N 
ATOM     77  C   UNL A   1      32.626  26.176  22.177  1.00  0.00     0.224 C 
ATOM     78  H   UNL A   1      31.787  27.272  20.789  1.00  0.00     0.163 HD
ATOM     79  O   UNL A   1      33.359  25.707  21.296  1.00  0.00    -0.275 OA
BRANCH  77  80
ATOM     80  C   UNL A   1      32.878  25.778  23.630  1.00  0.00     0.098 C 
ATOM     81  C   UNL A   1      33.640  26.931  24.306  1.00  0.00     0.017 C 
ATOM     82  C   UNL A   1      31.691  25.312  24.473  1.00  0.00     0.133 C 
ATOM     83  C   UNL A   1      33.935  26.607  25.762  1.00  0.00     0.022 C 
ATOM     84  N   UNL A   1      32.013  25.091  25.885  1.00  0.00    -0.342 N 
ATOM     85  C   UNL A   1      32.646  26.243  26.480  1.00  0.00     0.119 C 
BRANCH  84  86
ATOM     86  C   UNL A   1      31.443  24.016  26.543  1.00  0.00     0.225 C 
ATOM     87  O   UNL A   1      30.320  24.153  27.053  1.00  0.00    -0.275 OA
BRANCH  86  88
ATOM     88  C   UNL A   1      32.106  22.623  26.708  1.00  0.00     0.081 C 
ATOM     89  C   UNL A   1      33.301  22.513  27.638  1.00  0.00     0.030 C 
ATOM     90  C   UNL A   1      32.292  21.731  25.494  1.00  0.00     0.030 C 
ATOM     91  C   UNL A   1      34.661  22.658  26.983  1.00  0.00     0.103 C 
ATOM     92  C   UNL A   1      33.621  21.859  24.774  1.00  0.00     0.103 C 
ATOM     93  N   UNL A   1      34.828  22.016  25.630  1.00  0.00    -0.198 NA
BRANCH  93  94
ATOM     94  S   UNL A   1      36.244  22.706  24.864  1.00  0.00     0.243 S 
ATOM     95  O   UNL A   1      36.016  22.696  23.427  1.00  0.00    -0.207 OA
ATOM     96  O   UNL A   1      36.501  23.959  25.535  1.00  0.00    -0.207 OA
BRANCH  94  97
ATOM     97  C   UNL A   1      37.626  21.621  25.131  1.00  0.00     0.082 A 
ATOM     98  C   UNL A   1      37.515  20.274  24.787  1.00  0.00     0.022 A 
ATOM     99  C   UNL A   1      38.716  22.056  25.899  1.00  0.00     0.022 A 
ATOM    100  C   UNL A   1      38.521  19.380  25.168  1.00  0.00     0.001 A 
ATOM    101  C   UNL A   1      39.740  21.173  26.233  1.00  0.00     0.001 A 
ATOM    102  C   UNL A   1      39.638  19.832  25.871  1.00  0.00     0.000 A 
ENDBRANCH  94  97
ENDBRANCH  93  94
ENDBRANCH  86  88
ENDBRANCH  84  86
ENDBRANCH  77  80
ENDBRANCH  75  76
ENDBRANCH  74  75
ENDBRANCH   1  74
TORSDOF 17
ENDMDL
MODEL 3
REMARK VINA RESULT:     -12.4      6.551     11.931
REMARK SMILES O=C(NCCCCCCNC(=O)[C@H]1CCCN(C(=O)C2CCN(S(=O)(=O)c3ccccc3)CC2)C1)c1ccc(-c2c3nc(c(-c4c(F)c(F)c(F)c(F)c4F)c4ccc([nH]4)c(-c4c(F)c(F)c(F)c(F)c4F)c4nc(c(-c5c(F)c(F)c(F)c(F)c5F)c5ccc2[nH]5)C=C4)C=C3)cc1
REMARK SMILES IDX 7 1 6 2 5 3 4 4 3 5 1 6 2 7 36 9 37 10 98 11 38 12 97 13
REMARK SMILES IDX 39 14 40 15 41 16 91 17 42 18 96 19 90 20 92 21 43 22 95 23
REMARK SMILES IDX 89 24 88 25 44 27 76 28 56 29 75 30 57 31 60 32 74 33 93 34
REMARK SMILES IDX 58 35 59 36 73 38 94 39 61 40 45 41 46 42 54 43 47 44 48 45
REMARK SMILES IDX 52 46 55 47 49 48 50 49 53 50 51 51 77 52 78 53 86 54 79 55
REMARK SMILES IDX 80 56 84 57 87 58 81 59 82 60 85 61 83 62 62 63 63 64 71 65
REMARK SMILES IDX 64 66 65 67 69 68 72 69 66 70 67 71 70 72 68 73 8 74 9 75
REMARK SMILES IDX 10 76 11 77 12 79 13 80 14 81 35 82 15 83 17 84 16 85 18 86
REMARK SMILES IDX 19 87 20 88 21 89 34 90 22 91 33 92 23 93 24 94 25 95 26 96
REMARK SMILES IDX 27 97 28 98 32 99 29 100 31 101 30 102
REMARK H PARENT 3 8 92 26 60 37 10 78
REMARK Flexibility Score: inf
ROOT
ATOM      1  C   UNL A   1      41.511  21.789  26.394  1.00  0.00     0.002 C 
ENDROOT
BRANCH   1   2
ATOM      2  C   UNL A   1      41.990  20.468  27.013  1.00  0.00     0.002 C 
BRANCH   2   3
ATOM      3  C   UNL A   1      42.216  19.332  26.014  1.00  0.00     0.021 C 
BRANCH   3   4
ATOM      4  C   UNL A   1      43.630  18.775  26.030  1.00  0.00     0.116 C 
BRANCH   4   5
ATOM      5  N   UNL A   1      44.183  18.683  24.688  1.00  0.00    -0.352 N 
ATOM      6  O   UNL A   1      44.837  19.484  22.679  1.00  0.00    -0.269 OA
ATOM      7  C   UNL A   1      44.617  19.694  23.868  1.00  0.00     0.251 C 
ATOM      8  H   UNL A   1      44.254  17.774  24.319  1.00  0.00     0.163 HD
BRANCH   7   9
ATOM      9  C   UNL A   1      44.815  21.046  24.431  1.00  0.00     0.039 A 
ATOM     10  C   UNL A   1      45.526  21.209  25.621  1.00  0.00     0.014 A 
ATOM     11  C   UNL A   1      44.300  22.157  23.757  1.00  0.00     0.014 A 
ATOM     12  C   UNL A   1      45.613  22.465  26.203  1.00  0.00     0.010 A 
ATOM     13  C   UNL A   1      44.473  23.435  24.296  1.00  0.00     0.010 A 
ATOM     14  C   UNL A   1      45.117  23.596  25.532  1.00  0.00    -0.014 A 
BRANCH  14  15
ATOM     15  C   UNL A   1      45.387  24.932  26.116  1.00  0.00     0.031 A 
ATOM     16  C   UNL A   1      46.742  25.570  26.032  1.00  0.00     0.074 A 
ATOM     17  C   UNL A   1      44.354  25.592  26.674  1.00  0.00     0.049 A 
ATOM     18  N   UNL A   1      47.114  26.763  26.425  1.00  0.00    -0.248 NA
ATOM     19  C   UNL A   1      47.824  24.770  25.441  1.00  0.00     0.031 C 
ATOM     20  C   UNL A   1      43.002  25.050  26.834  1.00  0.00     0.029 A 
ATOM     21  N   UNL A   1      44.261  26.864  27.176  1.00  0.00    -0.354 N 
ATOM     22  C   UNL A   1      48.468  26.855  26.138  1.00  0.00     0.074 A 
ATOM     23  C   UNL A   1      48.863  25.586  25.564  1.00  0.00     0.031 C 
ATOM     24  C   UNL A   1      42.201  26.001  27.332  1.00  0.00     0.029 A 
ATOM     25  C   UNL A   1      42.994  27.197  27.587  1.00  0.00     0.049 A 
ATOM     26  H   UNL A   1      45.028  27.479  27.236  1.00  0.00     0.167 HD
ATOM     27  C   UNL A   1      49.297  27.909  26.328  1.00  0.00     0.037 A 
ATOM     28  C   UNL A   1      42.521  28.338  28.118  1.00  0.00     0.037 A 
ATOM     29  C   UNL A   1      48.891  29.170  26.897  1.00  0.00     0.049 A 
ATOM     30  C   UNL A   1      43.464  29.490  28.306  1.00  0.00     0.074 A 
ATOM     31  C   UNL A   1      49.655  30.301  27.131  1.00  0.00     0.029 A 
ATOM     32  N   UNL A   1      47.603  29.467  27.320  1.00  0.00    -0.354 N 
ATOM     33  N   UNL A   1      44.739  29.569  28.012  1.00  0.00    -0.248 NA
ATOM     34  C   UNL A   1      42.904  30.711  28.898  1.00  0.00     0.031 C 
ATOM     35  C   UNL A   1      48.837  31.269  27.726  1.00  0.00     0.029 A 
ATOM     36  C   UNL A   1      47.553  30.758  27.822  1.00  0.00     0.049 A 
ATOM     37  H   UNL A   1      46.836  28.851  27.270  1.00  0.00     0.167 HD
ATOM     38  C   UNL A   1      45.135  30.843  28.384  1.00  0.00     0.074 A 
ATOM     39  C   UNL A   1      43.955  31.518  28.886  1.00  0.00     0.031 C 
ATOM     40  C   UNL A   1      46.369  31.403  28.329  1.00  0.00     0.037 A 
BRANCH  27  41
ATOM     41  C   UNL A   1      50.735  27.749  25.925  1.00  0.00     0.064 A 
ATOM     42  C   UNL A   1      51.722  27.390  26.855  1.00  0.00     0.173 A 
ATOM     43  C   UNL A   1      51.121  27.897  24.583  1.00  0.00     0.173 A 
ATOM     44  F   UNL A   1      51.408  27.249  28.151  1.00  0.00    -0.203 F 
ATOM     45  C   UNL A   1      53.044  27.199  26.460  1.00  0.00     0.198 A 
ATOM     46  C   UNL A   1      52.439  27.680  24.188  1.00  0.00     0.198 A 
ATOM     47  F   UNL A   1      50.216  28.234  23.652  1.00  0.00    -0.203 F 
ATOM     48  F   UNL A   1      53.976  26.888  27.372  1.00  0.00    -0.200 F 
ATOM     49  C   UNL A   1      53.400  27.335  25.126  1.00  0.00     0.200 A 
ATOM     50  F   UNL A   1      52.779  27.801  22.898  1.00  0.00    -0.200 F 
ATOM     51  F   UNL A   1      54.670  27.139  24.746  1.00  0.00    -0.200 F 
ENDBRANCH  27  41
BRANCH  28  52
ATOM     52  C   UNL A   1      41.093  28.433  28.511  1.00  0.00     0.064 A 
ATOM     53  C   UNL A   1      40.659  28.021  29.778  1.00  0.00     0.173 A 
ATOM     54  C   UNL A   1      40.133  28.955  27.630  1.00  0.00     0.173 A 
ATOM     55  F   UNL A   1      41.534  27.501  30.650  1.00  0.00    -0.203 F 
ATOM     56  C   UNL A   1      39.316  28.111  30.142  1.00  0.00     0.198 A 
ATOM     57  C   UNL A   1      38.798  29.075  28.006  1.00  0.00     0.198 A 
ATOM     58  F   UNL A   1      40.500  29.370  26.409  1.00  0.00    -0.203 F 
ATOM     59  F   UNL A   1      38.920  27.671  31.344  1.00  0.00    -0.200 F 
ATOM     60  C   UNL A   1      38.389  28.645  29.260  1.00  0.00     0.200 A 
ATOM     61  F   UNL A   1      37.911  29.610  27.157  1.00  0.00    -0.200 F 
ATOM     62  F   UNL A   1      37.101  28.740  29.614  1.00  0.00    -0.200 F 
ENDBRANCH  28  52
BRANCH  40  63
ATOM     63  C   UNL A   1      46.489  32.813  28.825  1.00  0.00     0.064 A 
ATOM     64  C   UNL A   1      46.304  33.908  27.966  1.00  0.00     0.173 A 
ATOM     65  C   UNL A   1      46.794  33.073  30.168  1.00  0.00     0.173 A 
ATOM     66  F   UNL A   1      46.029  33.708  26.668  1.00  0.00    -0.203 F 
ATOM     67  C   UNL A   1      46.456  35.211  28.427  1.00  0.00     0.198 A 
ATOM     68  C   UNL A   1      46.916  34.380  30.633  1.00  0.00     0.198 A 
ATOM     69  F   UNL A   1      46.976  32.062  31.030  1.00  0.00    -0.203 F 
ATOM     70  F   UNL A   1      46.334  36.240  27.576  1.00  0.00    -0.200 F 
ATOM     71  C   UNL A   1      46.759  35.447  29.760  1.00  0.00     0.200 A 
ATOM     72  F   UNL A   1      47.199  34.607  31.923  1.00  0.00    -0.200 F 
ATOM     73  F   UNL A   1      46.909  36.703  30.202  1.00  0.00    -0.200 F 
ENDBRANCH  40  63
ENDBRANCH  14  15
ENDBRANCH   7   9
ENDBRANCH   4   5
ENDBRANCH   3   4
ENDBRANCH   2   3
ENDBRANCH   1   2
BRANCH   1  74
ATOM     74  C   UNL A   1      40.397  22.505  27.169  1.00  0.00     0.021 C 
BRANCH  74  75
ATOM     75  C   UNL A   1      39.086  22.611  26.390  1.00  0.00     0.116 C 
BRANCH  75  76
ATOM     76  N   UNL A   1      38.734  21.360  25.751  1.00  0.00    -0.356 N 
ATOM     77  C   UNL A   1      37.653  20.921  25.068  1.00  0.00     0.224 C 
ATOM     78  H   UNL A   1      39.439  20.677  25.833  1.00  0.00     0.163 HD
ATOM     79  O   UNL A   1      37.749  19.777  24.603  1.00  0.00    -0.275 OA
BRANCH  77  80
ATOM     80  C   UNL A   1      36.331  21.669  24.908  1.00  0.00     0.098 C 
ATOM     81  C   UNL A   1      36.473  22.616  23.704  1.00  0.00     0.017 C 
ATOM     82  C   UNL A   1      35.039  20.856  24.840  1.00  0.00     0.133 C 
ATOM     83  C   UNL A   1      35.193  23.406  23.480  1.00  0.00     0.022 C 
ATOM     84  N   UNL A   1      33.848  21.655  24.543  1.00  0.00    -0.342 N 
ATOM     85  C   UNL A   1      34.016  22.453  23.353  1.00  0.00     0.119 C 
BRANCH  84  86
ATOM     86  C   UNL A   1      32.661  21.356  25.190  1.00  0.00     0.225 C 
ATOM     87  O   UNL A   1      32.109  20.269  24.958  1.00  0.00    -0.275 OA
BRANCH  86  88
ATOM     88  C   UNL A   1      31.941  22.289  26.199  1.00  0.00     0.081 C 
ATOM     89  C   UNL A   1      30.642  22.940  25.759  1.00  0.00     0.030 C 
ATOM     90  C   UNL A   1      32.755  23.245  27.051  1.00  0.00     0.030 C 
ATOM     91  C   UNL A   1      30.771  24.326  25.157  1.00  0.00     0.103 C 
ATOM     92  C   UNL A   1      32.950  24.638  26.481  1.00  0.00     0.103 C 
ATOM     93  N   UNL A   1      31.777  25.247  25.798  1.00  0.00    -0.198 NA
BRANCH  93  94
ATOM     94  S   UNL A   1      32.114  26.555  24.683  1.00  0.00     0.243 S 
ATOM     95  O   UNL A   1      33.252  26.156  23.869  1.00  0.00    -0.207 OA
ATOM     96  O   UNL A   1      30.861  26.879  24.044  1.00  0.00    -0.207 OA
BRANCH  94  97
ATOM     97  C   UNL A   1      32.666  27.968  25.608  1.00  0.00     0.082 A 
ATOM     98  C   UNL A   1      33.994  28.035  26.031  1.00  0.00     0.022 A 
ATOM     99  C   UNL A   1      31.728  28.881  26.114  1.00  0.00     0.022 A 
ATOM    100  C   UNL A   1      34.386  29.043  26.917  1.00  0.00     0.001 A 
ATOM    101  C   UNL A   1      32.133  29.913  26.957  1.00  0.00     0.001 A 
ATOM    102  C   UNL A   1      33.462  29.990  27.362  1.00  0.00     0.000 A 
ENDBRANCH  94  97
ENDBRANCH  93  94
ENDBRANCH  86  88
ENDBRANCH  84  86
ENDBRANCH  77  80
ENDBRANCH  75  76
ENDBRANCH  74  75
ENDBRANCH   1  74
TORSDOF 17
ENDMDL
