MODEL 1
REMARK VINA RESULT:     -11.7      0.000      0.000
REMARK SMILES O=C(NCCCCCCNC(=O)[C@@H]1CCCN(C(=O)Nc2ccccc2)C1)c1ccc(-c2c3nc(c(-c4c(F)c(F)c(F)c(F)c4F)c4ccc([nH]4)c(-c4c(F)c(F)c(F)c(F)c4F)c4nc(c(-c5c(F)c(F)c(F)c(F)c5F)c5ccc2[nH]5)C=C4)C=C3)cc1
REMARK SMILES IDX 6 1 5 2 4 3 3 4 1 5 2 6 28 8 29 9 90 10 30 11 89 12 31 13
REMARK SMILES IDX 32 14 33 15 83 16 34 17 88 18 82 19 84 20 35 21 87 22 81 23
REMARK SMILES IDX 80 24 36 26 68 27 48 28 67 29 49 30 52 31 66 32 85 33 50 34
REMARK SMILES IDX 51 35 65 37 86 38 53 39 37 40 38 41 46 42 39 43 40 44 44 45
REMARK SMILES IDX 47 46 41 47 42 48 45 49 43 50 69 51 70 52 78 53 71 54 72 55
REMARK SMILES IDX 76 56 79 57 73 58 74 59 77 60 75 61 54 62 55 63 63 64 56 65
REMARK SMILES IDX 57 66 61 67 64 68 58 69 59 70 62 71 60 72 7 73 8 74 9 75
REMARK SMILES IDX 10 76 11 77 12 79 13 80 14 81 27 82 15 83 17 84 16 85 18 86
REMARK SMILES IDX 19 87 20 88 21 90 22 91 26 92 23 93 25 94 24 95
REMARK H PARENT 3 7 84 25 52 36 10 78 20 89
REMARK Flexibility Score: inf
ROOT
ATOM      1  C   UNL A   1      41.575  20.139  27.700  1.00  0.00     0.002 C 
ENDROOT
BRANCH   1   2
ATOM      2  C   UNL A   1      42.483  19.233  26.865  1.00  0.00     0.021 C 
BRANCH   2   3
ATOM      3  C   UNL A   1      42.456  19.504  25.365  1.00  0.00     0.116 C 
BRANCH   3   4
ATOM      4  N   UNL A   1      43.622  18.964  24.679  1.00  0.00    -0.352 N 
ATOM      5  O   UNL A   1      45.577  18.993  23.556  1.00  0.00    -0.269 OA
ATOM      6  C   UNL A   1      44.786  19.579  24.291  1.00  0.00     0.251 C 
ATOM      7  H   UNL A   1      43.566  18.006  24.459  1.00  0.00     0.163 HD
BRANCH   6   8
ATOM      8  C   UNL A   1      45.084  20.955  24.737  1.00  0.00     0.039 A 
ATOM      9  C   UNL A   1      45.582  21.195  26.019  1.00  0.00     0.014 A 
ATOM     10  C   UNL A   1      44.878  22.022  23.857  1.00  0.00     0.014 A 
ATOM     11  C   UNL A   1      45.707  22.500  26.478  1.00  0.00     0.010 A 
ATOM     12  C   UNL A   1      45.098  23.333  24.289  1.00  0.00     0.010 A 
ATOM     13  C   UNL A   1      45.470  23.586  25.619  1.00  0.00    -0.014 A 
BRANCH  13  14
ATOM     14  C   UNL A   1      45.647  24.970  26.133  1.00  0.00     0.031 A 
ATOM     15  C   UNL A   1      46.972  25.674  26.031  1.00  0.00     0.074 A 
ATOM     16  C   UNL A   1      44.582  25.610  26.656  1.00  0.00     0.049 A 
ATOM     17  N   UNL A   1      47.287  26.897  26.381  1.00  0.00    -0.248 NA
ATOM     18  C   UNL A   1      48.096  24.906  25.472  1.00  0.00     0.031 C 
ATOM     19  C   UNL A   1      43.250  25.026  26.823  1.00  0.00     0.029 A 
ATOM     20  N   UNL A   1      44.443  26.892  27.121  1.00  0.00    -0.354 N 
ATOM     21  C   UNL A   1      48.643  27.036  26.111  1.00  0.00     0.074 A 
ATOM     22  C   UNL A   1      49.099  25.765  25.591  1.00  0.00     0.031 C 
ATOM     23  C   UNL A   1      42.416  25.962  27.298  1.00  0.00     0.029 A 
ATOM     24  C   UNL A   1      43.166  27.192  27.527  1.00  0.00     0.049 A 
ATOM     25  H   UNL A   1      45.187  27.536  27.159  1.00  0.00     0.167 HD
ATOM     26  C   UNL A   1      49.431  28.126  26.273  1.00  0.00     0.037 A 
ATOM     27  C   UNL A   1      42.655  28.327  28.037  1.00  0.00     0.037 A 
ATOM     28  C   UNL A   1      48.966  29.397  26.770  1.00  0.00     0.049 A 
ATOM     29  C   UNL A   1      43.556  29.517  28.213  1.00  0.00     0.074 A 
ATOM     30  C   UNL A   1      49.677  30.575  26.929  1.00  0.00     0.029 A 
ATOM     31  N   UNL A   1      47.670  29.654  27.195  1.00  0.00    -0.354 N 
ATOM     32  N   UNL A   1      44.823  29.649  27.908  1.00  0.00    -0.248 NA
ATOM     33  C   UNL A   1      42.950  30.719  28.801  1.00  0.00     0.031 C 
ATOM     34  C   UNL A   1      48.824  31.529  27.495  1.00  0.00     0.029 A 
ATOM     35  C   UNL A   1      47.567  30.965  27.636  1.00  0.00     0.049 A 
ATOM     36  H   UNL A   1      46.932  29.002  27.185  1.00  0.00     0.167 HD
ATOM     37  C   UNL A   1      45.162  30.952  28.242  1.00  0.00     0.074 A 
ATOM     38  C   UNL A   1      43.958  31.577  28.755  1.00  0.00     0.031 C 
ATOM     39  C   UNL A   1      46.361  31.575  28.134  1.00  0.00     0.037 A 
BRANCH  26  40
ATOM     40  C   UNL A   1      50.888  27.993  25.930  1.00  0.00     0.064 A 
ATOM     41  C   UNL A   1      51.356  28.135  24.615  1.00  0.00     0.173 A 
ATOM     42  C   UNL A   1      51.836  27.766  26.940  1.00  0.00     0.173 A 
ATOM     43  F   UNL A   1      50.493  28.344  23.609  1.00  0.00    -0.203 F 
ATOM     44  C   UNL A   1      52.714  28.027  24.321  1.00  0.00     0.198 A 
ATOM     45  C   UNL A   1      53.195  27.689  26.647  1.00  0.00     0.198 A 
ATOM     46  F   UNL A   1      51.445  27.631  28.217  1.00  0.00    -0.203 F 
ATOM     47  F   UNL A   1      53.132  28.120  23.051  1.00  0.00    -0.200 F 
ATOM     48  C   UNL A   1      53.632  27.812  25.338  1.00  0.00     0.200 A 
ATOM     49  F   UNL A   1      54.083  27.494  27.634  1.00  0.00    -0.200 F 
ATOM     50  F   UNL A   1      54.939  27.717  25.053  1.00  0.00    -0.200 F 
ENDBRANCH  26  40
BRANCH  27  51
ATOM     51  C   UNL A   1      41.217  28.394  28.402  1.00  0.00     0.064 A 
ATOM     52  C   UNL A   1      40.771  27.949  29.655  1.00  0.00     0.173 A 
ATOM     53  C   UNL A   1      40.261  28.906  27.513  1.00  0.00     0.173 A 
ATOM     54  F   UNL A   1      41.644  27.436  30.533  1.00  0.00    -0.203 F 
ATOM     55  C   UNL A   1      39.421  27.998  29.995  1.00  0.00     0.198 A 
ATOM     56  C   UNL A   1      38.917  28.984  27.866  1.00  0.00     0.198 A 
ATOM     57  F   UNL A   1      40.639  29.351  26.305  1.00  0.00    -0.203 F 
ATOM     58  F   UNL A   1      39.014  27.526  31.181  1.00  0.00    -0.200 F 
ATOM     59  C   UNL A   1      38.496  28.522  29.104  1.00  0.00     0.200 A 
ATOM     60  F   UNL A   1      38.030  29.508  27.010  1.00  0.00    -0.200 F 
ATOM     61  F   UNL A   1      37.199  28.575  29.435  1.00  0.00    -0.200 F 
ENDBRANCH  27  51
BRANCH  39  62
ATOM     62  C   UNL A   1      46.417  33.022  28.534  1.00  0.00     0.064 A 
ATOM     63  C   UNL A   1      46.736  33.416  29.842  1.00  0.00     0.173 A 
ATOM     64  C   UNL A   1      46.160  34.027  27.590  1.00  0.00     0.173 A 
ATOM     65  F   UNL A   1      46.974  32.493  30.787  1.00  0.00    -0.203 F 
ATOM     66  C   UNL A   1      46.761  34.762  30.197  1.00  0.00     0.198 A 
ATOM     67  C   UNL A   1      46.217  35.373  27.941  1.00  0.00     0.198 A 
ATOM     68  F   UNL A   1      45.854  33.703  26.324  1.00  0.00    -0.203 F 
ATOM     69  F   UNL A   1      47.010  35.113  31.467  1.00  0.00    -0.200 F 
ATOM     70  C   UNL A   1      46.508  35.738  29.246  1.00  0.00     0.200 A 
ATOM     71  F   UNL A   1      45.986  36.314  27.016  1.00  0.00    -0.200 F 
ATOM     72  F   UNL A   1      46.533  37.033  29.589  1.00  0.00    -0.200 F 
ENDBRANCH  39  62
ENDBRANCH  13  14
ENDBRANCH   6   8
ENDBRANCH   3   4
ENDBRANCH   2   3
ENDBRANCH   1   2
BRANCH   1  73
ATOM     73  C   UNL A   1      41.817  21.646  27.547  1.00  0.00     0.002 C 
BRANCH  73  74
ATOM     74  C   UNL A   1      40.925  22.361  26.530  1.00  0.00     0.021 C 
BRANCH  74  75
ATOM     75  C   UNL A   1      39.567  21.709  26.296  1.00  0.00     0.116 C 
BRANCH  75  76
ATOM     76  N   UNL A   1      38.466  22.615  26.535  1.00  0.00    -0.356 N 
ATOM     77  C   UNL A   1      37.297  22.835  25.885  1.00  0.00     0.224 C 
ATOM     78  H   UNL A   1      38.591  23.188  27.327  1.00  0.00     0.163 HD
ATOM     79  O   UNL A   1      36.536  23.663  26.405  1.00  0.00    -0.275 OA
BRANCH  77  80
ATOM     80  C   UNL A   1      36.873  22.168  24.572  1.00  0.00     0.098 C 
ATOM     81  C   UNL A   1      36.438  23.063  23.419  1.00  0.00     0.017 C 
ATOM     82  C   UNL A   1      35.944  20.984  24.793  1.00  0.00     0.134 C 
ATOM     83  C   UNL A   1      34.954  23.030  23.060  1.00  0.00     0.022 C 
ATOM     84  N   UNL A   1      34.556  21.386  24.989  1.00  0.00    -0.324 N 
ATOM     85  C   UNL A   1      33.994  22.216  23.934  1.00  0.00     0.121 C 
BRANCH  84  86
ATOM     86  C   UNL A   1      33.916  20.901  26.113  1.00  0.00     0.321 C 
ATOM     87  O   UNL A   1      33.855  21.557  27.159  1.00  0.00    -0.248 OA
ATOM     88  N   UNL A   1      33.170  19.768  26.109  1.00  0.00    -0.308 N 
ATOM     89  H   UNL A   1      32.501  19.757  26.831  1.00  0.00     0.171 HD
BRANCH  88  90
ATOM     90  C   UNL A   1      33.125  18.615  25.325  1.00  0.00     0.042 A 
ATOM     91  C   UNL A   1      33.024  18.782  23.942  1.00  0.00     0.026 A 
ATOM     92  C   UNL A   1      33.154  17.329  25.862  1.00  0.00     0.026 A 
ATOM     93  C   UNL A   1      33.110  17.677  23.095  1.00  0.00     0.002 A 
ATOM     94  C   UNL A   1      33.237  16.223  25.015  1.00  0.00     0.002 A 
ATOM     95  C   UNL A   1      33.243  16.398  23.632  1.00  0.00     0.000 A 
ENDBRANCH  88  90
ENDBRANCH  84  86
ENDBRANCH  77  80
ENDBRANCH  75  76
ENDBRANCH  74  75
ENDBRANCH  73  74
ENDBRANCH   1  73
TORSDOF 15
ENDMDL
MODEL 2
REMARK VINA RESULT:     -11.7      0.397      7.381
REMARK SMILES O=C(NCCCCCCNC(=O)[C@@H]1CCCN(C(=O)Nc2ccccc2)C1)c1ccc(-c2c3nc(c(-c4c(F)c(F)c(F)c(F)c4F)c4ccc([nH]4)c(-c4c(F)c(F)c(F)c(F)c4F)c4nc(c(-c5c(F)c(F)c(F)c(F)c5F)c5ccc2[nH]5)C=C4)C=C3)cc1
REMARK SMILES IDX 6 1 5 2 4 3 3 4 1 5 2 6 28 8 29 9 90 10 30 11 89 12 31 13
REMARK SMILES IDX 32 14 33 15 83 16 34 17 88 18 82 19 84 20 35 21 87 22 81 23
REMARK SMILES IDX 80 24 36 26 68 27 48 28 67 29 49 30 52 31 66 32 85 33 50 34
REMARK SMILES IDX 51 35 65 37 86 38 53 39 37 40 38 41 46 42 39 43 40 44 44 45
REMARK SMILES IDX 47 46 41 47 42 48 45 49 43 50 69 51 70 52 78 53 71 54 72 55
REMARK SMILES IDX 76 56 79 57 73 58 74 59 77 60 75 61 54 62 55 63 63 64 56 65
REMARK SMILES IDX 57 66 61 67 64 68 58 69 59 70 62 71 60 72 7 73 8 74 9 75
REMARK SMILES IDX 10 76 11 77 12 79 13 80 14 81 27 82 15 83 17 84 16 85 18 86
REMARK SMILES IDX 19 87 20 88 21 90 22 91 26 92 23 93 25 94 24 95
REMARK H PARENT 3 7 84 25 52 36 10 78 20 89
REMARK Flexibility Score: inf
ROOT
ATOM      1  C   UNL A   1      41.814  20.117  27.608  1.00  0.00     0.002 C 
ENDROOT
BRANCH   1   2
ATOM      2  C   UNL A   1      42.637  19.065  26.864  1.00  0.00     0.021 C 
BRANCH   2   3
ATOM      3  C   UNL A   1      42.571  19.154  25.343  1.00  0.00     0.116 C 
BRANCH   3   4
ATOM      4  N   UNL A   1      43.830  18.792  24.707  1.00  0.00    -0.352 N 
ATOM      5  O   UNL A   1      45.806  19.108  23.668  1.00  0.00    -0.269 OA
ATOM      6  C   UNL A   1      44.909  19.569  24.368  1.00  0.00     0.251 C 
ATOM      7  H   UNL A   1      43.921  17.837  24.485  1.00  0.00     0.163 HD
BRANCH   6   8
ATOM      8  C   UNL A   1      44.988  20.972  24.828  1.00  0.00     0.039 A 
ATOM      9  C   UNL A   1      44.559  22.014  24.005  1.00  0.00     0.014 A 
ATOM     10  C   UNL A   1      45.483  21.248  26.105  1.00  0.00     0.014 A 
ATOM     11  C   UNL A   1      44.785  23.331  24.385  1.00  0.00     0.010 A 
ATOM     12  C   UNL A   1      45.620  22.574  26.527  1.00  0.00     0.010 A 
ATOM     13  C   UNL A   1      45.315  23.629  25.652  1.00  0.00    -0.014 A 
BRANCH  13  14
ATOM     14  C   UNL A   1      45.512  25.050  26.040  1.00  0.00     0.031 A 
ATOM     15  C   UNL A   1      44.398  25.849  26.660  1.00  0.00     0.074 A 
ATOM     16  C   UNL A   1      46.727  25.608  25.871  1.00  0.00     0.049 A 
ATOM     17  N   UNL A   1      44.413  27.081  27.105  1.00  0.00    -0.248 NA
ATOM     18  C   UNL A   1      43.092  25.183  26.791  1.00  0.00     0.031 C 
ATOM     19  C   UNL A   1      47.882  24.940  25.267  1.00  0.00     0.029 A 
ATOM     20  N   UNL A   1      47.203  26.848  26.210  1.00  0.00    -0.354 N 
ATOM     21  C   UNL A   1      43.121  27.347  27.542  1.00  0.00     0.074 A 
ATOM     22  C   UNL A   1      42.339  26.156  27.287  1.00  0.00     0.031 C 
ATOM     23  C   UNL A   1      48.944  25.754  25.330  1.00  0.00     0.029 A 
ATOM     24  C   UNL A   1      48.534  27.023  25.921  1.00  0.00     0.049 A 
ATOM     25  H   UNL A   1      46.643  27.547  26.622  1.00  0.00     0.167 HD
ATOM     26  C   UNL A   1      42.636  28.476  28.112  1.00  0.00     0.037 A 
ATOM     27  C   UNL A   1      49.335  28.089  26.102  1.00  0.00     0.037 A 
ATOM     28  C   UNL A   1      43.425  29.652  28.385  1.00  0.00     0.049 A 
ATOM     29  C   UNL A   1      48.766  29.330  26.729  1.00  0.00     0.074 A 
ATOM     30  C   UNL A   1      43.036  30.830  29.000  1.00  0.00     0.029 A 
ATOM     31  N   UNL A   1      44.765  29.799  28.054  1.00  0.00    -0.354 N 
ATOM     32  N   UNL A   1      47.555  29.550  27.181  1.00  0.00    -0.248 NA
ATOM     33  C   UNL A   1      49.679  30.472  26.873  1.00  0.00     0.031 C 
ATOM     34  C   UNL A   1      44.126  31.708  28.996  1.00  0.00     0.029 A 
ATOM     35  C   UNL A   1      45.211  31.057  28.432  1.00  0.00     0.049 A 
ATOM     36  H   UNL A   1      45.318  29.113  27.615  1.00  0.00     0.167 HD
ATOM     37  C   UNL A   1      47.567  30.842  27.687  1.00  0.00     0.074 A 
ATOM     38  C   UNL A   1      48.912  31.349  27.503  1.00  0.00     0.031 C 
ATOM     39  C   UNL A   1      46.554  31.544  28.252  1.00  0.00     0.037 A 
BRANCH  26  40
ATOM     40  C   UNL A   1      41.175  28.511  28.463  1.00  0.00     0.064 A 
ATOM     41  C   UNL A   1      40.705  28.097  29.719  1.00  0.00     0.173 A 
ATOM     42  C   UNL A   1      40.237  29.009  27.546  1.00  0.00     0.173 A 
ATOM     43  F   UNL A   1      41.557  27.603  30.630  1.00  0.00    -0.203 F 
ATOM     44  C   UNL A   1      39.348  28.154  30.032  1.00  0.00     0.198 A 
ATOM     45  C   UNL A   1      38.886  29.093  27.873  1.00  0.00     0.198 A 
ATOM     46  F   UNL A   1      40.632  29.426  26.334  1.00  0.00    -0.203 F 
ATOM     47  F   UNL A   1      38.918  27.709  31.220  1.00  0.00    -0.200 F 
ATOM     48  C   UNL A   1      38.442  28.659  29.111  1.00  0.00     0.200 A 
ATOM     49  F   UNL A   1      38.013  29.594  26.987  1.00  0.00    -0.200 F 
ATOM     50  F   UNL A   1      37.138  28.721  29.418  1.00  0.00    -0.200 F 
ENDBRANCH  26  40
BRANCH  27  51
ATOM     51  C   UNL A   1      50.761  28.020  25.696  1.00  0.00     0.064 A 
ATOM     52  C   UNL A   1      51.136  28.168  24.353  1.00  0.00     0.173 A 
ATOM     53  C   UNL A   1      51.779  27.811  26.638  1.00  0.00     0.173 A 
ATOM     54  F   UNL A   1      50.199  28.353  23.413  1.00  0.00    -0.203 F 
ATOM     55  C   UNL A   1      52.473  28.091  23.967  1.00  0.00     0.198 A 
ATOM     56  C   UNL A   1      53.117  27.766  26.257  1.00  0.00     0.198 A 
ATOM     57  F   UNL A   1      51.472  27.671  27.937  1.00  0.00    -0.203 F 
ATOM     58  F   UNL A   1      52.801  28.191  22.672  1.00  0.00    -0.200 F 
ATOM     59  C   UNL A   1      53.463  27.897  24.920  1.00  0.00     0.200 A 
ATOM     60  F   UNL A   1      54.071  27.598  27.182  1.00  0.00    -0.200 F 
ATOM     61  F   UNL A   1      54.748  27.830  24.550  1.00  0.00    -0.200 F 
ENDBRANCH  27  51
BRANCH  39  62
ATOM     62  C   UNL A   1      46.878  32.921  28.756  1.00  0.00     0.064 A 
ATOM     63  C   UNL A   1      47.349  33.140  30.059  1.00  0.00     0.173 A 
ATOM     64  C   UNL A   1      46.726  34.035  27.917  1.00  0.00     0.173 A 
ATOM     65  F   UNL A   1      47.496  32.110  30.907  1.00  0.00    -0.203 F 
ATOM     66  C   UNL A   1      47.624  34.428  30.513  1.00  0.00     0.198 A 
ATOM     67  C   UNL A   1      47.031  35.318  28.364  1.00  0.00     0.198 A 
ATOM     68  F   UNL A   1      46.283  33.880  26.660  1.00  0.00    -0.203 F 
ATOM     69  F   UNL A   1      48.015  34.619  31.781  1.00  0.00    -0.200 F 
ATOM     70  C   UNL A   1      47.470  35.513  29.665  1.00  0.00     0.200 A 
ATOM     71  F   UNL A   1      46.895  36.363  27.538  1.00  0.00    -0.200 F 
ATOM     72  F   UNL A   1      47.734  36.751  30.104  1.00  0.00    -0.200 F 
ENDBRANCH  39  62
ENDBRANCH  13  14
ENDBRANCH   6   8
ENDBRANCH   3   4
ENDBRANCH   2   3
ENDBRANCH   1   2
BRANCH   1  73
ATOM     73  C   UNL A   1      42.064  21.573  27.195  1.00  0.00     0.002 C 
BRANCH  73  74
ATOM     74  C   UNL A   1      41.057  22.164  26.206  1.00  0.00     0.021 C 
BRANCH  74  75
ATOM     75  C   UNL A   1      39.673  21.524  26.238  1.00  0.00     0.116 C 
BRANCH  75  76
ATOM     76  N   UNL A   1      38.622  22.483  26.499  1.00  0.00    -0.356 N 
ATOM     77  C   UNL A   1      37.460  22.771  25.862  1.00  0.00     0.224 C 
ATOM     78  H   UNL A   1      38.784  23.039  27.296  1.00  0.00     0.163 HD
ATOM     79  O   UNL A   1      36.749  23.630  26.399  1.00  0.00    -0.275 OA
BRANCH  77  80
ATOM     80  C   UNL A   1      36.991  22.142  24.546  1.00  0.00     0.098 C 
ATOM     81  C   UNL A   1      36.580  23.072  23.412  1.00  0.00     0.017 C 
ATOM     82  C   UNL A   1      36.015  20.995  24.763  1.00  0.00     0.134 C 
ATOM     83  C   UNL A   1      35.091  23.108  23.074  1.00  0.00     0.022 C 
ATOM     84  N   UNL A   1      34.649  21.453  24.984  1.00  0.00    -0.324 N 
ATOM     85  C   UNL A   1      34.109  22.322  23.949  1.00  0.00     0.121 C 
BRANCH  84  86
ATOM     86  C   UNL A   1      34.003  20.980  26.110  1.00  0.00     0.321 C 
ATOM     87  O   UNL A   1      33.980  21.624  27.164  1.00  0.00    -0.248 OA
ATOM     88  N   UNL A   1      33.214  19.876  26.101  1.00  0.00    -0.308 N 
ATOM     89  H   UNL A   1      32.553  19.882  26.831  1.00  0.00     0.171 HD
BRANCH  88  90
ATOM     90  C   UNL A   1      33.116  18.735  25.304  1.00  0.00     0.042 A 
ATOM     91  C   UNL A   1      32.821  18.920  23.951  1.00  0.00     0.026 A 
ATOM     92  C   UNL A   1      33.275  17.444  25.803  1.00  0.00     0.026 A 
ATOM     93  C   UNL A   1      32.842  17.835  23.075  1.00  0.00     0.002 A 
ATOM     94  C   UNL A   1      33.293  16.357  24.928  1.00  0.00     0.002 A 
ATOM     95  C   UNL A   1      33.105  16.555  23.561  1.00  0.00     0.000 A 
ENDBRANCH  88  90
ENDBRANCH  84  86
ENDBRANCH  77  80
ENDBRANCH  75  76
ENDBRANCH  74  75
ENDBRANCH  73  74
ENDBRANCH   1  73
TORSDOF 15
ENDMDL
MODEL 3
REMARK VINA RESULT:     -11.7      7.234     11.921
REMARK SMILES O=C(NCCCCCCNC(=O)[C@@H]1CCCN(C(=O)Nc2ccccc2)C1)c1ccc(-c2c3nc(c(-c4c(F)c(F)c(F)c(F)c4F)c4ccc([nH]4)c(-c4c(F)c(F)c(F)c(F)c4F)c4nc(c(-c5c(F)c(F)c(F)c(F)c5F)c5ccc2[nH]5)C=C4)C=C3)cc1
REMARK SMILES IDX 6 1 5 2 4 3 3 4 1 5 2 6 28 8 29 9 90 10 30 11 89 12 31 13
REMARK SMILES IDX 32 14 33 15 83 16 34 17 88 18 82 19 84 20 35 21 87 22 81 23
REMARK SMILES IDX 80 24 36 26 68 27 48 28 67 29 49 30 52 31 66 32 85 33 50 34
REMARK SMILES IDX 51 35 65 37 86 38 53 39 37 40 38 41 46 42 39 43 40 44 44 45
REMARK SMILES IDX 47 46 41 47 42 48 45 49 43 50 69 51 70 52 78 53 71 54 72 55
REMARK SMILES IDX 76 56 79 57 73 58 74 59 77 60 75 61 54 62 55 63 63 64 56 65
REMARK SMILES IDX 57 66 61 67 64 68 58 69 59 70 62 71 60 72 7 73 8 74 9 75
REMARK SMILES IDX 10 76 11 77 12 79 13 80 14 81 27 82 15 83 17 84 16 85 18 86
REMARK SMILES IDX 19 87 20 88 21 90 22 91 26 92 23 93 25 94 24 95
REMARK H PARENT 3 7 84 25 52 36 10 78 20 89
REMARK Flexibility Score: inf
ROOT
ATOM      1  C   UNL A   1      31.492  30.811  26.281  1.00  0.00     0.002 C 
ENDROOT
BRANCH   1   2
ATOM      2  C   UNL A   1      31.377  32.291  26.648  1.00  0.00     0.021 C 
BRANCH   2   3
ATOM      3  C   UNL A   1      32.650  32.916  27.206  1.00  0.00     0.116 C 
BRANCH   3   4
ATOM      4  N   UNL A   1      32.456  34.296  27.631  1.00  0.00    -0.352 N 
ATOM      5  O   UNL A   1      32.589  36.100  28.977  1.00  0.00    -0.269 OA
ATOM      6  C   UNL A   1      33.022  34.992  28.669  1.00  0.00     0.251 C 
ATOM      7  H   UNL A   1      31.818  34.811  27.085  1.00  0.00     0.163 HD
BRANCH   6   8
ATOM      8  C   UNL A   1      34.142  34.406  29.434  1.00  0.00     0.039 A 
ATOM      9  C   UNL A   1      35.457  34.540  28.986  1.00  0.00     0.014 A 
ATOM     10  C   UNL A   1      33.876  33.724  30.625  1.00  0.00     0.014 A 
ATOM     11  C   UNL A   1      36.478  33.851  29.628  1.00  0.00     0.010 A 
ATOM     12  C   UNL A   1      34.920  33.112  31.325  1.00  0.00     0.010 A 
ATOM     13  C   UNL A   1      36.225  33.131  30.808  1.00  0.00    -0.014 A 
BRANCH  13  14
ATOM     14  C   UNL A   1      37.348  32.434  31.487  1.00  0.00     0.031 A 
ATOM     15  C   UNL A   1      38.110  31.334  30.800  1.00  0.00     0.074 A 
ATOM     16  C   UNL A   1      37.709  32.833  32.723  1.00  0.00     0.049 A 
ATOM     17  N   UNL A   1      39.147  30.657  31.226  1.00  0.00    -0.248 NA
ATOM     18  C   UNL A   1      37.645  30.934  29.463  1.00  0.00     0.031 C 
ATOM     19  C   UNL A   1      37.036  33.878  33.498  1.00  0.00     0.029 A 
ATOM     20  N   UNL A   1      38.738  32.430  33.534  1.00  0.00    -0.354 N 
ATOM     21  C   UNL A   1      39.442  29.737  30.227  1.00  0.00     0.074 A 
ATOM     22  C   UNL A   1      38.458  29.925  29.182  1.00  0.00     0.031 C 
ATOM     23  C   UNL A   1      37.703  34.073  34.644  1.00  0.00     0.029 A 
ATOM     24  C   UNL A   1      38.811  33.128  34.714  1.00  0.00     0.049 A 
ATOM     25  H   UNL A   1      39.365  31.710  33.292  1.00  0.00     0.167 HD
ATOM     26  C   UNL A   1      40.445  28.828  30.183  1.00  0.00     0.037 A 
ATOM     27  C   UNL A   1      39.669  33.014  35.745  1.00  0.00     0.037 A 
ATOM     28  C   UNL A   1      41.436  28.660  31.217  1.00  0.00     0.049 A 
ATOM     29  C   UNL A   1      40.766  31.990  35.670  1.00  0.00     0.074 A 
ATOM     30  C   UNL A   1      42.518  27.798  31.245  1.00  0.00     0.029 A 
ATOM     31  N   UNL A   1      41.461  29.369  32.410  1.00  0.00    -0.354 N 
ATOM     32  N   UNL A   1      41.061  31.161  34.699  1.00  0.00    -0.248 NA
ATOM     33  C   UNL A   1      41.653  31.891  36.837  1.00  0.00     0.031 C 
ATOM     34  C   UNL A   1      43.169  27.948  32.474  1.00  0.00     0.029 A 
ATOM     35  C   UNL A   1      42.528  28.947  33.189  1.00  0.00     0.049 A 
ATOM     36  H   UNL A   1      40.817  30.069  32.665  1.00  0.00     0.167 HD
ATOM     37  C   UNL A   1      42.180  30.460  35.124  1.00  0.00     0.074 A 
ATOM     38  C   UNL A   1      42.523  30.976  36.434  1.00  0.00     0.031 C 
ATOM     39  C   UNL A   1      42.862  29.477  34.486  1.00  0.00     0.037 A 
BRANCH  26  40
ATOM     40  C   UNL A   1      40.516  27.921  28.986  1.00  0.00     0.064 A 
ATOM     41  C   UNL A   1      39.767  26.737  28.908  1.00  0.00     0.173 A 
ATOM     42  C   UNL A   1      41.310  28.266  27.882  1.00  0.00     0.173 A 
ATOM     43  F   UNL A   1      38.997  26.355  29.938  1.00  0.00    -0.203 F 
ATOM     44  C   UNL A   1      39.832  25.919  27.781  1.00  0.00     0.198 A 
ATOM     45  C   UNL A   1      41.350  27.462  26.745  1.00  0.00     0.198 A 
ATOM     46  F   UNL A   1      42.041  29.391  27.899  1.00  0.00    -0.203 F 
ATOM     47  F   UNL A   1      39.144  24.770  27.749  1.00  0.00    -0.200 F 
ATOM     48  C   UNL A   1      40.618  26.287  26.698  1.00  0.00     0.200 A 
ATOM     49  F   UNL A   1      42.100  27.826  25.694  1.00  0.00    -0.200 F 
ATOM     50  F   UNL A   1      40.673  25.502  25.613  1.00  0.00    -0.200 F 
ENDBRANCH  26  40
BRANCH  27  51
ATOM     51  C   UNL A   1      39.529  33.903  36.926  1.00  0.00     0.064 A 
ATOM     52  C   UNL A   1      40.142  35.163  36.956  1.00  0.00     0.173 A 
ATOM     53  C   UNL A   1      38.777  33.516  38.045  1.00  0.00     0.173 A 
ATOM     54  F   UNL A   1      40.885  35.571  35.918  1.00  0.00    -0.203 F 
ATOM     55  C   UNL A   1      40.024  35.993  38.068  1.00  0.00     0.198 A 
ATOM     56  C   UNL A   1      38.633  34.359  39.143  1.00  0.00     0.198 A 
ATOM     57  F   UNL A   1      38.164  32.322  38.062  1.00  0.00    -0.203 F 
ATOM     58  F   UNL A   1      40.657  37.174  38.090  1.00  0.00    -0.200 F 
ATOM     59  C   UNL A   1      39.264  35.595  39.158  1.00  0.00     0.200 A 
ATOM     60  F   UNL A   1      37.883  33.978  40.185  1.00  0.00    -0.200 F 
ATOM     61  F   UNL A   1      39.144  36.396  40.224  1.00  0.00    -0.200 F 
ENDBRANCH  27  51
BRANCH  39  62
ATOM     62  C   UNL A   1      44.078  28.930  35.179  1.00  0.00     0.064 A 
ATOM     63  C   UNL A   1      45.357  29.458  34.953  1.00  0.00     0.173 A 
ATOM     64  C   UNL A   1      43.955  27.871  36.091  1.00  0.00     0.173 A 
ATOM     65  F   UNL A   1      45.531  30.460  34.077  1.00  0.00    -0.203 F 
ATOM     66  C   UNL A   1      46.474  28.922  35.591  1.00  0.00     0.198 A 
ATOM     67  C   UNL A   1      45.069  27.359  36.750  1.00  0.00     0.198 A 
ATOM     68  F   UNL A   1      42.752  27.334  36.346  1.00  0.00    -0.203 F 
ATOM     69  F   UNL A   1      47.695  29.402  35.314  1.00  0.00    -0.200 F 
ATOM     70  C   UNL A   1      46.328  27.879  36.492  1.00  0.00     0.200 A 
ATOM     71  F   UNL A   1      44.923  26.360  37.631  1.00  0.00    -0.200 F 
ATOM     72  F   UNL A   1      47.404  27.364  37.103  1.00  0.00    -0.200 F 
ENDBRANCH  39  62
ENDBRANCH  13  14
ENDBRANCH   6   8
ENDBRANCH   3   4
ENDBRANCH   2   3
ENDBRANCH   1   2
BRANCH   1  73
ATOM     73  C   UNL A   1      32.633  30.044  26.962  1.00  0.00     0.002 C 
BRANCH  73  74
ATOM     74  C   UNL A   1      32.376  28.555  27.208  1.00  0.00     0.021 C 
BRANCH  74  75
ATOM     75  C   UNL A   1      31.368  27.911  26.262  1.00  0.00     0.116 C 
BRANCH  75  76
ATOM     76  N   UNL A   1      31.637  26.509  26.033  1.00  0.00    -0.356 N 
ATOM     77  C   UNL A   1      32.121  25.827  24.965  1.00  0.00     0.224 C 
ATOM     78  H   UNL A   1      31.426  25.935  26.805  1.00  0.00     0.163 HD
ATOM     79  O   UNL A   1      32.286  24.611  25.131  1.00  0.00    -0.275 OA
BRANCH  77  80
ATOM     80  C   UNL A   1      32.442  26.435  23.597  1.00  0.00     0.098 C 
ATOM     81  C   UNL A   1      33.376  27.636  23.545  1.00  0.00     0.017 C 
ATOM     82  C   UNL A   1      31.203  26.604  22.728  1.00  0.00     0.134 C 
ATOM     83  C   UNL A   1      32.740  28.973  23.171  1.00  0.00     0.022 C 
ATOM     84  N   UNL A   1      30.455  27.814  23.044  1.00  0.00    -0.324 N 
ATOM     85  C   UNL A   1      31.220  29.050  22.992  1.00  0.00     0.121 C 
BRANCH  84  86
ATOM     86  C   UNL A   1      29.107  27.666  23.306  1.00  0.00     0.321 C 
ATOM     87  O   UNL A   1      28.636  26.594  23.702  1.00  0.00    -0.248 OA
ATOM     88  N   UNL A   1      28.236  28.707  23.316  1.00  0.00    -0.308 N 
ATOM     89  H   UNL A   1      27.439  28.524  23.863  1.00  0.00     0.171 HD
BRANCH  88  90
ATOM     90  C   UNL A   1      28.202  29.975  22.735  1.00  0.00     0.042 A 
ATOM     91  C   UNL A   1      28.263  31.076  23.593  1.00  0.00     0.026 A 
ATOM     92  C   UNL A   1      28.089  30.180  21.361  1.00  0.00     0.026 A 
ATOM     93  C   UNL A   1      28.369  32.365  23.071  1.00  0.00     0.002 A 
ATOM     94  C   UNL A   1      28.192  31.469  20.838  1.00  0.00     0.002 A 
ATOM     95  C   UNL A   1      28.360  32.559  21.691  1.00  0.00     0.000 A 
ENDBRANCH  88  90
ENDBRANCH  84  86
ENDBRANCH  77  80
ENDBRANCH  75  76
ENDBRANCH  74  75
ENDBRANCH  73  74
ENDBRANCH   1  73
TORSDOF 15
ENDMDL
