MODEL 1
REMARK VINA RESULT:     -12.2      0.000      0.000
REMARK SMILES C[C@H]1SCCC[C@@]1(C(=O)NCCCCCCNC(=O)c1ccc(-c2c3nc(c(-c4c(F)c(F)c(F)c(F)c4F)c4ccc([nH]4)c(-c4c(F)c(F)c(F)c(F)c4F)c4nc(c(-c5c(F)c(F)c(F)c(F)c5F)c5ccc2[nH]5)C=C4)C=C3)cc1)[NH+]1CCCC1
REMARK SMILES IDX 14 1 13 2 12 3 11 4 10 5 8 6 9 7 7 9 1 10 2 11 3 12 4 13
REMARK SMILES IDX 6 14 5 15 83 16 84 17 87 18 85 20 86 21 15 22 16 23 17 24
REMARK SMILES IDX 18 25 19 27 20 28 21 29 82 30 22 31 81 32 23 33 24 34 25 35
REMARK SMILES IDX 75 36 26 37 80 38 74 39 76 40 27 41 79 42 73 43 72 44 28 46
REMARK SMILES IDX 60 47 40 48 59 49 41 50 44 51 58 52 77 53 42 54 43 55 57 57
REMARK SMILES IDX 78 58 45 59 29 60 30 61 38 62 31 63 32 64 36 65 39 66 33 67
REMARK SMILES IDX 34 68 37 69 35 70 61 71 62 72 70 73 63 74 64 75 68 76 71 77
REMARK SMILES IDX 65 78 66 79 69 80 67 81 46 82 47 83 55 84 48 85 49 86 53 87
REMARK SMILES IDX 56 88 50 89 51 90 54 91 52 92
REMARK H PARENT 10 8 83 19 17 26 76 45 44 56
REMARK Flexibility Score: inf
ROOT
ATOM      1  C   UNL A   1      31.798  30.516  26.256  1.00  0.00     0.002 C 
ENDROOT
BRANCH   1   2
ATOM      2  C   UNL A   1      32.406  29.514  27.239  1.00  0.00     0.002 C 
BRANCH   2   3
ATOM      3  C   UNL A   1      31.580  28.251  27.485  1.00  0.00     0.021 C 
BRANCH   3   4
ATOM      4  C   UNL A   1      31.627  27.211  26.367  1.00  0.00     0.116 C 
BRANCH   4   5
ATOM      5  N   UNL A   1      31.120  25.926  26.794  1.00  0.00    -0.351 N 
ATOM      6  C   UNL A   1      31.430  24.635  26.494  1.00  0.00     0.282 C 
ATOM      7  O   UNL A   1      30.725  23.826  27.111  1.00  0.00    -0.268 OA
ATOM      8  H   UNL A   1      30.387  26.003  27.448  1.00  0.00     0.163 HD
BRANCH   6   9
ATOM      9  C   UNL A   1      32.577  24.163  25.466  1.00  0.00     0.188 C 
ATOM     10  C   UNL A   1      31.790  21.635  25.556  1.00  0.00     0.027 C 
ATOM     11  C   UNL A   1      32.870  22.663  25.951  1.00  0.00     0.115 C 
ATOM     12  S   UNL A   1      34.476  21.887  25.476  1.00  0.00    -0.152 SA
ATOM     13  C   UNL A   1      35.593  23.190  26.008  1.00  0.00     0.070 C 
ATOM     14  C   UNL A   1      33.849  25.037  25.705  1.00  0.00     0.081 C 
ATOM     15  C   UNL A   1      35.234  24.500  25.343  1.00  0.00     0.018 C 
BRANCH   9  16
ATOM     16  N   UNL A   1      32.030  24.123  24.069  1.00  0.00    -0.321 N 
ATOM     17  C   UNL A   1      32.855  24.640  22.976  1.00  0.00     0.263 C 
ATOM     18  C   UNL A   1      30.703  24.654  23.779  1.00  0.00     0.263 C 
ATOM     19  H   UNL A   1      32.006  23.103  24.089  1.00  0.00     0.349 HD
ATOM     20  C   UNL A   1      32.348  26.051  22.708  1.00  0.00     0.067 C 
ATOM     21  C   UNL A   1      30.905  26.041  23.187  1.00  0.00     0.067 C 
ENDBRANCH   9  16
ENDBRANCH   6   9
ENDBRANCH   4   5
ENDBRANCH   3   4
ENDBRANCH   2   3
ENDBRANCH   1   2
BRANCH   1  22
ATOM     22  C   UNL A   1      31.517  31.907  26.828  1.00  0.00     0.021 C 
BRANCH  22  23
ATOM     23  C   UNL A   1      32.752  32.670  27.290  1.00  0.00     0.116 C 
BRANCH  23  24
ATOM     24  N   UNL A   1      32.457  34.055  27.613  1.00  0.00    -0.352 N 
ATOM     25  C   UNL A   1      33.012  34.849  28.586  1.00  0.00     0.251 C 
ATOM     26  H   UNL A   1      31.764  34.481  27.059  1.00  0.00     0.163 HD
ATOM     27  O   UNL A   1      32.529  35.939  28.856  1.00  0.00    -0.269 OA
BRANCH  25  28
ATOM     28  C   UNL A   1      34.195  34.359  29.321  1.00  0.00     0.039 A 
ATOM     29  C   UNL A   1      34.009  33.663  30.517  1.00  0.00     0.014 A 
ATOM     30  C   UNL A   1      35.481  34.569  28.815  1.00  0.00     0.014 A 
ATOM     31  C   UNL A   1      35.113  33.125  31.179  1.00  0.00     0.010 A 
ATOM     32  C   UNL A   1      36.570  33.966  29.433  1.00  0.00     0.010 A 
ATOM     33  C   UNL A   1      36.398  33.243  30.624  1.00  0.00    -0.014 A 
BRANCH  33  34
ATOM     34  C   UNL A   1      37.583  32.630  31.274  1.00  0.00     0.031 A 
ATOM     35  C   UNL A   1      38.270  31.464  30.625  1.00  0.00     0.074 A 
ATOM     36  C   UNL A   1      37.979  33.062  32.486  1.00  0.00     0.049 A 
ATOM     37  N   UNL A   1      39.242  30.715  31.081  1.00  0.00    -0.248 NA
ATOM     38  C   UNL A   1      37.774  31.065  29.299  1.00  0.00     0.031 C 
ATOM     39  C   UNL A   1      37.358  34.152  33.238  1.00  0.00     0.029 A 
ATOM     40  N   UNL A   1      38.981  32.616  33.311  1.00  0.00    -0.354 N 
ATOM     41  C   UNL A   1      39.454  29.745  30.111  1.00  0.00     0.074 A 
ATOM     42  C   UNL A   1      38.476  29.965  29.069  1.00  0.00     0.031 C 
ATOM     43  C   UNL A   1      37.994  34.294  34.411  1.00  0.00     0.029 A 
ATOM     44  C   UNL A   1      39.037  33.277  34.514  1.00  0.00     0.049 A 
ATOM     45  H   UNL A   1      39.601  31.892  33.064  1.00  0.00     0.167 HD
ATOM     46  C   UNL A   1      40.393  28.769  30.085  1.00  0.00     0.037 A 
ATOM     47  C   UNL A   1      39.824  33.071  35.587  1.00  0.00     0.037 A 
ATOM     48  C   UNL A   1      41.377  28.571  31.118  1.00  0.00     0.049 A 
ATOM     49  C   UNL A   1      40.859  31.982  35.540  1.00  0.00     0.074 A 
ATOM     50  C   UNL A   1      42.422  27.667  31.152  1.00  0.00     0.029 A 
ATOM     51  N   UNL A   1      41.425  29.285  32.308  1.00  0.00    -0.354 N 
ATOM     52  N   UNL A   1      41.109  31.121  34.584  1.00  0.00    -0.248 NA
ATOM     53  C   UNL A   1      41.729  31.838  36.717  1.00  0.00     0.031 C 
ATOM     54  C   UNL A   1      43.062  27.787  32.389  1.00  0.00     0.029 A 
ATOM     55  C   UNL A   1      42.460  28.814  33.100  1.00  0.00     0.049 A 
ATOM     56  H   UNL A   1      40.814  30.017  32.553  1.00  0.00     0.167 HD
ATOM     57  C   UNL A   1      42.176  30.351  35.029  1.00  0.00     0.074 A 
ATOM     58  C   UNL A   1      42.532  30.853  36.340  1.00  0.00     0.031 C 
ATOM     59  C   UNL A   1      42.805  29.325  34.403  1.00  0.00     0.037 A 
BRANCH  46  60
ATOM     60  C   UNL A   1      40.385  27.830  28.911  1.00  0.00     0.064 A 
ATOM     61  C   UNL A   1      41.124  28.089  27.745  1.00  0.00     0.173 A 
ATOM     62  C   UNL A   1      39.630  26.648  28.956  1.00  0.00     0.173 A 
ATOM     63  F   UNL A   1      41.856  29.209  27.645  1.00  0.00    -0.203 F 
ATOM     64  C   UNL A   1      41.067  27.228  26.653  1.00  0.00     0.198 A 
ATOM     65  C   UNL A   1      39.607  25.769  27.876  1.00  0.00     0.198 A 
ATOM     66  F   UNL A   1      38.912  26.343  30.047  1.00  0.00    -0.203 F 
ATOM     67  F   UNL A   1      41.723  27.535  25.526  1.00  0.00    -0.200 F 
ATOM     68  C   UNL A   1      40.313  26.066  26.720  1.00  0.00     0.200 A 
ATOM     69  F   UNL A   1      38.890  24.639  27.949  1.00  0.00    -0.200 F 
ATOM     70  F   UNL A   1      40.258  25.239  25.668  1.00  0.00    -0.200 F 
ENDBRANCH  46  60
BRANCH  47  71
ATOM     71  C   UNL A   1      39.654  33.927  36.791  1.00  0.00     0.064 A 
ATOM     72  C   UNL A   1      40.259  35.188  36.875  1.00  0.00     0.173 A 
ATOM     73  C   UNL A   1      38.851  33.515  37.865  1.00  0.00     0.173 A 
ATOM     74  F   UNL A   1      41.048  35.618  35.880  1.00  0.00    -0.203 F 
ATOM     75  C   UNL A   1      40.075  36.001  37.992  1.00  0.00     0.198 A 
ATOM     76  C   UNL A   1      38.645  34.341  38.969  1.00  0.00     0.198 A 
ATOM     77  F   UNL A   1      38.243  32.320  37.831  1.00  0.00    -0.203 F 
ATOM     78  F   UNL A   1      40.690  37.190  38.061  1.00  0.00    -0.200 F 
ATOM     79  C   UNL A   1      39.261  35.581  39.034  1.00  0.00     0.200 A 
ATOM     80  F   UNL A   1      37.842  33.938  39.963  1.00  0.00    -0.200 F 
ATOM     81  F   UNL A   1      39.072  36.370  40.099  1.00  0.00    -0.200 F 
ENDBRANCH  47  71
BRANCH  59  82
ATOM     82  C   UNL A   1      43.970  28.691  35.107  1.00  0.00     0.064 A 
ATOM     83  C   UNL A   1      45.277  29.175  34.958  1.00  0.00     0.173 A 
ATOM     84  C   UNL A   1      43.759  27.632  36.004  1.00  0.00     0.173 A 
ATOM     85  F   UNL A   1      45.533  30.176  34.101  1.00  0.00    -0.203 F 
ATOM     86  C   UNL A   1      46.333  28.613  35.671  1.00  0.00     0.198 A 
ATOM     87  C   UNL A   1      44.812  27.095  36.739  1.00  0.00     0.198 A 
ATOM     88  F   UNL A   1      42.527  27.136  36.188  1.00  0.00    -0.203 F 
ATOM     89  F   UNL A   1      47.581  29.069  35.488  1.00  0.00    -0.200 F 
ATOM     90  C   UNL A   1      46.099  27.583  36.570  1.00  0.00     0.200 A 
ATOM     91  F   UNL A   1      44.580  26.111  37.619  1.00  0.00    -0.200 F 
ATOM     92  F   UNL A   1      47.113  27.058  37.271  1.00  0.00    -0.200 F 
ENDBRANCH  59  82
ENDBRANCH  33  34
ENDBRANCH  25  28
ENDBRANCH  23  24
ENDBRANCH  22  23
ENDBRANCH   1  22
TORSDOF 14
ENDMDL
MODEL 2
REMARK VINA RESULT:     -12.1      0.090      1.142
REMARK SMILES C[C@H]1SCCC[C@@]1(C(=O)NCCCCCCNC(=O)c1ccc(-c2c3nc(c(-c4c(F)c(F)c(F)c(F)c4F)c4ccc([nH]4)c(-c4c(F)c(F)c(F)c(F)c4F)c4nc(c(-c5c(F)c(F)c(F)c(F)c5F)c5ccc2[nH]5)C=C4)C=C3)cc1)[NH+]1CCCC1
REMARK SMILES IDX 14 1 13 2 12 3 11 4 10 5 8 6 9 7 7 9 1 10 2 11 3 12 4 13
REMARK SMILES IDX 6 14 5 15 83 16 84 17 87 18 85 20 86 21 15 22 16 23 17 24
REMARK SMILES IDX 18 25 19 27 20 28 21 29 82 30 22 31 81 32 23 33 24 34 25 35
REMARK SMILES IDX 75 36 26 37 80 38 74 39 76 40 27 41 79 42 73 43 72 44 28 46
REMARK SMILES IDX 60 47 40 48 59 49 41 50 44 51 58 52 77 53 42 54 43 55 57 57
REMARK SMILES IDX 78 58 45 59 29 60 30 61 38 62 31 63 32 64 36 65 39 66 33 67
REMARK SMILES IDX 34 68 37 69 35 70 61 71 62 72 70 73 63 74 64 75 68 76 71 77
REMARK SMILES IDX 65 78 66 79 69 80 67 81 46 82 47 83 55 84 48 85 49 86 53 87
REMARK SMILES IDX 56 88 50 89 51 90 54 91 52 92
REMARK H PARENT 10 8 83 19 17 26 76 45 44 56
REMARK Flexibility Score: inf
ROOT
ATOM      1  C   UNL A   1      31.794  30.509  26.260  1.00  0.00     0.002 C 
ENDROOT
BRANCH   1   2
ATOM      2  C   UNL A   1      32.359  29.483  27.244  1.00  0.00     0.002 C 
BRANCH   2   3
ATOM      3  C   UNL A   1      31.499  28.237  27.459  1.00  0.00     0.021 C 
BRANCH   3   4
ATOM      4  C   UNL A   1      31.584  27.185  26.354  1.00  0.00     0.116 C 
BRANCH   4   5
ATOM      5  N   UNL A   1      31.090  25.897  26.786  1.00  0.00    -0.351 N 
ATOM      6  C   UNL A   1      31.404  24.608  26.483  1.00  0.00     0.282 C 
ATOM      7  O   UNL A   1      30.710  23.795  27.107  1.00  0.00    -0.268 OA
ATOM      8  H   UNL A   1      30.363  25.969  27.447  1.00  0.00     0.163 HD
BRANCH   6   9
ATOM      9  C   UNL A   1      32.543  24.143  25.443  1.00  0.00     0.188 C 
ATOM     10  C   UNL A   1      31.781  21.608  25.550  1.00  0.00     0.027 C 
ATOM     11  C   UNL A   1      32.856  22.647  25.929  1.00  0.00     0.115 C 
ATOM     12  S   UNL A   1      34.463  21.885  25.438  1.00  0.00    -0.152 SA
ATOM     13  C   UNL A   1      35.575  23.200  25.952  1.00  0.00     0.070 C 
ATOM     14  C   UNL A   1      33.809  25.030  25.663  1.00  0.00     0.081 C 
ATOM     15  C   UNL A   1      35.195  24.504  25.286  1.00  0.00     0.018 C 
BRANCH   9  16
ATOM     16  N   UNL A   1      31.979  24.093  24.052  1.00  0.00    -0.321 N 
ATOM     17  C   UNL A   1      32.807  24.565  22.941  1.00  0.00     0.263 C 
ATOM     18  C   UNL A   1      30.665  24.657  23.766  1.00  0.00     0.263 C 
ATOM     19  H   UNL A   1      31.926  23.075  24.092  1.00  0.00     0.349 HD
ATOM     20  C   UNL A   1      32.339  25.985  22.652  1.00  0.00     0.067 C 
ATOM     21  C   UNL A   1      30.901  26.026  23.146  1.00  0.00     0.067 C 
ENDBRANCH   9  16
ENDBRANCH   6   9
ENDBRANCH   4   5
ENDBRANCH   3   4
ENDBRANCH   2   3
ENDBRANCH   1   2
BRANCH   1  22
ATOM     22  C   UNL A   1      31.509  31.892  26.848  1.00  0.00     0.021 C 
BRANCH  22  23
ATOM     23  C   UNL A   1      32.744  32.678  27.266  1.00  0.00     0.116 C 
BRANCH  23  24
ATOM     24  N   UNL A   1      32.439  34.061  27.583  1.00  0.00    -0.352 N 
ATOM     25  C   UNL A   1      32.983  34.863  28.557  1.00  0.00     0.251 C 
ATOM     26  H   UNL A   1      31.747  34.482  27.023  1.00  0.00     0.163 HD
ATOM     27  O   UNL A   1      32.490  35.950  28.821  1.00  0.00    -0.269 OA
BRANCH  25  28
ATOM     28  C   UNL A   1      34.164  34.382  29.301  1.00  0.00     0.039 A 
ATOM     29  C   UNL A   1      33.975  33.696  30.502  1.00  0.00     0.014 A 
ATOM     30  C   UNL A   1      35.452  34.591  28.799  1.00  0.00     0.014 A 
ATOM     31  C   UNL A   1      35.078  33.166  31.174  1.00  0.00     0.010 A 
ATOM     32  C   UNL A   1      36.540  33.997  29.426  1.00  0.00     0.010 A 
ATOM     33  C   UNL A   1      36.364  33.284  30.623  1.00  0.00    -0.014 A 
BRANCH  33  34
ATOM     34  C   UNL A   1      37.548  32.680  31.283  1.00  0.00     0.031 A 
ATOM     35  C   UNL A   1      38.250  31.519  30.640  1.00  0.00     0.074 A 
ATOM     36  C   UNL A   1      37.931  33.114  32.499  1.00  0.00     0.049 A 
ATOM     37  N   UNL A   1      39.223  30.777  31.104  1.00  0.00    -0.248 NA
ATOM     38  C   UNL A   1      37.768  31.116  29.310  1.00  0.00     0.031 C 
ATOM     39  C   UNL A   1      37.295  34.200  33.245  1.00  0.00     0.029 A 
ATOM     40  N   UNL A   1      38.929  32.676  33.332  1.00  0.00    -0.354 N 
ATOM     41  C   UNL A   1      39.452  29.809  30.136  1.00  0.00     0.074 A 
ATOM     42  C   UNL A   1      38.481  30.022  29.085  1.00  0.00     0.031 C 
ATOM     43  C   UNL A   1      37.920  34.347  34.423  1.00  0.00     0.029 A 
ATOM     44  C   UNL A   1      38.970  33.338  34.535  1.00  0.00     0.049 A 
ATOM     45  H   UNL A   1      39.557  31.957  33.091  1.00  0.00     0.167 HD
ATOM     46  C   UNL A   1      40.398  28.840  30.118  1.00  0.00     0.037 A 
ATOM     47  C   UNL A   1      39.748  33.138  35.615  1.00  0.00     0.037 A 
ATOM     48  C   UNL A   1      41.374  28.650  31.160  1.00  0.00     0.049 A 
ATOM     49  C   UNL A   1      40.793  32.056  35.577  1.00  0.00     0.074 A 
ATOM     50  C   UNL A   1      42.426  27.754  31.202  1.00  0.00     0.029 A 
ATOM     51  N   UNL A   1      41.407  29.364  32.350  1.00  0.00    -0.354 N 
ATOM     52  N   UNL A   1      41.058  31.197  34.623  1.00  0.00    -0.248 NA
ATOM     53  C   UNL A   1      41.653  31.920  36.762  1.00  0.00     0.031 C 
ATOM     54  C   UNL A   1      43.054  27.878  32.445  1.00  0.00     0.029 A 
ATOM     55  C   UNL A   1      42.439  28.901  33.150  1.00  0.00     0.049 A 
ATOM     56  H   UNL A   1      40.789  30.091  32.589  1.00  0.00     0.167 HD
ATOM     57  C   UNL A   1      42.127  30.435  35.077  1.00  0.00     0.074 A 
ATOM     58  C   UNL A   1      42.467  30.940  36.391  1.00  0.00     0.031 C 
ATOM     59  C   UNL A   1      42.769  29.415  34.457  1.00  0.00     0.037 A 
BRANCH  46  60
ATOM     60  C   UNL A   1      40.407  27.901  28.944  1.00  0.00     0.064 A 
ATOM     61  C   UNL A   1      41.161  28.162  27.788  1.00  0.00     0.173 A 
ATOM     62  C   UNL A   1      39.654  26.717  28.979  1.00  0.00     0.173 A 
ATOM     63  F   UNL A   1      41.892  29.283  27.698  1.00  0.00    -0.203 F 
ATOM     64  C   UNL A   1      41.119  27.301  26.695  1.00  0.00     0.198 A 
ATOM     65  C   UNL A   1      39.646  25.839  27.899  1.00  0.00     0.198 A 
ATOM     66  F   UNL A   1      38.922  26.411  30.061  1.00  0.00    -0.203 F 
ATOM     67  F   UNL A   1      41.790  27.609  25.577  1.00  0.00    -0.200 F 
ATOM     68  C   UNL A   1      40.367  26.137  26.753  1.00  0.00     0.200 A 
ATOM     69  F   UNL A   1      38.931  24.707  27.963  1.00  0.00    -0.200 F 
ATOM     70  F   UNL A   1      40.328  25.310  25.700  1.00  0.00    -0.200 F 
ENDBRANCH  46  60
BRANCH  47  71
ATOM     71  C   UNL A   1      39.562  33.992  36.817  1.00  0.00     0.064 A 
ATOM     72  C   UNL A   1      38.781  33.564  37.898  1.00  0.00     0.173 A 
ATOM     73  C   UNL A   1      40.196  35.240  36.924  1.00  0.00     0.173 A 
ATOM     74  F   UNL A   1      38.143  32.386  37.836  1.00  0.00    -0.203 F 
ATOM     75  C   UNL A   1      38.631  34.354  39.036  1.00  0.00     0.198 A 
ATOM     76  C   UNL A   1      40.069  36.017  38.074  1.00  0.00     0.198 A 
ATOM     77  F   UNL A   1      40.962  35.693  35.921  1.00  0.00    -0.203 F 
ATOM     78  F   UNL A   1      37.853  33.934  40.043  1.00  0.00    -0.200 F 
ATOM     79  C   UNL A   1      39.283  35.575  39.127  1.00  0.00     0.200 A 
ATOM     80  F   UNL A   1      40.717  37.186  38.165  1.00  0.00    -0.200 F 
ATOM     81  F   UNL A   1      39.152  36.327  40.229  1.00  0.00    -0.200 F 
ENDBRANCH  47  71
BRANCH  59  82
ATOM     82  C   UNL A   1      43.932  28.789  35.171  1.00  0.00     0.064 A 
ATOM     83  C   UNL A   1      45.238  29.276  35.023  1.00  0.00     0.173 A 
ATOM     84  C   UNL A   1      43.721  27.736  36.075  1.00  0.00     0.173 A 
ATOM     85  F   UNL A   1      45.495  30.271  34.161  1.00  0.00    -0.203 F 
ATOM     86  C   UNL A   1      46.293  28.723  35.746  1.00  0.00     0.198 A 
ATOM     87  C   UNL A   1      44.772  27.208  36.819  1.00  0.00     0.198 A 
ATOM     88  F   UNL A   1      42.489  27.238  36.257  1.00  0.00    -0.203 F 
ATOM     89  F   UNL A   1      47.540  29.181  35.565  1.00  0.00    -0.200 F 
ATOM     90  C   UNL A   1      46.057  27.699  36.651  1.00  0.00     0.200 A 
ATOM     91  F   UNL A   1      44.538  26.230  37.705  1.00  0.00    -0.200 F 
ATOM     92  F   UNL A   1      47.070  27.183  37.361  1.00  0.00    -0.200 F 
ENDBRANCH  59  82
ENDBRANCH  33  34
ENDBRANCH  25  28
ENDBRANCH  23  24
ENDBRANCH  22  23
ENDBRANCH   1  22
TORSDOF 14
ENDMDL
MODEL 3
REMARK VINA RESULT:     -11.9      5.660     11.023
REMARK SMILES C[C@H]1SCCC[C@@]1(C(=O)NCCCCCCNC(=O)c1ccc(-c2c3nc(c(-c4c(F)c(F)c(F)c(F)c4F)c4ccc([nH]4)c(-c4c(F)c(F)c(F)c(F)c4F)c4nc(c(-c5c(F)c(F)c(F)c(F)c5F)c5ccc2[nH]5)C=C4)C=C3)cc1)[NH+]1CCCC1
REMARK SMILES IDX 14 1 13 2 12 3 11 4 10 5 8 6 9 7 7 9 1 10 2 11 3 12 4 13
REMARK SMILES IDX 6 14 5 15 83 16 84 17 87 18 85 20 86 21 15 22 16 23 17 24
REMARK SMILES IDX 18 25 19 27 20 28 21 29 82 30 22 31 81 32 23 33 24 34 25 35
REMARK SMILES IDX 75 36 26 37 80 38 74 39 76 40 27 41 79 42 73 43 72 44 28 46
REMARK SMILES IDX 60 47 40 48 59 49 41 50 44 51 58 52 77 53 42 54 43 55 57 57
REMARK SMILES IDX 78 58 45 59 29 60 30 61 38 62 31 63 32 64 36 65 39 66 33 67
REMARK SMILES IDX 34 68 37 69 35 70 61 71 62 72 70 73 63 74 64 75 68 76 71 77
REMARK SMILES IDX 65 78 66 79 69 80 67 81 46 82 47 83 55 84 48 85 49 86 53 87
REMARK SMILES IDX 56 88 50 89 51 90 54 91 52 92
REMARK H PARENT 10 8 83 19 17 26 76 45 44 56
REMARK Flexibility Score: inf
ROOT
ATOM      1  C   UNL A   1      36.819  20.871  24.996  1.00  0.00     0.002 C 
ENDROOT
BRANCH   1   2
ATOM      2  C   UNL A   1      37.068  22.148  24.190  1.00  0.00     0.002 C 
BRANCH   2   3
ATOM      3  C   UNL A   1      36.218  23.354  24.593  1.00  0.00     0.021 C 
BRANCH   3   4
ATOM      4  C   UNL A   1      34.714  23.195  24.380  1.00  0.00     0.116 C 
BRANCH   4   5
ATOM      5  N   UNL A   1      34.259  23.856  23.178  1.00  0.00    -0.351 N 
ATOM      6  C   UNL A   1      33.474  24.940  22.929  1.00  0.00     0.282 C 
ATOM      7  O   UNL A   1      33.346  25.160  21.717  1.00  0.00    -0.268 OA
ATOM      8  H   UNL A   1      34.591  23.426  22.356  1.00  0.00     0.163 HD
BRANCH   6   9
ATOM      9  C   UNL A   1      32.776  25.866  24.047  1.00  0.00     0.188 C 
ATOM     10  C   UNL A   1      31.391  27.220  22.238  1.00  0.00     0.027 C 
ATOM     11  C   UNL A   1      32.551  27.242  23.255  1.00  0.00     0.115 C 
ATOM     12  S   UNL A   1      32.307  28.786  24.235  1.00  0.00    -0.152 SA
ATOM     13  C   UNL A   1      33.722  28.656  25.335  1.00  0.00     0.070 C 
ATOM     14  C   UNL A   1      33.795  26.101  25.206  1.00  0.00     0.081 C 
ATOM     15  C   UNL A   1      33.686  27.345  26.089  1.00  0.00     0.018 C 
BRANCH   9  16
ATOM     16  N   UNL A   1      31.437  25.297  24.421  1.00  0.00    -0.321 N 
ATOM     17  C   UNL A   1      31.043  25.298  25.830  1.00  0.00     0.263 C 
ATOM     18  C   UNL A   1      31.038  23.976  23.952  1.00  0.00     0.263 C 
ATOM     19  H   UNL A   1      30.960  26.022  23.883  1.00  0.00     0.349 HD
ATOM     20  C   UNL A   1      31.337  23.894  26.342  1.00  0.00     0.067 C 
ATOM     21  C   UNL A   1      31.276  23.011  25.105  1.00  0.00     0.067 C 
ENDBRANCH   9  16
ENDBRANCH   6   9
ENDBRANCH   4   5
ENDBRANCH   3   4
ENDBRANCH   2   3
ENDBRANCH   1   2
BRANCH   1  22
ATOM     22  C   UNL A   1      37.961  19.853  24.977  1.00  0.00     0.021 C 
BRANCH  22  23
ATOM     23  C   UNL A   1      39.208  20.273  25.743  1.00  0.00     0.116 C 
BRANCH  23  24
ATOM     24  N   UNL A   1      40.167  19.191  25.874  1.00  0.00    -0.352 N 
ATOM     25  C   UNL A   1      41.522  19.262  26.090  1.00  0.00     0.251 C 
ATOM     26  H   UNL A   1      39.796  18.283  25.795  1.00  0.00     0.163 HD
ATOM     27  O   UNL A   1      42.225  18.268  25.992  1.00  0.00    -0.269 OA
BRANCH  25  28
ATOM     28  C   UNL A   1      42.125  20.568  26.424  1.00  0.00     0.039 A 
ATOM     29  C   UNL A   1      42.545  21.405  25.388  1.00  0.00     0.014 A 
ATOM     30  C   UNL A   1      42.252  20.970  27.756  1.00  0.00     0.014 A 
ATOM     31  C   UNL A   1      43.042  22.674  25.686  1.00  0.00     0.010 A 
ATOM     32  C   UNL A   1      42.673  22.262  28.048  1.00  0.00     0.010 A 
ATOM     33  C   UNL A   1      43.078  23.124  27.016  1.00  0.00    -0.014 A 
BRANCH  33  34
ATOM     34  C   UNL A   1      43.545  24.491  27.360  1.00  0.00     0.031 A 
ATOM     35  C   UNL A   1      42.561  25.515  27.848  1.00  0.00     0.074 A 
ATOM     36  C   UNL A   1      44.829  24.833  27.144  1.00  0.00     0.049 A 
ATOM     37  N   UNL A   1      42.741  26.789  28.088  1.00  0.00    -0.248 NA
ATOM     38  C   UNL A   1      41.182  25.051  28.060  1.00  0.00     0.031 C 
ATOM     39  C   UNL A   1      45.864  23.939  26.625  1.00  0.00     0.029 A 
ATOM     40  N   UNL A   1      45.475  26.032  27.308  1.00  0.00    -0.354 N 
ATOM     41  C   UNL A   1      41.496  27.280  28.455  1.00  0.00     0.074 A 
ATOM     42  C   UNL A   1      40.559  26.183  28.352  1.00  0.00     0.031 C 
ATOM     43  C   UNL A   1      47.016  24.618  26.517  1.00  0.00     0.029 A 
ATOM     44  C   UNL A   1      46.791  26.006  26.915  1.00  0.00     0.049 A 
ATOM     45  H   UNL A   1      45.038  26.835  27.674  1.00  0.00     0.167 HD
ATOM     46  C   UNL A   1      41.167  28.531  28.858  1.00  0.00     0.037 A 
ATOM     47  C   UNL A   1      47.705  26.992  26.859  1.00  0.00     0.037 A 
ATOM     48  C   UNL A   1      42.112  29.612  28.977  1.00  0.00     0.049 A 
ATOM     49  C   UNL A   1      47.322  28.375  27.309  1.00  0.00     0.074 A 
ATOM     50  C   UNL A   1      41.901  30.893  29.454  1.00  0.00     0.029 A 
ATOM     51  N   UNL A   1      43.446  29.537  28.603  1.00  0.00    -0.354 N 
ATOM     52  N   UNL A   1      46.162  28.813  27.734  1.00  0.00    -0.248 NA
ATOM     53  C   UNL A   1      48.375  29.400  27.281  1.00  0.00     0.031 C 
ATOM     54  C   UNL A   1      43.090  31.613  29.305  1.00  0.00     0.029 A 
ATOM     55  C   UNL A   1      44.062  30.763  28.802  1.00  0.00     0.049 A 
ATOM     56  H   UNL A   1      43.890  28.733  28.249  1.00  0.00     0.167 HD
ATOM     57  C   UNL A   1      46.347  30.154  28.046  1.00  0.00     0.074 A 
ATOM     58  C   UNL A   1      47.737  30.456  27.770  1.00  0.00     0.031 C 
ATOM     59  C   UNL A   1      45.448  31.049  28.524  1.00  0.00     0.037 A 
BRANCH  46  60
ATOM     60  C   UNL A   1      39.723  28.800  29.178  1.00  0.00     0.064 A 
ATOM     61  C   UNL A   1      38.819  29.261  28.208  1.00  0.00     0.173 A 
ATOM     62  C   UNL A   1      39.235  28.587  30.477  1.00  0.00     0.173 A 
ATOM     63  F   UNL A   1      39.235  29.490  26.952  1.00  0.00    -0.203 F 
ATOM     64  C   UNL A   1      37.497  29.547  28.536  1.00  0.00     0.198 A 
ATOM     65  C   UNL A   1      37.901  28.836  30.792  1.00  0.00     0.198 A 
ATOM     66  F   UNL A   1      40.050  28.138  31.442  1.00  0.00    -0.203 F 
ATOM     67  F   UNL A   1      36.673  30.054  27.610  1.00  0.00    -0.200 F 
ATOM     68  C   UNL A   1      37.037  29.329  29.827  1.00  0.00     0.200 A 
ATOM     69  F   UNL A   1      37.456  28.610  32.036  1.00  0.00    -0.200 F 
ATOM     70  F   UNL A   1      35.765  29.605  30.142  1.00  0.00    -0.200 F 
ENDBRANCH  46  60
BRANCH  47  71
ATOM     71  C   UNL A   1      49.072  26.693  26.359  1.00  0.00     0.064 A 
ATOM     72  C   UNL A   1      50.047  26.138  27.199  1.00  0.00     0.173 A 
ATOM     73  C   UNL A   1      49.420  26.919  25.018  1.00  0.00     0.173 A 
ATOM     74  F   UNL A   1      49.768  25.918  28.492  1.00  0.00    -0.203 F 
ATOM     75  C   UNL A   1      51.319  25.831  26.721  1.00  0.00     0.198 A 
ATOM     76  C   UNL A   1      50.682  26.585  24.534  1.00  0.00     0.198 A 
ATOM     77  F   UNL A   1      48.521  27.441  24.170  1.00  0.00    -0.203 F 
ATOM     78  F   UNL A   1      52.242  25.330  27.553  1.00  0.00    -0.200 F 
ATOM     79  C   UNL A   1      51.633  26.046  25.387  1.00  0.00     0.200 A 
ATOM     80  F   UNL A   1      50.974  26.776  23.240  1.00  0.00    -0.200 F 
ATOM     81  F   UNL A   1      52.851  25.734  24.924  1.00  0.00    -0.200 F 
ENDBRANCH  47  71
BRANCH  59  82
ATOM     82  C   UNL A   1      45.937  32.438  28.815  1.00  0.00     0.064 A 
ATOM     83  C   UNL A   1      46.516  32.776  30.047  1.00  0.00     0.173 A 
ATOM     84  C   UNL A   1      45.896  33.424  27.816  1.00  0.00     0.173 A 
ATOM     85  F   UNL A   1      46.566  31.874  31.039  1.00  0.00    -0.203 F 
ATOM     86  C   UNL A   1      47.024  34.053  30.273  1.00  0.00     0.198 A 
ATOM     87  C   UNL A   1      46.434  34.689  28.035  1.00  0.00     0.198 A 
ATOM     88  F   UNL A   1      45.359  33.151  26.618  1.00  0.00    -0.203 F 
ATOM     89  F   UNL A   1      47.542  34.364  31.469  1.00  0.00    -0.200 F 
ATOM     90  C   UNL A   1      46.993  35.004  29.264  1.00  0.00     0.200 A 
ATOM     91  F   UNL A   1      46.418  35.600  27.052  1.00  0.00    -0.200 F 
ATOM     92  F   UNL A   1      47.501  36.226  29.476  1.00  0.00    -0.200 F 
ENDBRANCH  59  82
ENDBRANCH  33  34
ENDBRANCH  25  28
ENDBRANCH  23  24
ENDBRANCH  22  23
ENDBRANCH   1  22
TORSDOF 14
ENDMDL
