MODEL 1
REMARK VINA RESULT:     -12.4      0.000      0.000
REMARK SMILES O=C(COc1ccc(Br)cc1)NC(=S)Nc1ccc(Cl)cc1C(=O)NCCCCCCNC(=O)c1ccc(-c2c3nc(c(-c4c(F)c(F)c(F)c(F)c4F)c4ccc([nH]4)c(-c4c(F)c(F)c(F)c(F)c4F)c4nc(c(-c5c(F)c(F)c(F)c(F)c5F)c5ccc2[nH]5)C=C4)C=C3)cc1
REMARK SMILES IDX 26 1 25 2 23 3 24 4 22 6 16 7 17 8 18 9 21 10 19 11 20 12
REMARK SMILES IDX 15 13 13 15 14 16 12 17 1 18 2 19 3 21 4 22 5 23 6 24 11 25
REMARK SMILES IDX 7 26 10 27 8 28 9 29 27 30 28 31 29 32 30 33 31 34 32 35
REMARK SMILES IDX 33 36 34 38 35 39 36 40 97 41 37 42 96 43 38 44 39 45 40 46
REMARK SMILES IDX 90 47 41 48 95 49 89 50 91 51 42 52 94 53 88 54 87 55 43 57
REMARK SMILES IDX 75 58 55 59 74 60 56 61 59 62 73 63 92 64 57 65 58 66 72 68
REMARK SMILES IDX 93 69 60 70 44 71 45 72 53 73 46 74 47 75 51 76 54 77 48 78
REMARK SMILES IDX 49 79 52 80 50 81 76 82 77 83 85 84 78 85 79 86 83 87 86 88
REMARK SMILES IDX 80 89 81 90 84 91 82 92 61 93 62 94 70 95 63 96 64 97 68 98
REMARK SMILES IDX 71 99 65 100 66 101 69 102 67 103
REMARK H PARENT 25 5 15 14 12 20 32 37 91 56 59 67
REMARK Flexibility Score: inf
ROOT
ATOM      1  C   UNL A   1      31.520  27.752  26.375  1.00  0.00     0.116 C 
ENDROOT
BRANCH   1   2
ATOM      2  N   UNL A   1      31.275  26.435  26.898  1.00  0.00    -0.352 N 
ATOM      3  C   UNL A   1      31.682  25.191  26.478  1.00  0.00     0.253 C 
ATOM      4  O   UNL A   1      31.314  24.249  27.191  1.00  0.00    -0.269 OA
ATOM      5  H   UNL A   1      30.710  26.422  27.704  1.00  0.00     0.163 HD
BRANCH   3   6
ATOM      6  C   UNL A   1      32.486  24.854  25.253  1.00  0.00     0.064 A 
ATOM      7  C   UNL A   1      33.697  24.145  25.121  1.00  0.00     0.053 A 
ATOM      8  C   UNL A   1      34.220  23.850  23.841  1.00  0.00     0.028 A 
ATOM      9  C   UNL A   1      33.627  24.351  22.689  1.00  0.00     0.023 A 
ATOM     10  C   UNL A   1      31.915  25.364  24.061  1.00  0.00     0.036 A 
ATOM     11  C   UNL A   1      32.494  25.140  22.809  1.00  0.00     0.041 A 
ATOM     12  Cl  UNL A   1      31.811  25.856  21.402  1.00  0.00    -0.084 Cl
BRANCH   7  13
ATOM     13  N   UNL A   1      34.482  23.718  26.200  1.00  0.00    -0.332 N 
ATOM     14  H   UNL A   1      34.762  24.412  26.839  1.00  0.00     0.169 HD
BRANCH  13  15
ATOM     15  C   UNL A   1      34.902  22.447  26.463  1.00  0.00     0.177 C 
ATOM     16  S   UNL A   1      33.869  21.399  27.261  1.00  0.00    -0.040 S 
BRANCH  15  17
ATOM     17  N   UNL A   1      36.182  22.002  26.200  1.00  0.00    -0.300 N 
ATOM     18  O   UNL A   1      37.498  23.797  25.459  1.00  0.00    -0.271 OA
ATOM     19  C   UNL A   1      37.354  22.607  25.714  1.00  0.00     0.264 C 
ATOM     20  H   UNL A   1      36.301  21.045  26.398  1.00  0.00     0.172 HD
BRANCH  19  21
ATOM     21  C   UNL A   1      38.560  21.668  25.627  1.00  0.00     0.329 C 
BRANCH  21  22
ATOM     22  O   UNL A   1      39.485  21.817  26.709  1.00  0.00    -0.484 OA
BRANCH  22  23
ATOM     23  C   UNL A   1      40.766  21.501  26.333  1.00  0.00     0.120 A 
ATOM     24  C   UNL A   1      41.679  22.517  26.046  1.00  0.00     0.047 A 
ATOM     25  C   UNL A   1      41.176  20.169  26.320  1.00  0.00     0.047 A 
ATOM     26  C   UNL A   1      42.982  22.205  25.661  1.00  0.00     0.019 A 
ATOM     27  C   UNL A   1      42.494  19.854  25.967  1.00  0.00     0.019 A 
ATOM     28  C   UNL A   1      43.386  20.873  25.628  1.00  0.00     0.018 A 
ATOM     29  Br  UNL A   1      45.163  20.451  25.139  1.00  0.00    -0.051 Br
ENDBRANCH  22  23
ENDBRANCH  21  22
ENDBRANCH  19  21
ENDBRANCH  15  17
ENDBRANCH  13  15
ENDBRANCH   7  13
ENDBRANCH   3   6
ENDBRANCH   1   2
BRANCH   1  30
ATOM     30  C   UNL A   1      32.353  28.678  27.255  1.00  0.00     0.021 C 
BRANCH  30  31
ATOM     31  C   UNL A   1      32.621  30.095  26.738  1.00  0.00     0.002 C 
BRANCH  31  32
ATOM     32  C   UNL A   1      31.440  30.888  26.173  1.00  0.00     0.002 C 
BRANCH  32  33
ATOM     33  C   UNL A   1      31.354  32.375  26.524  1.00  0.00     0.021 C 
BRANCH  33  34
ATOM     34  C   UNL A   1      32.563  32.981  27.225  1.00  0.00     0.116 C 
BRANCH  34  35
ATOM     35  N   UNL A   1      32.349  34.352  27.655  1.00  0.00    -0.352 N 
ATOM     36  C   UNL A   1      32.995  35.083  28.620  1.00  0.00     0.251 C 
ATOM     37  H   UNL A   1      31.629  34.830  27.183  1.00  0.00     0.163 HD
ATOM     38  O   UNL A   1      32.576  36.200  28.925  1.00  0.00    -0.269 OA
BRANCH  36  39
ATOM     39  C   UNL A   1      34.176  34.534  29.322  1.00  0.00     0.039 A 
ATOM     40  C   UNL A   1      33.990  33.906  30.558  1.00  0.00     0.014 A 
ATOM     41  C   UNL A   1      35.464  34.652  28.791  1.00  0.00     0.014 A 
ATOM     42  C   UNL A   1      35.079  33.342  31.227  1.00  0.00     0.010 A 
ATOM     43  C   UNL A   1      36.538  34.027  29.422  1.00  0.00     0.010 A 
ATOM     44  C   UNL A   1      36.358  33.366  30.647  1.00  0.00    -0.014 A 
BRANCH  44  45
ATOM     45  C   UNL A   1      37.513  32.701  31.306  1.00  0.00     0.031 A 
ATOM     46  C   UNL A   1      38.208  31.545  30.641  1.00  0.00     0.074 A 
ATOM     47  C   UNL A   1      37.901  33.102  32.533  1.00  0.00     0.049 A 
ATOM     48  N   UNL A   1      39.185  30.796  31.087  1.00  0.00    -0.248 NA
ATOM     49  C   UNL A   1      37.722  31.163  29.305  1.00  0.00     0.031 C 
ATOM     50  C   UNL A   1      37.285  34.184  33.302  1.00  0.00     0.029 A 
ATOM     51  N   UNL A   1      38.899  32.638  33.356  1.00  0.00    -0.354 N 
ATOM     52  C   UNL A   1      39.424  29.853  30.096  1.00  0.00     0.074 A 
ATOM     53  C   UNL A   1      38.452  30.088  29.049  1.00  0.00     0.031 C 
ATOM     54  C   UNL A   1      37.930  34.315  34.472  1.00  0.00     0.029 A 
ATOM     55  C   UNL A   1      38.974  33.300  34.557  1.00  0.00     0.049 A 
ATOM     56  H   UNL A   1      39.502  31.901  33.107  1.00  0.00     0.167 HD
ATOM     57  C   UNL A   1      40.380  28.893  30.053  1.00  0.00     0.037 A 
ATOM     58  C   UNL A   1      39.786  33.101  35.614  1.00  0.00     0.037 A 
ATOM     59  C   UNL A   1      41.355  28.674  31.090  1.00  0.00     0.049 A 
ATOM     60  C   UNL A   1      40.822  32.011  35.551  1.00  0.00     0.074 A 
ATOM     61  C   UNL A   1      42.396  27.762  31.116  1.00  0.00     0.029 A 
ATOM     62  N   UNL A   1      41.403  29.369  32.290  1.00  0.00    -0.354 N 
ATOM     63  N   UNL A   1      41.080  31.169  34.581  1.00  0.00    -0.248 NA
ATOM     64  C   UNL A   1      41.683  31.847  36.731  1.00  0.00     0.031 C 
ATOM     65  C   UNL A   1      43.038  27.866  32.353  1.00  0.00     0.029 A 
ATOM     66  C   UNL A   1      42.439  28.886  33.074  1.00  0.00     0.049 A 
ATOM     67  H   UNL A   1      40.793  30.098  32.546  1.00  0.00     0.167 HD
ATOM     68  C   UNL A   1      42.152  30.400  35.017  1.00  0.00     0.074 A 
ATOM     69  C   UNL A   1      42.503  30.885  36.335  1.00  0.00     0.031 C 
ATOM     70  C   UNL A   1      42.785  29.383  34.382  1.00  0.00     0.037 A 
BRANCH  57  71
ATOM     71  C   UNL A   1      40.417  28.001  28.845  1.00  0.00     0.064 A 
ATOM     72  C   UNL A   1      41.176  28.327  27.709  1.00  0.00     0.173 A 
ATOM     73  C   UNL A   1      39.718  26.785  28.836  1.00  0.00     0.173 A 
ATOM     74  F   UNL A   1      41.857  29.481  27.660  1.00  0.00    -0.203 F 
ATOM     75  C   UNL A   1      41.208  27.483  26.600  1.00  0.00     0.198 A 
ATOM     76  C   UNL A   1      39.780  25.927  27.740  1.00  0.00     0.198 A 
ATOM     77  F   UNL A   1      38.982  26.418  29.897  1.00  0.00    -0.203 F 
ATOM     78  F   UNL A   1      41.898  27.841  25.509  1.00  0.00    -0.200 F 
ATOM     79  C   UNL A   1      40.516  26.282  26.620  1.00  0.00     0.200 A 
ATOM     80  F   UNL A   1      39.124  24.759  27.767  1.00  0.00    -0.200 F 
ATOM     81  F   UNL A   1      40.556  25.467  25.556  1.00  0.00    -0.200 F 
ENDBRANCH  57  71
BRANCH  58  82
ATOM     82  C   UNL A   1      39.662  33.965  36.818  1.00  0.00     0.064 A 
ATOM     83  C   UNL A   1      38.868  33.576  37.907  1.00  0.00     0.173 A 
ATOM     84  C   UNL A   1      40.322  35.200  36.903  1.00  0.00     0.173 A 
ATOM     85  F   UNL A   1      38.199  32.414  37.865  1.00  0.00    -0.203 F 
ATOM     86  C   UNL A   1      38.720  34.398  39.022  1.00  0.00     0.198 A 
ATOM     87  C   UNL A   1      40.199  36.007  38.033  1.00  0.00     0.198 A 
ATOM     88  F   UNL A   1      41.096  35.620  35.891  1.00  0.00    -0.203 F 
ATOM     89  F   UNL A   1      37.914  34.024  40.024  1.00  0.00    -0.200 F 
ATOM     90  C   UNL A   1      39.391  35.610  39.086  1.00  0.00     0.200 A 
ATOM     91  F   UNL A   1      40.861  37.170  38.098  1.00  0.00    -0.200 F 
ATOM     92  F   UNL A   1      39.251  36.399  40.161  1.00  0.00    -0.200 F 
ENDBRANCH  58  82
BRANCH  70  93
ATOM     93  C   UNL A   1      43.954  28.752  35.084  1.00  0.00     0.064 A 
ATOM     94  C   UNL A   1      45.266  29.213  34.899  1.00  0.00     0.173 A 
ATOM     95  C   UNL A   1      43.751  27.698  35.989  1.00  0.00     0.173 A 
ATOM     96  F   UNL A   1      45.517  30.207  34.035  1.00  0.00    -0.203 F 
ATOM     97  C   UNL A   1      46.334  28.623  35.573  1.00  0.00     0.198 A 
ATOM     98  C   UNL A   1      44.816  27.135  36.686  1.00  0.00     0.198 A 
ATOM     99  F   UNL A   1      42.515  27.225  36.209  1.00  0.00    -0.203 F 
ATOM    100  F   UNL A   1      47.584  29.046  35.341  1.00  0.00    -0.200 F 
ATOM    101  C   UNL A   1      46.107  27.592  36.471  1.00  0.00     0.200 A 
ATOM    102  F   UNL A   1      44.592  26.149  37.567  1.00  0.00    -0.200 F 
ATOM    103  F   UNL A   1      47.134  27.032  37.126  1.00  0.00    -0.200 F 
ENDBRANCH  70  93
ENDBRANCH  44  45
ENDBRANCH  36  39
ENDBRANCH  34  35
ENDBRANCH  33  34
ENDBRANCH  32  33
ENDBRANCH  31  32
ENDBRANCH  30  31
ENDBRANCH   1  30
TORSDOF 19
ENDMDL
MODEL 2
REMARK VINA RESULT:     -12.3      0.449      7.113
REMARK SMILES O=C(COc1ccc(Br)cc1)NC(=S)Nc1ccc(Cl)cc1C(=O)NCCCCCCNC(=O)c1ccc(-c2c3nc(c(-c4c(F)c(F)c(F)c(F)c4F)c4ccc([nH]4)c(-c4c(F)c(F)c(F)c(F)c4F)c4nc(c(-c5c(F)c(F)c(F)c(F)c5F)c5ccc2[nH]5)C=C4)C=C3)cc1
REMARK SMILES IDX 26 1 25 2 23 3 24 4 22 6 16 7 17 8 18 9 21 10 19 11 20 12
REMARK SMILES IDX 15 13 13 15 14 16 12 17 1 18 2 19 3 21 4 22 5 23 6 24 11 25
REMARK SMILES IDX 7 26 10 27 8 28 9 29 27 30 28 31 29 32 30 33 31 34 32 35
REMARK SMILES IDX 33 36 34 38 35 39 36 40 97 41 37 42 96 43 38 44 39 45 40 46
REMARK SMILES IDX 90 47 41 48 95 49 89 50 91 51 42 52 94 53 88 54 87 55 43 57
REMARK SMILES IDX 75 58 55 59 74 60 56 61 59 62 73 63 92 64 57 65 58 66 72 68
REMARK SMILES IDX 93 69 60 70 44 71 45 72 53 73 46 74 47 75 51 76 54 77 48 78
REMARK SMILES IDX 49 79 52 80 50 81 76 82 77 83 85 84 78 85 79 86 83 87 86 88
REMARK SMILES IDX 80 89 81 90 84 91 82 92 61 93 62 94 70 95 63 96 64 97 68 98
REMARK SMILES IDX 71 99 65 100 66 101 69 102 67 103
REMARK H PARENT 25 5 15 14 12 20 32 37 91 56 59 67
REMARK Flexibility Score: inf
ROOT
ATOM      1  C   UNL A   1      31.360  27.664  26.339  1.00  0.00     0.116 C 
ENDROOT
BRANCH   1   2
ATOM      2  N   UNL A   1      31.227  26.338  26.880  1.00  0.00    -0.352 N 
ATOM      3  C   UNL A   1      31.722  25.125  26.466  1.00  0.00     0.253 C 
ATOM      4  O   UNL A   1      31.440  24.166  27.195  1.00  0.00    -0.269 OA
ATOM      5  H   UNL A   1      30.679  26.291  27.696  1.00  0.00     0.163 HD
BRANCH   3   6
ATOM      6  C   UNL A   1      32.528  24.837  25.230  1.00  0.00     0.064 A 
ATOM      7  C   UNL A   1      33.765  24.177  25.079  1.00  0.00     0.053 A 
ATOM      8  C   UNL A   1      34.290  23.921  23.792  1.00  0.00     0.028 A 
ATOM      9  C   UNL A   1      33.668  24.415  22.651  1.00  0.00     0.023 A 
ATOM     10  C   UNL A   1      31.928  25.341  24.050  1.00  0.00     0.036 A 
ATOM     11  C   UNL A   1      32.506  25.157  22.791  1.00  0.00     0.041 A 
ATOM     12  Cl  UNL A   1      31.784  25.865  21.398  1.00  0.00    -0.084 Cl
BRANCH   7  13
ATOM     13  N   UNL A   1      34.575  23.767  26.146  1.00  0.00    -0.332 N 
ATOM     14  H   UNL A   1      34.908  24.477  26.742  1.00  0.00     0.169 HD
BRANCH  13  15
ATOM     15  C   UNL A   1      34.954  22.493  26.451  1.00  0.00     0.177 C 
ATOM     16  S   UNL A   1      33.886  21.503  27.278  1.00  0.00    -0.040 S 
BRANCH  15  17
ATOM     17  N   UNL A   1      36.222  22.001  26.209  1.00  0.00    -0.300 N 
ATOM     18  O   UNL A   1      37.592  23.727  25.408  1.00  0.00    -0.271 OA
ATOM     19  C   UNL A   1      37.412  22.551  25.705  1.00  0.00     0.264 C 
ATOM     20  H   UNL A   1      36.311  21.048  26.442  1.00  0.00     0.172 HD
BRANCH  19  21
ATOM     21  C   UNL A   1      38.590  21.575  25.656  1.00  0.00     0.329 C 
BRANCH  21  22
ATOM     22  O   UNL A   1      39.549  21.776  26.699  1.00  0.00    -0.484 OA
BRANCH  22  23
ATOM     23  C   UNL A   1      40.780  21.271  26.364  1.00  0.00     0.120 A 
ATOM     24  C   UNL A   1      40.975  19.890  26.304  1.00  0.00     0.047 A 
ATOM     25  C   UNL A   1      41.810  22.139  26.004  1.00  0.00     0.047 A 
ATOM     26  C   UNL A   1      42.224  19.369  25.968  1.00  0.00     0.019 A 
ATOM     27  C   UNL A   1      43.055  21.617  25.633  1.00  0.00     0.019 A 
ATOM     28  C   UNL A   1      43.258  20.236  25.628  1.00  0.00     0.018 A 
ATOM     29  Br  UNL A   1      44.942  19.529  25.139  1.00  0.00    -0.051 Br
ENDBRANCH  22  23
ENDBRANCH  21  22
ENDBRANCH  19  21
ENDBRANCH  15  17
ENDBRANCH  13  15
ENDBRANCH   7  13
ENDBRANCH   3   6
ENDBRANCH   1   2
BRANCH   1  30
ATOM     30  C   UNL A   1      31.852  28.736  27.305  1.00  0.00     0.021 C 
BRANCH  30  31
ATOM     31  C   UNL A   1      32.382  30.042  26.705  1.00  0.00     0.002 C 
BRANCH  31  32
ATOM     32  C   UNL A   1      31.379  30.978  26.025  1.00  0.00     0.002 C 
BRANCH  32  33
ATOM     33  C   UNL A   1      31.307  32.421  26.527  1.00  0.00     0.021 C 
BRANCH  33  34
ATOM     34  C   UNL A   1      32.542  32.960  27.238  1.00  0.00     0.116 C 
BRANCH  34  35
ATOM     35  N   UNL A   1      32.377  34.318  27.726  1.00  0.00    -0.352 N 
ATOM     36  C   UNL A   1      33.054  34.987  28.714  1.00  0.00     0.251 C 
ATOM     37  H   UNL A   1      31.671  34.839  27.279  1.00  0.00     0.163 HD
ATOM     38  O   UNL A   1      32.675  36.103  29.068  1.00  0.00    -0.269 OA
BRANCH  36  39
ATOM     39  C   UNL A   1      34.221  34.369  29.384  1.00  0.00     0.039 A 
ATOM     40  C   UNL A   1      34.006  33.608  30.538  1.00  0.00     0.014 A 
ATOM     41  C   UNL A   1      35.521  34.552  28.904  1.00  0.00     0.014 A 
ATOM     42  C   UNL A   1      35.082  32.980  31.170  1.00  0.00     0.010 A 
ATOM     43  C   UNL A   1      36.583  33.867  29.493  1.00  0.00     0.010 A 
ATOM     44  C   UNL A   1      36.375  33.074  30.632  1.00  0.00    -0.014 A 
BRANCH  44  45
ATOM     45  C   UNL A   1      37.518  32.346  31.245  1.00  0.00     0.031 A 
ATOM     46  C   UNL A   1      38.018  32.726  32.611  1.00  0.00     0.074 A 
ATOM     47  C   UNL A   1      38.143  31.379  30.546  1.00  0.00     0.049 A 
ATOM     48  N   UNL A   1      39.041  32.256  33.281  1.00  0.00    -0.248 NA
ATOM     49  C   UNL A   1      37.287  33.796  33.308  1.00  0.00     0.031 C 
ATOM     50  C   UNL A   1      37.780  30.943  29.196  1.00  0.00     0.029 A 
ATOM     51  N   UNL A   1      39.224  30.594  30.868  1.00  0.00    -0.354 N 
ATOM     52  C   UNL A   1      39.081  32.975  34.468  1.00  0.00     0.074 A 
ATOM     53  C   UNL A   1      38.015  33.953  34.403  1.00  0.00     0.031 C 
ATOM     54  C   UNL A   1      38.608  29.957  28.815  1.00  0.00     0.029 A 
ATOM     55  C   UNL A   1      39.587  29.721  29.871  1.00  0.00     0.049 A 
ATOM     56  H   UNL A   1      39.694  30.652  31.731  1.00  0.00     0.167 HD
ATOM     57  C   UNL A   1      39.916  32.821  35.524  1.00  0.00     0.037 A 
ATOM     58  C   UNL A   1      40.603  28.838  29.810  1.00  0.00     0.037 A 
ATOM     59  C   UNL A   1      40.966  31.837  35.590  1.00  0.00     0.049 A 
ATOM     60  C   UNL A   1      41.533  28.705  30.986  1.00  0.00     0.074 A 
ATOM     61  C   UNL A   1      41.830  31.567  36.637  1.00  0.00     0.029 A 
ATOM     62  N   UNL A   1      41.298  30.966  34.562  1.00  0.00    -0.354 N 
ATOM     63  N   UNL A   1      41.520  29.346  32.129  1.00  0.00    -0.248 NA
ATOM     64  C   UNL A   1      42.618  27.721  30.864  1.00  0.00     0.031 C 
ATOM     65  C   UNL A   1      42.722  30.574  36.222  1.00  0.00     0.029 A 
ATOM     66  C   UNL A   1      42.374  30.178  34.941  1.00  0.00     0.049 A 
ATOM     67  H   UNL A   1      40.838  30.914  33.694  1.00  0.00     0.167 HD
ATOM     68  C   UNL A   1      42.568  28.821  32.875  1.00  0.00     0.074 A 
ATOM     69  C   UNL A   1      43.189  27.799  32.058  1.00  0.00     0.031 C 
ATOM     70  C   UNL A   1      42.978  29.157  34.122  1.00  0.00     0.037 A 
BRANCH  57  71
ATOM     71  C   UNL A   1      39.733  33.743  36.696  1.00  0.00     0.064 A 
ATOM     72  C   UNL A   1      40.347  35.005  36.747  1.00  0.00     0.173 A 
ATOM     73  C   UNL A   1      38.900  33.379  37.765  1.00  0.00     0.173 A 
ATOM     74  F   UNL A   1      41.161  35.401  35.757  1.00  0.00    -0.203 F 
ATOM     75  C   UNL A   1      40.159  35.851  37.837  1.00  0.00     0.198 A 
ATOM     76  C   UNL A   1      38.686  34.242  38.837  1.00  0.00     0.198 A 
ATOM     77  F   UNL A   1      38.281  32.188  37.766  1.00  0.00    -0.203 F 
ATOM     78  F   UNL A   1      40.798  37.028  37.886  1.00  0.00    -0.200 F 
ATOM     79  C   UNL A   1      39.323  35.473  38.877  1.00  0.00     0.200 A 
ATOM     80  F   UNL A   1      37.865  33.882  39.832  1.00  0.00    -0.200 F 
ATOM     81  F   UNL A   1      39.135  36.293  39.920  1.00  0.00    -0.200 F 
ENDBRANCH  57  71
BRANCH  58  82
ATOM     82  C   UNL A   1      40.787  27.999  28.596  1.00  0.00     0.064 A 
ATOM     83  C   UNL A   1      41.576  28.442  27.525  1.00  0.00     0.173 A 
ATOM     84  C   UNL A   1      40.169  26.745  28.474  1.00  0.00     0.173 A 
ATOM     85  F   UNL A   1      42.170  29.643  27.584  1.00  0.00    -0.203 F 
ATOM     86  C   UNL A   1      41.722  27.675  26.371  1.00  0.00     0.198 A 
ATOM     87  C   UNL A   1      40.342  25.964  27.333  1.00  0.00     0.198 A 
ATOM     88  F   UNL A   1      39.405  26.272  29.471  1.00  0.00    -0.203 F 
ATOM     89  F   UNL A   1      42.439  28.146  25.342  1.00  0.00    -0.200 F 
ATOM     90  C   UNL A   1      41.110  26.434  26.279  1.00  0.00     0.200 A 
ATOM     91  F   UNL A   1      39.761  24.759  27.254  1.00  0.00    -0.200 F 
ATOM     92  F   UNL A   1      41.252  25.695  25.170  1.00  0.00    -0.200 F 
ENDBRANCH  58  82
BRANCH  70  93
ATOM     93  C   UNL A   1      44.129  28.384  34.702  1.00  0.00     0.064 A 
ATOM     94  C   UNL A   1      43.940  27.167  35.373  1.00  0.00     0.173 A 
ATOM     95  C   UNL A   1      45.445  28.850  34.545  1.00  0.00     0.173 A 
ATOM     96  F   UNL A   1      42.703  26.685  35.563  1.00  0.00    -0.203 F 
ATOM     97  C   UNL A   1      45.023  26.458  35.889  1.00  0.00     0.198 A 
ATOM     98  C   UNL A   1      46.527  28.122  35.032  1.00  0.00     0.198 A 
ATOM     99  F   UNL A   1      45.681  30.004  33.905  1.00  0.00    -0.203 F 
ATOM    100  F   UNL A   1      44.814  25.324  36.571  1.00  0.00    -0.200 F 
ATOM    101  C   UNL A   1      46.314  26.931  35.711  1.00  0.00     0.200 A 
ATOM    102  F   UNL A   1      47.775  28.572  34.844  1.00  0.00    -0.200 F 
ATOM    103  F   UNL A   1      47.356  26.243  36.199  1.00  0.00    -0.200 F 
ENDBRANCH  70  93
ENDBRANCH  44  45
ENDBRANCH  36  39
ENDBRANCH  34  35
ENDBRANCH  33  34
ENDBRANCH  32  33
ENDBRANCH  31  32
ENDBRANCH  30  31
ENDBRANCH   1  30
TORSDOF 19
ENDMDL
MODEL 3
REMARK VINA RESULT:     -12.0      5.921     11.729
REMARK SMILES O=C(COc1ccc(Br)cc1)NC(=S)Nc1ccc(Cl)cc1C(=O)NCCCCCCNC(=O)c1ccc(-c2c3nc(c(-c4c(F)c(F)c(F)c(F)c4F)c4ccc([nH]4)c(-c4c(F)c(F)c(F)c(F)c4F)c4nc(c(-c5c(F)c(F)c(F)c(F)c5F)c5ccc2[nH]5)C=C4)C=C3)cc1
REMARK SMILES IDX 26 1 25 2 23 3 24 4 22 6 16 7 17 8 18 9 21 10 19 11 20 12
REMARK SMILES IDX 15 13 13 15 14 16 12 17 1 18 2 19 3 21 4 22 5 23 6 24 11 25
REMARK SMILES IDX 7 26 10 27 8 28 9 29 27 30 28 31 29 32 30 33 31 34 32 35
REMARK SMILES IDX 33 36 34 38 35 39 36 40 97 41 37 42 96 43 38 44 39 45 40 46
REMARK SMILES IDX 90 47 41 48 95 49 89 50 91 51 42 52 94 53 88 54 87 55 43 57
REMARK SMILES IDX 75 58 55 59 74 60 56 61 59 62 73 63 92 64 57 65 58 66 72 68
REMARK SMILES IDX 93 69 60 70 44 71 45 72 53 73 46 74 47 75 51 76 54 77 48 78
REMARK SMILES IDX 49 79 52 80 50 81 76 82 77 83 85 84 78 85 79 86 83 87 86 88
REMARK SMILES IDX 80 89 81 90 84 91 82 92 61 93 62 94 70 95 63 96 64 97 68 98
REMARK SMILES IDX 71 99 65 100 66 101 69 102 67 103
REMARK H PARENT 25 5 15 14 12 20 32 37 91 56 59 67
REMARK Flexibility Score: inf
ROOT
ATOM      1  C   UNL A   1      35.449  23.408  24.911  1.00  0.00     0.116 C 
ENDROOT
BRANCH   1   2
ATOM      2  N   UNL A   1      34.860  22.809  26.078  1.00  0.00    -0.352 N 
ATOM      3  C   UNL A   1      34.053  21.707  26.235  1.00  0.00     0.253 C 
ATOM      4  O   UNL A   1      33.747  21.443  27.404  1.00  0.00    -0.269 OA
ATOM      5  H   UNL A   1      35.074  23.273  26.919  1.00  0.00     0.163 HD
BRANCH   3   6
ATOM      6  C   UNL A   1      33.485  20.825  25.158  1.00  0.00     0.064 A 
ATOM      7  C   UNL A   1      32.528  21.102  24.161  1.00  0.00     0.053 A 
ATOM      8  C   UNL A   1      32.222  20.138  23.172  1.00  0.00     0.028 A 
ATOM      9  C   UNL A   1      32.760  18.858  23.226  1.00  0.00     0.023 A 
ATOM     10  C   UNL A   1      34.003  19.507  25.195  1.00  0.00     0.036 A 
ATOM     11  C   UNL A   1      33.621  18.537  24.263  1.00  0.00     0.041 A 
ATOM     12  Cl  UNL A   1      34.210  16.927  24.404  1.00  0.00    -0.084 Cl
BRANCH   7  13
ATOM     13  N   UNL A   1      31.793  22.292  24.082  1.00  0.00    -0.332 N 
ATOM     14  H   UNL A   1      30.991  22.349  24.650  1.00  0.00     0.169 HD
BRANCH  13  15
ATOM     15  C   UNL A   1      32.064  23.379  23.304  1.00  0.00     0.177 C 
ATOM     16  S   UNL A   1      33.212  23.244  22.092  1.00  0.00    -0.040 S 
BRANCH  15  17
ATOM     17  N   UNL A   1      31.519  24.627  23.529  1.00  0.00    -0.300 N 
ATOM     18  O   UNL A   1      30.810  24.781  25.759  1.00  0.00    -0.271 OA
ATOM     19  C   UNL A   1      30.920  25.255  24.634  1.00  0.00     0.264 C 
ATOM     20  H   UNL A   1      31.560  25.209  22.736  1.00  0.00     0.172 HD
BRANCH  19  21
ATOM     21  C   UNL A   1      30.492  26.703  24.383  1.00  0.00     0.329 C 
BRANCH  21  22
ATOM     22  O   UNL A   1      29.127  26.838  23.974  1.00  0.00    -0.484 OA
BRANCH  22  23
ATOM     23  C   UNL A   1      28.912  28.006  23.288  1.00  0.00     0.120 A 
ATOM     24  C   UNL A   1      29.980  28.657  22.668  1.00  0.00     0.047 A 
ATOM     25  C   UNL A   1      27.615  28.495  23.141  1.00  0.00     0.047 A 
ATOM     26  C   UNL A   1      29.771  29.847  21.971  1.00  0.00     0.019 A 
ATOM     27  C   UNL A   1      27.397  29.671  22.413  1.00  0.00     0.019 A 
ATOM     28  C   UNL A   1      28.478  30.346  21.842  1.00  0.00     0.018 A 
ATOM     29  Br  UNL A   1      28.189  31.940  20.868  1.00  0.00    -0.051 Br
ENDBRANCH  22  23
ENDBRANCH  21  22
ENDBRANCH  19  21
ENDBRANCH  15  17
ENDBRANCH  13  15
ENDBRANCH   7  13
ENDBRANCH   3   6
ENDBRANCH   1   2
BRANCH   1  30
ATOM     30  C   UNL A   1      36.972  23.378  24.838  1.00  0.00     0.021 C 
BRANCH  30  31
ATOM     31  C   UNL A   1      37.682  22.121  25.350  1.00  0.00     0.002 C 
BRANCH  31  32
ATOM     32  C   UNL A   1      37.429  20.804  24.612  1.00  0.00     0.002 C 
BRANCH  32  33
ATOM     33  C   UNL A   1      38.294  19.602  24.996  1.00  0.00     0.021 C 
BRANCH  33  34
ATOM     34  C   UNL A   1      39.385  19.848  26.031  1.00  0.00     0.116 C 
BRANCH  34  35
ATOM     35  N   UNL A   1      40.481  18.900  25.945  1.00  0.00    -0.352 N 
ATOM     36  C   UNL A   1      41.835  19.109  26.027  1.00  0.00     0.251 C 
ATOM     37  H   UNL A   1      40.213  17.962  25.806  1.00  0.00     0.163 HD
ATOM     38  O   UNL A   1      42.613  18.182  25.800  1.00  0.00    -0.269 OA
BRANCH  36  39
ATOM     39  C   UNL A   1      42.375  20.447  26.357  1.00  0.00     0.039 A 
ATOM     40  C   UNL A   1      42.848  21.254  25.318  1.00  0.00     0.014 A 
ATOM     41  C   UNL A   1      42.445  20.902  27.677  1.00  0.00     0.014 A 
ATOM     42  C   UNL A   1      43.328  22.538  25.593  1.00  0.00     0.010 A 
ATOM     43  C   UNL A   1      42.855  22.208  27.942  1.00  0.00     0.010 A 
ATOM     44  C   UNL A   1      43.301  23.039  26.904  1.00  0.00    -0.014 A 
BRANCH  44  45
ATOM     45  C   UNL A   1      43.732  24.431  27.203  1.00  0.00     0.031 A 
ATOM     46  C   UNL A   1      42.744  25.440  27.718  1.00  0.00     0.074 A 
ATOM     47  C   UNL A   1      45.004  24.802  26.956  1.00  0.00     0.049 A 
ATOM     48  N   UNL A   1      42.914  26.714  27.972  1.00  0.00    -0.248 NA
ATOM     49  C   UNL A   1      41.374  24.960  27.958  1.00  0.00     0.031 C 
ATOM     50  C   UNL A   1      46.049  23.929  26.419  1.00  0.00     0.029 A 
ATOM     51  N   UNL A   1      45.632  26.014  27.111  1.00  0.00    -0.354 N 
ATOM     52  C   UNL A   1      41.677  27.187  28.388  1.00  0.00     0.074 A 
ATOM     53  C   UNL A   1      40.751  26.077  28.301  1.00  0.00     0.031 C 
ATOM     54  C   UNL A   1      47.191  24.626  26.311  1.00  0.00     0.029 A 
ATOM     55  C   UNL A   1      46.951  26.004  26.725  1.00  0.00     0.049 A 
ATOM     56  H   UNL A   1      45.180  26.813  27.465  1.00  0.00     0.167 HD
ATOM     57  C   UNL A   1      41.347  28.427  28.825  1.00  0.00     0.037 A 
ATOM     58  C   UNL A   1      47.860  26.998  26.697  1.00  0.00     0.037 A 
ATOM     59  C   UNL A   1      42.275  29.524  28.925  1.00  0.00     0.049 A 
ATOM     60  C   UNL A   1      47.461  28.373  27.162  1.00  0.00     0.074 A 
ATOM     61  C   UNL A   1      42.051  30.802  29.405  1.00  0.00     0.029 A 
ATOM     62  N   UNL A   1      43.605  29.473  28.530  1.00  0.00    -0.354 N 
ATOM     63  N   UNL A   1      46.304  28.791  27.616  1.00  0.00    -0.248 NA
ATOM     64  C   UNL A   1      48.497  29.414  27.115  1.00  0.00     0.031 C 
ATOM     65  C   UNL A   1      43.226  31.541  29.248  1.00  0.00     0.029 A 
ATOM     66  C   UNL A   1      44.204  30.707  28.730  1.00  0.00     0.049 A 
ATOM     67  H   UNL A   1      44.056  28.678  28.165  1.00  0.00     0.167 HD
ATOM     68  C   UNL A   1      46.482  30.130  27.940  1.00  0.00     0.074 A 
ATOM     69  C   UNL A   1      47.862  30.451  27.642  1.00  0.00     0.031 C 
ATOM     70  C   UNL A   1      45.581  31.012  28.438  1.00  0.00     0.037 A 
BRANCH  57  71
ATOM     71  C   UNL A   1      39.919  28.668  29.224  1.00  0.00     0.064 A 
ATOM     72  C   UNL A   1      39.475  28.459  30.540  1.00  0.00     0.173 A 
ATOM     73  C   UNL A   1      38.991  29.154  28.291  1.00  0.00     0.173 A 
ATOM     74  F   UNL A   1      40.316  27.987  31.471  1.00  0.00    -0.203 F 
ATOM     75  C   UNL A   1      38.149  28.696  30.896  1.00  0.00     0.198 A 
ATOM     76  C   UNL A   1      37.675  29.425  28.659  1.00  0.00     0.198 A 
ATOM     77  F   UNL A   1      39.362  29.380  27.021  1.00  0.00    -0.203 F 
ATOM     78  F   UNL A   1      37.736  28.439  32.145  1.00  0.00    -0.200 F 
ATOM     79  C   UNL A   1      37.253  29.186  29.958  1.00  0.00     0.200 A 
ATOM     80  F   UNL A   1      36.815  29.913  27.755  1.00  0.00    -0.200 F 
ATOM     81  F   UNL A   1      35.980  29.424  30.305  1.00  0.00    -0.200 F 
ENDBRANCH  57  71
BRANCH  58  82
ATOM     82  C   UNL A   1      49.243  26.726  26.224  1.00  0.00     0.064 A 
ATOM     83  C   UNL A   1      49.609  26.961  24.891  1.00  0.00     0.173 A 
ATOM     84  C   UNL A   1      50.224  26.216  27.088  1.00  0.00     0.173 A 
ATOM     85  F   UNL A   1      48.702  27.428  24.020  1.00  0.00    -0.203 F 
ATOM     86  C   UNL A   1      50.894  26.674  24.434  1.00  0.00     0.198 A 
ATOM     87  C   UNL A   1      51.518  25.960  26.638  1.00  0.00     0.198 A 
ATOM     88  F   UNL A   1      49.928  25.975  28.373  1.00  0.00    -0.203 F 
ATOM     89  F   UNL A   1      51.200  26.859  23.143  1.00  0.00    -0.200 F 
ATOM     90  C   UNL A   1      51.849  26.179  25.310  1.00  0.00     0.200 A 
ATOM     91  F   UNL A   1      52.442  25.496  27.490  1.00  0.00    -0.200 F 
ATOM     92  F   UNL A   1      53.086  25.906  24.871  1.00  0.00    -0.200 F 
ENDBRANCH  58  82
BRANCH  70  93
ATOM     93  C   UNL A   1      46.069  32.403  28.735  1.00  0.00     0.064 A 
ATOM     94  C   UNL A   1      45.992  33.433  27.786  1.00  0.00     0.173 A 
ATOM     95  C   UNL A   1      46.581  32.717  30.004  1.00  0.00     0.173 A 
ATOM     96  F   UNL A   1      45.524  33.182  26.554  1.00  0.00    -0.203 F 
ATOM     97  C   UNL A   1      46.435  34.719  28.087  1.00  0.00     0.198 A 
ATOM     98  C   UNL A   1      46.990  34.011  30.312  1.00  0.00     0.198 A 
ATOM     99  F   UNL A   1      46.669  31.771  30.950  1.00  0.00    -0.203 F 
ATOM    100  F   UNL A   1      46.399  35.674  27.148  1.00  0.00    -0.200 F 
ATOM    101  C   UNL A   1      46.925  35.009  29.351  1.00  0.00     0.200 A 
ATOM    102  F   UNL A   1      47.448  34.293  31.540  1.00  0.00    -0.200 F 
ATOM    103  F   UNL A   1      47.342  36.249  29.643  1.00  0.00    -0.200 F 
ENDBRANCH  70  93
ENDBRANCH  44  45
ENDBRANCH  36  39
ENDBRANCH  34  35
ENDBRANCH  33  34
ENDBRANCH  32  33
ENDBRANCH  31  32
ENDBRANCH  30  31
ENDBRANCH   1  30
TORSDOF 19
ENDMDL
