MODEL 1
REMARK VINA RESULT:     -13.7      0.000      0.000
REMARK SMILES Nn1c(S[C@@H](C(=O)NCCCCCCNC(=O)c2ccc(-c3c4nc(c(-c5c(F)c(F)c(F)c(F)c5F)c5ccc([nH]5)c(-c5c(F)c(F)c(F)c(F)c5F)c5nc(c(-c6c(F)c(F)c(F)c(F)c6F)c6ccc3[nH]6)C=C5)C=C4)cc2)c2ccccc2)nc2ccc(Br)cc2c1=O
REMARK SMILES IDX 11 1 10 2 9 3 8 4 6 5 7 6 5 8 4 9 3 10 2 11 95 12 87 13
REMARK SMILES IDX 94 14 96 15 88 16 93 17 89 18 91 19 90 20 92 21 1 22 81 25
REMARK SMILES IDX 82 26 86 27 83 28 85 29 84 30 12 31 13 32 14 33 15 34 16 35
REMARK SMILES IDX 17 37 18 38 19 39 80 40 20 41 79 42 21 43 22 44 23 45 73 46
REMARK SMILES IDX 24 47 78 48 72 49 74 50 25 51 77 52 71 53 70 54 26 56 58 57
REMARK SMILES IDX 38 58 57 59 39 60 42 61 56 62 75 63 40 64 41 65 55 67 76 68
REMARK SMILES IDX 43 69 27 70 28 71 36 72 29 73 30 74 34 75 37 76 31 77 32 78
REMARK SMILES IDX 35 79 33 80 59 81 60 82 68 83 61 84 62 85 66 86 69 87 63 88
REMARK SMILES IDX 64 89 67 90 65 91 44 92 45 93 53 94 46 95 47 96 51 97 54 98
REMARK SMILES IDX 48 99 49 100 52 101 50 102
REMARK H PARENT 8 7 1 23 1 24 15 36 74 55 42 66
REMARK Flexibility Score: inf
ROOT
ATOM      1  C   UNL A   1      32.414  29.839  26.997  1.00  0.00     0.002 C 
ENDROOT
BRANCH   1   2
ATOM      2  C   UNL A   1      31.748  28.507  27.370  1.00  0.00     0.021 C 
BRANCH   2   3
ATOM      3  C   UNL A   1      32.179  27.302  26.525  1.00  0.00     0.116 C 
BRANCH   3   4
ATOM      4  N   UNL A   1      31.390  26.127  26.830  1.00  0.00    -0.355 N 
ATOM      5  C   UNL A   1      30.655  25.283  26.041  1.00  0.00     0.238 C 
ATOM      6  O   UNL A   1      30.081  24.392  26.678  1.00  0.00    -0.273 OA
ATOM      7  H   UNL A   1      31.381  25.889  27.784  1.00  0.00     0.163 HD
BRANCH   5   8
ATOM      8  C   UNL A   1      30.644  25.413  24.485  1.00  0.00     0.174 C 
BRANCH   8   9
ATOM      9  S   UNL A   1      32.266  24.972  23.794  1.00  0.00    -0.068 SA
BRANCH   9  10
ATOM     10  C   UNL A   1      32.780  23.359  24.221  1.00  0.00     0.191 A 
ATOM     11  N   UNL A   1      33.588  23.007  25.300  1.00  0.00    -0.202 N 
ATOM     12  C   UNL A   1      33.936  21.679  25.565  1.00  0.00     0.280 A 
ATOM     13  N   UNL A   1      32.299  22.470  23.405  1.00  0.00    -0.222 NA
ATOM     14  C   UNL A   1      33.416  20.674  24.630  1.00  0.00     0.069 A 
ATOM     15  O   UNL A   1      34.645  21.330  26.509  1.00  0.00    -0.267 OA
ATOM     16  C   UNL A   1      32.613  21.122  23.587  1.00  0.00     0.079 A 
ATOM     17  C   UNL A   1      33.733  19.321  24.780  1.00  0.00     0.031 A 
ATOM     18  C   UNL A   1      32.114  20.189  22.676  1.00  0.00     0.030 A 
ATOM     19  C   UNL A   1      33.235  18.406  23.858  1.00  0.00     0.018 A 
ATOM     20  C   UNL A   1      32.424  18.832  22.807  1.00  0.00     0.018 A 
ATOM     21  Br  UNL A   1      33.667  16.575  24.027  1.00  0.00    -0.051 Br
BRANCH  11  22
ATOM     22  N   UNL A   1      34.139  23.947  26.176  1.00  0.00    -0.334 N 
ATOM     23  H   UNL A   1      33.879  24.894  26.109  1.00  0.00     0.178 HD
ATOM     24  H   UNL A   1      34.787  23.661  26.859  1.00  0.00     0.178 HD
ENDBRANCH  11  22
ENDBRANCH   9  10
ENDBRANCH   8   9
BRANCH   8  25
ATOM     25  C   UNL A   1      29.970  26.651  23.860  1.00  0.00    -0.025 A 
ATOM     26  C   UNL A   1      30.721  27.715  23.318  1.00  0.00     0.005 A 
ATOM     27  C   UNL A   1      28.569  26.758  23.781  1.00  0.00     0.005 A 
ATOM     28  C   UNL A   1      30.105  28.881  22.852  1.00  0.00     0.000 A 
ATOM     29  C   UNL A   1      27.952  27.925  23.318  1.00  0.00     0.000 A 
ATOM     30  C   UNL A   1      28.720  28.995  22.875  1.00  0.00     0.000 A 
ENDBRANCH   8  25
ENDBRANCH   5   8
ENDBRANCH   3   4
ENDBRANCH   2   3
ENDBRANCH   1   2
BRANCH   1  31
ATOM     31  C   UNL A   1      31.622  30.740  26.046  1.00  0.00     0.002 C 
BRANCH  31  32
ATOM     32  C   UNL A   1      31.384  32.166  26.540  1.00  0.00     0.021 C 
BRANCH  32  33
ATOM     33  C   UNL A   1      32.554  32.794  27.287  1.00  0.00     0.116 C 
BRANCH  33  34
ATOM     34  N   UNL A   1      32.304  34.173  27.678  1.00  0.00    -0.352 N 
ATOM     35  C   UNL A   1      32.944  34.946  28.617  1.00  0.00     0.251 C 
ATOM     36  H   UNL A   1      31.567  34.616  27.199  1.00  0.00     0.163 HD
ATOM     37  O   UNL A   1      32.496  36.050  28.916  1.00  0.00    -0.269 OA
BRANCH  35  38
ATOM     38  C   UNL A   1      34.158  34.439  29.296  1.00  0.00     0.039 A 
ATOM     39  C   UNL A   1      35.423  34.624  28.736  1.00  0.00     0.014 A 
ATOM     40  C   UNL A   1      34.029  33.766  30.515  1.00  0.00     0.014 A 
ATOM     41  C   UNL A   1      36.527  33.992  29.299  1.00  0.00     0.010 A 
ATOM     42  C   UNL A   1      35.158  33.210  31.131  1.00  0.00     0.010 A 
ATOM     43  C   UNL A   1      36.410  33.278  30.504  1.00  0.00    -0.014 A 
BRANCH  43  44
ATOM     44  C   UNL A   1      37.620  32.631  31.078  1.00  0.00     0.031 A 
ATOM     45  C   UNL A   1      38.098  32.969  32.464  1.00  0.00     0.074 A 
ATOM     46  C   UNL A   1      38.238  31.663  30.371  1.00  0.00     0.049 A 
ATOM     47  N   UNL A   1      39.071  32.425  33.155  1.00  0.00    -0.248 NA
ATOM     48  C   UNL A   1      37.403  34.055  33.172  1.00  0.00     0.031 C 
ATOM     49  C   UNL A   1      37.866  31.249  29.017  1.00  0.00     0.029 A 
ATOM     50  N   UNL A   1      39.273  30.824  30.701  1.00  0.00    -0.354 N 
ATOM     51  C   UNL A   1      39.103  33.101  34.368  1.00  0.00     0.074 A 
ATOM     52  C   UNL A   1      38.082  34.123  34.308  1.00  0.00     0.031 C 
ATOM     53  C   UNL A   1      38.602  30.184  28.665  1.00  0.00     0.029 A 
ATOM     54  C   UNL A   1      39.541  29.879  29.740  1.00  0.00     0.049 A 
ATOM     55  H   UNL A   1      39.776  30.893  31.545  1.00  0.00     0.167 HD
ATOM     56  C   UNL A   1      39.897  32.873  35.442  1.00  0.00     0.037 A 
ATOM     57  C   UNL A   1      40.438  28.875  29.725  1.00  0.00     0.037 A 
ATOM     58  C   UNL A   1      40.900  31.842  35.506  1.00  0.00     0.049 A 
ATOM     59  C   UNL A   1      41.340  28.679  30.912  1.00  0.00     0.074 A 
ATOM     60  C   UNL A   1      41.746  31.531  36.556  1.00  0.00     0.029 A 
ATOM     61  N   UNL A   1      41.187  30.952  34.483  1.00  0.00    -0.354 N 
ATOM     62  N   UNL A   1      41.342  29.314  32.057  1.00  0.00    -0.248 NA
ATOM     63  C   UNL A   1      42.369  27.636  30.799  1.00  0.00     0.031 C 
ATOM     64  C   UNL A   1      42.572  30.478  36.155  1.00  0.00     0.029 A 
ATOM     65  C   UNL A   1      42.211  30.104  34.871  1.00  0.00     0.049 A 
ATOM     66  H   UNL A   1      40.732  30.927  33.610  1.00  0.00     0.167 HD
ATOM     67  C   UNL A   1      42.357  28.738  32.808  1.00  0.00     0.074 A 
ATOM     68  C   UNL A   1      42.940  27.692  31.994  1.00  0.00     0.031 C 
ATOM     69  C   UNL A   1      42.769  29.054  34.058  1.00  0.00     0.037 A 
BRANCH  56  70
ATOM     70  C   UNL A   1      39.715  33.739  36.652  1.00  0.00     0.064 A 
ATOM     71  C   UNL A   1      40.298  35.014  36.731  1.00  0.00     0.173 A 
ATOM     72  C   UNL A   1      38.869  33.339  37.698  1.00  0.00     0.173 A 
ATOM     73  F   UNL A   1      41.120  35.440  35.761  1.00  0.00    -0.203 F 
ATOM     74  C   UNL A   1      40.045  35.850  37.815  1.00  0.00     0.198 A 
ATOM     75  C   UNL A   1      38.599  34.188  38.768  1.00  0.00     0.198 A 
ATOM     76  F   UNL A   1      38.278  32.134  37.666  1.00  0.00    -0.203 F 
ATOM     77  F   UNL A   1      40.629  37.054  37.878  1.00  0.00    -0.200 F 
ATOM     78  C   UNL A   1      39.188  35.442  38.826  1.00  0.00     0.200 A 
ATOM     79  F   UNL A   1      37.758  33.799  39.736  1.00  0.00    -0.200 F 
ATOM     80  F   UNL A   1      38.928  36.259  39.857  1.00  0.00    -0.200 F 
ENDBRANCH  56  70
BRANCH  57  81
ATOM     81  C   UNL A   1      40.504  27.962  28.553  1.00  0.00     0.064 A 
ATOM     82  C   UNL A   1      41.261  28.301  27.423  1.00  0.00     0.173 A 
ATOM     83  C   UNL A   1      39.837  26.729  28.547  1.00  0.00     0.173 A 
ATOM     84  F   UNL A   1      41.902  29.478  27.374  1.00  0.00    -0.203 F 
ATOM     85  C   UNL A   1      41.341  27.442  26.329  1.00  0.00     0.198 A 
ATOM     86  C   UNL A   1      39.942  25.859  27.464  1.00  0.00     0.198 A 
ATOM     87  F   UNL A   1      39.102  26.357  29.605  1.00  0.00    -0.203 F 
ATOM     88  F   UNL A   1      42.046  27.805  25.248  1.00  0.00    -0.200 F 
ATOM     89  C   UNL A   1      40.690  26.219  26.354  1.00  0.00     0.200 A 
ATOM     90  F   UNL A   1      39.324  24.670  27.500  1.00  0.00    -0.200 F 
ATOM     91  F   UNL A   1      40.779  25.388  25.307  1.00  0.00    -0.200 F 
ENDBRANCH  57  81
BRANCH  69  92
ATOM     92  C   UNL A   1      43.889  28.255  34.650  1.00  0.00     0.064 A 
ATOM     93  C   UNL A   1      45.221  28.683  34.551  1.00  0.00     0.173 A 
ATOM     94  C   UNL A   1      43.617  27.111  35.416  1.00  0.00     0.173 A 
ATOM     95  F   UNL A   1      45.529  29.764  33.819  1.00  0.00    -0.203 F 
ATOM     96  C   UNL A   1      46.241  27.993  35.199  1.00  0.00     0.198 A 
ATOM     97  C   UNL A   1      44.638  26.438  36.082  1.00  0.00     0.198 A 
ATOM     98  F   UNL A   1      42.358  26.668  35.546  1.00  0.00    -0.203 F 
ATOM     99  F   UNL A   1      47.510  28.411  35.080  1.00  0.00    -0.200 F 
ATOM    100  C   UNL A   1      45.947  26.881  35.975  1.00  0.00     0.200 A 
ATOM    101  F   UNL A   1      44.351  25.373  36.843  1.00  0.00    -0.200 F 
ATOM    102  F   UNL A   1      46.928  26.235  36.619  1.00  0.00    -0.200 F 
ENDBRANCH  69  92
ENDBRANCH  43  44
ENDBRANCH  35  38
ENDBRANCH  33  34
ENDBRANCH  32  33
ENDBRANCH  31  32
ENDBRANCH   1  31
TORSDOF 17
ENDMDL
MODEL 2
REMARK VINA RESULT:     -13.6      5.182     10.117
REMARK SMILES Nn1c(S[C@@H](C(=O)NCCCCCCNC(=O)c2ccc(-c3c4nc(c(-c5c(F)c(F)c(F)c(F)c5F)c5ccc([nH]5)c(-c5c(F)c(F)c(F)c(F)c5F)c5nc(c(-c6c(F)c(F)c(F)c(F)c6F)c6ccc3[nH]6)C=C5)C=C4)cc2)c2ccccc2)nc2ccc(Br)cc2c1=O
REMARK SMILES IDX 11 1 10 2 9 3 8 4 6 5 7 6 5 8 4 9 3 10 2 11 95 12 87 13
REMARK SMILES IDX 94 14 96 15 88 16 93 17 89 18 91 19 90 20 92 21 1 22 81 25
REMARK SMILES IDX 82 26 86 27 83 28 85 29 84 30 12 31 13 32 14 33 15 34 16 35
REMARK SMILES IDX 17 37 18 38 19 39 80 40 20 41 79 42 21 43 22 44 23 45 73 46
REMARK SMILES IDX 24 47 78 48 72 49 74 50 25 51 77 52 71 53 70 54 26 56 58 57
REMARK SMILES IDX 38 58 57 59 39 60 42 61 56 62 75 63 40 64 41 65 55 67 76 68
REMARK SMILES IDX 43 69 27 70 28 71 36 72 29 73 30 74 34 75 37 76 31 77 32 78
REMARK SMILES IDX 35 79 33 80 59 81 60 82 68 83 61 84 62 85 66 86 69 87 63 88
REMARK SMILES IDX 64 89 67 90 65 91 44 92 45 93 53 94 46 95 47 96 51 97 54 98
REMARK SMILES IDX 48 99 49 100 52 101 50 102
REMARK H PARENT 8 7 1 23 1 24 15 36 74 55 42 66
REMARK Flexibility Score: inf
ROOT
ATOM      1  C   UNL A   1      37.094  22.080  24.298  1.00  0.00     0.002 C 
ENDROOT
BRANCH   1   2
ATOM      2  C   UNL A   1      37.149  23.314  25.211  1.00  0.00     0.021 C 
BRANCH   2   3
ATOM      3  C   UNL A   1      35.787  23.854  25.661  1.00  0.00     0.116 C 
BRANCH   3   4
ATOM      4  N   UNL A   1      35.175  24.676  24.638  1.00  0.00    -0.355 N 
ATOM      5  C   UNL A   1      34.027  25.423  24.624  1.00  0.00     0.238 C 
ATOM      6  O   UNL A   1      33.812  25.971  23.536  1.00  0.00    -0.273 OA
ATOM      7  H   UNL A   1      35.678  24.704  23.793  1.00  0.00     0.163 HD
BRANCH   5   8
ATOM      8  C   UNL A   1      33.154  25.614  25.905  1.00  0.00     0.174 C 
BRANCH   8   9
ATOM      9  S   UNL A   1      31.689  24.539  25.847  1.00  0.00    -0.068 SA
BRANCH   9  10
ATOM     10  C   UNL A   1      31.963  23.049  24.979  1.00  0.00     0.191 A 
ATOM     11  N   UNL A   1      31.823  22.854  23.607  1.00  0.00    -0.202 N 
ATOM     12  C   UNL A   1      32.077  21.618  23.003  1.00  0.00     0.280 A 
ATOM     13  N   UNL A   1      32.347  22.095  25.773  1.00  0.00    -0.222 NA
ATOM     14  C   UNL A   1      32.486  20.531  23.900  1.00  0.00     0.069 A 
ATOM     15  O   UNL A   1      31.966  21.409  21.795  1.00  0.00    -0.267 OA
ATOM     16  C   UNL A   1      32.605  20.825  25.254  1.00  0.00     0.079 A 
ATOM     17  C   UNL A   1      32.730  19.245  23.407  1.00  0.00     0.031 A 
ATOM     18  C   UNL A   1      32.981  19.806  26.132  1.00  0.00     0.030 A 
ATOM     19  C   UNL A   1      33.095  18.241  24.296  1.00  0.00     0.018 A 
ATOM     20  C   UNL A   1      33.224  18.513  25.657  1.00  0.00     0.018 A 
ATOM     21  Br  UNL A   1      33.409  16.491  23.655  1.00  0.00    -0.051 Br
BRANCH  11  22
ATOM     22  N   UNL A   1      31.386  23.856  22.737  1.00  0.00    -0.334 N 
ATOM     23  H   UNL A   1      30.551  23.739  22.229  1.00  0.00     0.178 HD
ATOM     24  H   UNL A   1      31.914  24.680  22.632  1.00  0.00     0.178 HD
ENDBRANCH  11  22
ENDBRANCH   9  10
ENDBRANCH   8   9
BRANCH   8  25
ATOM     25  C   UNL A   1      32.906  27.048  26.413  1.00  0.00    -0.025 A 
ATOM     26  C   UNL A   1      31.692  27.423  27.024  1.00  0.00     0.005 A 
ATOM     27  C   UNL A   1      33.898  28.041  26.310  1.00  0.00     0.005 A 
ATOM     28  C   UNL A   1      31.434  28.750  27.384  1.00  0.00     0.000 A 
ATOM     29  C   UNL A   1      33.640  29.369  26.666  1.00  0.00     0.000 A 
ATOM     30  C   UNL A   1      32.400  29.728  27.182  1.00  0.00     0.000 A 
ENDBRANCH   8  25
ENDBRANCH   5   8
ENDBRANCH   3   4
ENDBRANCH   2   3
ENDBRANCH   1   2
BRANCH   1  31
ATOM     31  C   UNL A   1      36.769  20.753  24.986  1.00  0.00     0.002 C 
BRANCH  31  32
ATOM     32  C   UNL A   1      37.902  19.728  25.002  1.00  0.00     0.021 C 
BRANCH  32  33
ATOM     33  C   UNL A   1      39.167  20.176  25.724  1.00  0.00     0.116 C 
BRANCH  33  34
ATOM     34  N   UNL A   1      40.183  19.136  25.785  1.00  0.00    -0.352 N 
ATOM     35  C   UNL A   1      41.524  19.240  26.071  1.00  0.00     0.251 C 
ATOM     36  H   UNL A   1      39.863  18.226  25.594  1.00  0.00     0.163 HD
ATOM     37  O   UNL A   1      42.261  18.267  25.930  1.00  0.00    -0.269 OA
BRANCH  35  38
ATOM     38  C   UNL A   1      42.093  20.531  26.517  1.00  0.00     0.039 A 
ATOM     39  C   UNL A   1      42.208  20.834  27.875  1.00  0.00     0.014 A 
ATOM     40  C   UNL A   1      42.518  21.458  25.560  1.00  0.00     0.014 A 
ATOM     41  C   UNL A   1      42.580  22.114  28.268  1.00  0.00     0.010 A 
ATOM     42  C   UNL A   1      42.984  22.717  25.962  1.00  0.00     0.010 A 
ATOM     43  C   UNL A   1      42.974  23.072  27.319  1.00  0.00    -0.014 A 
BRANCH  43  44
ATOM     44  C   UNL A   1      43.380  24.425  27.786  1.00  0.00     0.031 A 
ATOM     45  C   UNL A   1      44.823  24.851  27.774  1.00  0.00     0.074 A 
ATOM     46  C   UNL A   1      42.423  25.306  28.139  1.00  0.00     0.049 A 
ATOM     47  N   UNL A   1      45.338  26.025  28.049  1.00  0.00    -0.248 NA
ATOM     48  C   UNL A   1      45.824  23.835  27.411  1.00  0.00     0.031 C 
ATOM     49  C   UNL A   1      40.989  25.009  28.190  1.00  0.00     0.029 A 
ATOM     50  N   UNL A   1      42.497  26.635  28.476  1.00  0.00    -0.354 N 
ATOM     51  C   UNL A   1      46.711  25.887  27.894  1.00  0.00     0.074 A 
ATOM     52  C   UNL A   1      46.959  24.507  27.542  1.00  0.00     0.031 C 
ATOM     53  C   UNL A   1      40.315  26.138  28.456  1.00  0.00     0.029 A 
ATOM     54  C   UNL A   1      41.269  27.225  28.657  1.00  0.00     0.049 A 
ATOM     55  H   UNL A   1      43.348  27.119  28.580  1.00  0.00     0.167 HD
ATOM     56  C   UNL A   1      47.674  26.832  28.013  1.00  0.00     0.037 A 
ATOM     57  C   UNL A   1      40.943  28.499  28.946  1.00  0.00     0.037 A 
ATOM     58  C   UNL A   1      47.424  28.211  28.345  1.00  0.00     0.049 A 
ATOM     59  C   UNL A   1      42.037  29.514  29.121  1.00  0.00     0.074 A 
ATOM     60  C   UNL A   1      48.336  29.243  28.478  1.00  0.00     0.029 A 
ATOM     61  N   UNL A   1      46.170  28.750  28.589  1.00  0.00    -0.354 N 
ATOM     62  N   UNL A   1      43.328  29.371  28.951  1.00  0.00    -0.248 NA
ATOM     63  C   UNL A   1      41.631  30.863  29.539  1.00  0.00     0.031 C 
ATOM     64  C   UNL A   1      47.640  30.398  28.841  1.00  0.00     0.029 A 
ATOM     65  C   UNL A   1      46.289  30.097  28.891  1.00  0.00     0.049 A 
ATOM     66  H   UNL A   1      45.322  28.251  28.554  1.00  0.00     0.167 HD
ATOM     67  C   UNL A   1      43.887  30.612  29.221  1.00  0.00     0.074 A 
ATOM     68  C   UNL A   1      42.794  31.501  29.554  1.00  0.00     0.031 C 
ATOM     69  C   UNL A   1      45.190  30.975  29.200  1.00  0.00     0.037 A 
BRANCH  56  70
ATOM     70  C   UNL A   1      49.097  26.426  27.769  1.00  0.00     0.064 A 
ATOM     71  C   UNL A   1      49.611  26.316  26.468  1.00  0.00     0.173 A 
ATOM     72  C   UNL A   1      49.984  26.247  28.842  1.00  0.00     0.173 A 
ATOM     73  F   UNL A   1      48.803  26.471  25.409  1.00  0.00    -0.203 F 
ATOM     74  C   UNL A   1      50.957  26.033  26.251  1.00  0.00     0.198 A 
ATOM     75  C   UNL A   1      51.334  25.989  28.621  1.00  0.00     0.198 A 
ATOM     76  F   UNL A   1      49.546  26.353  30.106  1.00  0.00    -0.203 F 
ATOM     77  F   UNL A   1      51.420  25.912  25.000  1.00  0.00    -0.200 F 
ATOM     78  C   UNL A   1      51.819  25.881  27.327  1.00  0.00     0.200 A 
ATOM     79  F   UNL A   1      52.170  25.859  29.661  1.00  0.00    -0.200 F 
ATOM     80  F   UNL A   1      53.120  25.633  27.115  1.00  0.00    -0.200 F 
ENDBRANCH  56  70
BRANCH  57  81
ATOM     81  C   UNL A   1      39.512  28.887  29.060  1.00  0.00     0.064 A 
ATOM     82  C   UNL A   1      38.796  29.321  27.937  1.00  0.00     0.173 A 
ATOM     83  C   UNL A   1      38.828  28.810  30.282  1.00  0.00     0.173 A 
ATOM     84  F   UNL A   1      39.411  29.430  26.750  1.00  0.00    -0.203 F 
ATOM     85  C   UNL A   1      37.450  29.671  28.034  1.00  0.00     0.198 A 
ATOM     86  C   UNL A   1      37.476  29.132  30.371  1.00  0.00     0.198 A 
ATOM     87  F   UNL A   1      39.468  28.398  31.386  1.00  0.00    -0.203 F 
ATOM     88  F   UNL A   1      36.797  30.113  26.951  1.00  0.00    -0.200 F 
ATOM     89  C   UNL A   1      36.790  29.567  29.248  1.00  0.00     0.200 A 
ATOM     90  F   UNL A   1      36.838  29.013  31.544  1.00  0.00    -0.200 F 
ATOM     91  F   UNL A   1      35.492  29.889  29.337  1.00  0.00    -0.200 F 
ENDBRANCH  57  81
BRANCH  69  92
ATOM     92  C   UNL A   1      45.526  32.400  29.522  1.00  0.00     0.064 A 
ATOM     93  C   UNL A   1      45.510  33.393  28.531  1.00  0.00     0.173 A 
ATOM     94  C   UNL A   1      45.756  32.793  30.848  1.00  0.00     0.173 A 
ATOM     95  F   UNL A   1      45.306  33.062  27.248  1.00  0.00    -0.203 F 
ATOM     96  C   UNL A   1      45.713  34.730  28.860  1.00  0.00     0.198 A 
ATOM     97  C   UNL A   1      45.935  34.134  31.176  1.00  0.00     0.198 A 
ATOM     98  F   UNL A   1      45.773  31.879  31.831  1.00  0.00    -0.203 F 
ATOM     99  F   UNL A   1      45.708  35.662  27.896  1.00  0.00    -0.200 F 
ATOM    100  C   UNL A   1      45.911  35.101  30.182  1.00  0.00     0.200 A 
ATOM    101  F   UNL A   1      46.112  34.492  32.455  1.00  0.00    -0.200 F 
ATOM    102  F   UNL A   1      46.080  36.391  30.498  1.00  0.00    -0.200 F 
ENDBRANCH  69  92
ENDBRANCH  43  44
ENDBRANCH  35  38
ENDBRANCH  33  34
ENDBRANCH  32  33
ENDBRANCH  31  32
ENDBRANCH   1  31
TORSDOF 17
ENDMDL
MODEL 3
REMARK VINA RESULT:     -13.1      2.065      4.036
REMARK SMILES Nn1c(S[C@@H](C(=O)NCCCCCCNC(=O)c2ccc(-c3c4nc(c(-c5c(F)c(F)c(F)c(F)c5F)c5ccc([nH]5)c(-c5c(F)c(F)c(F)c(F)c5F)c5nc(c(-c6c(F)c(F)c(F)c(F)c6F)c6ccc3[nH]6)C=C5)C=C4)cc2)c2ccccc2)nc2ccc(Br)cc2c1=O
REMARK SMILES IDX 11 1 10 2 9 3 8 4 6 5 7 6 5 8 4 9 3 10 2 11 95 12 87 13
REMARK SMILES IDX 94 14 96 15 88 16 93 17 89 18 91 19 90 20 92 21 1 22 81 25
REMARK SMILES IDX 82 26 86 27 83 28 85 29 84 30 12 31 13 32 14 33 15 34 16 35
REMARK SMILES IDX 17 37 18 38 19 39 80 40 20 41 79 42 21 43 22 44 23 45 73 46
REMARK SMILES IDX 24 47 78 48 72 49 74 50 25 51 77 52 71 53 70 54 26 56 58 57
REMARK SMILES IDX 38 58 57 59 39 60 42 61 56 62 75 63 40 64 41 65 55 67 76 68
REMARK SMILES IDX 43 69 27 70 28 71 36 72 29 73 30 74 34 75 37 76 31 77 32 78
REMARK SMILES IDX 35 79 33 80 59 81 60 82 68 83 61 84 62 85 66 86 69 87 63 88
REMARK SMILES IDX 64 89 67 90 65 91 44 92 45 93 53 94 46 95 47 96 51 97 54 98
REMARK SMILES IDX 48 99 49 100 52 101 50 102
REMARK H PARENT 8 7 1 23 1 24 15 36 74 55 42 66
REMARK Flexibility Score: inf
ROOT
ATOM      1  C   UNL A   1      31.454  29.136  26.740  1.00  0.00     0.002 C 
ENDROOT
BRANCH   1   2
ATOM      2  C   UNL A   1      32.613  28.205  27.123  1.00  0.00     0.021 C 
BRANCH   2   3
ATOM      3  C   UNL A   1      32.708  26.911  26.308  1.00  0.00     0.116 C 
BRANCH   3   4
ATOM      4  N   UNL A   1      31.897  25.858  26.883  1.00  0.00    -0.355 N 
ATOM      5  C   UNL A   1      31.540  24.618  26.424  1.00  0.00     0.238 C 
ATOM      6  O   UNL A   1      30.795  24.005  27.197  1.00  0.00    -0.273 OA
ATOM      7  H   UNL A   1      31.534  26.073  27.772  1.00  0.00     0.163 HD
BRANCH   5   8
ATOM      8  C   UNL A   1      32.115  24.037  25.094  1.00  0.00     0.174 C 
BRANCH   8   9
ATOM      9  S   UNL A   1      30.983  24.362  23.710  1.00  0.00    -0.068 SA
BRANCH   9  10
ATOM     10  C   UNL A   1      30.846  26.058  23.318  1.00  0.00     0.191 A 
ATOM     11  N   UNL A   1      31.884  26.906  22.939  1.00  0.00    -0.202 N 
ATOM     12  C   UNL A   1      31.669  28.254  22.635  1.00  0.00     0.280 A 
ATOM     13  N   UNL A   1      29.616  26.471  23.400  1.00  0.00    -0.222 NA
ATOM     14  C   UNL A   1      30.286  28.731  22.751  1.00  0.00     0.069 A 
ATOM     15  O   UNL A   1      32.561  29.031  22.295  1.00  0.00    -0.267 OA
ATOM     16  C   UNL A   1      29.317  27.808  23.130  1.00  0.00     0.079 A 
ATOM     17  C   UNL A   1      29.965  30.070  22.505  1.00  0.00     0.031 A 
ATOM     18  C   UNL A   1      27.995  28.238  23.260  1.00  0.00     0.030 A 
ATOM     19  C   UNL A   1      28.644  30.482  22.648  1.00  0.00     0.018 A 
ATOM     20  C   UNL A   1      27.656  29.574  23.022  1.00  0.00     0.018 A 
ATOM     21  Br  UNL A   1      28.190  32.291  22.342  1.00  0.00    -0.051 Br
BRANCH  11  22
ATOM     22  N   UNL A   1      33.217  26.491  22.870  1.00  0.00    -0.334 N 
ATOM     23  H   UNL A   1      33.570  25.854  23.532  1.00  0.00     0.178 HD
ATOM     24  H   UNL A   1      33.803  26.837  22.158  1.00  0.00     0.178 HD
ENDBRANCH  11  22
ENDBRANCH   9  10
ENDBRANCH   8   9
BRANCH   8  25
ATOM     25  C   UNL A   1      32.741  22.628  25.123  1.00  0.00    -0.025 A 
ATOM     26  C   UNL A   1      34.122  22.429  25.326  1.00  0.00     0.005 A 
ATOM     27  C   UNL A   1      31.949  21.474  24.972  1.00  0.00     0.005 A 
ATOM     28  C   UNL A   1      34.698  21.157  25.243  1.00  0.00     0.000 A 
ATOM     29  C   UNL A   1      32.524  20.201  24.885  1.00  0.00     0.000 A 
ATOM     30  C   UNL A   1      33.900  20.045  24.998  1.00  0.00     0.000 A 
ENDBRANCH   8  25
ENDBRANCH   5   8
ENDBRANCH   3   4
ENDBRANCH   2   3
ENDBRANCH   1   2
BRANCH   1  31
ATOM     31  C   UNL A   1      31.820  30.333  25.858  1.00  0.00     0.002 C 
BRANCH  31  32
ATOM     32  C   UNL A   1      31.511  31.705  26.455  1.00  0.00     0.021 C 
BRANCH  32  33
ATOM     33  C   UNL A   1      32.659  32.349  27.222  1.00  0.00     0.116 C 
BRANCH  33  34
ATOM     34  N   UNL A   1      32.411  33.745  27.549  1.00  0.00    -0.352 N 
ATOM     35  C   UNL A   1      33.051  34.558  28.454  1.00  0.00     0.251 C 
ATOM     36  H   UNL A   1      31.675  34.168  27.051  1.00  0.00     0.163 HD
ATOM     37  O   UNL A   1      32.604  35.675  28.703  1.00  0.00    -0.269 OA
BRANCH  35  38
ATOM     38  C   UNL A   1      34.263  34.081  29.157  1.00  0.00     0.039 A 
ATOM     39  C   UNL A   1      35.537  34.440  28.714  1.00  0.00     0.014 A 
ATOM     40  C   UNL A   1      34.123  33.258  30.280  1.00  0.00     0.014 A 
ATOM     41  C   UNL A   1      36.658  33.843  29.279  1.00  0.00     0.010 A 
ATOM     42  C   UNL A   1      35.259  32.733  30.909  1.00  0.00     0.010 A 
ATOM     43  C   UNL A   1      36.535  32.983  30.384  1.00  0.00    -0.014 A 
BRANCH  43  44
ATOM     44  C   UNL A   1      37.764  32.379  30.967  1.00  0.00     0.031 A 
ATOM     45  C   UNL A   1      38.212  32.722  32.362  1.00  0.00     0.074 A 
ATOM     46  C   UNL A   1      38.428  31.443  30.259  1.00  0.00     0.049 A 
ATOM     47  N   UNL A   1      39.196  32.210  33.060  1.00  0.00    -0.248 NA
ATOM     48  C   UNL A   1      37.465  33.773  33.072  1.00  0.00     0.031 C 
ATOM     49  C   UNL A   1      38.089  31.027  28.897  1.00  0.00     0.029 A 
ATOM     50  N   UNL A   1      39.491  30.643  30.594  1.00  0.00    -0.354 N 
ATOM     51  C   UNL A   1      39.187  32.875  34.280  1.00  0.00     0.074 A 
ATOM     52  C   UNL A   1      38.128  33.856  34.217  1.00  0.00     0.031 C 
ATOM     53  C   UNL A   1      38.871  29.997  28.544  1.00  0.00     0.029 A 
ATOM     54  C   UNL A   1      39.808  29.718  29.628  1.00  0.00     0.049 A 
ATOM     55  H   UNL A   1      39.981  30.723  31.445  1.00  0.00     0.167 HD
ATOM     56  C   UNL A   1      39.977  32.668  35.361  1.00  0.00     0.037 A 
ATOM     57  C   UNL A   1      40.744  28.750  29.614  1.00  0.00     0.037 A 
ATOM     58  C   UNL A   1      41.020  31.677  35.428  1.00  0.00     0.049 A 
ATOM     59  C   UNL A   1      41.639  28.579  30.810  1.00  0.00     0.074 A 
ATOM     60  C   UNL A   1      41.865  31.389  36.486  1.00  0.00     0.029 A 
ATOM     61  N   UNL A   1      41.354  30.809  34.400  1.00  0.00    -0.354 N 
ATOM     62  N   UNL A   1      41.603  29.202  31.961  1.00  0.00    -0.248 NA
ATOM     63  C   UNL A   1      42.711  27.579  30.700  1.00  0.00     0.031 C 
ATOM     64  C   UNL A   1      42.737  30.375  36.084  1.00  0.00     0.029 A 
ATOM     65  C   UNL A   1      42.406  29.999  34.793  1.00  0.00     0.049 A 
ATOM     66  H   UNL A   1      40.911  30.775  33.522  1.00  0.00     0.167 HD
ATOM     67  C   UNL A   1      42.631  28.659  32.720  1.00  0.00     0.074 A 
ATOM     68  C   UNL A   1      43.264  27.645  31.903  1.00  0.00     0.031 C 
ATOM     69  C   UNL A   1      43.015  28.980  33.977  1.00  0.00     0.037 A 
BRANCH  56  70
ATOM     70  C   UNL A   1      39.746  33.515  36.577  1.00  0.00     0.064 A 
ATOM     71  C   UNL A   1      40.333  34.783  36.704  1.00  0.00     0.173 A 
ATOM     72  C   UNL A   1      38.851  33.102  37.577  1.00  0.00     0.173 A 
ATOM     73  F   UNL A   1      41.201  35.220  35.780  1.00  0.00    -0.203 F 
ATOM     74  C   UNL A   1      40.037  35.602  37.791  1.00  0.00     0.198 A 
ATOM     75  C   UNL A   1      38.539  33.935  38.648  1.00  0.00     0.198 A 
ATOM     76  F   UNL A   1      38.254  31.902  37.497  1.00  0.00    -0.203 F 
ATOM     77  F   UNL A   1      40.626  36.801  37.901  1.00  0.00    -0.200 F 
ATOM     78  C   UNL A   1      39.133  35.183  38.755  1.00  0.00     0.200 A 
ATOM     79  F   UNL A   1      37.653  33.535  39.570  1.00  0.00    -0.200 F 
ATOM     80  F   UNL A   1      38.833  35.984  39.787  1.00  0.00    -0.200 F 
ENDBRANCH  56  70
BRANCH  57  81
ATOM     81  C   UNL A   1      40.861  27.852  28.435  1.00  0.00     0.064 A 
ATOM     82  C   UNL A   1      41.647  28.216  27.333  1.00  0.00     0.173 A 
ATOM     83  C   UNL A   1      40.213  26.610  28.394  1.00  0.00     0.173 A 
ATOM     84  F   UNL A   1      42.271  29.403  27.317  1.00  0.00    -0.203 F 
ATOM     85  C   UNL A   1      41.774  27.371  26.232  1.00  0.00     0.198 A 
ATOM     86  C   UNL A   1      40.365  25.754  27.305  1.00  0.00     0.198 A 
ATOM     87  F   UNL A   1      39.451  26.214  29.425  1.00  0.00    -0.203 F 
ATOM     88  F   UNL A   1      42.507  27.757  25.178  1.00  0.00    -0.200 F 
ATOM     89  C   UNL A   1      41.141  26.139  26.223  1.00  0.00     0.200 A 
ATOM     90  F   UNL A   1      39.764  24.556  27.309  1.00  0.00    -0.200 F 
ATOM     91  F   UNL A   1      41.276  25.321  25.170  1.00  0.00    -0.200 F 
ENDBRANCH  57  81
BRANCH  69  92
ATOM     92  C   UNL A   1      44.159  28.220  34.575  1.00  0.00     0.064 A 
ATOM     93  C   UNL A   1      45.471  28.712  34.515  1.00  0.00     0.173 A 
ATOM     94  C   UNL A   1      43.925  27.048  35.310  1.00  0.00     0.173 A 
ATOM     95  F   UNL A   1      45.743  29.822  33.814  1.00  0.00    -0.203 F 
ATOM     96  C   UNL A   1      46.509  28.055  35.169  1.00  0.00     0.198 A 
ATOM     97  C   UNL A   1      44.962  26.407  35.983  1.00  0.00     0.198 A 
ATOM     98  F   UNL A   1      42.685  26.544  35.403  1.00  0.00    -0.203 F 
ATOM     99  F   UNL A   1      47.759  28.533  35.086  1.00  0.00    -0.200 F 
ATOM    100  C   UNL A   1      46.252  26.913  35.913  1.00  0.00     0.200 A 
ATOM    101  F   UNL A   1      44.710  25.312  36.713  1.00  0.00    -0.200 F 
ATOM    102  F   UNL A   1      47.248  26.298  36.564  1.00  0.00    -0.200 F 
ENDBRANCH  69  92
ENDBRANCH  43  44
ENDBRANCH  35  38
ENDBRANCH  33  34
ENDBRANCH  32  33
ENDBRANCH  31  32
ENDBRANCH   1  31
TORSDOF 17
ENDMDL
