MODEL 1
REMARK VINA RESULT:     -13.1      0.000      0.000
REMARK SMILES O=C(NCCCCCCNC(=O)[C@H]1CC[C@@H]2CCCC[C@H]2N1C(=O)N1CCSCC1)c1ccc(-c2c3nc(c(-c4c(F)c(F)c(F)c(F)c4F)c4ccc([nH]4)c(-c4c(F)c(F)c(F)c(F)c4F)c4nc(c(-c5c(F)c(F)c(F)c(F)c5F)c5ccc2[nH]5)C=C4)C=C3)cc1
REMARK SMILES IDX 6 1 5 2 4 3 3 4 1 5 2 6 31 8 32 9 93 10 33 11 92 12 34 13
REMARK SMILES IDX 35 14 36 15 86 16 37 17 91 18 85 19 87 20 38 21 90 22 84 23
REMARK SMILES IDX 83 24 39 26 71 27 51 28 70 29 52 30 55 31 69 32 88 33 53 34
REMARK SMILES IDX 54 35 68 37 89 38 56 39 40 40 41 41 49 42 42 43 43 44 47 45
REMARK SMILES IDX 50 46 44 47 45 48 48 49 46 50 72 51 73 52 81 53 74 54 75 55
REMARK SMILES IDX 79 56 82 57 76 58 77 59 80 60 78 61 57 62 58 63 66 64 59 65
REMARK SMILES IDX 60 66 64 67 67 68 61 69 62 70 65 71 63 72 7 73 8 74 9 75
REMARK SMILES IDX 10 76 11 77 12 79 13 80 14 81 22 82 15 83 21 84 16 85 20 86
REMARK SMILES IDX 17 87 19 88 18 89 23 90 24 91 25 92 26 93 30 94 27 95 29 96
REMARK SMILES IDX 28 97
REMARK H PARENT 3 7 87 25 55 36 10 78
REMARK Flexibility Score: inf
ROOT
ATOM      1  C   UNL A   1      31.536  30.769  26.105  1.00  0.00     0.002 C 
ENDROOT
BRANCH   1   2
ATOM      2  C   UNL A   1      31.376  32.231  26.513  1.00  0.00     0.021 C 
BRANCH   2   3
ATOM      3  C   UNL A   1      32.563  32.828  27.250  1.00  0.00     0.116 C 
BRANCH   3   4
ATOM      4  N   UNL A   1      32.339  34.202  27.668  1.00  0.00    -0.352 N 
ATOM      5  O   UNL A   1      32.582  36.032  28.973  1.00  0.00    -0.269 OA
ATOM      6  C   UNL A   1      32.991  34.923  28.642  1.00  0.00     0.251 C 
ATOM      7  H   UNL A   1      31.624  34.680  27.192  1.00  0.00     0.163 HD
BRANCH   6   8
ATOM      8  C   UNL A   1      34.177  34.345  29.312  1.00  0.00     0.039 A 
ATOM      9  C   UNL A   1      35.459  34.590  28.818  1.00  0.00     0.014 A 
ATOM     10  C   UNL A   1      34.007  33.536  30.441  1.00  0.00     0.014 A 
ATOM     11  C   UNL A   1      36.544  33.902  29.344  1.00  0.00     0.010 A 
ATOM     12  C   UNL A   1      35.116  32.926  31.037  1.00  0.00     0.010 A 
ATOM     13  C   UNL A   1      36.391  33.079  30.473  1.00  0.00    -0.014 A 
BRANCH  13  14
ATOM     14  C   UNL A   1      37.606  32.468  31.073  1.00  0.00     0.031 A 
ATOM     15  C   UNL A   1      38.075  32.829  32.455  1.00  0.00     0.074 A 
ATOM     16  C   UNL A   1      38.250  31.517  30.367  1.00  0.00     0.049 A 
ATOM     17  N   UNL A   1      39.064  32.317  33.146  1.00  0.00    -0.248 NA
ATOM     18  C   UNL A   1      37.352  33.902  33.151  1.00  0.00     0.031 C 
ATOM     19  C   UNL A   1      37.903  31.107  29.004  1.00  0.00     0.029 A 
ATOM     20  N   UNL A   1      39.298  30.698  30.702  1.00  0.00    -0.354 N 
ATOM     21  C   UNL A   1      39.090  33.010  34.350  1.00  0.00     0.074 A 
ATOM     22  C   UNL A   1      38.034  33.999  34.286  1.00  0.00     0.031 C 
ATOM     23  C   UNL A   1      38.676  30.074  28.644  1.00  0.00     0.029 A 
ATOM     24  C   UNL A   1      39.613  29.789  29.723  1.00  0.00     0.049 A 
ATOM     25  H   UNL A   1      39.776  30.757  31.560  1.00  0.00     0.167 HD
ATOM     26  C   UNL A   1      39.913  32.828  35.411  1.00  0.00     0.037 A 
ATOM     27  C   UNL A   1      40.559  28.832  29.691  1.00  0.00     0.037 A 
ATOM     28  C   UNL A   1      40.958  31.837  35.471  1.00  0.00     0.049 A 
ATOM     29  C   UNL A   1      41.445  28.647  30.887  1.00  0.00     0.074 A 
ATOM     30  C   UNL A   1      41.839  31.570  36.505  1.00  0.00     0.029 A 
ATOM     31  N   UNL A   1      41.262  30.945  34.452  1.00  0.00    -0.354 N 
ATOM     32  N   UNL A   1      41.440  29.296  32.026  1.00  0.00    -0.248 NA
ATOM     33  C   UNL A   1      42.468  27.598  30.794  1.00  0.00     0.031 C 
ATOM     34  C   UNL A   1      42.697  30.542  36.099  1.00  0.00     0.029 A 
ATOM     35  C   UNL A   1      42.324  30.137  34.829  1.00  0.00     0.049 A 
ATOM     36  H   UNL A   1      40.793  30.895  33.588  1.00  0.00     0.167 HD
ATOM     37  C   UNL A   1      42.457  28.737  32.784  1.00  0.00     0.074 A 
ATOM     38  C   UNL A   1      43.031  27.669  31.991  1.00  0.00     0.031 C 
ATOM     39  C   UNL A   1      42.888  29.088  34.020  1.00  0.00     0.037 A 
BRANCH  26  40
ATOM     40  C   UNL A   1      39.723  33.721  36.604  1.00  0.00     0.064 A 
ATOM     41  C   UNL A   1      40.324  34.987  36.675  1.00  0.00     0.173 A 
ATOM     42  C   UNL A   1      38.876  33.339  37.655  1.00  0.00     0.173 A 
ATOM     43  F   UNL A   1      41.151  35.396  35.700  1.00  0.00    -0.203 F 
ATOM     44  C   UNL A   1      40.096  35.830  37.759  1.00  0.00     0.198 A 
ATOM     45  C   UNL A   1      38.631  34.194  38.727  1.00  0.00     0.198 A 
ATOM     46  F   UNL A   1      38.271  32.142  37.634  1.00  0.00    -0.203 F 
ATOM     47  F   UNL A   1      40.706  37.021  37.820  1.00  0.00    -0.200 F 
ATOM     48  C   UNL A   1      39.244  35.436  38.780  1.00  0.00     0.200 A 
ATOM     49  F   UNL A   1      37.797  33.817  39.706  1.00  0.00    -0.200 F 
ATOM     50  F   UNL A   1      39.015  36.255  39.818  1.00  0.00    -0.200 F 
ENDBRANCH  26  40
BRANCH  27  51
ATOM     51  C   UNL A   1      40.712  27.989  28.479  1.00  0.00     0.064 A 
ATOM     52  C   UNL A   1      40.071  26.748  28.371  1.00  0.00     0.173 A 
ATOM     53  C   UNL A   1      41.492  28.417  27.394  1.00  0.00     0.173 A 
ATOM     54  F   UNL A   1      39.326  26.289  29.388  1.00  0.00    -0.203 F 
ATOM     55  C   UNL A   1      40.218  25.959  27.233  1.00  0.00     0.198 A 
ATOM     56  C   UNL A   1      41.614  27.643  26.243  1.00  0.00     0.198 A 
ATOM     57  F   UNL A   1      42.119  29.602  27.445  1.00  0.00    -0.203 F 
ATOM     58  F   UNL A   1      39.629  24.757  27.172  1.00  0.00    -0.200 F 
ATOM     59  C   UNL A   1      40.983  26.410  26.166  1.00  0.00     0.200 A 
ATOM     60  F   UNL A   1      42.336  28.093  25.209  1.00  0.00    -0.200 F 
ATOM     61  F   UNL A   1      41.117  25.656  25.067  1.00  0.00    -0.200 F 
ENDBRANCH  27  51
BRANCH  39  62
ATOM     62  C   UNL A   1      44.034  28.298  34.582  1.00  0.00     0.064 A 
ATOM     63  C   UNL A   1      43.820  27.119  35.312  1.00  0.00     0.173 A 
ATOM     64  C   UNL A   1      45.356  28.724  34.391  1.00  0.00     0.173 A 
ATOM     65  F   UNL A   1      42.572  26.682  35.536  1.00  0.00    -0.203 F 
ATOM     66  C   UNL A   1      44.887  26.415  35.861  1.00  0.00     0.198 A 
ATOM     67  C   UNL A   1      46.422  28.002  34.918  1.00  0.00     0.198 A 
ATOM     68  F   UNL A   1      45.613  29.843  33.697  1.00  0.00    -0.203 F 
ATOM     69  F   UNL A   1      44.655  25.324  36.605  1.00  0.00    -0.200 F 
ATOM     70  C   UNL A   1      46.187  26.854  35.661  1.00  0.00     0.200 A 
ATOM     71  F   UNL A   1      47.679  28.423  34.717  1.00  0.00    -0.200 F 
ATOM     72  F   UNL A   1      47.214  26.179  36.196  1.00  0.00    -0.200 F 
ENDBRANCH  39  62
ENDBRANCH  13  14
ENDBRANCH   6   8
ENDBRANCH   3   4
ENDBRANCH   2   3
ENDBRANCH   1   2
BRANCH   1  73
ATOM     73  C   UNL A   1      32.224  29.855  27.125  1.00  0.00     0.002 C 
BRANCH  73  74
ATOM     74  C   UNL A   1      31.486  28.564  27.502  1.00  0.00     0.021 C 
BRANCH  74  75
ATOM     75  C   UNL A   1      32.173  27.263  27.091  1.00  0.00     0.116 C 
BRANCH  75  76
ATOM     76  N   UNL A   1      31.248  26.166  26.879  1.00  0.00    -0.354 N 
ATOM     77  C   UNL A   1      31.502  24.857  26.547  1.00  0.00     0.242 C 
ATOM     78  H   UNL A   1      30.296  26.393  26.990  1.00  0.00     0.163 HD
ATOM     79  O   UNL A   1      30.591  24.044  26.704  1.00  0.00    -0.273 OA
BRANCH  77  80
ATOM     80  C   UNL A   1      32.944  24.473  26.136  1.00  0.00     0.176 C 
ATOM     81  C   UNL A   1      33.230  23.331  27.137  1.00  0.00     0.036 C 
ATOM     82  N   UNL A   1      33.346  24.080  24.756  1.00  0.00    -0.309 N 
ATOM     83  C   UNL A   1      34.655  22.835  27.077  1.00  0.00     0.008 C 
ATOM     84  C   UNL A   1      34.769  23.589  24.666  1.00  0.00     0.091 C 
ATOM     85  C   UNL A   1      34.996  22.412  25.652  1.00  0.00     0.012 C 
ATOM     86  C   UNL A   1      35.315  23.208  23.272  1.00  0.00     0.025 C 
ATOM     87  C   UNL A   1      36.431  21.870  25.640  1.00  0.00     0.006 C 
ATOM     88  C   UNL A   1      36.748  22.677  23.307  1.00  0.00     0.002 C 
ATOM     89  C   UNL A   1      36.883  21.489  24.241  1.00  0.00     0.000 C 
BRANCH  82  90
ATOM     90  C   UNL A   1      32.712  24.580  23.613  1.00  0.00     0.321 C 
ATOM     91  O   UNL A   1      32.166  23.894  22.751  1.00  0.00    -0.248 OA
ATOM     92  N   UNL A   1      32.614  25.956  23.507  1.00  0.00    -0.323 N 
ATOM     93  C   UNL A   1      31.229  26.440  23.438  1.00  0.00     0.132 C 
ATOM     94  C   UNL A   1      33.529  26.596  22.564  1.00  0.00     0.132 C 
ATOM     95  C   UNL A   1      31.059  27.938  23.675  1.00  0.00     0.091 C 
ATOM     96  C   UNL A   1      33.604  28.118  22.694  1.00  0.00     0.091 C 
ATOM     97  S   UNL A   1      31.990  28.922  22.455  1.00  0.00    -0.158 SA
ENDBRANCH  82  90
ENDBRANCH  77  80
ENDBRANCH  75  76
ENDBRANCH  74  75
ENDBRANCH  73  74
ENDBRANCH   1  73
TORSDOF 14
ENDMDL
MODEL 2
REMARK VINA RESULT:     -13.0      0.050      1.559
REMARK SMILES O=C(NCCCCCCNC(=O)[C@H]1CC[C@@H]2CCCC[C@H]2N1C(=O)N1CCSCC1)c1ccc(-c2c3nc(c(-c4c(F)c(F)c(F)c(F)c4F)c4ccc([nH]4)c(-c4c(F)c(F)c(F)c(F)c4F)c4nc(c(-c5c(F)c(F)c(F)c(F)c5F)c5ccc2[nH]5)C=C4)C=C3)cc1
REMARK SMILES IDX 6 1 5 2 4 3 3 4 1 5 2 6 31 8 32 9 93 10 33 11 92 12 34 13
REMARK SMILES IDX 35 14 36 15 86 16 37 17 91 18 85 19 87 20 38 21 90 22 84 23
REMARK SMILES IDX 83 24 39 26 71 27 51 28 70 29 52 30 55 31 69 32 88 33 53 34
REMARK SMILES IDX 54 35 68 37 89 38 56 39 40 40 41 41 49 42 42 43 43 44 47 45
REMARK SMILES IDX 50 46 44 47 45 48 48 49 46 50 72 51 73 52 81 53 74 54 75 55
REMARK SMILES IDX 79 56 82 57 76 58 77 59 80 60 78 61 57 62 58 63 66 64 59 65
REMARK SMILES IDX 60 66 64 67 67 68 61 69 62 70 65 71 63 72 7 73 8 74 9 75
REMARK SMILES IDX 10 76 11 77 12 79 13 80 14 81 22 82 15 83 21 84 16 85 20 86
REMARK SMILES IDX 17 87 19 88 18 89 23 90 24 91 25 92 26 93 30 94 27 95 29 96
REMARK SMILES IDX 28 97
REMARK H PARENT 3 7 87 25 55 36 10 78
REMARK Flexibility Score: inf
ROOT
ATOM      1  C   UNL A   1      31.562  30.731  26.163  1.00  0.00     0.002 C 
ENDROOT
BRANCH   1   2
ATOM      2  C   UNL A   1      31.406  32.206  26.526  1.00  0.00     0.021 C 
BRANCH   2   3
ATOM      3  C   UNL A   1      32.605  32.830  27.219  1.00  0.00     0.116 C 
BRANCH   3   4
ATOM      4  N   UNL A   1      32.361  34.194  27.656  1.00  0.00    -0.352 N 
ATOM      5  O   UNL A   1      32.572  36.007  28.991  1.00  0.00    -0.269 OA
ATOM      6  C   UNL A   1      32.997  34.908  28.646  1.00  0.00     0.251 C 
ATOM      7  H   UNL A   1      31.643  34.671  27.182  1.00  0.00     0.163 HD
BRANCH   6   8
ATOM      8  C   UNL A   1      34.186  34.334  29.316  1.00  0.00     0.039 A 
ATOM      9  C   UNL A   1      35.464  34.566  28.808  1.00  0.00     0.014 A 
ATOM     10  C   UNL A   1      34.020  33.543  30.458  1.00  0.00     0.014 A 
ATOM     11  C   UNL A   1      36.550  33.881  29.336  1.00  0.00     0.010 A 
ATOM     12  C   UNL A   1      35.131  32.937  31.055  1.00  0.00     0.010 A 
ATOM     13  C   UNL A   1      36.402  33.075  30.479  1.00  0.00    -0.014 A 
BRANCH  13  14
ATOM     14  C   UNL A   1      37.619  32.468  31.078  1.00  0.00     0.031 A 
ATOM     15  C   UNL A   1      38.085  32.827  32.462  1.00  0.00     0.074 A 
ATOM     16  C   UNL A   1      38.267  31.520  30.371  1.00  0.00     0.049 A 
ATOM     17  N   UNL A   1      39.075  32.317  33.153  1.00  0.00    -0.248 NA
ATOM     18  C   UNL A   1      37.357  33.896  33.160  1.00  0.00     0.031 C 
ATOM     19  C   UNL A   1      37.924  31.113  29.007  1.00  0.00     0.029 A 
ATOM     20  N   UNL A   1      39.318  30.705  30.705  1.00  0.00    -0.354 N 
ATOM     21  C   UNL A   1      39.096  33.007  34.358  1.00  0.00     0.074 A 
ATOM     22  C   UNL A   1      38.037  33.993  34.295  1.00  0.00     0.031 C 
ATOM     23  C   UNL A   1      38.700  30.084  28.645  1.00  0.00     0.029 A 
ATOM     24  C   UNL A   1      39.638  29.800  29.724  1.00  0.00     0.049 A 
ATOM     25  H   UNL A   1      39.795  30.764  31.564  1.00  0.00     0.167 HD
ATOM     26  C   UNL A   1      39.919  32.825  35.420  1.00  0.00     0.037 A 
ATOM     27  C   UNL A   1      40.587  28.846  29.691  1.00  0.00     0.037 A 
ATOM     28  C   UNL A   1      40.968  31.838  35.479  1.00  0.00     0.049 A 
ATOM     29  C   UNL A   1      41.472  28.662  30.888  1.00  0.00     0.074 A 
ATOM     30  C   UNL A   1      41.849  31.573  36.513  1.00  0.00     0.029 A 
ATOM     31  N   UNL A   1      41.276  30.950  34.458  1.00  0.00    -0.354 N 
ATOM     32  N   UNL A   1      41.464  29.308  32.028  1.00  0.00    -0.248 NA
ATOM     33  C   UNL A   1      42.500  27.617  30.793  1.00  0.00     0.031 C 
ATOM     34  C   UNL A   1      42.712  30.549  36.106  1.00  0.00     0.029 A 
ATOM     35  C   UNL A   1      42.341  30.145  34.834  1.00  0.00     0.049 A 
ATOM     36  H   UNL A   1      40.808  30.900  33.593  1.00  0.00     0.167 HD
ATOM     37  C   UNL A   1      42.482  28.751  32.786  1.00  0.00     0.074 A 
ATOM     38  C   UNL A   1      43.061  27.687  31.991  1.00  0.00     0.031 C 
ATOM     39  C   UNL A   1      42.910  29.100  34.024  1.00  0.00     0.037 A 
BRANCH  26  40
ATOM     40  C   UNL A   1      39.724  33.715  36.615  1.00  0.00     0.064 A 
ATOM     41  C   UNL A   1      40.317  34.984  36.688  1.00  0.00     0.173 A 
ATOM     42  C   UNL A   1      38.880  33.325  37.666  1.00  0.00     0.173 A 
ATOM     43  F   UNL A   1      41.140  35.401  35.713  1.00  0.00    -0.203 F 
ATOM     44  C   UNL A   1      40.085  35.824  37.775  1.00  0.00     0.198 A 
ATOM     45  C   UNL A   1      38.631  34.176  38.740  1.00  0.00     0.198 A 
ATOM     46  F   UNL A   1      38.283  32.124  37.643  1.00  0.00    -0.203 F 
ATOM     47  F   UNL A   1      40.687  37.019  37.837  1.00  0.00    -0.200 F 
ATOM     48  C   UNL A   1      39.235  35.422  38.795  1.00  0.00     0.200 A 
ATOM     49  F   UNL A   1      37.800  33.792  39.719  1.00  0.00    -0.200 F 
ATOM     50  F   UNL A   1      39.002  36.237  39.834  1.00  0.00    -0.200 F 
ENDBRANCH  26  40
BRANCH  27  51
ATOM     51  C   UNL A   1      40.745  28.007  28.477  1.00  0.00     0.064 A 
ATOM     52  C   UNL A   1      41.539  28.427  27.402  1.00  0.00     0.173 A 
ATOM     53  C   UNL A   1      40.115  26.757  28.375  1.00  0.00     0.173 A 
ATOM     54  F   UNL A   1      42.150  29.620  27.446  1.00  0.00    -0.203 F 
ATOM     55  C   UNL A   1      41.683  27.636  26.264  1.00  0.00     0.198 A 
ATOM     56  C   UNL A   1      40.284  25.954  27.251  1.00  0.00     0.198 A 
ATOM     57  F   UNL A   1      39.351  26.307  29.381  1.00  0.00    -0.203 F 
ATOM     58  F   UNL A   1      42.413  28.080  25.231  1.00  0.00    -0.200 F 
ATOM     59  C   UNL A   1      41.062  26.398  26.192  1.00  0.00     0.200 A 
ATOM     60  F   UNL A   1      39.700  24.750  27.196  1.00  0.00    -0.200 F 
ATOM     61  F   UNL A   1      41.208  25.634  25.101  1.00  0.00    -0.200 F 
ENDBRANCH  27  51
BRANCH  39  62
ATOM     62  C   UNL A   1      44.059  28.314  34.584  1.00  0.00     0.064 A 
ATOM     63  C   UNL A   1      45.388  28.715  34.376  1.00  0.00     0.173 A 
ATOM     64  C   UNL A   1      43.831  27.151  35.332  1.00  0.00     0.173 A 
ATOM     65  F   UNL A   1      45.657  29.811  33.651  1.00  0.00    -0.203 F 
ATOM     66  C   UNL A   1      46.447  27.958  34.868  1.00  0.00     0.198 A 
ATOM     67  C   UNL A   1      44.892  26.412  35.846  1.00  0.00     0.198 A 
ATOM     68  F   UNL A   1      42.579  26.729  35.562  1.00  0.00    -0.203 F 
ATOM     69  F   UNL A   1      47.709  28.327  34.606  1.00  0.00    -0.200 F 
ATOM     70  C   UNL A   1      46.199  26.810  35.605  1.00  0.00     0.200 A 
ATOM     71  F   UNL A   1      44.651  25.307  36.566  1.00  0.00    -0.200 F 
ATOM     72  F   UNL A   1      47.221  26.079  36.072  1.00  0.00    -0.200 F 
ENDBRANCH  39  62
ENDBRANCH  13  14
ENDBRANCH   6   8
ENDBRANCH   3   4
ENDBRANCH   2   3
ENDBRANCH   1   2
BRANCH   1  73
ATOM     73  C   UNL A   1      32.210  29.839  27.228  1.00  0.00     0.002 C 
BRANCH  73  74
ATOM     74  C   UNL A   1      31.499  28.518  27.546  1.00  0.00     0.021 C 
BRANCH  74  75
ATOM     75  C   UNL A   1      32.168  27.257  27.003  1.00  0.00     0.116 C 
BRANCH  75  76
ATOM     76  N   UNL A   1      31.254  26.140  26.855  1.00  0.00    -0.354 N 
ATOM     77  C   UNL A   1      31.520  24.821  26.575  1.00  0.00     0.242 C 
ATOM     78  H   UNL A   1      30.301  26.359  26.972  1.00  0.00     0.163 HD
ATOM     79  O   UNL A   1      30.623  24.004  26.783  1.00  0.00    -0.273 OA
BRANCH  77  80
ATOM     80  C   UNL A   1      32.960  24.438  26.156  1.00  0.00     0.176 C 
ATOM     81  C   UNL A   1      33.251  23.292  27.151  1.00  0.00     0.036 C 
ATOM     82  N   UNL A   1      33.356  24.051  24.772  1.00  0.00    -0.309 N 
ATOM     83  C   UNL A   1      34.675  22.796  27.083  1.00  0.00     0.008 C 
ATOM     84  C   UNL A   1      34.778  23.559  24.675  1.00  0.00     0.091 C 
ATOM     85  C   UNL A   1      35.010  22.379  25.655  1.00  0.00     0.012 C 
ATOM     86  C   UNL A   1      35.319  23.184  23.277  1.00  0.00     0.025 C 
ATOM     87  C   UNL A   1      36.444  21.835  25.634  1.00  0.00     0.006 C 
ATOM     88  C   UNL A   1      36.752  22.653  23.303  1.00  0.00     0.002 C 
ATOM     89  C   UNL A   1      36.889  21.461  24.232  1.00  0.00     0.000 C 
BRANCH  82  90
ATOM     90  C   UNL A   1      32.717  24.555  23.635  1.00  0.00     0.321 C 
ATOM     91  O   UNL A   1      32.146  23.875  22.785  1.00  0.00    -0.248 OA
ATOM     92  N   UNL A   1      32.647  25.933  23.519  1.00  0.00    -0.323 N 
ATOM     93  C   UNL A   1      31.271  26.445  23.466  1.00  0.00     0.132 C 
ATOM     94  C   UNL A   1      33.562  26.546  22.560  1.00  0.00     0.132 C 
ATOM     95  C   UNL A   1      31.135  27.948  23.694  1.00  0.00     0.091 C 
ATOM     96  C   UNL A   1      33.670  28.068  22.678  1.00  0.00     0.091 C 
ATOM     97  S   UNL A   1      32.070  28.904  22.455  1.00  0.00    -0.158 SA
ENDBRANCH  82  90
ENDBRANCH  77  80
ENDBRANCH  75  76
ENDBRANCH  74  75
ENDBRANCH  73  74
ENDBRANCH   1  73
TORSDOF 14
ENDMDL
MODEL 3
REMARK VINA RESULT:     -12.5      5.116     10.590
REMARK SMILES O=C(NCCCCCCNC(=O)[C@H]1CC[C@@H]2CCCC[C@H]2N1C(=O)N1CCSCC1)c1ccc(-c2c3nc(c(-c4c(F)c(F)c(F)c(F)c4F)c4ccc([nH]4)c(-c4c(F)c(F)c(F)c(F)c4F)c4nc(c(-c5c(F)c(F)c(F)c(F)c5F)c5ccc2[nH]5)C=C4)C=C3)cc1
REMARK SMILES IDX 6 1 5 2 4 3 3 4 1 5 2 6 31 8 32 9 93 10 33 11 92 12 34 13
REMARK SMILES IDX 35 14 36 15 86 16 37 17 91 18 85 19 87 20 38 21 90 22 84 23
REMARK SMILES IDX 83 24 39 26 71 27 51 28 70 29 52 30 55 31 69 32 88 33 53 34
REMARK SMILES IDX 54 35 68 37 89 38 56 39 40 40 41 41 49 42 42 43 43 44 47 45
REMARK SMILES IDX 50 46 44 47 45 48 48 49 46 50 72 51 73 52 81 53 74 54 75 55
REMARK SMILES IDX 79 56 82 57 76 58 77 59 80 60 78 61 57 62 58 63 66 64 59 65
REMARK SMILES IDX 60 66 64 67 67 68 61 69 62 70 65 71 63 72 7 73 8 74 9 75
REMARK SMILES IDX 10 76 11 77 12 79 13 80 14 81 22 82 15 83 21 84 16 85 20 86
REMARK SMILES IDX 17 87 19 88 18 89 23 90 24 91 25 92 26 93 30 94 27 95 29 96
REMARK SMILES IDX 28 97
REMARK H PARENT 3 7 87 25 55 36 10 78
REMARK Flexibility Score: inf
ROOT
ATOM      1  C   UNL A   1      36.967  20.401  25.073  1.00  0.00     0.002 C 
ENDROOT
BRANCH   1   2
ATOM      2  C   UNL A   1      38.183  19.483  24.988  1.00  0.00     0.021 C 
BRANCH   2   3
ATOM      3  C   UNL A   1      39.386  19.930  25.802  1.00  0.00     0.116 C 
BRANCH   3   4
ATOM      4  N   UNL A   1      40.459  18.950  25.813  1.00  0.00    -0.352 N 
ATOM      5  O   UNL A   1      42.602  18.229  25.859  1.00  0.00    -0.269 OA
ATOM      6  C   UNL A   1      41.804  19.147  26.027  1.00  0.00     0.251 C 
ATOM      7  H   UNL A   1      40.188  18.019  25.644  1.00  0.00     0.163 HD
BRANCH   6   8
ATOM      8  C   UNL A   1      42.293  20.483  26.436  1.00  0.00     0.039 A 
ATOM      9  C   UNL A   1      42.311  20.848  27.782  1.00  0.00     0.014 A 
ATOM     10  C   UNL A   1      42.726  21.388  25.461  1.00  0.00     0.014 A 
ATOM     11  C   UNL A   1      42.602  22.158  28.138  1.00  0.00     0.010 A 
ATOM     12  C   UNL A   1      43.121  22.678  25.832  1.00  0.00     0.010 A 
ATOM     13  C   UNL A   1      43.031  23.084  27.171  1.00  0.00    -0.014 A 
BRANCH  13  14
ATOM     14  C   UNL A   1      43.452  24.436  27.625  1.00  0.00     0.031 A 
ATOM     15  C   UNL A   1      44.894  24.860  27.619  1.00  0.00     0.074 A 
ATOM     16  C   UNL A   1      42.490  25.311  27.980  1.00  0.00     0.049 A 
ATOM     17  N   UNL A   1      45.406  26.034  27.902  1.00  0.00    -0.248 NA
ATOM     18  C   UNL A   1      45.893  23.844  27.260  1.00  0.00     0.031 C 
ATOM     19  C   UNL A   1      41.060  25.001  28.052  1.00  0.00     0.029 A 
ATOM     20  N   UNL A   1      42.557  26.641  28.309  1.00  0.00    -0.354 N 
ATOM     21  C   UNL A   1      46.781  25.895  27.766  1.00  0.00     0.074 A 
ATOM     22  C   UNL A   1      47.029  24.515  27.402  1.00  0.00     0.031 C 
ATOM     23  C   UNL A   1      40.380  26.118  28.337  1.00  0.00     0.029 A 
ATOM     24  C   UNL A   1      41.327  27.210  28.530  1.00  0.00     0.049 A 
ATOM     25  H   UNL A   1      43.404  27.138  28.379  1.00  0.00     0.167 HD
ATOM     26  C   UNL A   1      47.743  26.837  27.920  1.00  0.00     0.037 A 
ATOM     27  C   UNL A   1      40.994  28.471  28.858  1.00  0.00     0.037 A 
ATOM     28  C   UNL A   1      47.489  28.210  28.277  1.00  0.00     0.049 A 
ATOM     29  C   UNL A   1      42.082  29.493  29.009  1.00  0.00     0.074 A 
ATOM     30  C   UNL A   1      48.398  29.241  28.450  1.00  0.00     0.029 A 
ATOM     31  N   UNL A   1      46.231  28.747  28.512  1.00  0.00    -0.354 N 
ATOM     32  N   UNL A   1      43.376  29.350  28.854  1.00  0.00    -0.248 NA
ATOM     33  C   UNL A   1      41.665  30.851  29.381  1.00  0.00     0.031 C 
ATOM     34  C   UNL A   1      47.693  30.391  28.824  1.00  0.00     0.029 A 
ATOM     35  C   UNL A   1      46.341  30.090  28.840  1.00  0.00     0.049 A 
ATOM     36  H   UNL A   1      45.385  28.247  28.455  1.00  0.00     0.167 HD
ATOM     37  C   UNL A   1      43.927  30.596  29.110  1.00  0.00     0.074 A 
ATOM     38  C   UNL A   1      42.824  31.492  29.391  1.00  0.00     0.031 C 
ATOM     39  C   UNL A   1      45.232  30.961  29.128  1.00  0.00     0.037 A 
BRANCH  26  40
ATOM     40  C   UNL A   1      49.171  26.419  27.709  1.00  0.00     0.064 A 
ATOM     41  C   UNL A   1      49.711  26.283  26.421  1.00  0.00     0.173 A 
ATOM     42  C   UNL A   1      50.026  26.222  28.803  1.00  0.00     0.173 A 
ATOM     43  F   UNL A   1      48.933  26.452  25.342  1.00  0.00    -0.203 F 
ATOM     44  C   UNL A   1      51.051  25.951  26.237  1.00  0.00     0.198 A 
ATOM     45  C   UNL A   1      51.372  25.912  28.615  1.00  0.00     0.198 A 
ATOM     46  F   UNL A   1      49.562  26.346  30.055  1.00  0.00    -0.203 F 
ATOM     47  F   UNL A   1      51.537  25.795  24.999  1.00  0.00    -0.200 F 
ATOM     48  C   UNL A   1      51.881  25.774  27.334  1.00  0.00     0.200 A 
ATOM     49  F   UNL A   1      52.176  25.754  29.676  1.00  0.00    -0.200 F 
ATOM     50  F   UNL A   1      53.175  25.466  27.155  1.00  0.00    -0.200 F 
ENDBRANCH  26  40
BRANCH  27  51
ATOM     51  C   UNL A   1      39.568  28.824  29.071  1.00  0.00     0.064 A 
ATOM     52  C   UNL A   1      38.969  28.698  30.331  1.00  0.00     0.173 A 
ATOM     53  C   UNL A   1      38.778  29.312  28.018  1.00  0.00     0.173 A 
ATOM     54  F   UNL A   1      39.678  28.223  31.365  1.00  0.00    -0.203 F 
ATOM     55  C   UNL A   1      37.630  29.029  30.526  1.00  0.00     0.198 A 
ATOM     56  C   UNL A   1      37.449  29.672  28.221  1.00  0.00     0.198 A 
ATOM     57  F   UNL A   1      39.308  29.459  26.795  1.00  0.00    -0.203 F 
ATOM     58  F   UNL A   1      37.069  28.858  31.731  1.00  0.00    -0.200 F 
ATOM     59  C   UNL A   1      36.873  29.523  29.474  1.00  0.00     0.200 A 
ATOM     60  F   UNL A   1      36.730  30.168  27.207  1.00  0.00    -0.200 F 
ATOM     61  F   UNL A   1      35.588  29.850  29.664  1.00  0.00    -0.200 F 
ENDBRANCH  27  51
BRANCH  39  62
ATOM     62  C   UNL A   1      45.524  32.395  29.460  1.00  0.00     0.064 A 
ATOM     63  C   UNL A   1      45.572  33.380  28.460  1.00  0.00     0.173 A 
ATOM     64  C   UNL A   1      45.761  32.788  30.784  1.00  0.00     0.173 A 
ATOM     65  F   UNL A   1      45.370  33.049  27.176  1.00  0.00    -0.203 F 
ATOM     66  C   UNL A   1      45.881  34.700  28.773  1.00  0.00     0.198 A 
ATOM     67  C   UNL A   1      46.043  34.115  31.096  1.00  0.00     0.198 A 
ATOM     68  F   UNL A   1      45.723  31.885  31.775  1.00  0.00    -0.203 F 
ATOM     69  F   UNL A   1      45.979  35.612  27.796  1.00  0.00    -0.200 F 
ATOM     70  C   UNL A   1      46.112  35.068  30.090  1.00  0.00     0.200 A 
ATOM     71  F   UNL A   1      46.258  34.470  32.371  1.00  0.00    -0.200 F 
ATOM     72  F   UNL A   1      46.417  36.338  30.389  1.00  0.00    -0.200 F 
ENDBRANCH  39  62
ENDBRANCH  13  14
ENDBRANCH   6   8
ENDBRANCH   3   4
ENDBRANCH   2   3
ENDBRANCH   1   2
BRANCH   1  73
ATOM     73  C   UNL A   1      37.225  21.890  24.810  1.00  0.00     0.002 C 
BRANCH  73  74
ATOM     74  C   UNL A   1      36.635  22.475  23.521  1.00  0.00     0.021 C 
BRANCH  74  75
ATOM     75  C   UNL A   1      35.858  23.780  23.681  1.00  0.00     0.116 C 
BRANCH  75  76
ATOM     76  N   UNL A   1      34.754  23.910  22.749  1.00  0.00    -0.354 N 
ATOM     77  C   UNL A   1      33.781  24.877  22.672  1.00  0.00     0.242 C 
ATOM     78  H   UNL A   1      34.693  23.200  22.069  1.00  0.00     0.163 HD
ATOM     79  O   UNL A   1      33.125  24.942  21.632  1.00  0.00    -0.273 OA
BRANCH  77  80
ATOM     80  C   UNL A   1      33.670  25.898  23.831  1.00  0.00     0.176 C 
ATOM     81  C   UNL A   1      33.809  27.226  23.054  1.00  0.00     0.036 C 
ATOM     82  N   UNL A   1      32.529  25.960  24.788  1.00  0.00    -0.309 N 
ATOM     83  C   UNL A   1      33.887  28.434  23.956  1.00  0.00     0.008 C 
ATOM     84  C   UNL A   1      32.587  27.154  25.707  1.00  0.00     0.091 C 
ATOM     85  C   UNL A   1      32.676  28.466  24.883  1.00  0.00     0.012 C 
ATOM     86  C   UNL A   1      31.487  27.292  26.782  1.00  0.00     0.025 C 
ATOM     87  C   UNL A   1      32.764  29.730  25.749  1.00  0.00     0.006 C 
ATOM     88  C   UNL A   1      31.616  28.562  27.623  1.00  0.00     0.002 C 
ATOM     89  C   UNL A   1      31.632  29.807  26.757  1.00  0.00     0.000 C 
BRANCH  82  90
ATOM     90  C   UNL A   1      31.796  24.830  25.164  1.00  0.00     0.321 C 
ATOM     91  O   UNL A   1      30.571  24.737  25.123  1.00  0.00    -0.248 OA
ATOM     92  N   UNL A   1      32.522  23.705  25.516  1.00  0.00    -0.323 N 
ATOM     93  C   UNL A   1      32.246  22.541  24.664  1.00  0.00     0.132 C 
ATOM     94  C   UNL A   1      32.600  23.409  26.945  1.00  0.00     0.132 C 
ATOM     95  C   UNL A   1      33.258  21.405  24.779  1.00  0.00     0.091 C 
ATOM     96  C   UNL A   1      33.645  22.355  27.313  1.00  0.00     0.091 C 
ATOM     97  S   UNL A   1      33.357  20.762  26.483  1.00  0.00    -0.158 SA
ENDBRANCH  82  90
ENDBRANCH  77  80
ENDBRANCH  75  76
ENDBRANCH  74  75
ENDBRANCH  73  74
ENDBRANCH   1  73
TORSDOF 14
ENDMDL
