MODEL 1
REMARK VINA RESULT:     -10.7      0.000      0.000
REMARK SMILES CCC1C[NH+]([C@H](C(=O)NCCCCCCNC(=O)c2ccc(-c3c4nc(c(-c5c(F)c(F)c(F)c(F)c5F)c5ccc([nH]5)c(-c5c(F)c(F)c(F)c(F)c5F)c5nc(c(-c6c(F)c(F)c(F)c(F)c6F)c6ccc3[nH]6)C=C5)C=C4)cc2)C(C)C)C1
REMARK SMILES IDX 12 1 11 2 10 3 9 4 7 5 8 6 6 8 5 9 3 10 4 11 85 12 2 14 1 15
REMARK SMILES IDX 82 16 83 17 84 18 13 19 14 20 15 21 16 22 17 23 18 25 19 26
REMARK SMILES IDX 20 27 81 28 21 29 80 30 22 31 23 32 24 33 74 34 25 35 79 36
REMARK SMILES IDX 73 37 75 38 26 39 78 40 72 41 71 42 27 44 59 45 39 46 58 47
REMARK SMILES IDX 40 48 43 49 57 50 76 51 41 52 42 53 56 55 77 56 44 57 28 58
REMARK SMILES IDX 29 59 37 60 30 61 31 62 35 63 38 64 32 65 33 66 36 67 34 68
REMARK SMILES IDX 60 69 61 70 69 71 62 72 63 73 67 74 70 75 64 76 65 77 68 78
REMARK SMILES IDX 66 79 45 80 46 81 54 82 47 83 48 84 52 85 55 86 49 87 50 88
REMARK SMILES IDX 53 89 51 90
REMARK H PARENT 9 7 5 13 16 24 75 43 43 54
REMARK Flexibility Score: inf
ROOT
ATOM      1  C   UNL A   1      32.909  30.147  26.142  1.00  0.00     0.002 C 
ENDROOT
BRANCH   1   2
ATOM      2  C   UNL A   1      33.031  29.067  27.221  1.00  0.00     0.021 C 
BRANCH   2   3
ATOM      3  C   UNL A   1      32.570  27.672  26.827  1.00  0.00     0.116 C 
BRANCH   3   4
ATOM      4  N   UNL A   1      33.572  26.820  26.242  1.00  0.00    -0.351 N 
ATOM      5  C   UNL A   1      33.401  25.550  25.749  1.00  0.00     0.278 C 
ATOM      6  O   UNL A   1      34.300  25.120  25.019  1.00  0.00    -0.268 OA
ATOM      7  H   UNL A   1      34.483  27.189  26.190  1.00  0.00     0.163 HD
BRANCH   5   8
ATOM      8  C   UNL A   1      32.137  24.709  26.108  1.00  0.00     0.276 C 
BRANCH   8   9
ATOM      9  N   UNL A   1      30.980  24.875  25.190  1.00  0.00    -0.324 N 
ATOM     10  C   UNL A   1      29.879  26.334  24.137  1.00  0.00     0.099 C 
ATOM     11  C   UNL A   1      31.227  25.596  23.943  1.00  0.00     0.272 C 
ATOM     12  C   UNL A   1      29.918  25.791  25.590  1.00  0.00     0.272 C 
ATOM     13  H   UNL A   1      30.764  23.880  25.153  1.00  0.00     0.348 HD
BRANCH  10  14
ATOM     14  C   UNL A   1      29.979  27.831  23.868  1.00  0.00     0.012 C 
ATOM     15  C   UNL A   1      28.761  28.351  23.127  1.00  0.00     0.004 C 
ENDBRANCH  10  14
ENDBRANCH   8   9
BRANCH   8  16
ATOM     16  C   UNL A   1      32.472  23.175  26.073  1.00  0.00     0.051 C 
ATOM     17  C   UNL A   1      32.915  22.608  27.430  1.00  0.00     0.014 C 
ATOM     18  C   UNL A   1      31.271  22.341  25.591  1.00  0.00     0.014 C 
ENDBRANCH   8  16
ENDBRANCH   5   8
ENDBRANCH   3   4
ENDBRANCH   2   3
ENDBRANCH   1   2
BRANCH   1  19
ATOM     19  C   UNL A   1      31.529  30.786  25.945  1.00  0.00     0.002 C 
BRANCH  19  20
ATOM     20  C   UNL A   1      31.305  32.156  26.590  1.00  0.00     0.021 C 
BRANCH  20  21
ATOM     21  C   UNL A   1      32.525  32.801  27.237  1.00  0.00     0.116 C 
BRANCH  21  22
ATOM     22  N   UNL A   1      32.306  34.184  27.625  1.00  0.00    -0.352 N 
ATOM     23  C   UNL A   1      32.950  34.947  28.566  1.00  0.00     0.251 C 
ATOM     24  H   UNL A   1      31.585  34.644  27.137  1.00  0.00     0.163 HD
ATOM     25  O   UNL A   1      32.538  36.076  28.826  1.00  0.00    -0.269 OA
BRANCH  23  26
ATOM     26  C   UNL A   1      34.119  34.411  29.299  1.00  0.00     0.039 A 
ATOM     27  C   UNL A   1      33.899  33.714  30.490  1.00  0.00     0.014 A 
ATOM     28  C   UNL A   1      35.423  34.602  28.834  1.00  0.00     0.014 A 
ATOM     29  C   UNL A   1      34.977  33.156  31.180  1.00  0.00     0.010 A 
ATOM     30  C   UNL A   1      36.489  33.980  29.480  1.00  0.00     0.010 A 
ATOM     31  C   UNL A   1      36.278  33.251  30.661  1.00  0.00    -0.014 A 
BRANCH  31  32
ATOM     32  C   UNL A   1      37.424  32.589  31.337  1.00  0.00     0.031 A 
ATOM     33  C   UNL A   1      38.130  31.433  30.683  1.00  0.00     0.074 A 
ATOM     34  C   UNL A   1      37.790  32.989  32.570  1.00  0.00     0.049 A 
ATOM     35  N   UNL A   1      39.107  30.692  31.140  1.00  0.00    -0.248 NA
ATOM     36  C   UNL A   1      37.655  31.041  29.346  1.00  0.00     0.031 C 
ATOM     37  C   UNL A   1      37.155  34.066  33.331  1.00  0.00     0.029 A 
ATOM     38  N   UNL A   1      38.778  32.530  33.406  1.00  0.00    -0.354 N 
ATOM     39  C   UNL A   1      39.354  29.741  30.159  1.00  0.00     0.074 A 
ATOM     40  C   UNL A   1      38.388  29.963  29.104  1.00  0.00     0.031 C 
ATOM     41  C   UNL A   1      37.780  34.198  34.511  1.00  0.00     0.029 A 
ATOM     42  C   UNL A   1      38.830  33.190  34.610  1.00  0.00     0.049 A 
ATOM     43  H   UNL A   1      39.391  31.798  33.165  1.00  0.00     0.167 HD
ATOM     44  C   UNL A   1      40.311  28.783  30.130  1.00  0.00     0.037 A 
ATOM     45  C   UNL A   1      39.626  32.995  35.680  1.00  0.00     0.037 A 
ATOM     46  C   UNL A   1      41.282  28.579  31.175  1.00  0.00     0.049 A 
ATOM     47  C   UNL A   1      40.675  31.917  35.628  1.00  0.00     0.074 A 
ATOM     48  C   UNL A   1      42.334  27.681  31.210  1.00  0.00     0.029 A 
ATOM     49  N   UNL A   1      41.312  29.275  32.375  1.00  0.00    -0.354 N 
ATOM     50  N   UNL A   1      40.950  31.075  34.662  1.00  0.00    -0.248 NA
ATOM     51  C   UNL A   1      41.530  31.768  36.814  1.00  0.00     0.031 C 
ATOM     52  C   UNL A   1      42.961  27.789  32.456  1.00  0.00     0.029 A 
ATOM     53  C   UNL A   1      42.344  28.803  33.171  1.00  0.00     0.049 A 
ATOM     54  H   UNL A   1      40.691  29.999  32.624  1.00  0.00     0.167 HD
ATOM     55  C   UNL A   1      42.024  30.317  35.109  1.00  0.00     0.074 A 
ATOM     56  C   UNL A   1      42.361  30.811  36.427  1.00  0.00     0.031 C 
ATOM     57  C   UNL A   1      42.673  29.304  34.481  1.00  0.00     0.037 A 
BRANCH  44  58
ATOM     58  C   UNL A   1      40.353  27.873  28.934  1.00  0.00     0.064 A 
ATOM     59  C   UNL A   1      41.118  28.178  27.798  1.00  0.00     0.173 A 
ATOM     60  C   UNL A   1      39.645  26.661  28.939  1.00  0.00     0.173 A 
ATOM     61  F   UNL A   1      41.807  29.328  27.735  1.00  0.00    -0.203 F 
ATOM     62  C   UNL A   1      41.145  27.322  26.700  1.00  0.00     0.198 A 
ATOM     63  C   UNL A   1      39.703  25.791  27.854  1.00  0.00     0.198 A 
ATOM     64  F   UNL A   1      38.904  26.315  30.002  1.00  0.00    -0.203 F 
ATOM     65  F   UNL A   1      41.839  27.663  25.604  1.00  0.00    -0.200 F 
ATOM     66  C   UNL A   1      40.445  26.127  26.731  1.00  0.00     0.200 A 
ATOM     67  F   UNL A   1      39.038  24.628  27.893  1.00  0.00    -0.200 F 
ATOM     68  F   UNL A   1      40.478  25.300  25.677  1.00  0.00    -0.200 F 
ENDBRANCH  44  58
BRANCH  45  69
ATOM     69  C   UNL A   1      39.467  33.850  36.886  1.00  0.00     0.064 A 
ATOM     70  C   UNL A   1      38.711  33.419  37.985  1.00  0.00     0.173 A 
ATOM     71  C   UNL A   1      40.068  35.116  36.966  1.00  0.00     0.173 A 
ATOM     72  F   UNL A   1      38.101  32.225  37.950  1.00  0.00    -0.203 F 
ATOM     73  C   UNL A   1      38.543  34.228  39.107  1.00  0.00     0.198 A 
ATOM     74  C   UNL A   1      39.927  35.911  38.102  1.00  0.00     0.198 A 
ATOM     75  F   UNL A   1      40.808  35.575  35.945  1.00  0.00    -0.203 F 
ATOM     76  F   UNL A   1      37.775  33.812  40.122  1.00  0.00    -0.200 F 
ATOM     77  C   UNL A   1      39.156  35.471  39.167  1.00  0.00     0.200 A 
ATOM     78  F   UNL A   1      40.536  37.103  38.162  1.00  0.00    -0.200 F 
ATOM     79  F   UNL A   1      39.000  36.246  40.248  1.00  0.00    -0.200 F 
ENDBRANCH  45  69
BRANCH  57  80
ATOM     80  C   UNL A   1      43.838  28.683  35.197  1.00  0.00     0.064 A 
ATOM     81  C   UNL A   1      43.682  27.578  36.047  1.00  0.00     0.173 A 
ATOM     82  C   UNL A   1      45.137  29.177  34.998  1.00  0.00     0.173 A 
ATOM     83  F   UNL A   1      42.461  27.075  36.285  1.00  0.00    -0.203 F 
ATOM     84  C   UNL A   1      44.778  27.009  36.692  1.00  0.00     0.198 A 
ATOM     85  C   UNL A   1      46.235  28.584  35.616  1.00  0.00     0.198 A 
ATOM     86  F   UNL A   1      45.345  30.227  34.189  1.00  0.00    -0.203 F 
ATOM     87  F   UNL A   1      44.597  25.988  37.541  1.00  0.00    -0.200 F 
ATOM     88  C   UNL A   1      46.053  27.507  36.470  1.00  0.00     0.200 A 
ATOM     89  F   UNL A   1      47.467  29.055  35.385  1.00  0.00    -0.200 F 
ATOM     90  F   UNL A   1      47.107  26.952  37.084  1.00  0.00    -0.200 F 
ENDBRANCH  57  80
ENDBRANCH  31  32
ENDBRANCH  23  26
ENDBRANCH  21  22
ENDBRANCH  20  21
ENDBRANCH  19  20
ENDBRANCH   1  19
TORSDOF 16
ENDMDL
MODEL 2
REMARK VINA RESULT:     -10.7      5.945     11.482
REMARK SMILES CCC1C[NH+]([C@H](C(=O)NCCCCCCNC(=O)c2ccc(-c3c4nc(c(-c5c(F)c(F)c(F)c(F)c5F)c5ccc([nH]5)c(-c5c(F)c(F)c(F)c(F)c5F)c5nc(c(-c6c(F)c(F)c(F)c(F)c6F)c6ccc3[nH]6)C=C5)C=C4)cc2)C(C)C)C1
REMARK SMILES IDX 12 1 11 2 10 3 9 4 7 5 8 6 6 8 5 9 3 10 4 11 85 12 2 14 1 15
REMARK SMILES IDX 82 16 83 17 84 18 13 19 14 20 15 21 16 22 17 23 18 25 19 26
REMARK SMILES IDX 20 27 81 28 21 29 80 30 22 31 23 32 24 33 74 34 25 35 79 36
REMARK SMILES IDX 73 37 75 38 26 39 78 40 72 41 71 42 27 44 59 45 39 46 58 47
REMARK SMILES IDX 40 48 43 49 57 50 76 51 41 52 42 53 56 55 77 56 44 57 28 58
REMARK SMILES IDX 29 59 37 60 30 61 31 62 35 63 38 64 32 65 33 66 36 67 34 68
REMARK SMILES IDX 60 69 61 70 69 71 62 72 63 73 67 74 70 75 64 76 65 77 68 78
REMARK SMILES IDX 66 79 45 80 46 81 54 82 47 83 48 84 52 85 55 86 49 87 50 88
REMARK SMILES IDX 53 89 51 90
REMARK H PARENT 9 7 5 13 16 24 75 43 43 54
REMARK Flexibility Score: inf
ROOT
ATOM      1  C   UNL A   1      37.259  22.005  24.675  1.00  0.00     0.002 C 
ENDROOT
BRANCH   1   2
ATOM      2  C   UNL A   1      36.655  22.775  23.497  1.00  0.00     0.021 C 
BRANCH   2   3
ATOM      3  C   UNL A   1      35.195  23.181  23.642  1.00  0.00     0.116 C 
BRANCH   3   4
ATOM      4  N   UNL A   1      34.729  23.381  24.989  1.00  0.00    -0.351 N 
ATOM      5  C   UNL A   1      33.633  22.807  25.584  1.00  0.00     0.278 C 
ATOM      6  O   UNL A   1      33.586  22.863  26.818  1.00  0.00    -0.268 OA
ATOM      7  H   UNL A   1      35.255  23.997  25.547  1.00  0.00     0.163 HD
BRANCH   5   8
ATOM      8  C   UNL A   1      32.514  22.132  24.733  1.00  0.00     0.276 C 
BRANCH   8   9
ATOM      9  N   UNL A   1      32.230  20.712  25.066  1.00  0.00    -0.324 N 
ATOM     10  C   UNL A   1      32.980  18.756  24.820  1.00  0.00     0.099 C 
ATOM     11  C   UNL A   1      33.295  19.966  25.734  1.00  0.00     0.272 C 
ATOM     12  C   UNL A   1      32.154  19.755  23.967  1.00  0.00     0.272 C 
ATOM     13  H   UNL A   1      31.373  20.919  25.578  1.00  0.00     0.348 HD
BRANCH  10  14
ATOM     14  C   UNL A   1      34.233  18.103  24.249  1.00  0.00     0.012 C 
ATOM     15  C   UNL A   1      33.913  16.807  23.528  1.00  0.00     0.004 C 
ENDBRANCH  10  14
ENDBRANCH   8   9
BRANCH   8  16
ATOM     16  C   UNL A   1      31.148  22.882  24.931  1.00  0.00     0.051 C 
ATOM     17  C   UNL A   1      30.469  22.584  26.276  1.00  0.00     0.014 C 
ATOM     18  C   UNL A   1      31.316  24.408  24.824  1.00  0.00     0.014 C 
ENDBRANCH   8  16
ENDBRANCH   5   8
ENDBRANCH   3   4
ENDBRANCH   2   3
ENDBRANCH   1   2
BRANCH   1  19
ATOM     19  C   UNL A   1      36.865  20.531  24.823  1.00  0.00     0.002 C 
BRANCH  19  20
ATOM     20  C   UNL A   1      38.004  19.526  25.004  1.00  0.00     0.021 C 
BRANCH  20  21
ATOM     21  C   UNL A   1      39.243  20.039  25.729  1.00  0.00     0.116 C 
BRANCH  21  22
ATOM     22  N   UNL A   1      40.281  19.034  25.875  1.00  0.00    -0.352 N 
ATOM     23  C   UNL A   1      41.619  19.182  26.142  1.00  0.00     0.251 C 
ATOM     24  H   UNL A   1      39.979  18.103  25.766  1.00  0.00     0.163 HD
ATOM     25  O   UNL A   1      42.361  18.202  26.115  1.00  0.00    -0.269 OA
BRANCH  23  26
ATOM     26  C   UNL A   1      42.187  20.518  26.429  1.00  0.00     0.039 A 
ATOM     27  C   UNL A   1      42.534  21.342  25.355  1.00  0.00     0.014 A 
ATOM     28  C   UNL A   1      42.393  20.959  27.740  1.00  0.00     0.014 A 
ATOM     29  C   UNL A   1      43.028  22.627  25.593  1.00  0.00     0.010 A 
ATOM     30  C   UNL A   1      42.812  22.266  27.976  1.00  0.00     0.010 A 
ATOM     31  C   UNL A   1      43.135  23.114  26.905  1.00  0.00    -0.014 A 
BRANCH  31  32
ATOM     32  C   UNL A   1      43.575  24.508  27.172  1.00  0.00     0.031 A 
ATOM     33  C   UNL A   1      42.597  25.533  27.676  1.00  0.00     0.074 A 
ATOM     34  C   UNL A   1      44.846  24.867  26.901  1.00  0.00     0.049 A 
ATOM     35  N   UNL A   1      42.779  26.808  27.910  1.00  0.00    -0.248 NA
ATOM     36  C   UNL A   1      41.223  25.068  27.925  1.00  0.00     0.031 C 
ATOM     37  C   UNL A   1      45.877  23.979  26.365  1.00  0.00     0.029 A 
ATOM     38  N   UNL A   1      45.482  26.078  27.029  1.00  0.00    -0.354 N 
ATOM     39  C   UNL A   1      41.545  27.299  28.318  1.00  0.00     0.074 A 
ATOM     40  C   UNL A   1      40.609  26.198  28.247  1.00  0.00     0.031 C 
ATOM     41  C   UNL A   1      47.022  24.667  26.227  1.00  0.00     0.029 A 
ATOM     42  C   UNL A   1      46.795  26.053  26.624  1.00  0.00     0.049 A 
ATOM     43  H   UNL A   1      45.040  26.885  27.377  1.00  0.00     0.167 HD
ATOM     44  C   UNL A   1      41.227  28.548  28.732  1.00  0.00     0.037 A 
ATOM     45  C   UNL A   1      47.711  27.040  26.566  1.00  0.00     0.037 A 
ATOM     46  C   UNL A   1      42.167  29.637  28.817  1.00  0.00     0.049 A 
ATOM     47  C   UNL A   1      47.329  28.422  27.022  1.00  0.00     0.074 A 
ATOM     48  C   UNL A   1      41.959  30.921  29.289  1.00  0.00     0.029 A 
ATOM     49  N   UNL A   1      43.492  29.571  28.411  1.00  0.00    -0.354 N 
ATOM     50  N   UNL A   1      46.180  28.856  27.480  1.00  0.00    -0.248 NA
ATOM     51  C   UNL A   1      48.376  29.452  26.960  1.00  0.00     0.031 C 
ATOM     52  C   UNL A   1      43.139  31.650  29.109  1.00  0.00     0.029 A 
ATOM     53  C   UNL A   1      44.104  30.802  28.590  1.00  0.00     0.049 A 
ATOM     54  H   UNL A   1      43.933  28.768  28.049  1.00  0.00     0.167 HD
ATOM     55  C   UNL A   1      46.371  30.196  27.787  1.00  0.00     0.074 A 
ATOM     56  C   UNL A   1      47.752  30.500  27.479  1.00  0.00     0.031 C 
ATOM     57  C   UNL A   1      45.481  31.093  28.282  1.00  0.00     0.037 A 
BRANCH  44  58
ATOM     58  C   UNL A   1      39.798  28.813  29.118  1.00  0.00     0.064 A 
ATOM     59  C   UNL A   1      39.344  28.651  30.436  1.00  0.00     0.173 A 
ATOM     60  C   UNL A   1      38.877  29.270  28.162  1.00  0.00     0.173 A 
ATOM     61  F   UNL A   1      40.179  28.208  31.388  1.00  0.00    -0.203 F 
ATOM     62  C   UNL A   1      38.017  28.902  30.774  1.00  0.00     0.198 A 
ATOM     63  C   UNL A   1      37.560  29.555  28.511  1.00  0.00     0.198 A 
ATOM     64  F   UNL A   1      39.258  29.451  26.888  1.00  0.00    -0.203 F 
ATOM     65  F   UNL A   1      37.595  28.685  32.028  1.00  0.00    -0.200 F 
ATOM     66  C   UNL A   1      37.128  29.361  29.815  1.00  0.00     0.200 A 
ATOM     67  F   UNL A   1      36.707  30.013  27.585  1.00  0.00    -0.200 F 
ATOM     68  F   UNL A   1      35.853  29.610  30.143  1.00  0.00    -0.200 F 
ENDBRANCH  44  58
BRANCH  45  69
ATOM     69  C   UNL A   1      49.081  26.750  26.068  1.00  0.00     0.064 A 
ATOM     70  C   UNL A   1      49.418  26.943  24.721  1.00  0.00     0.173 A 
ATOM     71  C   UNL A   1      50.084  26.274  26.928  1.00  0.00     0.173 A 
ATOM     72  F   UNL A   1      48.490  27.377  23.855  1.00  0.00    -0.203 F 
ATOM     73  C   UNL A   1      50.695  26.651  24.247  1.00  0.00     0.198 A 
ATOM     74  C   UNL A   1      51.370  26.014  26.460  1.00  0.00     0.198 A 
ATOM     75  F   UNL A   1      49.817  26.078  28.227  1.00  0.00    -0.203 F 
ATOM     76  F   UNL A   1      50.975  26.797  22.946  1.00  0.00    -0.200 F 
ATOM     77  C   UNL A   1      51.672  26.193  25.118  1.00  0.00     0.200 A 
ATOM     78  F   UNL A   1      52.316  25.589  27.309  1.00  0.00    -0.200 F 
ATOM     79  F   UNL A   1      52.903  25.918  24.665  1.00  0.00    -0.200 F 
ENDBRANCH  45  69
BRANCH  57  80
ATOM     80  C   UNL A   1      45.982  32.483  28.556  1.00  0.00     0.064 A 
ATOM     81  C   UNL A   1      45.893  33.504  27.598  1.00  0.00     0.173 A 
ATOM     82  C   UNL A   1      46.524  32.807  29.809  1.00  0.00     0.173 A 
ATOM     83  F   UNL A   1      45.398  33.246  26.378  1.00  0.00    -0.203 F 
ATOM     84  C   UNL A   1      46.352  34.790  27.876  1.00  0.00     0.198 A 
ATOM     85  C   UNL A   1      46.948  34.101  30.096  1.00  0.00     0.198 A 
ATOM     86  F   UNL A   1      46.625  31.871  30.765  1.00  0.00    -0.203 F 
ATOM     87  F   UNL A   1      46.306  35.735  26.927  1.00  0.00    -0.200 F 
ATOM     88  C   UNL A   1      46.871  35.089  29.127  1.00  0.00     0.200 A 
ATOM     89  F   UNL A   1      47.432  34.392  31.311  1.00  0.00    -0.200 F 
ATOM     90  F   UNL A   1      47.304  36.328  29.396  1.00  0.00    -0.200 F 
ENDBRANCH  57  80
ENDBRANCH  31  32
ENDBRANCH  23  26
ENDBRANCH  21  22
ENDBRANCH  20  21
ENDBRANCH  19  20
ENDBRANCH   1  19
TORSDOF 16
ENDMDL
MODEL 3
REMARK VINA RESULT:     -10.4      5.731     10.084
REMARK SMILES CCC1C[NH+]([C@H](C(=O)NCCCCCCNC(=O)c2ccc(-c3c4nc(c(-c5c(F)c(F)c(F)c(F)c5F)c5ccc([nH]5)c(-c5c(F)c(F)c(F)c(F)c5F)c5nc(c(-c6c(F)c(F)c(F)c(F)c6F)c6ccc3[nH]6)C=C5)C=C4)cc2)C(C)C)C1
REMARK SMILES IDX 12 1 11 2 10 3 9 4 7 5 8 6 6 8 5 9 3 10 4 11 85 12 2 14 1 15
REMARK SMILES IDX 82 16 83 17 84 18 13 19 14 20 15 21 16 22 17 23 18 25 19 26
REMARK SMILES IDX 20 27 81 28 21 29 80 30 22 31 23 32 24 33 74 34 25 35 79 36
REMARK SMILES IDX 73 37 75 38 26 39 78 40 72 41 71 42 27 44 59 45 39 46 58 47
REMARK SMILES IDX 40 48 43 49 57 50 76 51 41 52 42 53 56 55 77 56 44 57 28 58
REMARK SMILES IDX 29 59 37 60 30 61 31 62 35 63 38 64 32 65 33 66 36 67 34 68
REMARK SMILES IDX 60 69 61 70 69 71 62 72 63 73 67 74 70 75 64 76 65 77 68 78
REMARK SMILES IDX 66 79 45 80 46 81 54 82 47 83 48 84 52 85 55 86 49 87 50 88
REMARK SMILES IDX 53 89 51 90
REMARK H PARENT 9 7 5 13 16 24 75 43 43 54
REMARK Flexibility Score: inf
ROOT
ATOM      1  C   UNL A   1      37.312  21.939  24.683  1.00  0.00     0.002 C 
ENDROOT
BRANCH   1   2
ATOM      2  C   UNL A   1      36.749  22.771  23.526  1.00  0.00     0.021 C 
BRANCH   2   3
ATOM      3  C   UNL A   1      35.269  23.114  23.608  1.00  0.00     0.116 C 
BRANCH   3   4
ATOM      4  N   UNL A   1      34.757  23.379  24.928  1.00  0.00    -0.351 N 
ATOM      5  C   UNL A   1      33.632  22.847  25.507  1.00  0.00     0.278 C 
ATOM      6  O   UNL A   1      33.542  22.957  26.734  1.00  0.00    -0.268 OA
ATOM      7  H   UNL A   1      35.272  24.012  25.477  1.00  0.00     0.163 HD
BRANCH   5   8
ATOM      8  C   UNL A   1      32.534  22.150  24.645  1.00  0.00     0.276 C 
BRANCH   8   9
ATOM      9  N   UNL A   1      32.258  20.731  24.991  1.00  0.00    -0.324 N 
ATOM     10  C   UNL A   1      33.039  18.781  24.795  1.00  0.00     0.099 C 
ATOM     11  C   UNL A   1      33.313  20.008  25.700  1.00  0.00     0.272 C 
ATOM     12  C   UNL A   1      32.225  19.758  23.905  1.00  0.00     0.272 C 
ATOM     13  H   UNL A   1      31.386  20.935  25.477  1.00  0.00     0.348 HD
BRANCH  10  14
ATOM     14  C   UNL A   1      34.315  18.136  24.268  1.00  0.00     0.012 C 
ATOM     15  C   UNL A   1      34.081  16.702  23.834  1.00  0.00     0.004 C 
ENDBRANCH  10  14
ENDBRANCH   8   9
BRANCH   8  16
ATOM     16  C   UNL A   1      31.158  22.888  24.810  1.00  0.00     0.051 C 
ATOM     17  C   UNL A   1      30.498  22.667  26.179  1.00  0.00     0.014 C 
ATOM     18  C   UNL A   1      31.300  24.407  24.603  1.00  0.00     0.014 C 
ENDBRANCH   8  16
ENDBRANCH   5   8
ENDBRANCH   3   4
ENDBRANCH   2   3
ENDBRANCH   1   2
BRANCH   1  19
ATOM     19  C   UNL A   1      36.923  20.458  24.733  1.00  0.00     0.002 C 
BRANCH  19  20
ATOM     20  C   UNL A   1      38.039  19.461  25.051  1.00  0.00     0.021 C 
BRANCH  20  21
ATOM     21  C   UNL A   1      39.276  20.033  25.734  1.00  0.00     0.116 C 
BRANCH  21  22
ATOM     22  N   UNL A   1      40.366  19.079  25.845  1.00  0.00    -0.352 N 
ATOM     23  C   UNL A   1      41.689  19.284  26.140  1.00  0.00     0.251 C 
ATOM     24  H   UNL A   1      40.116  18.140  25.684  1.00  0.00     0.163 HD
ATOM     25  O   UNL A   1      42.484  18.349  26.075  1.00  0.00    -0.269 OA
BRANCH  23  26
ATOM     26  C   UNL A   1      42.180  20.632  26.504  1.00  0.00     0.039 A 
ATOM     27  C   UNL A   1      42.577  21.499  25.481  1.00  0.00     0.014 A 
ATOM     28  C   UNL A   1      42.266  21.043  27.838  1.00  0.00     0.014 A 
ATOM     29  C   UNL A   1      42.999  22.794  25.790  1.00  0.00     0.010 A 
ATOM     30  C   UNL A   1      42.613  22.358  28.139  1.00  0.00     0.010 A 
ATOM     31  C   UNL A   1      42.985  23.248  27.119  1.00  0.00    -0.014 A 
BRANCH  31  32
ATOM     32  C   UNL A   1      43.347  24.649  27.454  1.00  0.00     0.031 A 
ATOM     33  C   UNL A   1      44.787  25.084  27.462  1.00  0.00     0.074 A 
ATOM     34  C   UNL A   1      42.381  25.517  27.813  1.00  0.00     0.049 A 
ATOM     35  N   UNL A   1      45.301  26.243  27.785  1.00  0.00    -0.248 NA
ATOM     36  C   UNL A   1      45.784  24.071  27.081  1.00  0.00     0.031 C 
ATOM     37  C   UNL A   1      40.954  25.206  27.891  1.00  0.00     0.029 A 
ATOM     38  N   UNL A   1      42.454  26.836  28.190  1.00  0.00    -0.354 N 
ATOM     39  C   UNL A   1      46.677  26.096  27.661  1.00  0.00     0.074 A 
ATOM     40  C   UNL A   1      46.921  24.720  27.287  1.00  0.00     0.031 C 
ATOM     41  C   UNL A   1      40.284  26.305  28.272  1.00  0.00     0.029 A 
ATOM     42  C   UNL A   1      41.235  27.386  28.507  1.00  0.00     0.049 A 
ATOM     43  H   UNL A   1      43.300  27.339  28.230  1.00  0.00     0.167 HD
ATOM     44  C   UNL A   1      47.645  27.029  27.824  1.00  0.00     0.037 A 
ATOM     45  C   UNL A   1      40.921  28.619  28.949  1.00  0.00     0.037 A 
ATOM     46  C   UNL A   1      47.394  28.402  28.180  1.00  0.00     0.049 A 
ATOM     47  C   UNL A   1      42.017  29.634  29.133  1.00  0.00     0.074 A 
ATOM     48  C   UNL A   1      48.301  29.440  28.302  1.00  0.00     0.029 A 
ATOM     49  N   UNL A   1      46.145  28.927  28.479  1.00  0.00    -0.354 N 
ATOM     50  N   UNL A   1      43.307  29.505  28.937  1.00  0.00    -0.248 NA
ATOM     51  C   UNL A   1      41.612  30.969  29.594  1.00  0.00     0.031 C 
ATOM     52  C   UNL A   1      47.611  30.576  28.739  1.00  0.00     0.029 A 
ATOM     53  C   UNL A   1      46.263  30.265  28.820  1.00  0.00     0.049 A 
ATOM     54  H   UNL A   1      45.300  28.422  28.453  1.00  0.00     0.167 HD
ATOM     55  C   UNL A   1      43.863  30.745  29.221  1.00  0.00     0.074 A 
ATOM     56  C   UNL A   1      42.767  31.618  29.587  1.00  0.00     0.031 C 
ATOM     57  C   UNL A   1      45.164  31.126  29.180  1.00  0.00     0.037 A 
BRANCH  44  58
ATOM     58  C   UNL A   1      49.072  26.595  27.630  1.00  0.00     0.064 A 
ATOM     59  C   UNL A   1      49.908  26.294  28.716  1.00  0.00     0.173 A 
ATOM     60  C   UNL A   1      49.599  26.445  26.338  1.00  0.00     0.173 A 
ATOM     61  F   UNL A   1      49.459  26.429  29.973  1.00  0.00    -0.203 F 
ATOM     62  C   UNL A   1      51.227  25.893  28.517  1.00  0.00     0.198 A 
ATOM     63  C   UNL A   1      50.906  26.008  26.142  1.00  0.00     0.198 A 
ATOM     64  F   UNL A   1      48.842  26.711  25.263  1.00  0.00    -0.203 F 
ATOM     65  F   UNL A   1      52.023  25.665  29.572  1.00  0.00    -0.200 F 
ATOM     66  C   UNL A   1      51.723  25.742  27.232  1.00  0.00     0.200 A 
ATOM     67  F   UNL A   1      51.378  25.848  24.897  1.00  0.00    -0.200 F 
ATOM     68  F   UNL A   1      52.989  25.349  27.040  1.00  0.00    -0.200 F 
ENDBRANCH  44  58
BRANCH  45  69
ATOM     69  C   UNL A   1      39.504  28.964  29.236  1.00  0.00     0.064 A 
ATOM     70  C   UNL A   1      38.972  28.830  30.527  1.00  0.00     0.173 A 
ATOM     71  C   UNL A   1      38.649  29.434  28.226  1.00  0.00     0.173 A 
ATOM     72  F   UNL A   1      39.742  28.365  31.522  1.00  0.00    -0.203 F 
ATOM     73  C   UNL A   1      37.639  29.131  30.793  1.00  0.00     0.198 A 
ATOM     74  C   UNL A   1      37.324  29.767  28.501  1.00  0.00     0.198 A 
ATOM     75  F   UNL A   1      39.108  29.587  26.975  1.00  0.00    -0.203 F 
ATOM     76  F   UNL A   1      37.144  28.946  32.024  1.00  0.00    -0.200 F 
ATOM     77  C   UNL A   1      36.817  29.605  29.781  1.00  0.00     0.200 A 
ATOM     78  F   UNL A   1      36.539  30.242  27.524  1.00  0.00    -0.200 F 
ATOM     79  F   UNL A   1      35.536  29.901  30.038  1.00  0.00    -0.200 F 
ENDBRANCH  45  69
BRANCH  57  80
ATOM     80  C   UNL A   1      45.475  32.559  29.506  1.00  0.00     0.064 A 
ATOM     81  C   UNL A   1      45.817  32.966  30.804  1.00  0.00     0.173 A 
ATOM     82  C   UNL A   1      45.468  33.533  28.495  1.00  0.00     0.173 A 
ATOM     83  F   UNL A   1      45.825  32.079  31.811  1.00  0.00    -0.203 F 
ATOM     84  C   UNL A   1      46.114  34.299  31.083  1.00  0.00     0.198 A 
ATOM     85  C   UNL A   1      45.799  34.857  28.770  1.00  0.00     0.198 A 
ATOM     86  F   UNL A   1      45.155  33.197  27.234  1.00  0.00    -0.203 F 
ATOM     87  F   UNL A   1      46.386  34.674  32.340  1.00  0.00    -0.200 F 
ATOM     88  C   UNL A   1      46.113  35.241  30.065  1.00  0.00     0.200 A 
ATOM     89  F   UNL A   1      45.816  35.761  27.781  1.00  0.00    -0.200 F 
ATOM     90  F   UNL A   1      46.407  36.520  30.333  1.00  0.00    -0.200 F 
ENDBRANCH  57  80
ENDBRANCH  31  32
ENDBRANCH  23  26
ENDBRANCH  21  22
ENDBRANCH  20  21
ENDBRANCH  19  20
ENDBRANCH   1  19
TORSDOF 16
ENDMDL
