MODEL 1
REMARK VINA RESULT:     -11.8      0.000      0.000
REMARK SMILES Cc1ccc(C(=O)N[C@@H](CC(=O)NCCCCCCNC(=O)c2ccc(-c3c4nc(c(-c5c(F)c(F)c(F)c(F)c5F)c5ccc([nH]5)c(-c5c(F)c(F)c(F)c(F)c5F)c5nc(c(-c6c(F)c(F)c(F)c(F)c6F)c6ccc3[nH]6)C=C5)C=C4)cc2)c2cccs2)o1
REMARK SMILES IDX 16 1 15 2 14 3 13 4 11 5 12 6 10 8 9 9 8 10 6 11 7 12 5 14
REMARK SMILES IDX 1 15 2 16 3 17 91 18 4 19 86 20 87 21 90 22 88 23 89 24
REMARK SMILES IDX 17 25 18 26 19 27 20 28 21 29 22 31 23 32 24 33 85 34 25 35
REMARK SMILES IDX 84 36 26 37 27 38 28 39 78 40 29 41 83 42 77 43 79 44 30 45
REMARK SMILES IDX 82 46 76 47 75 48 31 50 63 51 43 52 62 53 44 54 47 55 61 56
REMARK SMILES IDX 80 57 45 58 46 59 60 61 81 62 48 63 32 64 33 65 41 66 34 67
REMARK SMILES IDX 35 68 39 69 42 70 36 71 37 72 40 73 38 74 64 75 65 76 73 77
REMARK SMILES IDX 66 78 67 79 71 80 74 81 68 82 69 83 72 84 70 85 49 86 50 87
REMARK SMILES IDX 58 88 51 89 52 90 56 91 59 92 53 93 54 94 57 95 55 96
REMARK H PARENT 13 7 8 13 20 30 79 49 47 60
REMARK Flexibility Score: inf
ROOT
ATOM      1  C   UNL A   1      32.132  29.831  26.840  1.00  0.00     0.002 C 
ENDROOT
BRANCH   1   2
ATOM      2  C   UNL A   1      33.556  29.435  26.442  1.00  0.00     0.021 C 
BRANCH   2   3
ATOM      3  C   UNL A   1      33.648  28.094  25.713  1.00  0.00     0.116 C 
BRANCH   3   4
ATOM      4  N   UNL A   1      34.248  28.273  24.406  1.00  0.00    -0.356 N 
ATOM      5  C   UNL A   1      33.674  28.601  23.218  1.00  0.00     0.222 C 
ATOM      6  O   UNL A   1      34.389  28.630  22.214  1.00  0.00    -0.275 OA
ATOM      7  H   UNL A   1      35.222  28.134  24.373  1.00  0.00     0.163 HD
BRANCH   5   8
ATOM      8  C   UNL A   1      32.213  28.989  23.142  1.00  0.00     0.130 C 
BRANCH   8   9
ATOM      9  C   UNL A   1      31.193  27.869  22.916  1.00  0.00     0.132 C 
BRANCH   9  10
ATOM     10  N   UNL A   1      31.484  27.041  21.760  1.00  0.00    -0.341 N 
ATOM     11  C   UNL A   1      32.145  25.862  21.553  1.00  0.00     0.287 C 
ATOM     12  O   UNL A   1      32.396  25.627  20.366  1.00  0.00    -0.266 OA
ATOM     13  H   UNL A   1      31.119  27.418  20.927  1.00  0.00     0.164 HD
BRANCH  11  14
ATOM     14  C   UNL A   1      32.490  24.943  22.622  1.00  0.00     0.191 A 
ATOM     15  C   UNL A   1      34.986  24.531  25.172  1.00  0.00     0.087 C 
ATOM     16  C   UNL A   1      33.821  24.329  24.290  1.00  0.00     0.101 A 
ATOM     17  C   UNL A   1      32.926  23.302  24.118  1.00  0.00     0.046 A 
ATOM     18  O   UNL A   1      33.549  25.330  23.415  1.00  0.00    -0.456 OA
ATOM     19  C   UNL A   1      32.081  23.690  23.045  1.00  0.00     0.056 A 
ENDBRANCH  11  14
ENDBRANCH   9  10
BRANCH   9  20
ATOM     20  C   UNL A   1      29.749  28.307  22.845  1.00  0.00     0.027 A 
ATOM     21  C   UNL A   1      29.255  29.477  22.297  1.00  0.00     0.017 A 
ATOM     22  S   UNL A   1      28.478  27.374  23.536  1.00  0.00    -0.147 S 
ATOM     23  C   UNL A   1      27.849  29.621  22.485  1.00  0.00     0.012 A 
ATOM     24  C   UNL A   1      27.305  28.550  23.154  1.00  0.00     0.065 A 
ENDBRANCH   9  20
ENDBRANCH   8   9
ENDBRANCH   5   8
ENDBRANCH   3   4
ENDBRANCH   2   3
ENDBRANCH   1   2
BRANCH   1  25
ATOM     25  C   UNL A   1      31.512  30.928  25.973  1.00  0.00     0.002 C 
BRANCH  25  26
ATOM     26  C   UNL A   1      31.304  32.266  26.687  1.00  0.00     0.021 C 
BRANCH  26  27
ATOM     27  C   UNL A   1      32.573  32.864  27.285  1.00  0.00     0.116 C 
BRANCH  27  28
ATOM     28  N   UNL A   1      32.404  34.274  27.600  1.00  0.00    -0.352 N 
ATOM     29  C   UNL A   1      32.994  35.015  28.589  1.00  0.00     0.251 C 
ATOM     30  H   UNL A   1      31.778  34.766  27.021  1.00  0.00     0.163 HD
ATOM     31  O   UNL A   1      32.561  36.128  28.878  1.00  0.00    -0.269 OA
BRANCH  29  32
ATOM     32  C   UNL A   1      34.153  34.465  29.320  1.00  0.00     0.039 A 
ATOM     33  C   UNL A   1      33.945  33.841  30.551  1.00  0.00     0.014 A 
ATOM     34  C   UNL A   1      35.443  34.576  28.791  1.00  0.00     0.014 A 
ATOM     35  C   UNL A   1      35.027  33.279  31.229  1.00  0.00     0.010 A 
ATOM     36  C   UNL A   1      36.508  33.948  29.430  1.00  0.00     0.010 A 
ATOM     37  C   UNL A   1      36.312  33.301  30.659  1.00  0.00    -0.014 A 
BRANCH  37  38
ATOM     38  C   UNL A   1      37.464  32.657  31.339  1.00  0.00     0.031 A 
ATOM     39  C   UNL A   1      38.192  31.521  30.677  1.00  0.00     0.074 A 
ATOM     40  C   UNL A   1      37.817  33.061  32.574  1.00  0.00     0.049 A 
ATOM     41  N   UNL A   1      39.179  30.792  31.133  1.00  0.00    -0.248 NA
ATOM     42  C   UNL A   1      37.733  31.134  29.332  1.00  0.00     0.031 C 
ATOM     43  C   UNL A   1      37.158  34.122  33.338  1.00  0.00     0.029 A 
ATOM     44  N   UNL A   1      38.813  32.621  33.411  1.00  0.00    -0.354 N 
ATOM     45  C   UNL A   1      39.453  29.862  30.138  1.00  0.00     0.074 A 
ATOM     46  C   UNL A   1      38.491  30.078  29.080  1.00  0.00     0.031 C 
ATOM     47  C   UNL A   1      37.777  34.264  34.520  1.00  0.00     0.029 A 
ATOM     48  C   UNL A   1      38.848  33.276  34.617  1.00  0.00     0.049 A 
ATOM     49  H   UNL A   1      39.440  31.902  33.169  1.00  0.00     0.167 HD
ATOM     50  C   UNL A   1      40.435  28.931  30.101  1.00  0.00     0.037 A 
ATOM     51  C   UNL A   1      39.647  33.094  35.685  1.00  0.00     0.037 A 
ATOM     52  C   UNL A   1      41.399  28.730  31.152  1.00  0.00     0.049 A 
ATOM     53  C   UNL A   1      40.717  32.035  35.625  1.00  0.00     0.074 A 
ATOM     54  C   UNL A   1      42.460  27.843  31.191  1.00  0.00     0.029 A 
ATOM     55  N   UNL A   1      41.412  29.423  32.353  1.00  0.00    -0.354 N 
ATOM     56  N   UNL A   1      41.011  31.208  34.651  1.00  0.00    -0.248 NA
ATOM     57  C   UNL A   1      41.572  31.891  36.812  1.00  0.00     0.031 C 
ATOM     58  C   UNL A   1      43.084  27.962  32.437  1.00  0.00     0.029 A 
ATOM     59  C   UNL A   1      42.450  28.967  33.150  1.00  0.00     0.049 A 
ATOM     60  H   UNL A   1      40.778  30.134  32.603  1.00  0.00     0.167 HD
ATOM     61  C   UNL A   1      42.100  30.469  35.093  1.00  0.00     0.074 A 
ATOM     62  C   UNL A   1      42.426  30.958  36.416  1.00  0.00     0.031 C 
ATOM     63  C   UNL A   1      42.768  29.473  34.461  1.00  0.00     0.037 A 
BRANCH  50  64
ATOM     64  C   UNL A   1      40.524  28.059  28.881  1.00  0.00     0.064 A 
ATOM     65  C   UNL A   1      39.811  26.853  28.786  1.00  0.00     0.173 A 
ATOM     66  C   UNL A   1      41.289  28.456  27.774  1.00  0.00     0.173 A 
ATOM     67  F   UNL A   1      39.071  26.422  29.819  1.00  0.00    -0.203 F 
ATOM     68  C   UNL A   1      39.884  26.065  27.640  1.00  0.00     0.198 A 
ATOM     69  C   UNL A   1      41.333  27.681  26.618  1.00  0.00     0.198 A 
ATOM     70  F   UNL A   1      41.984  29.602  27.808  1.00  0.00    -0.203 F 
ATOM     71  F   UNL A   1      39.232  24.895  27.591  1.00  0.00    -0.200 F 
ATOM     72  C   UNL A   1      40.637  26.484  26.554  1.00  0.00     0.200 A 
ATOM     73  F   UNL A   1      42.049  28.095  25.563  1.00  0.00    -0.200 F 
ATOM     74  F   UNL A   1      40.695  25.731  25.448  1.00  0.00    -0.200 F 
ENDBRANCH  50  64
BRANCH  51  75
ATOM     75  C   UNL A   1      39.476  33.936  36.899  1.00  0.00     0.064 A 
ATOM     76  C   UNL A   1      40.058  35.208  36.984  1.00  0.00     0.173 A 
ATOM     77  C   UNL A   1      38.746  33.479  38.006  1.00  0.00     0.173 A 
ATOM     78  F   UNL A   1      40.784  35.682  35.960  1.00  0.00    -0.203 F 
ATOM     79  C   UNL A   1      39.943  35.978  38.140  1.00  0.00     0.198 A 
ATOM     80  C   UNL A   1      38.602  34.264  39.148  1.00  0.00     0.198 A 
ATOM     81  F   UNL A   1      38.163  32.272  37.976  1.00  0.00    -0.203 F 
ATOM     82  F   UNL A   1      40.560  37.165  38.215  1.00  0.00    -0.200 F 
ATOM     83  C   UNL A   1      39.211  35.507  39.219  1.00  0.00     0.200 A 
ATOM     84  F   UNL A   1      37.880  33.812  40.183  1.00  0.00    -0.200 F 
ATOM     85  F   UNL A   1      39.101  36.247  40.330  1.00  0.00    -0.200 F 
ENDBRANCH  51  75
BRANCH  63  86
ATOM     86  C   UNL A   1      43.948  28.875  35.174  1.00  0.00     0.064 A 
ATOM     87  C   UNL A   1      43.809  27.795  36.058  1.00  0.00     0.173 A 
ATOM     88  C   UNL A   1      45.242  29.366  34.936  1.00  0.00     0.173 A 
ATOM     89  F   UNL A   1      42.592  27.298  36.332  1.00  0.00    -0.203 F 
ATOM     90  C   UNL A   1      44.917  27.249  36.701  1.00  0.00     0.198 A 
ATOM     91  C   UNL A   1      46.351  28.795  35.553  1.00  0.00     0.198 A 
ATOM     92  F   UNL A   1      45.433  30.391  34.093  1.00  0.00    -0.203 F 
ATOM     93  F   UNL A   1      44.752  26.254  37.584  1.00  0.00    -0.200 F 
ATOM     94  C   UNL A   1      46.186  27.743  36.442  1.00  0.00     0.200 A 
ATOM     95  F   UNL A   1      47.579  29.261  35.288  1.00  0.00    -0.200 F 
ATOM     96  F   UNL A   1      47.252  27.210  37.055  1.00  0.00    -0.200 F 
ENDBRANCH  63  86
ENDBRANCH  37  38
ENDBRANCH  29  32
ENDBRANCH  27  28
ENDBRANCH  26  27
ENDBRANCH  25  26
ENDBRANCH   1  25
TORSDOF 17
ENDMDL
MODEL 2
REMARK VINA RESULT:     -11.6      4.268      8.113
REMARK SMILES Cc1ccc(C(=O)N[C@@H](CC(=O)NCCCCCCNC(=O)c2ccc(-c3c4nc(c(-c5c(F)c(F)c(F)c(F)c5F)c5ccc([nH]5)c(-c5c(F)c(F)c(F)c(F)c5F)c5nc(c(-c6c(F)c(F)c(F)c(F)c6F)c6ccc3[nH]6)C=C5)C=C4)cc2)c2cccs2)o1
REMARK SMILES IDX 16 1 15 2 14 3 13 4 11 5 12 6 10 8 9 9 8 10 6 11 7 12 5 14
REMARK SMILES IDX 1 15 2 16 3 17 91 18 4 19 86 20 87 21 90 22 88 23 89 24
REMARK SMILES IDX 17 25 18 26 19 27 20 28 21 29 22 31 23 32 24 33 85 34 25 35
REMARK SMILES IDX 84 36 26 37 27 38 28 39 78 40 29 41 83 42 77 43 79 44 30 45
REMARK SMILES IDX 82 46 76 47 75 48 31 50 63 51 43 52 62 53 44 54 47 55 61 56
REMARK SMILES IDX 80 57 45 58 46 59 60 61 81 62 48 63 32 64 33 65 41 66 34 67
REMARK SMILES IDX 35 68 39 69 42 70 36 71 37 72 40 73 38 74 64 75 65 76 73 77
REMARK SMILES IDX 66 78 67 79 71 80 74 81 68 82 69 83 72 84 70 85 49 86 50 87
REMARK SMILES IDX 58 88 51 89 52 90 56 91 59 92 53 93 54 94 57 95 55 96
REMARK H PARENT 13 7 8 13 20 30 79 49 47 60
REMARK Flexibility Score: inf
ROOT
ATOM      1  C   UNL A   1      34.451  20.645  25.410  1.00  0.00     0.002 C 
ENDROOT
BRANCH   1   2
ATOM      2  C   UNL A   1      32.946  20.387  25.518  1.00  0.00     0.021 C 
BRANCH   2   3
ATOM      3  C   UNL A   1      32.079  21.530  24.989  1.00  0.00     0.116 C 
BRANCH   3   4
ATOM      4  N   UNL A   1      31.084  21.904  25.974  1.00  0.00    -0.356 N 
ATOM      5  C   UNL A   1      30.966  23.041  26.709  1.00  0.00     0.222 C 
ATOM      6  O   UNL A   1      30.060  23.104  27.543  1.00  0.00    -0.275 OA
ATOM      7  H   UNL A   1      30.384  21.230  26.135  1.00  0.00     0.163 HD
BRANCH   5   8
ATOM      8  C   UNL A   1      31.877  24.224  26.462  1.00  0.00     0.130 C 
BRANCH   8   9
ATOM      9  C   UNL A   1      31.256  25.623  26.532  1.00  0.00     0.132 C 
BRANCH   9  10
ATOM     10  N   UNL A   1      30.089  25.784  25.685  1.00  0.00    -0.341 N 
ATOM     11  C   UNL A   1      29.882  26.052  24.359  1.00  0.00     0.287 C 
ATOM     12  O   UNL A   1      28.719  26.371  24.085  1.00  0.00    -0.266 OA
ATOM     13  H   UNL A   1      29.246  25.676  26.181  1.00  0.00     0.164 HD
BRANCH  11  14
ATOM     14  C   UNL A   1      30.918  25.936  23.351  1.00  0.00     0.191 A 
ATOM     15  C   UNL A   1      33.155  23.471  22.000  1.00  0.00     0.087 C 
ATOM     16  C   UNL A   1      32.441  24.734  22.272  1.00  0.00     0.101 A 
ATOM     17  C   UNL A   1      32.604  26.029  21.844  1.00  0.00     0.046 A 
ATOM     18  O   UNL A   1      31.414  24.665  23.155  1.00  0.00    -0.456 OA
ATOM     19  C   UNL A   1      31.636  26.799  22.540  1.00  0.00     0.056 A 
ENDBRANCH  11  14
ENDBRANCH   9  10
BRANCH   9  20
ATOM     20  C   UNL A   1      32.204  26.770  26.271  1.00  0.00     0.027 A 
ATOM     21  C   UNL A   1      33.490  26.696  25.768  1.00  0.00     0.017 A 
ATOM     22  S   UNL A   1      31.792  28.397  26.652  1.00  0.00    -0.147 S 
ATOM     23  C   UNL A   1      34.142  27.963  25.739  1.00  0.00     0.012 A 
ATOM     24  C   UNL A   1      33.332  28.972  26.201  1.00  0.00     0.065 A 
ENDBRANCH   9  20
ENDBRANCH   8   9
ENDBRANCH   5   8
ENDBRANCH   3   4
ENDBRANCH   2   3
ENDBRANCH   1   2
BRANCH   1  25
ATOM     25  C   UNL A   1      34.821  22.016  24.840  1.00  0.00     0.002 C 
BRANCH  25  26
ATOM     26  C   UNL A   1      35.372  23.007  25.868  1.00  0.00     0.021 C 
BRANCH  26  27
ATOM     27  C   UNL A   1      36.771  23.526  25.553  1.00  0.00     0.116 C 
BRANCH  27  28
ATOM     28  N   UNL A   1      37.797  22.565  25.929  1.00  0.00    -0.352 N 
ATOM     29  C   UNL A   1      39.045  22.791  26.445  1.00  0.00     0.251 C 
ATOM     30  H   UNL A   1      37.560  21.619  25.795  1.00  0.00     0.163 HD
ATOM     31  O   UNL A   1      39.880  21.889  26.476  1.00  0.00    -0.269 OA
BRANCH  29  32
ATOM     32  C   UNL A   1      39.392  24.132  26.956  1.00  0.00     0.039 A 
ATOM     33  C   UNL A   1      39.067  24.461  28.272  1.00  0.00     0.014 A 
ATOM     34  C   UNL A   1      40.030  25.063  26.129  1.00  0.00     0.014 A 
ATOM     35  C   UNL A   1      39.429  25.710  28.779  1.00  0.00     0.010 A 
ATOM     36  C   UNL A   1      40.459  26.276  26.659  1.00  0.00     0.010 A 
ATOM     37  C   UNL A   1      40.155  26.615  27.985  1.00  0.00    -0.014 A 
BRANCH  37  38
ATOM     38  C   UNL A   1      40.600  27.923  28.527  1.00  0.00     0.031 A 
ATOM     39  C   UNL A   1      42.044  28.141  28.884  1.00  0.00     0.074 A 
ATOM     40  C   UNL A   1      39.693  28.894  28.747  1.00  0.00     0.049 A 
ATOM     41  N   UNL A   1      42.615  29.188  29.422  1.00  0.00    -0.248 NA
ATOM     42  C   UNL A   1      42.966  27.024  28.622  1.00  0.00     0.031 C 
ATOM     43  C   UNL A   1      38.257  28.785  28.485  1.00  0.00     0.029 A 
ATOM     44  N   UNL A   1      39.842  30.162  29.252  1.00  0.00    -0.354 N 
ATOM     45  C   UNL A   1      43.955  28.854  29.570  1.00  0.00     0.074 A 
ATOM     46  C   UNL A   1      44.103  27.487  29.120  1.00  0.00     0.031 C 
ATOM     47  C   UNL A   1      37.661  29.942  28.811  1.00  0.00     0.029 A 
ATOM     48  C   UNL A   1      38.663  30.859  29.347  1.00  0.00     0.049 A 
ATOM     49  H   UNL A   1      40.712  30.535  29.522  1.00  0.00     0.167 HD
ATOM     50  C   UNL A   1      44.974  29.626  30.016  1.00  0.00     0.037 A 
ATOM     51  C   UNL A   1      38.416  32.095  29.822  1.00  0.00     0.037 A 
ATOM     52  C   UNL A   1      44.823  30.991  30.450  1.00  0.00     0.049 A 
ATOM     53  C   UNL A   1      39.565  32.924  30.333  1.00  0.00     0.074 A 
ATOM     54  C   UNL A   1      45.800  31.874  30.877  1.00  0.00     0.029 A 
ATOM     55  N   UNL A   1      43.614  31.669  30.518  1.00  0.00    -0.354 N 
ATOM     56  N   UNL A   1      40.839  32.622  30.403  1.00  0.00    -0.248 NA
ATOM     57  C   UNL A   1      39.241  34.271  30.824  1.00  0.00     0.031 C 
ATOM     58  C   UNL A   1      45.176  33.068  31.253  1.00  0.00     0.029 A 
ATOM     59  C   UNL A   1      43.818  32.951  31.002  1.00  0.00     0.049 A 
ATOM     60  H   UNL A   1      42.741  31.294  30.261  1.00  0.00     0.167 HD
ATOM     61  C   UNL A   1      41.471  33.748  30.914  1.00  0.00     0.074 A 
ATOM     62  C   UNL A   1      40.443  34.746  31.119  1.00  0.00     0.031 C 
ATOM     63  C   UNL A   1      42.784  33.937  31.190  1.00  0.00     0.037 A 
BRANCH  50  64
ATOM     64  C   UNL A   1      46.347  29.018  30.051  1.00  0.00     0.064 A 
ATOM     65  C   UNL A   1      47.211  29.090  28.947  1.00  0.00     0.173 A 
ATOM     66  C   UNL A   1      46.825  28.400  31.217  1.00  0.00     0.173 A 
ATOM     67  F   UNL A   1      46.801  29.662  27.804  1.00  0.00    -0.203 F 
ATOM     68  C   UNL A   1      48.490  28.542  29.000  1.00  0.00     0.198 A 
ATOM     69  C   UNL A   1      48.116  27.883  31.277  1.00  0.00     0.198 A 
ATOM     70  F   UNL A   1      46.044  28.310  32.303  1.00  0.00    -0.203 F 
ATOM     71  F   UNL A   1      49.279  28.581  27.917  1.00  0.00    -0.200 F 
ATOM     72  C   UNL A   1      48.944  27.947  30.167  1.00  0.00     0.200 A 
ATOM     73  F   UNL A   1      48.559  27.323  32.411  1.00  0.00    -0.200 F 
ATOM     74  F   UNL A   1      50.180  27.432  30.221  1.00  0.00    -0.200 F 
ENDBRANCH  50  64
BRANCH  51  75
ATOM     75  C   UNL A   1      37.028  32.629  29.830  1.00  0.00     0.064 A 
ATOM     76  C   UNL A   1      36.511  33.316  28.723  1.00  0.00     0.173 A 
ATOM     77  C   UNL A   1      36.198  32.482  30.951  1.00  0.00     0.173 A 
ATOM     78  F   UNL A   1      37.273  33.500  27.634  1.00  0.00    -0.203 F 
ATOM     79  C   UNL A   1      35.230  33.862  28.748  1.00  0.00     0.198 A 
ATOM     80  C   UNL A   1      34.903  32.999  30.961  1.00  0.00     0.198 A 
ATOM     81  F   UNL A   1      36.639  31.828  32.035  1.00  0.00    -0.203 F 
ATOM     82  F   UNL A   1      34.783  34.565  27.698  1.00  0.00    -0.200 F 
ATOM     83  C   UNL A   1      34.425  33.698  29.865  1.00  0.00     0.200 A 
ATOM     84  F   UNL A   1      34.123  32.824  32.037  1.00  0.00    -0.200 F 
ATOM     85  F   UNL A   1      33.193  34.224  29.888  1.00  0.00    -0.200 F 
ENDBRANCH  51  75
BRANCH  63  86
ATOM     86  C   UNL A   1      43.193  35.289  31.704  1.00  0.00     0.064 A 
ATOM     87  C   UNL A   1      43.679  36.289  30.851  1.00  0.00     0.173 A 
ATOM     88  C   UNL A   1      43.056  35.598  33.067  1.00  0.00     0.173 A 
ATOM     89  F   UNL A   1      43.843  36.040  29.542  1.00  0.00    -0.203 F 
ATOM     90  C   UNL A   1      44.044  37.538  31.346  1.00  0.00     0.198 A 
ATOM     91  C   UNL A   1      43.388  36.859  33.553  1.00  0.00     0.198 A 
ATOM     92  F   UNL A   1      42.587  34.681  33.926  1.00  0.00    -0.203 F 
ATOM     93  F   UNL A   1      44.558  38.460  30.520  1.00  0.00    -0.200 F 
ATOM     94  C   UNL A   1      43.890  37.824  32.693  1.00  0.00     0.200 A 
ATOM     95  F   UNL A   1      43.222  37.140  34.853  1.00  0.00    -0.200 F 
ATOM     96  F   UNL A   1      44.232  39.030  33.167  1.00  0.00    -0.200 F 
ENDBRANCH  63  86
ENDBRANCH  37  38
ENDBRANCH  29  32
ENDBRANCH  27  28
ENDBRANCH  26  27
ENDBRANCH  25  26
ENDBRANCH   1  25
TORSDOF 17
ENDMDL
MODEL 3
REMARK VINA RESULT:     -11.6      0.942      7.474
REMARK SMILES Cc1ccc(C(=O)N[C@@H](CC(=O)NCCCCCCNC(=O)c2ccc(-c3c4nc(c(-c5c(F)c(F)c(F)c(F)c5F)c5ccc([nH]5)c(-c5c(F)c(F)c(F)c(F)c5F)c5nc(c(-c6c(F)c(F)c(F)c(F)c6F)c6ccc3[nH]6)C=C5)C=C4)cc2)c2cccs2)o1
REMARK SMILES IDX 16 1 15 2 14 3 13 4 11 5 12 6 10 8 9 9 8 10 6 11 7 12 5 14
REMARK SMILES IDX 1 15 2 16 3 17 91 18 4 19 86 20 87 21 90 22 88 23 89 24
REMARK SMILES IDX 17 25 18 26 19 27 20 28 21 29 22 31 23 32 24 33 85 34 25 35
REMARK SMILES IDX 84 36 26 37 27 38 28 39 78 40 29 41 83 42 77 43 79 44 30 45
REMARK SMILES IDX 82 46 76 47 75 48 31 50 63 51 43 52 62 53 44 54 47 55 61 56
REMARK SMILES IDX 80 57 45 58 46 59 60 61 81 62 48 63 32 64 33 65 41 66 34 67
REMARK SMILES IDX 35 68 39 69 42 70 36 71 37 72 40 73 38 74 64 75 65 76 73 77
REMARK SMILES IDX 66 78 67 79 71 80 74 81 68 82 69 83 72 84 70 85 49 86 50 87
REMARK SMILES IDX 58 88 51 89 52 90 56 91 59 92 53 93 54 94 57 95 55 96
REMARK H PARENT 13 7 8 13 20 30 79 49 47 60
REMARK Flexibility Score: inf
ROOT
ATOM      1  C   UNL A   1      31.470  30.065  25.714  1.00  0.00     0.002 C 
ENDROOT
BRANCH   1   2
ATOM      2  C   UNL A   1      32.327  29.527  26.863  1.00  0.00     0.021 C 
BRANCH   2   3
ATOM      3  C   UNL A   1      33.670  28.947  26.418  1.00  0.00     0.116 C 
BRANCH   3   4
ATOM      4  N   UNL A   1      33.567  27.512  26.249  1.00  0.00    -0.356 N 
ATOM      5  C   UNL A   1      33.188  26.784  25.166  1.00  0.00     0.222 C 
ATOM      6  O   UNL A   1      33.115  25.559  25.284  1.00  0.00    -0.275 OA
ATOM      7  H   UNL A   1      33.810  26.981  27.043  1.00  0.00     0.163 HD
BRANCH   5   8
ATOM      8  C   UNL A   1      32.931  27.451  23.832  1.00  0.00     0.130 C 
BRANCH   8   9
ATOM      9  C   UNL A   1      31.728  26.965  23.016  1.00  0.00     0.132 C 
BRANCH   9  10
ATOM     10  N   UNL A   1      32.085  26.433  21.715  1.00  0.00    -0.341 N 
ATOM     11  C   UNL A   1      32.802  25.356  21.270  1.00  0.00     0.287 C 
ATOM     12  O   UNL A   1      33.095  25.405  20.070  1.00  0.00    -0.266 OA
ATOM     13  H   UNL A   1      31.728  26.976  20.976  1.00  0.00     0.164 HD
BRANCH  11  14
ATOM     14  C   UNL A   1      33.158  24.231  22.115  1.00  0.00     0.191 A 
ATOM     15  C   UNL A   1      36.064  22.767  23.636  1.00  0.00     0.087 C 
ATOM     16  C   UNL A   1      34.680  23.031  23.199  1.00  0.00     0.101 A 
ATOM     17  C   UNL A   1      33.502  22.334  23.300  1.00  0.00     0.046 A 
ATOM     18  O   UNL A   1      34.476  24.185  22.514  1.00  0.00    -0.456 OA
ATOM     19  C   UNL A   1      32.530  23.096  22.600  1.00  0.00     0.056 A 
ENDBRANCH  11  14
ENDBRANCH   9  10
BRANCH   9  20
ATOM     20  C   UNL A   1      30.614  27.969  22.838  1.00  0.00     0.027 A 
ATOM     21  C   UNL A   1      30.704  29.230  22.278  1.00  0.00     0.017 A 
ATOM     22  S   UNL A   1      29.016  27.666  23.403  1.00  0.00    -0.147 S 
ATOM     23  C   UNL A   1      29.478  29.955  22.355  1.00  0.00     0.012 A 
ATOM     24  C   UNL A   1      28.481  29.221  22.953  1.00  0.00     0.065 A 
ENDBRANCH   9  20
ENDBRANCH   8   9
ENDBRANCH   5   8
ENDBRANCH   3   4
ENDBRANCH   2   3
ENDBRANCH   1   2
BRANCH   1  25
ATOM     25  C   UNL A   1      31.027  31.520  25.881  1.00  0.00     0.002 C 
BRANCH  25  26
ATOM     26  C   UNL A   1      31.444  32.167  27.204  1.00  0.00     0.021 C 
BRANCH  26  27
ATOM     27  C   UNL A   1      32.715  33.005  27.121  1.00  0.00     0.116 C 
BRANCH  27  28
ATOM     28  N   UNL A   1      32.508  34.347  27.646  1.00  0.00    -0.352 N 
ATOM     29  C   UNL A   1      33.069  34.940  28.745  1.00  0.00     0.251 C 
ATOM     30  H   UNL A   1      31.875  34.906  27.140  1.00  0.00     0.163 HD
ATOM     31  O   UNL A   1      32.604  35.986  29.195  1.00  0.00    -0.269 OA
BRANCH  29  32
ATOM     32  C   UNL A   1      34.233  34.312  29.399  1.00  0.00     0.039 A 
ATOM     33  C   UNL A   1      34.023  33.440  30.468  1.00  0.00     0.014 A 
ATOM     34  C   UNL A   1      35.531  34.593  28.959  1.00  0.00     0.014 A 
ATOM     35  C   UNL A   1      35.114  32.807  31.065  1.00  0.00     0.010 A 
ATOM     36  C   UNL A   1      36.610  33.903  29.504  1.00  0.00     0.010 A 
ATOM     37  C   UNL A   1      36.413  33.010  30.567  1.00  0.00    -0.014 A 
BRANCH  37  38
ATOM     38  C   UNL A   1      37.577  32.299  31.152  1.00  0.00     0.031 A 
ATOM     39  C   UNL A   1      38.102  32.695  32.503  1.00  0.00     0.074 A 
ATOM     40  C   UNL A   1      38.192  31.334  30.441  1.00  0.00     0.049 A 
ATOM     41  N   UNL A   1      39.141  32.236  33.156  1.00  0.00    -0.248 NA
ATOM     42  C   UNL A   1      37.378  33.766  33.207  1.00  0.00     0.031 C 
ATOM     43  C   UNL A   1      37.804  30.894  29.100  1.00  0.00     0.029 A 
ATOM     44  N   UNL A   1      39.282  30.555  30.742  1.00  0.00    -0.354 N 
ATOM     45  C   UNL A   1      39.198  32.965  34.336  1.00  0.00     0.074 A 
ATOM     46  C   UNL A   1      38.127  33.936  34.287  1.00  0.00     0.031 C 
ATOM     47  C   UNL A   1      38.628  29.912  28.703  1.00  0.00     0.029 A 
ATOM     48  C   UNL A   1      39.629  29.683  29.741  1.00  0.00     0.049 A 
ATOM     49  H   UNL A   1      39.769  30.618  31.595  1.00  0.00     0.167 HD
ATOM     50  C   UNL A   1      40.050  32.819  35.378  1.00  0.00     0.037 A 
ATOM     51  C   UNL A   1      40.647  28.806  29.663  1.00  0.00     0.037 A 
ATOM     52  C   UNL A   1      41.106  31.842  35.428  1.00  0.00     0.049 A 
ATOM     53  C   UNL A   1      41.594  28.680  30.827  1.00  0.00     0.074 A 
ATOM     54  C   UNL A   1      41.995  31.583  36.456  1.00  0.00     0.029 A 
ATOM     55  N   UNL A   1      41.418  30.965  34.399  1.00  0.00    -0.354 N 
ATOM     56  N   UNL A   1      41.597  29.326  31.968  1.00  0.00    -0.248 NA
ATOM     57  C   UNL A   1      42.677  27.695  30.696  1.00  0.00     0.031 C 
ATOM     58  C   UNL A   1      42.879  30.587  36.030  1.00  0.00     0.029 A 
ATOM     59  C   UNL A   1      42.502  30.180  34.760  1.00  0.00     0.049 A 
ATOM     60  H   UNL A   1      40.941  30.909  33.540  1.00  0.00     0.167 HD
ATOM     61  C   UNL A   1      42.656  28.807  32.700  1.00  0.00     0.074 A 
ATOM     62  C   UNL A   1      43.262  27.778  31.882  1.00  0.00     0.031 C 
ATOM     63  C   UNL A   1      43.088  29.152  33.937  1.00  0.00     0.037 A 
BRANCH  50  64
ATOM     64  C   UNL A   1      39.874  33.734  36.557  1.00  0.00     0.064 A 
ATOM     65  C   UNL A   1      40.525  34.976  36.626  1.00  0.00     0.173 A 
ATOM     66  C   UNL A   1      39.008  33.389  37.605  1.00  0.00     0.173 A 
ATOM     67  F   UNL A   1      41.372  35.350  35.655  1.00  0.00    -0.203 F 
ATOM     68  C   UNL A   1      40.337  35.825  37.714  1.00  0.00     0.198 A 
ATOM     69  C   UNL A   1      38.796  34.255  38.674  1.00  0.00     0.198 A 
ATOM     70  F   UNL A   1      38.355  32.218  37.586  1.00  0.00    -0.203 F 
ATOM     71  F   UNL A   1      41.006  36.984  37.781  1.00  0.00    -0.200 F 
ATOM     72  C   UNL A   1      39.465  35.468  38.732  1.00  0.00     0.200 A 
ATOM     73  F   UNL A   1      37.941  33.916  39.650  1.00  0.00    -0.200 F 
ATOM     74  F   UNL A   1      39.275  36.292  39.772  1.00  0.00    -0.200 F 
ENDBRANCH  50  64
BRANCH  51  75
ATOM     75  C   UNL A   1      40.822  27.970  28.445  1.00  0.00     0.064 A 
ATOM     76  C   UNL A   1      40.238  26.699  28.350  1.00  0.00     0.173 A 
ATOM     77  C   UNL A   1      41.593  28.414  27.360  1.00  0.00     0.173 A 
ATOM     78  F   UNL A   1      39.507  26.221  29.369  1.00  0.00    -0.203 F 
ATOM     79  C   UNL A   1      40.442  25.893  27.232  1.00  0.00     0.198 A 
ATOM     80  C   UNL A   1      41.768  27.620  26.228  1.00  0.00     0.198 A 
ATOM     81  F   UNL A   1      42.170  29.624  27.396  1.00  0.00    -0.203 F 
ATOM     82  F   UNL A   1      39.920  24.660  27.195  1.00  0.00    -0.200 F 
ATOM     83  C   UNL A   1      41.203  26.357  26.170  1.00  0.00     0.200 A 
ATOM     84  F   UNL A   1      42.491  28.079  25.197  1.00  0.00    -0.200 F 
ATOM     85  F   UNL A   1      41.400  25.581  25.096  1.00  0.00    -0.200 F 
ENDBRANCH  51  75
BRANCH  63  86
ATOM     86  C   UNL A   1      44.247  28.381  34.502  1.00  0.00     0.064 A 
ATOM     87  C   UNL A   1      45.570  28.825  34.360  1.00  0.00     0.173 A 
ATOM     88  C   UNL A   1      44.025  27.201  35.230  1.00  0.00     0.173 A 
ATOM     89  F   UNL A   1      45.838  29.939  33.661  1.00  0.00    -0.203 F 
ATOM     90  C   UNL A   1      46.630  28.101  34.899  1.00  0.00     0.198 A 
ATOM     91  C   UNL A   1      45.084  26.499  35.798  1.00  0.00     0.198 A 
ATOM     92  F   UNL A   1      42.779  26.737  35.403  1.00  0.00    -0.203 F 
ATOM     93  F   UNL A   1      47.890  28.515  34.704  1.00  0.00    -0.200 F 
ATOM     94  C   UNL A   1      46.386  26.944  35.624  1.00  0.00     0.200 A 
ATOM     95  F   UNL A   1      44.845  25.391  36.513  1.00  0.00    -0.200 F 
ATOM     96  F   UNL A   1      47.406  26.254  36.150  1.00  0.00    -0.200 F 
ENDBRANCH  63  86
ENDBRANCH  37  38
ENDBRANCH  29  32
ENDBRANCH  27  28
ENDBRANCH  26  27
ENDBRANCH  25  26
ENDBRANCH   1  25
TORSDOF 17
ENDMDL
