MODEL 1
REMARK VINA RESULT:     -12.9      0.000      0.000
REMARK SMILES NS(=O)(=O)c1ccc(-n2nc(C(=O)NCCCCCCNC(=O)c3ccc(-c4c5nc(c(-c6c(F)c(F)c(F)c(F)c6F)c6ccc([nH]6)c(-c6c(F)c(F)c(F)c(F)c6F)c6nc(c(-c7c(F)c(F)c(F)c(F)c7F)c7ccc4[nH]7)C=C6)C=C5)cc3)cc2-c2ccc(Cl)s2)cc1
REMARK SMILES IDX 17 1 16 2 15 3 14 4 12 5 13 6 11 8 9 9 10 10 88 11 87 12
REMARK SMILES IDX 8 13 5 14 6 15 96 16 7 17 95 18 2 19 3 20 4 21 1 22 89 25
REMARK SMILES IDX 90 26 94 27 91 28 92 29 93 30 18 31 19 32 20 33 21 34 22 35
REMARK SMILES IDX 23 37 24 38 25 39 86 40 26 41 85 42 27 43 28 44 29 45 79 46
REMARK SMILES IDX 30 47 84 48 78 49 80 50 31 51 83 52 77 53 76 54 32 56 64 57
REMARK SMILES IDX 44 58 63 59 45 60 48 61 62 62 81 63 46 64 47 65 61 67 82 68
REMARK SMILES IDX 49 69 33 70 34 71 42 72 35 73 36 74 40 75 43 76 37 77 38 78
REMARK SMILES IDX 41 79 39 80 65 81 66 82 74 83 67 84 68 85 72 86 75 87 69 88
REMARK SMILES IDX 70 89 73 90 71 91 50 92 51 93 59 94 52 95 53 96 57 97 60 98
REMARK SMILES IDX 54 99 55 100 58 101 56 102
REMARK H PARENT 14 7 1 23 1 24 21 36 80 55 48 66
REMARK Flexibility Score: inf
ROOT
ATOM      1  C   UNL A   1      31.924  28.530  27.631  1.00  0.00     0.002 C 
ENDROOT
BRANCH   1   2
ATOM      2  C   UNL A   1      31.299  27.448  26.740  1.00  0.00     0.021 C 
BRANCH   2   3
ATOM      3  C   UNL A   1      31.331  27.795  25.251  1.00  0.00     0.116 C 
BRANCH   3   4
ATOM      4  N   UNL A   1      30.310  27.072  24.523  1.00  0.00    -0.351 N 
ATOM      5  C   UNL A   1      30.254  25.822  23.949  1.00  0.00     0.271 C 
ATOM      6  O   UNL A   1      29.177  25.541  23.415  1.00  0.00    -0.267 OA
ATOM      7  H   UNL A   1      29.476  27.584  24.417  1.00  0.00     0.163 HD
BRANCH   5   8
ATOM      8  C   UNL A   1      31.383  24.864  23.998  1.00  0.00     0.151 A 
ATOM      9  N   UNL A   1      32.322  22.926  24.129  1.00  0.00    -0.231 N 
ATOM     10  N   UNL A   1      31.143  23.539  23.888  1.00  0.00    -0.162 NA
ATOM     11  C   UNL A   1      33.357  23.832  24.233  1.00  0.00     0.085 A 
ATOM     12  C   UNL A   1      32.778  25.074  24.109  1.00  0.00     0.066 A 
BRANCH   9  13
ATOM     13  C   UNL A   1      32.396  21.515  24.224  1.00  0.00     0.065 A 
ATOM     14  C   UNL A   1      32.815  18.773  24.348  1.00  0.00     0.082 A 
ATOM     15  C   UNL A   1      32.891  19.534  25.518  1.00  0.00     0.024 A 
ATOM     16  C   UNL A   1      32.483  19.368  23.124  1.00  0.00     0.024 A 
ATOM     17  C   UNL A   1      32.698  20.913  25.453  1.00  0.00     0.030 A 
ATOM     18  C   UNL A   1      32.237  20.742  23.068  1.00  0.00     0.030 A 
BRANCH  14  19
ATOM     19  S   UNL A   1      33.219  17.052  24.399  1.00  0.00     0.238 S 
ATOM     20  O   UNL A   1      33.381  16.572  23.035  1.00  0.00    -0.207 OA
ATOM     21  O   UNL A   1      32.382  16.406  25.362  1.00  0.00    -0.207 OA
BRANCH  19  22
ATOM     22  N   UNL A   1      34.778  17.040  25.038  1.00  0.00    -0.225 NA
ATOM     23  H   UNL A   1      34.907  16.202  25.604  1.00  0.00     0.137 HD
ATOM     24  H   UNL A   1      34.914  17.867  25.619  1.00  0.00     0.137 HD
ENDBRANCH  19  22
ENDBRANCH  14  19
ENDBRANCH   9  13
BRANCH  11  25
ATOM     25  C   UNL A   1      34.757  23.542  24.315  1.00  0.00     0.054 A 
ATOM     26  C   UNL A   1      35.559  23.039  23.309  1.00  0.00     0.024 A 
ATOM     27  S   UNL A   1      35.614  23.697  25.792  1.00  0.00    -0.122 S 
ATOM     28  C   UNL A   1      36.887  22.776  23.762  1.00  0.00     0.033 A 
ATOM     29  C   UNL A   1      37.024  23.085  25.090  1.00  0.00     0.094 A 
ATOM     30  Cl  UNL A   1      38.437  22.892  26.046  1.00  0.00    -0.072 Cl
ENDBRANCH  11  25
ENDBRANCH   5   8
ENDBRANCH   3   4
ENDBRANCH   2   3
ENDBRANCH   1   2
BRANCH   1  31
ATOM     31  C   UNL A   1      33.315  29.021  27.196  1.00  0.00     0.002 C 
BRANCH  31  32
ATOM     32  C   UNL A   1      33.456  30.535  26.983  1.00  0.00     0.021 C 
BRANCH  32  33
ATOM     33  C   UNL A   1      34.724  31.120  27.592  1.00  0.00     0.116 C 
BRANCH  33  34
ATOM     34  N   UNL A   1      34.426  31.960  28.744  1.00  0.00    -0.352 N 
ATOM     35  C   UNL A   1      34.999  31.954  29.992  1.00  0.00     0.251 C 
ATOM     36  H   UNL A   1      33.714  32.626  28.609  1.00  0.00     0.163 HD
ATOM     37  O   UNL A   1      34.420  32.471  30.942  1.00  0.00    -0.269 OA
BRANCH  35  38
ATOM     38  C   UNL A   1      36.305  31.303  30.197  1.00  0.00     0.039 A 
ATOM     39  C   UNL A   1      36.355  29.927  30.429  1.00  0.00     0.014 A 
ATOM     40  C   UNL A   1      37.477  32.061  30.172  1.00  0.00     0.014 A 
ATOM     41  C   UNL A   1      37.592  29.305  30.556  1.00  0.00     0.010 A 
ATOM     42  C   UNL A   1      38.706  31.431  30.206  1.00  0.00     0.010 A 
ATOM     43  C   UNL A   1      38.769  30.055  30.414  1.00  0.00    -0.014 A 
BRANCH  43  44
ATOM     44  C   UNL A   1      40.050  29.352  30.331  1.00  0.00     0.031 A 
ATOM     45  C   UNL A   1      40.733  29.135  31.641  1.00  0.00     0.074 A 
ATOM     46  C   UNL A   1      40.526  28.756  29.218  1.00  0.00     0.049 A 
ATOM     47  N   UNL A   1      41.903  29.549  32.000  1.00  0.00    -0.248 NA
ATOM     48  C   UNL A   1      39.990  28.453  32.713  1.00  0.00     0.031 C 
ATOM     49  C   UNL A   1      39.866  28.591  27.923  1.00  0.00     0.029 A 
ATOM     50  N   UNL A   1      41.687  28.059  29.058  1.00  0.00    -0.354 N 
ATOM     51  C   UNL A   1      42.119  29.060  33.288  1.00  0.00     0.074 A 
ATOM     52  C   UNL A   1      40.862  28.509  33.722  1.00  0.00     0.031 C 
ATOM     53  C   UNL A   1      40.523  27.653  27.205  1.00  0.00     0.029 A 
ATOM     54  C   UNL A   1      41.722  27.259  27.924  1.00  0.00     0.049 A 
ATOM     55  H   UNL A   1      42.437  28.117  29.695  1.00  0.00     0.167 HD
ATOM     56  C   UNL A   1      43.377  28.980  33.809  1.00  0.00     0.037 A 
ATOM     57  C   UNL A   1      42.642  26.306  27.627  1.00  0.00     0.037 A 
ATOM     58  C   UNL A   1      44.286  29.838  33.089  1.00  0.00     0.049 A 
ATOM     59  C   UNL A   1      43.853  26.591  28.439  1.00  0.00     0.074 A 
ATOM     60  C   UNL A   1      44.308  31.190  32.796  1.00  0.00     0.029 A 
ATOM     61  N   UNL A   1      45.190  29.268  32.225  1.00  0.00    -0.354 N 
ATOM     62  N   UNL A   1      44.645  27.607  28.235  1.00  0.00    -0.248 NA
ATOM     63  C   UNL A   1      43.943  25.984  29.760  1.00  0.00     0.031 C 
ATOM     64  C   UNL A   1      44.791  31.266  31.456  1.00  0.00     0.029 A 
ATOM     65  C   UNL A   1      45.105  29.969  31.051  1.00  0.00     0.049 A 
ATOM     66  H   UNL A   1      45.783  28.505  32.413  1.00  0.00     0.167 HD
ATOM     67  C   UNL A   1      44.979  28.045  29.506  1.00  0.00     0.074 A 
ATOM     68  C   UNL A   1      44.607  26.950  30.399  1.00  0.00     0.031 C 
ATOM     69  C   UNL A   1      45.252  29.359  29.753  1.00  0.00     0.037 A 
BRANCH  56  70
ATOM     70  C   UNL A   1      43.871  27.868  34.712  1.00  0.00     0.064 A 
ATOM     71  C   UNL A   1      43.630  26.528  34.333  1.00  0.00     0.173 A 
ATOM     72  C   UNL A   1      44.264  28.051  36.053  1.00  0.00     0.173 A 
ATOM     73  F   UNL A   1      43.263  26.224  33.079  1.00  0.00    -0.203 F 
ATOM     74  C   UNL A   1      43.649  25.482  35.258  1.00  0.00     0.198 A 
ATOM     75  C   UNL A   1      44.335  26.995  36.962  1.00  0.00     0.198 A 
ATOM     76  F   UNL A   1      44.492  29.260  36.576  1.00  0.00    -0.203 F 
ATOM     77  F   UNL A   1      43.260  24.256  34.882  1.00  0.00    -0.200 F 
ATOM     78  C   UNL A   1      43.986  25.718  36.576  1.00  0.00     0.200 A 
ATOM     79  F   UNL A   1      44.660  27.246  38.238  1.00  0.00    -0.200 F 
ATOM     80  F   UNL A   1      43.930  24.733  37.482  1.00  0.00    -0.200 F 
ENDBRANCH  56  70
BRANCH  57  81
ATOM     81  C   UNL A   1      42.476  25.043  26.867  1.00  0.00     0.064 A 
ATOM     82  C   UNL A   1      43.185  24.819  25.675  1.00  0.00     0.173 A 
ATOM     83  C   UNL A   1      41.832  23.920  27.424  1.00  0.00     0.173 A 
ATOM     84  F   UNL A   1      43.863  25.819  25.093  1.00  0.00    -0.203 F 
ATOM     85  C   UNL A   1      43.275  23.548  25.097  1.00  0.00     0.198 A 
ATOM     86  C   UNL A   1      41.909  22.655  26.839  1.00  0.00     0.198 A 
ATOM     87  F   UNL A   1      41.193  24.002  28.600  1.00  0.00    -0.203 F 
ATOM     88  F   UNL A   1      44.022  23.364  24.000  1.00  0.00    -0.200 F 
ATOM     89  C   UNL A   1      42.644  22.465  25.685  1.00  0.00     0.200 A 
ATOM     90  F   UNL A   1      41.320  21.610  27.438  1.00  0.00    -0.200 F 
ATOM     91  F   UNL A   1      42.780  21.237  25.168  1.00  0.00    -0.200 F 
ENDBRANCH  57  81
BRANCH  69  92
ATOM     92  C   UNL A   1      45.466  30.287  28.592  1.00  0.00     0.064 A 
ATOM     93  C   UNL A   1      44.433  30.913  27.874  1.00  0.00     0.173 A 
ATOM     94  C   UNL A   1      46.781  30.683  28.303  1.00  0.00     0.173 A 
ATOM     95  F   UNL A   1      43.145  30.676  28.160  1.00  0.00    -0.203 F 
ATOM     96  C   UNL A   1      44.708  31.853  26.883  1.00  0.00     0.198 A 
ATOM     97  C   UNL A   1      47.051  31.654  27.344  1.00  0.00     0.198 A 
ATOM     98  F   UNL A   1      47.808  30.161  28.992  1.00  0.00    -0.203 F 
ATOM     99  F   UNL A   1      43.705  32.424  26.202  1.00  0.00    -0.200 F 
ATOM    100  C   UNL A   1      46.017  32.230  26.626  1.00  0.00     0.200 A 
ATOM    101  F   UNL A   1      48.314  32.052  27.137  1.00  0.00    -0.200 F 
ATOM    102  F   UNL A   1      46.278  33.169  25.706  1.00  0.00    -0.200 F 
ENDBRANCH  69  92
ENDBRANCH  43  44
ENDBRANCH  35  38
ENDBRANCH  33  34
ENDBRANCH  32  33
ENDBRANCH  31  32
ENDBRANCH   1  31
TORSDOF 17
ENDMDL
MODEL 2
REMARK VINA RESULT:     -12.4      4.263      6.597
REMARK SMILES NS(=O)(=O)c1ccc(-n2nc(C(=O)NCCCCCCNC(=O)c3ccc(-c4c5nc(c(-c6c(F)c(F)c(F)c(F)c6F)c6ccc([nH]6)c(-c6c(F)c(F)c(F)c(F)c6F)c6nc(c(-c7c(F)c(F)c(F)c(F)c7F)c7ccc4[nH]7)C=C6)C=C5)cc3)cc2-c2ccc(Cl)s2)cc1
REMARK SMILES IDX 17 1 16 2 15 3 14 4 12 5 13 6 11 8 9 9 10 10 88 11 87 12
REMARK SMILES IDX 8 13 5 14 6 15 96 16 7 17 95 18 2 19 3 20 4 21 1 22 89 25
REMARK SMILES IDX 90 26 94 27 91 28 92 29 93 30 18 31 19 32 20 33 21 34 22 35
REMARK SMILES IDX 23 37 24 38 25 39 86 40 26 41 85 42 27 43 28 44 29 45 79 46
REMARK SMILES IDX 30 47 84 48 78 49 80 50 31 51 83 52 77 53 76 54 32 56 64 57
REMARK SMILES IDX 44 58 63 59 45 60 48 61 62 62 81 63 46 64 47 65 61 67 82 68
REMARK SMILES IDX 49 69 33 70 34 71 42 72 35 73 36 74 40 75 43 76 37 77 38 78
REMARK SMILES IDX 41 79 39 80 65 81 66 82 74 83 67 84 68 85 72 86 75 87 69 88
REMARK SMILES IDX 70 89 73 90 71 91 50 92 51 93 59 94 52 95 53 96 57 97 60 98
REMARK SMILES IDX 54 99 55 100 58 101 56 102
REMARK H PARENT 14 7 1 23 1 24 21 36 80 55 48 66
REMARK Flexibility Score: inf
ROOT
ATOM      1  C   UNL A   1      33.933  34.324  28.009  1.00  0.00     0.002 C 
ENDROOT
BRANCH   1   2
ATOM      2  C   UNL A   1      34.622  33.082  28.589  1.00  0.00     0.021 C 
BRANCH   2   3
ATOM      3  C   UNL A   1      34.189  31.778  27.917  1.00  0.00     0.116 C 
BRANCH   3   4
ATOM      4  N   UNL A   1      35.238  30.783  27.982  1.00  0.00    -0.351 N 
ATOM      5  C   UNL A   1      35.383  29.516  27.464  1.00  0.00     0.271 C 
ATOM      6  O   UNL A   1      36.456  28.964  27.726  1.00  0.00    -0.267 OA
ATOM      7  H   UNL A   1      36.016  31.076  28.510  1.00  0.00     0.163 HD
BRANCH   5   8
ATOM      8  C   UNL A   1      34.350  28.870  26.620  1.00  0.00     0.151 A 
ATOM      9  N   UNL A   1      32.654  28.794  25.288  1.00  0.00    -0.231 N 
ATOM     10  N   UNL A   1      33.595  29.623  25.791  1.00  0.00    -0.162 NA
ATOM     11  C   UNL A   1      32.883  27.482  25.651  1.00  0.00     0.085 A 
ATOM     12  C   UNL A   1      33.989  27.510  26.468  1.00  0.00     0.066 A 
BRANCH   9  13
ATOM     13  C   UNL A   1      31.608  29.296  24.477  1.00  0.00     0.065 A 
ATOM     14  C   UNL A   1      29.385  30.100  23.021  1.00  0.00     0.082 A 
ATOM     15  C   UNL A   1      29.747  30.807  24.171  1.00  0.00     0.024 A 
ATOM     16  C   UNL A   1      30.156  29.023  22.568  1.00  0.00     0.024 A 
ATOM     17  C   UNL A   1      30.852  30.393  24.912  1.00  0.00     0.030 A 
ATOM     18  C   UNL A   1      31.296  28.640  23.280  1.00  0.00     0.030 A 
BRANCH  14  19
ATOM     19  S   UNL A   1      27.892  30.522  22.172  1.00  0.00     0.238 S 
ATOM     20  O   UNL A   1      28.055  30.203  20.762  1.00  0.00    -0.207 OA
ATOM     21  O   UNL A   1      27.435  31.794  22.639  1.00  0.00    -0.207 OA
BRANCH  19  22
ATOM     22  N   UNL A   1      26.790  29.381  22.738  1.00  0.00    -0.225 NA
ATOM     23  H   UNL A   1      26.597  28.701  22.003  1.00  0.00     0.137 HD
ATOM     24  H   UNL A   1      25.923  29.848  23.003  1.00  0.00     0.137 HD
ENDBRANCH  19  22
ENDBRANCH  14  19
ENDBRANCH   9  13
BRANCH  11  25
ATOM     25  C   UNL A   1      32.200  26.320  25.170  1.00  0.00     0.054 A 
ATOM     26  C   UNL A   1      30.981  25.836  25.605  1.00  0.00     0.024 A 
ATOM     27  S   UNL A   1      32.915  25.284  24.006  1.00  0.00    -0.122 S 
ATOM     28  C   UNL A   1      30.639  24.601  24.976  1.00  0.00     0.033 A 
ATOM     29  C   UNL A   1      31.618  24.204  24.103  1.00  0.00     0.094 A 
ATOM     30  Cl  UNL A   1      31.633  22.767  23.165  1.00  0.00    -0.072 Cl
ENDBRANCH  11  25
ENDBRANCH   5   8
ENDBRANCH   3   4
ENDBRANCH   2   3
ENDBRANCH   1   2
BRANCH   1  31
ATOM     31  C   UNL A   1      32.936  35.025  28.946  1.00  0.00     0.002 C 
BRANCH  31  32
ATOM     32  C   UNL A   1      33.116  36.543  29.104  1.00  0.00     0.021 C 
BRANCH  32  33
ATOM     33  C   UNL A   1      33.541  36.962  30.505  1.00  0.00     0.116 C 
BRANCH  33  34
ATOM     34  N   UNL A   1      32.654  36.411  31.521  1.00  0.00    -0.352 N 
ATOM     35  C   UNL A   1      32.810  35.282  32.286  1.00  0.00     0.251 C 
ATOM     36  H   UNL A   1      31.826  36.920  31.680  1.00  0.00     0.163 HD
ATOM     37  O   UNL A   1      31.841  34.768  32.835  1.00  0.00    -0.269 OA
BRANCH  35  38
ATOM     38  C   UNL A   1      34.143  34.670  32.429  1.00  0.00     0.039 A 
ATOM     39  C   UNL A   1      34.302  33.308  32.168  1.00  0.00     0.014 A 
ATOM     40  C   UNL A   1      35.229  35.446  32.835  1.00  0.00     0.014 A 
ATOM     41  C   UNL A   1      35.572  32.748  32.239  1.00  0.00     0.010 A 
ATOM     42  C   UNL A   1      36.503  34.913  32.817  1.00  0.00     0.010 A 
ATOM     43  C   UNL A   1      36.679  33.560  32.535  1.00  0.00    -0.014 A 
BRANCH  43  44
ATOM     44  C   UNL A   1      38.024  33.002  32.390  1.00  0.00     0.031 A 
ATOM     45  C   UNL A   1      38.821  32.949  33.651  1.00  0.00     0.074 A 
ATOM     46  C   UNL A   1      38.484  32.393  31.278  1.00  0.00     0.049 A 
ATOM     47  N   UNL A   1      39.957  33.516  33.892  1.00  0.00    -0.248 NA
ATOM     48  C   UNL A   1      38.244  32.259  34.816  1.00  0.00     0.031 C 
ATOM     49  C   UNL A   1      37.756  32.070  30.051  1.00  0.00     0.029 A 
ATOM     50  N   UNL A   1      39.704  31.822  31.065  1.00  0.00    -0.354 N 
ATOM     51  C   UNL A   1      40.322  33.139  35.184  1.00  0.00     0.074 A 
ATOM     52  C   UNL A   1      39.174  32.478  35.747  1.00  0.00     0.031 C 
ATOM     53  C   UNL A   1      38.465  31.167  29.337  1.00  0.00     0.029 A 
ATOM     54  C   UNL A   1      39.751  30.959  29.979  1.00  0.00     0.049 A 
ATOM     55  H   UNL A   1      40.487  32.006  31.635  1.00  0.00     0.167 HD
ATOM     56  C   UNL A   1      41.616  33.236  35.606  1.00  0.00     0.037 A 
ATOM     57  C   UNL A   1      40.752  30.100  29.663  1.00  0.00     0.037 A 
ATOM     58  C   UNL A   1      42.363  34.143  34.769  1.00  0.00     0.049 A 
ATOM     59  C   UNL A   1      41.977  30.572  30.359  1.00  0.00     0.074 A 
ATOM     60  C   UNL A   1      42.204  35.467  34.399  1.00  0.00     0.029 A 
ATOM     61  N   UNL A   1      43.262  33.623  33.869  1.00  0.00    -0.354 N 
ATOM     62  N   UNL A   1      42.627  31.655  30.035  1.00  0.00    -0.248 NA
ATOM     63  C   UNL A   1      42.235  30.066  31.700  1.00  0.00     0.031 C 
ATOM     64  C   UNL A   1      42.576  35.509  33.024  1.00  0.00     0.029 A 
ATOM     65  C   UNL A   1      43.010  34.232  32.668  1.00  0.00     0.049 A 
ATOM     66  H   UNL A   1      43.953  32.946  34.052  1.00  0.00     0.167 HD
ATOM     67  C   UNL A   1      43.000  32.210  31.249  1.00  0.00     0.074 A 
ATOM     68  C   UNL A   1      42.824  31.141  32.229  1.00  0.00     0.031 C 
ATOM     69  C   UNL A   1      43.132  33.560  31.399  1.00  0.00     0.037 A 
BRANCH  56  70
ATOM     70  C   UNL A   1      42.301  32.248  36.528  1.00  0.00     0.064 A 
ATOM     71  C   UNL A   1      43.086  32.744  37.593  1.00  0.00     0.173 A 
ATOM     72  C   UNL A   1      42.490  30.883  36.229  1.00  0.00     0.173 A 
ATOM     73  F   UNL A   1      42.986  34.025  37.981  1.00  0.00    -0.203 F 
ATOM     74  C   UNL A   1      44.073  31.971  38.209  1.00  0.00     0.198 A 
ATOM     75  C   UNL A   1      43.440  30.099  36.885  1.00  0.00     0.198 A 
ATOM     76  F   UNL A   1      41.851  30.273  35.226  1.00  0.00    -0.203 F 
ATOM     77  F   UNL A   1      44.895  32.535  39.104  1.00  0.00    -0.200 F 
ATOM     78  C   UNL A   1      44.259  30.653  37.844  1.00  0.00     0.200 A 
ATOM     79  F   UNL A   1      43.609  28.822  36.512  1.00  0.00    -0.200 F 
ATOM     80  F   UNL A   1      45.254  29.932  38.377  1.00  0.00    -0.200 F 
ENDBRANCH  56  70
BRANCH  57  81
ATOM     81  C   UNL A   1      40.682  28.779  28.991  1.00  0.00     0.064 A 
ATOM     82  C   UNL A   1      39.950  27.719  29.555  1.00  0.00     0.173 A 
ATOM     83  C   UNL A   1      41.099  28.601  27.657  1.00  0.00     0.173 A 
ATOM     84  F   UNL A   1      39.477  27.815  30.807  1.00  0.00    -0.203 F 
ATOM     85  C   UNL A   1      39.627  26.573  28.822  1.00  0.00     0.198 A 
ATOM     86  C   UNL A   1      40.789  27.450  26.930  1.00  0.00     0.198 A 
ATOM     87  F   UNL A   1      41.735  29.578  26.995  1.00  0.00    -0.203 F 
ATOM     88  F   UNL A   1      38.865  25.619  29.375  1.00  0.00    -0.200 F 
ATOM     89  C   UNL A   1      40.038  26.444  27.507  1.00  0.00     0.200 A 
ATOM     90  F   UNL A   1      41.166  27.354  25.647  1.00  0.00    -0.200 F 
ATOM     91  F   UNL A   1      39.676  25.376  26.784  1.00  0.00    -0.200 F 
ENDBRANCH  57  81
BRANCH  69  92
ATOM     92  C   UNL A   1      43.151  34.429  30.175  1.00  0.00     0.064 A 
ATOM     93  C   UNL A   1      44.314  34.776  29.465  1.00  0.00     0.173 A 
ATOM     94  C   UNL A   1      41.919  34.790  29.607  1.00  0.00     0.173 A 
ATOM     95  F   UNL A   1      45.525  34.378  29.877  1.00  0.00    -0.203 F 
ATOM     96  C   UNL A   1      44.244  35.490  28.270  1.00  0.00     0.198 A 
ATOM     97  C   UNL A   1      41.851  35.464  28.392  1.00  0.00     0.198 A 
ATOM     98  F   UNL A   1      40.772  34.440  30.210  1.00  0.00    -0.203 F 
ATOM     99  F   UNL A   1      45.369  35.822  27.620  1.00  0.00    -0.200 F 
ATOM    100  C   UNL A   1      43.012  35.824  27.730  1.00  0.00     0.200 A 
ATOM    101  F   UNL A   1      40.657  35.738  27.849  1.00  0.00    -0.200 F 
ATOM    102  F   UNL A   1      42.945  36.469  26.557  1.00  0.00    -0.200 F 
ENDBRANCH  69  92
ENDBRANCH  43  44
ENDBRANCH  35  38
ENDBRANCH  33  34
ENDBRANCH  32  33
ENDBRANCH  31  32
ENDBRANCH   1  31
TORSDOF 17
ENDMDL
MODEL 3
REMARK VINA RESULT:     -12.3      6.195     10.228
REMARK SMILES NS(=O)(=O)c1ccc(-n2nc(C(=O)NCCCCCCNC(=O)c3ccc(-c4c5nc(c(-c6c(F)c(F)c(F)c(F)c6F)c6ccc([nH]6)c(-c6c(F)c(F)c(F)c(F)c6F)c6nc(c(-c7c(F)c(F)c(F)c(F)c7F)c7ccc4[nH]7)C=C6)C=C5)cc3)cc2-c2ccc(Cl)s2)cc1
REMARK SMILES IDX 17 1 16 2 15 3 14 4 12 5 13 6 11 8 9 9 10 10 88 11 87 12
REMARK SMILES IDX 8 13 5 14 6 15 96 16 7 17 95 18 2 19 3 20 4 21 1 22 89 25
REMARK SMILES IDX 90 26 94 27 91 28 92 29 93 30 18 31 19 32 20 33 21 34 22 35
REMARK SMILES IDX 23 37 24 38 25 39 86 40 26 41 85 42 27 43 28 44 29 45 79 46
REMARK SMILES IDX 30 47 84 48 78 49 80 50 31 51 83 52 77 53 76 54 32 56 64 57
REMARK SMILES IDX 44 58 63 59 45 60 48 61 62 62 81 63 46 64 47 65 61 67 82 68
REMARK SMILES IDX 49 69 33 70 34 71 42 72 35 73 36 74 40 75 43 76 37 77 38 78
REMARK SMILES IDX 41 79 39 80 65 81 66 82 74 83 67 84 68 85 72 86 75 87 69 88
REMARK SMILES IDX 70 89 73 90 71 91 50 92 51 93 59 94 52 95 53 96 57 97 60 98
REMARK SMILES IDX 54 99 55 100 58 101 56 102
REMARK H PARENT 14 7 1 23 1 24 21 36 80 55 48 66
REMARK Flexibility Score: inf
ROOT
ATOM      1  C   UNL A   1      44.245  32.348  27.827  1.00  0.00     0.002 C 
ENDROOT
BRANCH   1   2
ATOM      2  C   UNL A   1      43.422  31.055  27.895  1.00  0.00     0.021 C 
BRANCH   2   3
ATOM      3  C   UNL A   1      44.108  29.865  27.222  1.00  0.00     0.116 C 
BRANCH   3   4
ATOM      4  N   UNL A   1      43.365  29.422  26.061  1.00  0.00    -0.351 N 
ATOM      5  C   UNL A   1      43.011  28.185  25.571  1.00  0.00     0.271 C 
ATOM      6  O   UNL A   1      42.343  28.206  24.533  1.00  0.00    -0.267 OA
ATOM      7  H   UNL A   1      43.043  30.166  25.502  1.00  0.00     0.163 HD
BRANCH   5   8
ATOM      8  C   UNL A   1      43.368  26.919  26.252  1.00  0.00     0.151 A 
ATOM      9  N   UNL A   1      43.923  24.838  26.387  1.00  0.00    -0.231 N 
ATOM     10  N   UNL A   1      43.847  25.882  25.532  1.00  0.00    -0.162 NA
ATOM     11  C   UNL A   1      43.654  25.221  27.685  1.00  0.00     0.085 A 
ATOM     12  C   UNL A   1      43.339  26.558  27.621  1.00  0.00     0.066 A 
BRANCH   9  13
ATOM     13  C   UNL A   1      44.265  23.546  25.920  1.00  0.00     0.065 A 
ATOM     14  C   UNL A   1      44.965  20.938  25.275  1.00  0.00     0.082 A 
ATOM     15  C   UNL A   1      43.615  21.283  25.376  1.00  0.00     0.024 A 
ATOM     16  C   UNL A   1      45.967  21.900  25.447  1.00  0.00     0.024 A 
ATOM     17  C   UNL A   1      43.263  22.587  25.717  1.00  0.00     0.030 A 
ATOM     18  C   UNL A   1      45.615  23.221  25.736  1.00  0.00     0.030 A 
BRANCH  14  19
ATOM     19  S   UNL A   1      45.415  19.249  25.004  1.00  0.00     0.238 S 
ATOM     20  O   UNL A   1      44.241  18.416  25.216  1.00  0.00    -0.207 OA
ATOM     21  O   UNL A   1      46.677  18.998  25.629  1.00  0.00    -0.207 OA
BRANCH  19  22
ATOM     22  N   UNL A   1      45.684  19.182  23.342  1.00  0.00    -0.225 NA
ATOM     23  H   UNL A   1      44.897  19.609  22.853  1.00  0.00     0.137 HD
ATOM     24  H   UNL A   1      45.777  18.209  23.052  1.00  0.00     0.137 HD
ENDBRANCH  19  22
ENDBRANCH  14  19
ENDBRANCH   9  13
BRANCH  11  25
ATOM     25  C   UNL A   1      43.805  24.429  28.868  1.00  0.00     0.054 A 
ATOM     26  C   UNL A   1      43.211  23.209  29.130  1.00  0.00     0.024 A 
ATOM     27  S   UNL A   1      44.709  24.996  30.210  1.00  0.00    -0.122 S 
ATOM     28  C   UNL A   1      43.501  22.744  30.449  1.00  0.00     0.033 A 
ATOM     29  C   UNL A   1      44.293  23.636  31.123  1.00  0.00     0.094 A 
ATOM     30  Cl  UNL A   1      44.849  23.493  32.741  1.00  0.00    -0.072 Cl
ENDBRANCH  11  25
ENDBRANCH   5   8
ENDBRANCH   3   4
ENDBRANCH   2   3
ENDBRANCH   1   2
BRANCH   1  31
ATOM     31  C   UNL A   1      45.498  32.288  26.938  1.00  0.00     0.002 C 
BRANCH  31  32
ATOM     32  C   UNL A   1      46.320  33.583  26.848  1.00  0.00     0.021 C 
BRANCH  32  33
ATOM     33  C   UNL A   1      45.603  34.708  26.112  1.00  0.00     0.116 C 
BRANCH  33  34
ATOM     34  N   UNL A   1      46.008  36.016  26.610  1.00  0.00    -0.352 N 
ATOM     35  C   UNL A   1      45.387  36.821  27.533  1.00  0.00     0.251 C 
ATOM     36  H   UNL A   1      46.843  36.373  26.231  1.00  0.00     0.163 HD
ATOM     37  O   UNL A   1      45.655  38.017  27.590  1.00  0.00    -0.269 OA
BRANCH  35  38
ATOM     38  C   UNL A   1      44.378  36.251  28.443  1.00  0.00     0.039 A 
ATOM     39  C   UNL A   1      43.025  36.349  28.111  1.00  0.00     0.014 A 
ATOM     40  C   UNL A   1      44.775  35.635  29.631  1.00  0.00     0.014 A 
ATOM     41  C   UNL A   1      42.080  35.753  28.939  1.00  0.00     0.010 A 
ATOM     42  C   UNL A   1      43.846  34.965  30.404  1.00  0.00     0.010 A 
ATOM     43  C   UNL A   1      42.495  35.034  30.071  1.00  0.00    -0.014 A 
BRANCH  43  44
ATOM     44  C   UNL A   1      41.511  34.234  30.801  1.00  0.00     0.031 A 
ATOM     45  C   UNL A   1      41.918  33.848  32.185  1.00  0.00     0.074 A 
ATOM     46  C   UNL A   1      40.250  34.004  30.383  1.00  0.00     0.049 A 
ATOM     47  N   UNL A   1      42.047  32.656  32.667  1.00  0.00    -0.248 NA
ATOM     48  C   UNL A   1      42.318  34.912  33.120  1.00  0.00     0.031 C 
ATOM     49  C   UNL A   1      39.566  34.552  29.211  1.00  0.00     0.029 A 
ATOM     50  N   UNL A   1      39.262  33.301  31.008  1.00  0.00    -0.354 N 
ATOM     51  C   UNL A   1      42.399  32.806  34.007  1.00  0.00     0.074 A 
ATOM     52  C   UNL A   1      42.678  34.206  34.193  1.00  0.00     0.031 C 
ATOM     53  C   UNL A   1      38.235  34.358  29.340  1.00  0.00     0.029 A 
ATOM     54  C   UNL A   1      37.986  33.552  30.523  1.00  0.00     0.049 A 
ATOM     55  H   UNL A   1      39.440  32.668  31.742  1.00  0.00     0.167 HD
ATOM     56  C   UNL A   1      42.238  31.783  34.895  1.00  0.00     0.037 A 
ATOM     57  C   UNL A   1      36.811  33.169  31.084  1.00  0.00     0.037 A 
ATOM     58  C   UNL A   1      42.124  30.520  34.209  1.00  0.00     0.049 A 
ATOM     59  C   UNL A   1      37.106  32.040  32.003  1.00  0.00     0.074 A 
ATOM     60  C   UNL A   1      42.920  29.838  33.305  1.00  0.00     0.029 A 
ATOM     61  N   UNL A   1      40.889  29.923  34.123  1.00  0.00    -0.354 N 
ATOM     62  N   UNL A   1      37.456  30.849  31.605  1.00  0.00    -0.248 NA
ATOM     63  C   UNL A   1      37.434  32.358  33.386  1.00  0.00     0.031 C 
ATOM     64  C   UNL A   1      42.006  29.265  32.373  1.00  0.00     0.029 A 
ATOM     65  C   UNL A   1      40.716  29.568  32.811  1.00  0.00     0.049 A 
ATOM     66  H   UNL A   1      40.253  29.778  34.860  1.00  0.00     0.167 HD
ATOM     67  C   UNL A   1      38.431  30.455  32.508  1.00  0.00     0.074 A 
ATOM     68  C   UNL A   1      38.300  31.374  33.637  1.00  0.00     0.031 C 
ATOM     69  C   UNL A   1      39.442  29.617  32.139  1.00  0.00     0.037 A 
BRANCH  56  70
ATOM     70  C   UNL A   1      41.814  31.951  36.340  1.00  0.00     0.064 A 
ATOM     71  C   UNL A   1      40.698  32.767  36.630  1.00  0.00     0.173 A 
ATOM     72  C   UNL A   1      42.623  31.626  37.448  1.00  0.00     0.173 A 
ATOM     73  F   UNL A   1      39.844  33.134  35.662  1.00  0.00    -0.203 F 
ATOM     74  C   UNL A   1      40.494  33.322  37.896  1.00  0.00     0.198 A 
ATOM     75  C   UNL A   1      42.385  32.138  38.723  1.00  0.00     0.198 A 
ATOM     76  F   UNL A   1      43.736  30.893  37.334  1.00  0.00    -0.203 F 
ATOM     77  F   UNL A   1      39.512  34.215  38.080  1.00  0.00    -0.200 F 
ATOM     78  C   UNL A   1      41.347  33.019  38.938  1.00  0.00     0.200 A 
ATOM     79  F   UNL A   1      43.228  31.835  39.721  1.00  0.00    -0.200 F 
ATOM     80  F   UNL A   1      41.202  33.607  40.133  1.00  0.00    -0.200 F 
ENDBRANCH  56  70
BRANCH  57  81
ATOM     81  C   UNL A   1      35.491  33.846  31.058  1.00  0.00     0.064 A 
ATOM     82  C   UNL A   1      35.141  34.783  32.046  1.00  0.00     0.173 A 
ATOM     83  C   UNL A   1      34.653  33.797  29.927  1.00  0.00     0.173 A 
ATOM     84  F   UNL A   1      35.903  34.930  33.140  1.00  0.00    -0.203 F 
ATOM     85  C   UNL A   1      34.046  35.640  31.895  1.00  0.00     0.198 A 
ATOM     86  C   UNL A   1      33.551  34.642  29.783  1.00  0.00     0.198 A 
ATOM     87  F   UNL A   1      34.937  32.997  28.890  1.00  0.00    -0.203 F 
ATOM     88  F   UNL A   1      33.791  36.569  32.827  1.00  0.00    -0.200 F 
ATOM     89  C   UNL A   1      33.257  35.575  30.759  1.00  0.00     0.200 A 
ATOM     90  F   UNL A   1      32.816  34.590  28.663  1.00  0.00    -0.200 F 
ATOM     91  F   UNL A   1      32.246  36.436  30.584  1.00  0.00    -0.200 F 
ENDBRANCH  57  81
BRANCH  69  92
ATOM     92  C   UNL A   1      39.343  28.893  30.827  1.00  0.00     0.064 A 
ATOM     93  C   UNL A   1      39.800  29.406  29.601  1.00  0.00     0.173 A 
ATOM     94  C   UNL A   1      38.913  27.557  30.846  1.00  0.00     0.173 A 
ATOM     95  F   UNL A   1      40.329  30.633  29.514  1.00  0.00    -0.203 F 
ATOM     96  C   UNL A   1      39.782  28.631  28.443  1.00  0.00     0.198 A 
ATOM     97  C   UNL A   1      38.937  26.772  29.697  1.00  0.00     0.198 A 
ATOM     98  F   UNL A   1      38.515  26.994  31.998  1.00  0.00    -0.203 F 
ATOM     99  F   UNL A   1      40.209  29.148  27.282  1.00  0.00    -0.200 F 
ATOM    100  C   UNL A   1      39.360  27.312  28.494  1.00  0.00     0.200 A 
ATOM    101  F   UNL A   1      38.578  25.483  29.765  1.00  0.00    -0.200 F 
ATOM    102  F   UNL A   1      39.387  26.553  27.390  1.00  0.00    -0.200 F 
ENDBRANCH  69  92
ENDBRANCH  43  44
ENDBRANCH  35  38
ENDBRANCH  33  34
ENDBRANCH  32  33
ENDBRANCH  31  32
ENDBRANCH   1  31
TORSDOF 17
ENDMDL
