MODEL 1
REMARK VINA RESULT:     -12.9      0.000      0.000
REMARK SMILES Cc1ccc(NC(=O)C[C@@H](C(=O)NCCCCCCNC(=O)c2ccc(-c3c4nc(c(-c5c(F)c(F)c(F)c(F)c5F)c5ccc([nH]5)c(-c5c(F)c(F)c(F)c(F)c5F)c5nc(c(-c6c(F)c(F)c(F)c(F)c6F)c6ccc3[nH]6)C=C5)C=C4)cc2)[NH+]2CCOCC2)cc1
REMARK SMILES IDX 16 1 15 2 14 3 13 4 11 5 12 6 10 8 9 9 7 10 6 11 8 13 5 14
REMARK SMILES IDX 1 15 2 16 3 17 93 18 4 19 92 20 86 21 87 22 91 23 88 25
REMARK SMILES IDX 90 26 89 27 17 28 18 29 19 30 20 31 21 32 22 34 23 35 24 36
REMARK SMILES IDX 85 37 25 38 84 39 26 40 27 41 28 42 78 43 29 44 83 45 77 46
REMARK SMILES IDX 79 47 30 48 82 49 76 50 75 51 31 53 63 54 43 55 62 56 44 57
REMARK SMILES IDX 47 58 61 59 80 60 45 61 46 62 60 64 81 65 48 66 32 67 33 68
REMARK SMILES IDX 41 69 34 70 35 71 39 72 42 73 36 74 37 75 40 76 38 77 64 78
REMARK SMILES IDX 65 79 73 80 66 81 67 82 71 83 74 84 68 85 69 86 72 87 70 88
REMARK SMILES IDX 49 89 50 90 58 91 51 92 52 93 56 94 59 95 53 96 54 97 57 98
REMARK SMILES IDX 55 99
REMARK H PARENT 13 7 6 12 86 24 20 33 79 52 47 63
REMARK Flexibility Score: inf
ROOT
ATOM      1  C   UNL A   1      35.452  22.834  23.673  1.00  0.00     0.002 C 
ENDROOT
BRANCH   1   2
ATOM      2  C   UNL A   1      34.843  24.075  24.352  1.00  0.00     0.021 C 
BRANCH   2   3
ATOM      3  C   UNL A   1      33.392  24.412  23.980  1.00  0.00     0.116 C 
BRANCH   3   4
ATOM      4  N   UNL A   1      33.314  25.629  23.205  1.00  0.00    -0.351 N 
ATOM      5  C   UNL A   1      32.894  26.892  23.458  1.00  0.00     0.278 C 
ATOM      6  O   UNL A   1      33.040  27.663  22.501  1.00  0.00    -0.268 OA
ATOM      7  H   UNL A   1      33.641  25.516  22.284  1.00  0.00     0.163 HD
BRANCH   5   8
ATOM      8  C   UNL A   1      32.391  27.381  24.862  1.00  0.00     0.283 C 
BRANCH   8   9
ATOM      9  C   UNL A   1      30.881  27.208  25.135  1.00  0.00     0.175 C 
BRANCH   9  10
ATOM     10  C   UNL A   1      29.994  26.483  24.157  1.00  0.00     0.230 C 
ATOM     11  N   UNL A   1      29.168  27.121  23.280  1.00  0.00    -0.326 N 
ATOM     12  H   UNL A   1      28.527  26.533  22.820  1.00  0.00     0.169 HD
ATOM     13  O   UNL A   1      30.011  25.246  24.128  1.00  0.00    -0.274 OA
BRANCH  11  14
ATOM     14  C   UNL A   1      29.078  28.475  22.918  1.00  0.00     0.041 A 
ATOM     15  C   UNL A   1      28.066  32.227  21.098  1.00  0.00     0.044 C 
ATOM     16  C   UNL A   1      28.459  30.992  21.849  1.00  0.00    -0.051 A 
ATOM     17  C   UNL A   1      29.702  30.403  21.605  1.00  0.00     0.005 A 
ATOM     18  C   UNL A   1      27.578  30.370  22.737  1.00  0.00     0.005 A 
ATOM     19  C   UNL A   1      30.013  29.153  22.145  1.00  0.00     0.026 A 
ATOM     20  C   UNL A   1      27.901  29.132  23.292  1.00  0.00     0.026 A 
ENDBRANCH  11  14
ENDBRANCH   9  10
ENDBRANCH   8   9
BRANCH   8  21
ATOM     21  N   UNL A   1      32.816  28.811  25.021  1.00  0.00    -0.320 N 
ATOM     22  C   UNL A   1      34.133  29.009  25.661  1.00  0.00     0.291 C 
ATOM     23  C   UNL A   1      31.876  29.848  25.461  1.00  0.00     0.291 C 
ATOM     24  H   UNL A   1      32.869  28.990  24.018  1.00  0.00     0.348 HD
ATOM     25  C   UNL A   1      34.060  29.299  27.166  1.00  0.00     0.221 C 
ATOM     26  C   UNL A   1      31.881  30.137  26.966  1.00  0.00     0.221 C 
ATOM     27  O   UNL A   1      33.201  30.406  27.446  1.00  0.00    -0.370 OA
ENDBRANCH   8  21
ENDBRANCH   5   8
ENDBRANCH   3   4
ENDBRANCH   2   3
ENDBRANCH   1   2
BRANCH   1  28
ATOM     28  C   UNL A   1      36.981  22.715  23.701  1.00  0.00     0.002 C 
BRANCH  28  29
ATOM     29  C   UNL A   1      37.568  21.942  24.882  1.00  0.00     0.021 C 
BRANCH  29  30
ATOM     30  C   UNL A   1      37.984  22.813  26.058  1.00  0.00     0.116 C 
BRANCH  30  31
ATOM     31  N   UNL A   1      39.359  22.647  26.491  1.00  0.00    -0.352 N 
ATOM     32  C   UNL A   1      40.305  23.594  26.828  1.00  0.00     0.251 C 
ATOM     33  H   UNL A   1      39.664  21.713  26.554  1.00  0.00     0.163 HD
ATOM     34  O   UNL A   1      41.472  23.234  26.972  1.00  0.00    -0.269 OA
BRANCH  32  35
ATOM     35  C   UNL A   1      39.926  24.994  27.169  1.00  0.00     0.039 A 
ATOM     36  C   UNL A   1      40.422  26.022  26.348  1.00  0.00     0.014 A 
ATOM     37  C   UNL A   1      39.267  25.332  28.346  1.00  0.00     0.014 A 
ATOM     38  C   UNL A   1      40.473  27.332  26.819  1.00  0.00     0.010 A 
ATOM     39  C   UNL A   1      39.414  26.598  28.866  1.00  0.00     0.010 A 
ATOM     40  C   UNL A   1      40.077  27.578  28.127  1.00  0.00    -0.014 A 
BRANCH  40  41
ATOM     41  C   UNL A   1      40.329  28.807  28.855  1.00  0.00     0.031 A 
ATOM     42  C   UNL A   1      39.304  29.865  28.870  1.00  0.00     0.074 A 
ATOM     43  C   UNL A   1      41.395  28.838  29.687  1.00  0.00     0.049 A 
ATOM     44  N   UNL A   1      39.491  31.040  29.361  1.00  0.00    -0.248 NA
ATOM     45  C   UNL A   1      37.980  29.699  28.268  1.00  0.00     0.031 C 
ATOM     46  C   UNL A   1      41.628  29.733  30.818  1.00  0.00     0.029 A 
ATOM     47  N   UNL A   1      42.613  28.154  29.530  1.00  0.00    -0.354 N 
ATOM     48  C   UNL A   1      38.260  31.645  29.446  1.00  0.00     0.074 A 
ATOM     49  C   UNL A   1      37.393  30.849  28.620  1.00  0.00     0.031 C 
ATOM     50  C   UNL A   1      42.947  29.781  31.068  1.00  0.00     0.029 A 
ATOM     51  C   UNL A   1      43.601  29.061  29.988  1.00  0.00     0.049 A 
ATOM     52  H   UNL A   1      42.750  27.244  29.180  1.00  0.00     0.167 HD
ATOM     53  C   UNL A   1      38.104  32.655  30.345  1.00  0.00     0.037 A 
ATOM     54  C   UNL A   1      44.491  29.624  29.118  1.00  0.00     0.037 A 
ATOM     55  C   UNL A   1      39.407  33.142  30.797  1.00  0.00     0.049 A 
ATOM     56  C   UNL A   1      44.423  31.133  29.073  1.00  0.00     0.074 A 
ATOM     57  C   UNL A   1      40.115  33.015  31.978  1.00  0.00     0.029 A 
ATOM     58  N   UNL A   1      40.300  33.639  29.850  1.00  0.00    -0.354 N 
ATOM     59  N   UNL A   1      43.374  31.826  29.425  1.00  0.00    -0.248 NA
ATOM     60  C   UNL A   1      45.526  31.976  28.622  1.00  0.00     0.031 C 
ATOM     61  C   UNL A   1      41.477  33.317  31.696  1.00  0.00     0.029 A 
ATOM     62  C   UNL A   1      41.580  33.685  30.363  1.00  0.00     0.049 A 
ATOM     63  H   UNL A   1      40.052  33.919  28.939  1.00  0.00     0.167 HD
ATOM     64  C   UNL A   1      43.632  33.160  29.258  1.00  0.00     0.074 A 
ATOM     65  C   UNL A   1      44.996  33.203  28.763  1.00  0.00     0.031 C 
ATOM     66  C   UNL A   1      42.700  34.119  29.537  1.00  0.00     0.037 A 
BRANCH  53  67
ATOM     67  C   UNL A   1      36.789  33.067  30.980  1.00  0.00     0.064 A 
ATOM     68  C   UNL A   1      35.887  33.884  30.263  1.00  0.00     0.173 A 
ATOM     69  C   UNL A   1      36.418  32.824  32.322  1.00  0.00     0.173 A 
ATOM     70  F   UNL A   1      36.117  34.210  28.982  1.00  0.00    -0.203 F 
ATOM     71  C   UNL A   1      34.730  34.418  30.843  1.00  0.00     0.198 A 
ATOM     72  C   UNL A   1      35.234  33.313  32.883  1.00  0.00     0.198 A 
ATOM     73  F   UNL A   1      37.205  32.164  33.176  1.00  0.00    -0.203 F 
ATOM     74  F   UNL A   1      33.945  35.238  30.131  1.00  0.00    -0.200 F 
ATOM     75  C   UNL A   1      34.397  34.122  32.149  1.00  0.00     0.200 A 
ATOM     76  F   UNL A   1      34.936  33.017  34.156  1.00  0.00    -0.200 F 
ATOM     77  F   UNL A   1      33.290  34.632  32.707  1.00  0.00    -0.200 F 
ENDBRANCH  53  67
BRANCH  54  78
ATOM     78  C   UNL A   1      44.786  28.744  27.952  1.00  0.00     0.064 A 
ATOM     79  C   UNL A   1      45.543  27.577  28.183  1.00  0.00     0.173 A 
ATOM     80  C   UNL A   1      44.012  28.793  26.786  1.00  0.00     0.173 A 
ATOM     81  F   UNL A   1      46.305  27.481  29.284  1.00  0.00    -0.203 F 
ATOM     82  C   UNL A   1      45.412  26.456  27.365  1.00  0.00     0.198 A 
ATOM     83  C   UNL A   1      43.904  27.674  25.956  1.00  0.00     0.198 A 
ATOM     84  F   UNL A   1      43.265  29.871  26.513  1.00  0.00    -0.203 F 
ATOM     85  F   UNL A   1      46.040  25.316  27.689  1.00  0.00    -0.200 F 
ATOM     86  C   UNL A   1      44.567  26.496  26.271  1.00  0.00     0.200 A 
ATOM     87  F   UNL A   1      43.071  27.703  24.906  1.00  0.00    -0.200 F 
ATOM     88  F   UNL A   1      44.357  25.390  25.543  1.00  0.00    -0.200 F 
ENDBRANCH  54  78
BRANCH  66  89
ATOM     89  C   UNL A   1      42.792  35.571  29.133  1.00  0.00     0.064 A 
ATOM     90  C   UNL A   1      42.108  36.125  28.037  1.00  0.00     0.173 A 
ATOM     91  C   UNL A   1      43.476  36.500  29.954  1.00  0.00     0.173 A 
ATOM     92  F   UNL A   1      41.316  35.376  27.258  1.00  0.00    -0.203 F 
ATOM     93  C   UNL A   1      42.167  37.489  27.739  1.00  0.00     0.198 A 
ATOM     94  C   UNL A   1      43.481  37.870  29.689  1.00  0.00     0.198 A 
ATOM     95  F   UNL A   1      44.135  36.111  31.054  1.00  0.00    -0.203 F 
ATOM     96  F   UNL A   1      41.535  37.959  26.654  1.00  0.00    -0.200 F 
ATOM     97  C   UNL A   1      42.843  38.362  28.569  1.00  0.00     0.200 A 
ATOM     98  F   UNL A   1      44.094  38.709  30.536  1.00  0.00    -0.200 F 
ATOM     99  F   UNL A   1      42.860  39.675  28.305  1.00  0.00    -0.200 F 
ENDBRANCH  66  89
ENDBRANCH  40  41
ENDBRANCH  32  35
ENDBRANCH  30  31
ENDBRANCH  29  30
ENDBRANCH  28  29
ENDBRANCH   1  28
TORSDOF 17
ENDMDL
MODEL 2
REMARK VINA RESULT:     -12.8      3.958     10.450
REMARK SMILES Cc1ccc(NC(=O)C[C@@H](C(=O)NCCCCCCNC(=O)c2ccc(-c3c4nc(c(-c5c(F)c(F)c(F)c(F)c5F)c5ccc([nH]5)c(-c5c(F)c(F)c(F)c(F)c5F)c5nc(c(-c6c(F)c(F)c(F)c(F)c6F)c6ccc3[nH]6)C=C5)C=C4)cc2)[NH+]2CCOCC2)cc1
REMARK SMILES IDX 16 1 15 2 14 3 13 4 11 5 12 6 10 8 9 9 7 10 6 11 8 13 5 14
REMARK SMILES IDX 1 15 2 16 3 17 93 18 4 19 92 20 86 21 87 22 91 23 88 25
REMARK SMILES IDX 90 26 89 27 17 28 18 29 19 30 20 31 21 32 22 34 23 35 24 36
REMARK SMILES IDX 85 37 25 38 84 39 26 40 27 41 28 42 78 43 29 44 83 45 77 46
REMARK SMILES IDX 79 47 30 48 82 49 76 50 75 51 31 53 63 54 43 55 62 56 44 57
REMARK SMILES IDX 47 58 61 59 80 60 45 61 46 62 60 64 81 65 48 66 32 67 33 68
REMARK SMILES IDX 41 69 34 70 35 71 39 72 42 73 36 74 37 75 40 76 38 77 64 78
REMARK SMILES IDX 65 79 73 80 66 81 67 82 71 83 74 84 68 85 69 86 72 87 70 88
REMARK SMILES IDX 49 89 50 90 58 91 51 92 52 93 56 94 59 95 53 96 54 97 57 98
REMARK SMILES IDX 55 99
REMARK H PARENT 13 7 6 12 86 24 20 33 79 52 47 63
REMARK Flexibility Score: inf
ROOT
ATOM      1  C   UNL A   1      31.614  27.520  26.479  1.00  0.00     0.002 C 
ENDROOT
BRANCH   1   2
ATOM      2  C   UNL A   1      32.842  26.701  26.037  1.00  0.00     0.021 C 
BRANCH   2   3
ATOM      3  C   UNL A   1      32.566  25.503  25.117  1.00  0.00     0.116 C 
BRANCH   3   4
ATOM      4  N   UNL A   1      32.427  24.278  25.873  1.00  0.00    -0.351 N 
ATOM      5  C   UNL A   1      33.045  23.073  25.851  1.00  0.00     0.278 C 
ATOM      6  O   UNL A   1      32.635  22.292  26.721  1.00  0.00    -0.268 OA
ATOM      7  H   UNL A   1      31.724  24.332  26.559  1.00  0.00     0.163 HD
BRANCH   5   8
ATOM      8  C   UNL A   1      34.254  22.727  24.912  1.00  0.00     0.283 C 
BRANCH   8   9
ATOM      9  C   UNL A   1      33.934  21.810  23.712  1.00  0.00     0.175 C 
BRANCH   9  10
ATOM     10  C   UNL A   1      32.510  21.535  23.303  1.00  0.00     0.230 C 
ATOM     11  N   UNL A   1      31.991  20.280  23.192  1.00  0.00    -0.326 N 
ATOM     12  H   UNL A   1      31.108  20.239  22.759  1.00  0.00     0.169 HD
ATOM     13  O   UNL A   1      31.756  22.487  23.063  1.00  0.00    -0.274 OA
BRANCH  11  14
ATOM     14  C   UNL A   1      32.501  19.034  23.592  1.00  0.00     0.041 A 
ATOM     15  C   UNL A   1      34.881  15.844  25.196  1.00  0.00     0.044 C 
ATOM     16  C   UNL A   1      33.937  16.871  24.651  1.00  0.00    -0.051 A 
ATOM     17  C   UNL A   1      33.828  17.043  23.269  1.00  0.00     0.005 A 
ATOM     18  C   UNL A   1      33.216  17.716  25.496  1.00  0.00     0.005 A 
ATOM     19  C   UNL A   1      33.105  18.115  22.742  1.00  0.00     0.026 A 
ATOM     20  C   UNL A   1      32.477  18.774  24.966  1.00  0.00     0.026 A 
ENDBRANCH  11  14
ENDBRANCH   9  10
ENDBRANCH   8   9
BRANCH   8  21
ATOM     21  N   UNL A   1      35.339  22.147  25.770  1.00  0.00    -0.320 N 
ATOM     22  C   UNL A   1      36.225  23.136  26.419  1.00  0.00     0.291 C 
ATOM     23  C   UNL A   1      36.113  20.976  25.343  1.00  0.00     0.291 C 
ATOM     24  H   UNL A   1      34.696  21.736  26.446  1.00  0.00     0.348 HD
ATOM     25  C   UNL A   1      37.534  23.396  25.662  1.00  0.00     0.221 C 
ATOM     26  C   UNL A   1      37.438  21.290  24.640  1.00  0.00     0.221 C 
ATOM     27  O   UNL A   1      38.246  22.182  25.413  1.00  0.00    -0.370 OA
ENDBRANCH   8  21
ENDBRANCH   5   8
ENDBRANCH   3   4
ENDBRANCH   2   3
ENDBRANCH   1   2
BRANCH   1  28
ATOM     28  C   UNL A   1      31.848  28.582  27.560  1.00  0.00     0.002 C 
BRANCH  28  29
ATOM     29  C   UNL A   1      32.434  29.908  27.077  1.00  0.00     0.021 C 
BRANCH  29  30
ATOM     30  C   UNL A   1      33.954  29.949  27.045  1.00  0.00     0.116 C 
BRANCH  30  31
ATOM     31  N   UNL A   1      34.556  31.038  27.791  1.00  0.00    -0.352 N 
ATOM     32  C   UNL A   1      35.636  31.036  28.651  1.00  0.00     0.251 C 
ATOM     33  H   UNL A   1      34.128  31.916  27.664  1.00  0.00     0.163 HD
ATOM     34  O   UNL A   1      35.848  32.038  29.332  1.00  0.00    -0.269 OA
BRANCH  32  35
ATOM     35  C   UNL A   1      36.628  29.924  28.662  1.00  0.00     0.039 A 
ATOM     36  C   UNL A   1      36.761  29.181  29.848  1.00  0.00     0.014 A 
ATOM     37  C   UNL A   1      37.536  29.713  27.630  1.00  0.00     0.014 A 
ATOM     38  C   UNL A   1      37.915  28.435  30.081  1.00  0.00     0.010 A 
ATOM     39  C   UNL A   1      38.726  29.074  27.894  1.00  0.00     0.010 A 
ATOM     40  C   UNL A   1      38.938  28.493  29.145  1.00  0.00    -0.014 A 
BRANCH  40  41
ATOM     41  C   UNL A   1      40.291  28.017  29.361  1.00  0.00     0.031 A 
ATOM     42  C   UNL A   1      40.662  26.660  28.924  1.00  0.00     0.074 A 
ATOM     43  C   UNL A   1      41.223  28.921  29.740  1.00  0.00     0.049 A 
ATOM     44  N   UNL A   1      41.786  26.098  29.199  1.00  0.00    -0.248 NA
ATOM     45  C   UNL A   1      39.754  25.789  28.176  1.00  0.00     0.031 C 
ATOM     46  C   UNL A   1      42.675  28.825  29.610  1.00  0.00     0.029 A 
ATOM     47  N   UNL A   1      41.021  30.066  30.530  1.00  0.00    -0.354 N 
ATOM     48  C   UNL A   1      41.883  24.976  28.413  1.00  0.00     0.074 A 
ATOM     49  C   UNL A   1      40.550  24.744  27.923  1.00  0.00     0.031 C 
ATOM     50  C   UNL A   1      43.245  29.649  30.505  1.00  0.00     0.029 A 
ATOM     51  C   UNL A   1      42.174  30.152  31.348  1.00  0.00     0.049 A 
ATOM     52  H   UNL A   1      40.249  30.677  30.516  1.00  0.00     0.167 HD
ATOM     53  C   UNL A   1      43.124  24.485  28.148  1.00  0.00     0.037 A 
ATOM     54  C   UNL A   1      42.093  29.939  32.696  1.00  0.00     0.037 A 
ATOM     55  C   UNL A   1      44.106  25.055  29.070  1.00  0.00     0.049 A 
ATOM     56  C   UNL A   1      42.945  28.788  33.179  1.00  0.00     0.074 A 
ATOM     57  C   UNL A   1      45.111  25.995  28.931  1.00  0.00     0.029 A 
ATOM     58  N   UNL A   1      43.929  24.863  30.439  1.00  0.00    -0.354 N 
ATOM     59  N   UNL A   1      43.344  27.806  32.417  1.00  0.00    -0.248 NA
ATOM     60  C   UNL A   1      43.405  28.650  34.558  1.00  0.00     0.031 C 
ATOM     61  C   UNL A   1      45.444  26.463  30.234  1.00  0.00     0.029 A 
ATOM     62  C   UNL A   1      44.686  25.763  31.160  1.00  0.00     0.049 A 
ATOM     63  H   UNL A   1      43.343  24.180  30.837  1.00  0.00     0.167 HD
ATOM     64  C   UNL A   1      44.087  26.927  33.159  1.00  0.00     0.074 A 
ATOM     65  C   UNL A   1      44.104  27.504  34.490  1.00  0.00     0.031 C 
ATOM     66  C   UNL A   1      44.622  25.793  32.616  1.00  0.00     0.037 A 
BRANCH  53  67
ATOM     67  C   UNL A   1      43.498  23.658  26.933  1.00  0.00     0.064 A 
ATOM     68  C   UNL A   1      43.118  22.298  26.863  1.00  0.00     0.173 A 
ATOM     69  C   UNL A   1      44.342  24.084  25.882  1.00  0.00     0.173 A 
ATOM     70  F   UNL A   1      42.330  21.751  27.800  1.00  0.00    -0.203 F 
ATOM     71  C   UNL A   1      43.556  21.445  25.842  1.00  0.00     0.198 A 
ATOM     72  C   UNL A   1      44.734  23.243  24.834  1.00  0.00     0.198 A 
ATOM     73  F   UNL A   1      44.885  25.304  25.847  1.00  0.00    -0.203 F 
ATOM     74  F   UNL A   1      43.213  20.150  25.863  1.00  0.00    -0.200 F 
ATOM     75  C   UNL A   1      44.354  21.921  24.821  1.00  0.00     0.200 A 
ATOM     76  F   UNL A   1      45.514  23.728  23.857  1.00  0.00    -0.200 F 
ATOM     77  F   UNL A   1      44.774  21.107  23.844  1.00  0.00    -0.200 F 
ENDBRANCH  53  67
BRANCH  54  78
ATOM     78  C   UNL A   1      40.765  30.317  33.256  1.00  0.00     0.064 A 
ATOM     79  C   UNL A   1      40.452  31.690  33.338  1.00  0.00     0.173 A 
ATOM     80  C   UNL A   1      39.701  29.408  33.289  1.00  0.00     0.173 A 
ATOM     81  F   UNL A   1      41.437  32.602  33.314  1.00  0.00    -0.203 F 
ATOM     82  C   UNL A   1      39.132  32.134  33.301  1.00  0.00     0.198 A 
ATOM     83  C   UNL A   1      38.379  29.859  33.277  1.00  0.00     0.198 A 
ATOM     84  F   UNL A   1      39.932  28.090  33.208  1.00  0.00    -0.203 F 
ATOM     85  F   UNL A   1      38.871  33.449  33.242  1.00  0.00    -0.200 F 
ATOM     86  C   UNL A   1      38.097  31.218  33.238  1.00  0.00     0.200 A 
ATOM     87  F   UNL A   1      37.374  28.974  33.197  1.00  0.00    -0.200 F 
ATOM     88  F   UNL A   1      36.834  31.640  33.097  1.00  0.00    -0.200 F 
ENDBRANCH  54  78
BRANCH  66  89
ATOM     89  C   UNL A   1      45.212  24.644  33.399  1.00  0.00     0.064 A 
ATOM     90  C   UNL A   1      44.518  23.457  33.691  1.00  0.00     0.173 A 
ATOM     91  C   UNL A   1      46.582  24.649  33.756  1.00  0.00     0.173 A 
ATOM     92  F   UNL A   1      43.254  23.270  33.289  1.00  0.00    -0.203 F 
ATOM     93  C   UNL A   1      45.124  22.389  34.359  1.00  0.00     0.198 A 
ATOM     94  C   UNL A   1      47.200  23.558  34.366  1.00  0.00     0.198 A 
ATOM     95  F   UNL A   1      47.369  25.703  33.497  1.00  0.00    -0.203 F 
ATOM     96  F   UNL A   1      44.405  21.299  34.657  1.00  0.00    -0.200 F 
ATOM     97  C   UNL A   1      46.466  22.436  34.687  1.00  0.00     0.200 A 
ATOM     98  F   UNL A   1      48.515  23.597  34.625  1.00  0.00    -0.200 F 
ATOM     99  F   UNL A   1      47.054  21.392  35.287  1.00  0.00    -0.200 F 
ENDBRANCH  66  89
ENDBRANCH  40  41
ENDBRANCH  32  35
ENDBRANCH  30  31
ENDBRANCH  29  30
ENDBRANCH  28  29
ENDBRANCH   1  28
TORSDOF 17
ENDMDL
MODEL 3
REMARK VINA RESULT:     -12.7      1.363      3.091
REMARK SMILES Cc1ccc(NC(=O)C[C@@H](C(=O)NCCCCCCNC(=O)c2ccc(-c3c4nc(c(-c5c(F)c(F)c(F)c(F)c5F)c5ccc([nH]5)c(-c5c(F)c(F)c(F)c(F)c5F)c5nc(c(-c6c(F)c(F)c(F)c(F)c6F)c6ccc3[nH]6)C=C5)C=C4)cc2)[NH+]2CCOCC2)cc1
REMARK SMILES IDX 16 1 15 2 14 3 13 4 11 5 12 6 10 8 9 9 7 10 6 11 8 13 5 14
REMARK SMILES IDX 1 15 2 16 3 17 93 18 4 19 92 20 86 21 87 22 91 23 88 25
REMARK SMILES IDX 90 26 89 27 17 28 18 29 19 30 20 31 21 32 22 34 23 35 24 36
REMARK SMILES IDX 85 37 25 38 84 39 26 40 27 41 28 42 78 43 29 44 83 45 77 46
REMARK SMILES IDX 79 47 30 48 82 49 76 50 75 51 31 53 63 54 43 55 62 56 44 57
REMARK SMILES IDX 47 58 61 59 80 60 45 61 46 62 60 64 81 65 48 66 32 67 33 68
REMARK SMILES IDX 41 69 34 70 35 71 39 72 42 73 36 74 37 75 40 76 38 77 64 78
REMARK SMILES IDX 65 79 73 80 66 81 67 82 71 83 74 84 68 85 69 86 72 87 70 88
REMARK SMILES IDX 49 89 50 90 58 91 51 92 52 93 56 94 59 95 53 96 54 97 57 98
REMARK SMILES IDX 55 99
REMARK H PARENT 13 7 6 12 86 24 20 33 79 52 47 63
REMARK Flexibility Score: inf
ROOT
ATOM      1  C   UNL A   1      35.476  22.707  23.396  1.00  0.00     0.002 C 
ENDROOT
BRANCH   1   2
ATOM      2  C   UNL A   1      34.494  23.827  23.004  1.00  0.00     0.021 C 
BRANCH   2   3
ATOM      3  C   UNL A   1      33.079  23.384  22.607  1.00  0.00     0.116 C 
BRANCH   3   4
ATOM      4  N   UNL A   1      32.360  24.447  21.942  1.00  0.00    -0.351 N 
ATOM      5  C   UNL A   1      31.884  25.656  22.324  1.00  0.00     0.278 C 
ATOM      6  O   UNL A   1      31.346  26.288  21.405  1.00  0.00    -0.268 OA
ATOM      7  H   UNL A   1      32.173  24.246  20.997  1.00  0.00     0.163 HD
BRANCH   5   8
ATOM      8  C   UNL A   1      32.100  26.270  23.752  1.00  0.00     0.283 C 
BRANCH   8   9
ATOM      9  C   UNL A   1      30.860  26.288  24.672  1.00  0.00     0.175 C 
BRANCH   9  10
ATOM     10  C   UNL A   1      31.003  26.189  26.168  1.00  0.00     0.230 C 
ATOM     11  N   UNL A   1      31.429  25.063  26.808  1.00  0.00    -0.326 N 
ATOM     12  H   UNL A   1      31.316  25.080  27.785  1.00  0.00     0.169 HD
ATOM     13  O   UNL A   1      30.735  27.175  26.868  1.00  0.00    -0.274 OA
BRANCH  11  14
ATOM     14  C   UNL A   1      32.002  23.882  26.309  1.00  0.00     0.041 A 
ATOM     15  C   UNL A   1      33.212  19.823  25.623  1.00  0.00     0.044 C 
ATOM     16  C   UNL A   1      32.815  21.263  25.723  1.00  0.00    -0.051 A 
ATOM     17  C   UNL A   1      33.731  22.199  26.209  1.00  0.00     0.005 A 
ATOM     18  C   UNL A   1      31.520  21.682  25.412  1.00  0.00     0.005 A 
ATOM     19  C   UNL A   1      33.328  23.506  26.491  1.00  0.00     0.026 A 
ATOM     20  C   UNL A   1      31.126  22.995  25.676  1.00  0.00     0.026 A 
ENDBRANCH  11  14
ENDBRANCH   9  10
ENDBRANCH   8   9
BRANCH   8  21
ATOM     21  N   UNL A   1      32.668  27.646  23.570  1.00  0.00    -0.320 N 
ATOM     22  C   UNL A   1      33.902  27.925  24.333  1.00  0.00     0.291 C 
ATOM     23  C   UNL A   1      31.808  28.835  23.543  1.00  0.00     0.291 C 
ATOM     24  H   UNL A   1      32.875  27.517  22.580  1.00  0.00     0.348 HD
ATOM     25  C   UNL A   1      33.664  28.650  25.664  1.00  0.00     0.221 C 
ATOM     26  C   UNL A   1      31.647  29.554  24.887  1.00  0.00     0.221 C 
ATOM     27  O   UNL A   1      32.914  29.853  25.479  1.00  0.00    -0.370 OA
ENDBRANCH   8  21
ENDBRANCH   5   8
ENDBRANCH   3   4
ENDBRANCH   2   3
ENDBRANCH   1   2
BRANCH   1  28
ATOM     28  C   UNL A   1      36.869  23.145  23.866  1.00  0.00     0.002 C 
BRANCH  28  29
ATOM     29  C   UNL A   1      37.562  22.213  24.859  1.00  0.00     0.021 C 
BRANCH  29  30
ATOM     30  C   UNL A   1      37.906  22.859  26.192  1.00  0.00     0.116 C 
BRANCH  30  31
ATOM     31  N   UNL A   1      39.285  22.700  26.614  1.00  0.00    -0.352 N 
ATOM     32  C   UNL A   1      40.229  23.653  26.944  1.00  0.00     0.251 C 
ATOM     33  H   UNL A   1      39.596  21.768  26.675  1.00  0.00     0.163 HD
ATOM     34  O   UNL A   1      41.399  23.299  27.080  1.00  0.00    -0.269 OA
BRANCH  32  35
ATOM     35  C   UNL A   1      39.846  25.051  27.288  1.00  0.00     0.039 A 
ATOM     36  C   UNL A   1      40.346  26.083  26.473  1.00  0.00     0.014 A 
ATOM     37  C   UNL A   1      39.178  25.384  28.461  1.00  0.00     0.014 A 
ATOM     38  C   UNL A   1      40.391  27.391  26.950  1.00  0.00     0.010 A 
ATOM     39  C   UNL A   1      39.318  26.648  28.986  1.00  0.00     0.010 A 
ATOM     40  C   UNL A   1      39.985  27.632  28.256  1.00  0.00    -0.014 A 
BRANCH  40  41
ATOM     41  C   UNL A   1      40.231  28.859  28.990  1.00  0.00     0.031 A 
ATOM     42  C   UNL A   1      39.205  29.916  28.999  1.00  0.00     0.074 A 
ATOM     43  C   UNL A   1      41.289  28.888  29.831  1.00  0.00     0.049 A 
ATOM     44  N   UNL A   1      39.386  31.089  29.496  1.00  0.00    -0.248 NA
ATOM     45  C   UNL A   1      37.886  29.751  28.386  1.00  0.00     0.031 C 
ATOM     46  C   UNL A   1      41.511  29.779  30.967  1.00  0.00     0.029 A 
ATOM     47  N   UNL A   1      42.509  28.205  29.683  1.00  0.00    -0.354 N 
ATOM     48  C   UNL A   1      38.154  31.693  29.572  1.00  0.00     0.074 A 
ATOM     49  C   UNL A   1      37.294  30.899  28.736  1.00  0.00     0.031 C 
ATOM     50  C   UNL A   1      42.828  29.827  31.229  1.00  0.00     0.029 A 
ATOM     51  C   UNL A   1      43.492  29.111  30.153  1.00  0.00     0.049 A 
ATOM     52  H   UNL A   1      42.650  27.297  29.331  1.00  0.00     0.167 HD
ATOM     53  C   UNL A   1      37.989  32.700  30.473  1.00  0.00     0.037 A 
ATOM     54  C   UNL A   1      44.389  29.678  29.292  1.00  0.00     0.037 A 
ATOM     55  C   UNL A   1      39.288  33.187  30.938  1.00  0.00     0.049 A 
ATOM     56  C   UNL A   1      44.321  31.187  29.252  1.00  0.00     0.074 A 
ATOM     57  C   UNL A   1      39.986  33.056  32.125  1.00  0.00     0.029 A 
ATOM     58  N   UNL A   1      40.189  33.688  30.001  1.00  0.00    -0.354 N 
ATOM     59  N   UNL A   1      43.268  31.877  29.596  1.00  0.00    -0.248 NA
ATOM     60  C   UNL A   1      45.427  32.032  28.813  1.00  0.00     0.031 C 
ATOM     61  C   UNL A   1      41.350  33.360  31.856  1.00  0.00     0.029 A 
ATOM     62  C   UNL A   1      41.464  33.732  30.525  1.00  0.00     0.049 A 
ATOM     63  H   UNL A   1      39.949  33.970  29.089  1.00  0.00     0.167 HD
ATOM     64  C   UNL A   1      43.527  33.212  29.437  1.00  0.00     0.074 A 
ATOM     65  C   UNL A   1      44.894  33.259  28.953  1.00  0.00     0.031 C 
ATOM     66  C   UNL A   1      42.591  34.170  29.710  1.00  0.00     0.037 A 
BRANCH  53  67
ATOM     67  C   UNL A   1      36.669  33.109  31.098  1.00  0.00     0.064 A 
ATOM     68  C   UNL A   1      35.751  33.886  30.357  1.00  0.00     0.173 A 
ATOM     69  C   UNL A   1      36.306  32.904  32.448  1.00  0.00     0.173 A 
ATOM     70  F   UNL A   1      35.971  34.173  29.066  1.00  0.00    -0.203 F 
ATOM     71  C   UNL A   1      34.585  34.417  30.922  1.00  0.00     0.198 A 
ATOM     72  C   UNL A   1      35.114  33.390  32.996  1.00  0.00     0.198 A 
ATOM     73  F   UNL A   1      37.107  32.287  33.321  1.00  0.00    -0.203 F 
ATOM     74  F   UNL A   1      33.783  35.199  30.186  1.00  0.00    -0.200 F 
ATOM     75  C   UNL A   1      34.261  34.159  32.239  1.00  0.00     0.200 A 
ATOM     76  F   UNL A   1      34.824  33.131  34.280  1.00  0.00    -0.200 F 
ATOM     77  F   UNL A   1      33.146  34.666  32.782  1.00  0.00    -0.200 F 
ENDBRANCH  53  67
BRANCH  54  78
ATOM     78  C   UNL A   1      44.695  28.802  28.126  1.00  0.00     0.064 A 
ATOM     79  C   UNL A   1      45.472  27.648  28.355  1.00  0.00     0.173 A 
ATOM     80  C   UNL A   1      43.916  28.836  26.963  1.00  0.00     0.173 A 
ATOM     81  F   UNL A   1      46.240  27.566  29.453  1.00  0.00    -0.203 F 
ATOM     82  C   UNL A   1      45.358  26.524  27.539  1.00  0.00     0.198 A 
ATOM     83  C   UNL A   1      43.824  27.715  26.134  1.00  0.00     0.198 A 
ATOM     84  F   UNL A   1      43.149  29.901  26.691  1.00  0.00    -0.203 F 
ATOM     85  F   UNL A   1      46.006  25.395  27.862  1.00  0.00    -0.200 F 
ATOM     86  C   UNL A   1      44.508  26.548  26.447  1.00  0.00     0.200 A 
ATOM     87  F   UNL A   1      42.987  27.729  25.086  1.00  0.00    -0.200 F 
ATOM     88  F   UNL A   1      44.314  25.439  25.721  1.00  0.00    -0.200 F 
ENDBRANCH  54  78
BRANCH  66  89
ATOM     89  C   UNL A   1      42.686  35.624  29.311  1.00  0.00     0.064 A 
ATOM     90  C   UNL A   1      43.460  36.575  29.997  1.00  0.00     0.173 A 
ATOM     91  C   UNL A   1      42.100  36.074  28.103  1.00  0.00     0.173 A 
ATOM     92  F   UNL A   1      44.175  36.244  31.080  1.00  0.00    -0.203 F 
ATOM     93  C   UNL A   1      43.576  37.896  29.554  1.00  0.00     0.198 A 
ATOM     94  C   UNL A   1      42.268  37.375  27.631  1.00  0.00     0.198 A 
ATOM     95  F   UNL A   1      41.370  35.256  27.331  1.00  0.00    -0.203 F 
ATOM     96  F   UNL A   1      44.287  38.776  30.270  1.00  0.00    -0.200 F 
ATOM     97  C   UNL A   1      42.989  38.292  28.367  1.00  0.00     0.200 A 
ATOM     98  F   UNL A   1      41.740  37.728  26.450  1.00  0.00    -0.200 F 
ATOM     99  F   UNL A   1      43.138  39.547  27.922  1.00  0.00    -0.200 F 
ENDBRANCH  66  89
ENDBRANCH  40  41
ENDBRANCH  32  35
ENDBRANCH  30  31
ENDBRANCH  29  30
ENDBRANCH  28  29
ENDBRANCH   1  28
TORSDOF 17
ENDMDL
