MODEL 1
REMARK VINA RESULT:      -9.9      0.000      0.000
REMARK SMILES O=C(NCCCCCCNC(=O)c1ccc(-c2c3nc(c(-c4c(F)c(F)c(F)c(F)c4F)c4ccc([nH]4)c(-c4c(F)c(F)c(F)c(F)c4F)c4nc(c(-c5c(F)c(F)c(F)c(F)c5F)c5ccc2[nH]5)C=C4)C=C3)cc1)c1ccc(NS(=O)(=O)C2=Cc3ccccc3CC2)cc1
REMARK SMILES IDX 6 1 5 2 4 3 3 4 1 5 2 6 76 8 77 9 95 10 78 11 94 12 79 13
REMARK SMILES IDX 80 14 81 16 82 17 83 18 84 19 85 20 93 21 86 22 92 23 87 24
REMARK SMILES IDX 91 25 88 26 90 27 89 28 7 29 8 30 9 31 10 32 11 33 12 35
REMARK SMILES IDX 13 36 14 37 75 38 15 39 74 40 16 41 17 42 18 43 68 44 19 45
REMARK SMILES IDX 73 46 67 47 69 48 20 49 72 50 66 51 65 52 21 54 53 55 33 56
REMARK SMILES IDX 52 57 34 58 37 59 51 60 70 61 35 62 36 63 50 65 71 66 38 67
REMARK SMILES IDX 22 68 23 69 31 70 24 71 25 72 29 73 32 74 26 75 27 76 30 77
REMARK SMILES IDX 28 78 54 79 55 80 63 81 56 82 57 83 61 84 64 85 58 86 59 87
REMARK SMILES IDX 62 88 60 89 39 90 40 91 48 92 41 93 42 94 46 95 49 96 43 97
REMARK SMILES IDX 44 98 47 99 45 100
REMARK H PARENT 3 7 80 15 10 34 69 53 37 64
REMARK Flexibility Score: inf
ROOT
ATOM      1  C   UNL A   1      37.096  32.961  30.169  1.00  0.00     0.002 C 
ENDROOT
BRANCH   1   2
ATOM      2  C   UNL A   1      37.225  34.097  31.189  1.00  0.00     0.021 C 
BRANCH   2   3
ATOM      3  C   UNL A   1      38.272  33.872  32.276  1.00  0.00     0.116 C 
BRANCH   3   4
ATOM      4  N   UNL A   1      37.660  33.681  33.579  1.00  0.00    -0.352 N 
ATOM      5  O   UNL A   1      36.943  32.487  35.352  1.00  0.00    -0.269 OA
ATOM      6  C   UNL A   1      37.689  32.571  34.382  1.00  0.00     0.251 C 
ATOM      7  H   UNL A   1      37.159  34.451  33.931  1.00  0.00     0.163 HD
BRANCH   6   8
ATOM      8  C   UNL A   1      38.644  31.480  34.096  1.00  0.00     0.039 A 
ATOM      9  C   UNL A   1      39.963  31.573  34.545  1.00  0.00     0.016 A 
ATOM     10  C   UNL A   1      38.192  30.302  33.495  1.00  0.00     0.016 A 
ATOM     11  C   UNL A   1      40.830  30.494  34.379  1.00  0.00     0.027 A 
ATOM     12  C   UNL A   1      39.073  29.229  33.316  1.00  0.00     0.027 A 
ATOM     13  C   UNL A   1      40.401  29.323  33.751  1.00  0.00     0.049 A 
BRANCH  13  14
ATOM     14  N   UNL A   1      41.219  28.152  33.771  1.00  0.00    -0.280 N 
ATOM     15  H   UNL A   1      41.594  27.811  32.927  1.00  0.00     0.180 HD
BRANCH  14  16
ATOM     16  S   UNL A   1      41.560  27.333  35.222  1.00  0.00     0.258 S 
ATOM     17  O   UNL A   1      41.033  28.205  36.251  1.00  0.00    -0.202 OA
ATOM     18  O   UNL A   1      40.974  26.015  35.052  1.00  0.00    -0.202 OA
BRANCH  16  19
ATOM     19  C   UNL A   1      43.311  27.166  35.394  1.00  0.00     0.066 C 
ATOM     20  C   UNL A   1      43.757  26.010  35.933  1.00  0.00     0.026 C 
ATOM     21  C   UNL A   1      44.113  27.703  34.232  1.00  0.00     0.055 C 
ATOM     22  C   UNL A   1      44.008  24.936  34.929  1.00  0.00    -0.021 A 
ATOM     23  C   UNL A   1      44.103  26.687  33.081  1.00  0.00     0.041 C 
ATOM     24  C   UNL A   1      44.086  23.608  35.355  1.00  0.00     0.008 A 
ATOM     25  C   UNL A   1      44.154  25.250  33.561  1.00  0.00    -0.040 A 
ATOM     26  C   UNL A   1      44.251  22.585  34.421  1.00  0.00     0.001 A 
ATOM     27  C   UNL A   1      44.293  24.213  32.631  1.00  0.00     0.004 A 
ATOM     28  C   UNL A   1      44.336  22.886  33.062  1.00  0.00     0.000 A 
ENDBRANCH  16  19
ENDBRANCH  14  16
ENDBRANCH  13  14
ENDBRANCH   6   8
ENDBRANCH   3   4
ENDBRANCH   2   3
ENDBRANCH   1   2
BRANCH   1  29
ATOM     29  C   UNL A   1      36.917  33.399  28.713  1.00  0.00     0.002 C 
BRANCH  29  30
ATOM     30  C   UNL A   1      35.529  33.156  28.116  1.00  0.00     0.021 C 
BRANCH  30  31
ATOM     31  C   UNL A   1      34.554  32.400  29.014  1.00  0.00     0.116 C 
BRANCH  31  32
ATOM     32  N   UNL A   1      33.979  31.233  28.368  1.00  0.00    -0.352 N 
ATOM     33  C   UNL A   1      34.585  30.069  27.968  1.00  0.00     0.251 C 
ATOM     34  H   UNL A   1      33.012  31.286  28.190  1.00  0.00     0.163 HD
ATOM     35  O   UNL A   1      33.957  29.240  27.315  1.00  0.00    -0.269 OA
BRANCH  33  36
ATOM     36  C   UNL A   1      36.006  29.820  28.295  1.00  0.00     0.039 A 
ATOM     37  C   UNL A   1      36.326  29.367  29.579  1.00  0.00     0.014 A 
ATOM     38  C   UNL A   1      37.017  30.040  27.357  1.00  0.00     0.014 A 
ATOM     39  C   UNL A   1      37.654  29.077  29.901  1.00  0.00     0.010 A 
ATOM     40  C   UNL A   1      38.332  29.691  27.660  1.00  0.00     0.010 A 
ATOM     41  C   UNL A   1      38.663  29.206  28.934  1.00  0.00    -0.014 A 
BRANCH  41  42
ATOM     42  C   UNL A   1      40.068  28.835  29.237  1.00  0.00     0.031 A 
ATOM     43  C   UNL A   1      40.956  29.785  29.991  1.00  0.00     0.074 A 
ATOM     44  C   UNL A   1      40.564  27.670  28.776  1.00  0.00     0.049 A 
ATOM     45  N   UNL A   1      42.227  29.673  30.287  1.00  0.00    -0.248 NA
ATOM     46  C   UNL A   1      40.342  31.040  30.450  1.00  0.00     0.031 C 
ATOM     47  C   UNL A   1      39.815  26.682  27.998  1.00  0.00     0.029 A 
ATOM     48  N   UNL A   1      41.818  27.124  28.886  1.00  0.00    -0.354 N 
ATOM     49  C   UNL A   1      42.567  30.847  30.945  1.00  0.00     0.074 A 
ATOM     50  C   UNL A   1      41.381  31.676  30.972  1.00  0.00     0.031 C 
ATOM     51  C   UNL A   1      40.618  25.643  27.718  1.00  0.00     0.029 A 
ATOM     52  C   UNL A   1      41.945  25.906  28.265  1.00  0.00     0.049 A 
ATOM     53  H   UNL A   1      42.557  27.566  29.364  1.00  0.00     0.167 HD
ATOM     54  C   UNL A   1      43.755  31.193  31.495  1.00  0.00     0.037 A 
ATOM     55  C   UNL A   1      43.015  25.096  28.145  1.00  0.00     0.037 A 
ATOM     56  C   UNL A   1      44.922  30.350  31.503  1.00  0.00     0.049 A 
ATOM     57  C   UNL A   1      44.322  25.506  28.768  1.00  0.00     0.074 A 
ATOM     58  C   UNL A   1      46.147  30.578  32.105  1.00  0.00     0.029 A 
ATOM     59  N   UNL A   1      45.008  29.115  30.878  1.00  0.00    -0.354 N 
ATOM     60  N   UNL A   1      44.610  26.585  29.453  1.00  0.00    -0.248 NA
ATOM     61  C   UNL A   1      45.451  24.580  28.604  1.00  0.00     0.031 C 
ATOM     62  C   UNL A   1      46.988  29.501  31.808  1.00  0.00     0.029 A 
ATOM     63  C   UNL A   1      46.273  28.581  31.060  1.00  0.00     0.049 A 
ATOM     64  H   UNL A   1      44.277  28.681  30.380  1.00  0.00     0.167 HD
ATOM     65  C   UNL A   1      45.940  26.455  29.828  1.00  0.00     0.074 A 
ATOM     66  C   UNL A   1      46.400  25.186  29.304  1.00  0.00     0.031 C 
ATOM     67  C   UNL A   1      46.711  27.309  30.543  1.00  0.00     0.037 A 
BRANCH  54  68
ATOM     68  C   UNL A   1      43.859  32.545  32.138  1.00  0.00     0.064 A 
ATOM     69  C   UNL A   1      43.992  33.715  31.376  1.00  0.00     0.173 A 
ATOM     70  C   UNL A   1      43.772  32.675  33.532  1.00  0.00     0.173 A 
ATOM     71  F   UNL A   1      44.090  33.643  30.040  1.00  0.00    -0.203 F 
ATOM     72  C   UNL A   1      44.060  34.963  31.988  1.00  0.00     0.198 A 
ATOM     73  C   UNL A   1      43.812  33.928  34.139  1.00  0.00     0.198 A 
ATOM     74  F   UNL A   1      43.637  31.588  34.306  1.00  0.00    -0.203 F 
ATOM     75  F   UNL A   1      44.231  36.065  31.242  1.00  0.00    -0.200 F 
ATOM     76  C   UNL A   1      43.963  35.070  33.367  1.00  0.00     0.200 A 
ATOM     77  F   UNL A   1      43.705  34.030  35.470  1.00  0.00    -0.200 F 
ATOM     78  F   UNL A   1      44.019  36.274  33.953  1.00  0.00    -0.200 F 
ENDBRANCH  54  68
BRANCH  55  79
ATOM     79  C   UNL A   1      42.892  23.801  27.428  1.00  0.00     0.064 A 
ATOM     80  C   UNL A   1      43.261  23.691  26.080  1.00  0.00     0.173 A 
ATOM     81  C   UNL A   1      42.393  22.655  28.064  1.00  0.00     0.173 A 
ATOM     82  F   UNL A   1      43.724  24.766  25.424  1.00  0.00    -0.203 F 
ATOM     83  C   UNL A   1      43.115  22.491  25.389  1.00  0.00     0.198 A 
ATOM     84  C   UNL A   1      42.273  21.447  27.379  1.00  0.00     0.198 A 
ATOM     85  F   UNL A   1      42.031  22.706  29.354  1.00  0.00    -0.203 F 
ATOM     86  F   UNL A   1      43.430  22.426  24.088  1.00  0.00    -0.200 F 
ATOM     87  C   UNL A   1      42.625  21.369  26.040  1.00  0.00     0.200 A 
ATOM     88  F   UNL A   1      41.811  20.363  28.016  1.00  0.00    -0.200 F 
ATOM     89  F   UNL A   1      42.485  20.214  25.375  1.00  0.00    -0.200 F 
ENDBRANCH  55  79
BRANCH  67  90
ATOM     90  C   UNL A   1      48.120  26.884  30.836  1.00  0.00     0.064 A 
ATOM     91  C   UNL A   1      49.196  27.311  30.045  1.00  0.00     0.173 A 
ATOM     92  C   UNL A   1      48.398  26.071  31.945  1.00  0.00     0.173 A 
ATOM     93  F   UNL A   1      48.978  28.076  28.965  1.00  0.00    -0.203 F 
ATOM     94  C   UNL A   1      50.499  26.919  30.341  1.00  0.00     0.198 A 
ATOM     95  C   UNL A   1      49.705  25.704  32.254  1.00  0.00     0.198 A 
ATOM     96  F   UNL A   1      47.403  25.641  32.736  1.00  0.00    -0.203 F 
ATOM     97  F   UNL A   1      51.508  27.301  29.546  1.00  0.00    -0.200 F 
ATOM     98  C   UNL A   1      50.753  26.123  31.448  1.00  0.00     0.200 A 
ATOM     99  F   UNL A   1      49.950  24.946  33.330  1.00  0.00    -0.200 F 
ATOM    100  F   UNL A   1      52.009  25.753  31.735  1.00  0.00    -0.200 F 
ENDBRANCH  67  90
ENDBRANCH  41  42
ENDBRANCH  33  36
ENDBRANCH  31  32
ENDBRANCH  30  31
ENDBRANCH  29  30
ENDBRANCH   1  29
TORSDOF 16
ENDMDL
MODEL 2
REMARK VINA RESULT:      -9.9      5.127     10.737
REMARK SMILES O=C(NCCCCCCNC(=O)c1ccc(-c2c3nc(c(-c4c(F)c(F)c(F)c(F)c4F)c4ccc([nH]4)c(-c4c(F)c(F)c(F)c(F)c4F)c4nc(c(-c5c(F)c(F)c(F)c(F)c5F)c5ccc2[nH]5)C=C4)C=C3)cc1)c1ccc(NS(=O)(=O)C2=Cc3ccccc3CC2)cc1
REMARK SMILES IDX 6 1 5 2 4 3 3 4 1 5 2 6 76 8 77 9 95 10 78 11 94 12 79 13
REMARK SMILES IDX 80 14 81 16 82 17 83 18 84 19 85 20 93 21 86 22 92 23 87 24
REMARK SMILES IDX 91 25 88 26 90 27 89 28 7 29 8 30 9 31 10 32 11 33 12 35
REMARK SMILES IDX 13 36 14 37 75 38 15 39 74 40 16 41 17 42 18 43 68 44 19 45
REMARK SMILES IDX 73 46 67 47 69 48 20 49 72 50 66 51 65 52 21 54 53 55 33 56
REMARK SMILES IDX 52 57 34 58 37 59 51 60 70 61 35 62 36 63 50 65 71 66 38 67
REMARK SMILES IDX 22 68 23 69 31 70 24 71 25 72 29 73 32 74 26 75 27 76 30 77
REMARK SMILES IDX 28 78 54 79 55 80 63 81 56 82 57 83 61 84 64 85 58 86 59 87
REMARK SMILES IDX 62 88 60 89 39 90 40 91 48 92 41 93 42 94 46 95 49 96 43 97
REMARK SMILES IDX 44 98 47 99 45 100
REMARK H PARENT 3 7 80 15 10 34 69 53 37 64
REMARK Flexibility Score: inf
ROOT
ATOM      1  C   UNL A   1      36.691  21.851  25.867  1.00  0.00     0.002 C 
ENDROOT
BRANCH   1   2
ATOM      2  C   UNL A   1      35.331  22.540  26.013  1.00  0.00     0.021 C 
BRANCH   2   3
ATOM      3  C   UNL A   1      34.393  21.905  27.035  1.00  0.00     0.116 C 
BRANCH   3   4
ATOM      4  N   UNL A   1      33.903  20.615  26.585  1.00  0.00    -0.352 N 
ATOM      5  O   UNL A   1      32.476  19.214  25.542  1.00  0.00    -0.269 OA
ATOM      6  C   UNL A   1      32.932  20.347  25.655  1.00  0.00     0.251 C 
ATOM      7  H   UNL A   1      34.324  19.830  27.001  1.00  0.00     0.163 HD
BRANCH   6   8
ATOM      8  C   UNL A   1      32.450  21.423  24.763  1.00  0.00     0.039 A 
ATOM      9  C   UNL A   1      31.683  22.467  25.283  1.00  0.00     0.016 A 
ATOM     10  C   UNL A   1      32.876  21.464  23.433  1.00  0.00     0.016 A 
ATOM     11  C   UNL A   1      31.331  23.542  24.467  1.00  0.00     0.027 A 
ATOM     12  C   UNL A   1      32.504  22.538  22.615  1.00  0.00     0.027 A 
ATOM     13  C   UNL A   1      31.722  23.580  23.127  1.00  0.00     0.049 A 
BRANCH  13  14
ATOM     14  N   UNL A   1      31.544  24.770  22.357  1.00  0.00    -0.280 N 
ATOM     15  H   UNL A   1      30.643  25.006  22.037  1.00  0.00     0.180 HD
BRANCH  14  16
ATOM     16  S   UNL A   1      32.853  25.788  21.982  1.00  0.00     0.258 S 
ATOM     17  O   UNL A   1      33.902  25.360  22.883  1.00  0.00    -0.202 OA
ATOM     18  O   UNL A   1      33.049  25.630  20.552  1.00  0.00    -0.202 OA
BRANCH  16  19
ATOM     19  C   UNL A   1      32.397  27.462  22.318  1.00  0.00     0.066 C 
ATOM     20  C   UNL A   1      31.421  27.650  23.233  1.00  0.00     0.026 C 
ATOM     21  C   UNL A   1      33.554  28.430  22.383  1.00  0.00     0.055 C 
ATOM     22  C   UNL A   1      31.923  27.773  24.632  1.00  0.00    -0.021 A 
ATOM     23  C   UNL A   1      34.249  28.319  23.748  1.00  0.00     0.041 C 
ATOM     24  C   UNL A   1      31.037  27.577  25.695  1.00  0.00     0.008 A 
ATOM     25  C   UNL A   1      33.278  28.072  24.886  1.00  0.00    -0.040 A 
ATOM     26  C   UNL A   1      31.505  27.620  27.008  1.00  0.00     0.001 A 
ATOM     27  C   UNL A   1      33.740  28.086  26.207  1.00  0.00     0.004 A 
ATOM     28  C   UNL A   1      32.856  27.856  27.262  1.00  0.00     0.000 A 
ENDBRANCH  16  19
ENDBRANCH  14  16
ENDBRANCH  13  14
ENDBRANCH   6   8
ENDBRANCH   3   4
ENDBRANCH   2   3
ENDBRANCH   1   2
BRANCH   1  29
ATOM     29  C   UNL A   1      36.793  20.826  24.733  1.00  0.00     0.002 C 
BRANCH  29  30
ATOM     30  C   UNL A   1      37.913  19.794  24.875  1.00  0.00     0.021 C 
BRANCH  30  31
ATOM     31  C   UNL A   1      39.092  20.222  25.743  1.00  0.00     0.116 C 
BRANCH  31  32
ATOM     32  N   UNL A   1      40.117  19.198  25.851  1.00  0.00    -0.352 N 
ATOM     33  C   UNL A   1      41.447  19.323  26.162  1.00  0.00     0.251 C 
ATOM     34  H   UNL A   1      39.811  18.279  25.673  1.00  0.00     0.163 HD
ATOM     35  O   UNL A   1      42.193  18.353  26.078  1.00  0.00    -0.269 OA
BRANCH  33  36
ATOM     36  C   UNL A   1      41.994  20.635  26.572  1.00  0.00     0.039 A 
ATOM     37  C   UNL A   1      42.472  21.499  25.582  1.00  0.00     0.014 A 
ATOM     38  C   UNL A   1      42.049  21.011  27.917  1.00  0.00     0.014 A 
ATOM     39  C   UNL A   1      42.949  22.763  25.936  1.00  0.00     0.010 A 
ATOM     40  C   UNL A   1      42.465  22.295  28.262  1.00  0.00     0.010 A 
ATOM     41  C   UNL A   1      42.919  23.183  27.275  1.00  0.00    -0.014 A 
BRANCH  41  42
ATOM     42  C   UNL A   1      43.356  24.549  27.660  1.00  0.00     0.031 A 
ATOM     43  C   UNL A   1      42.338  25.602  27.996  1.00  0.00     0.074 A 
ATOM     44  C   UNL A   1      44.667  24.859  27.644  1.00  0.00     0.049 A 
ATOM     45  N   UNL A   1      42.519  26.868  28.285  1.00  0.00    -0.248 NA
ATOM     46  C   UNL A   1      40.927  25.187  27.981  1.00  0.00     0.031 C 
ATOM     47  C   UNL A   1      45.749  23.936  27.296  1.00  0.00     0.029 A 
ATOM     48  N   UNL A   1      45.313  26.039  27.917  1.00  0.00    -0.354 N 
ATOM     49  C   UNL A   1      41.249  27.400  28.462  1.00  0.00     0.074 A 
ATOM     50  C   UNL A   1      40.304  26.333  28.213  1.00  0.00     0.031 C 
ATOM     51  C   UNL A   1      46.924  24.579  27.395  1.00  0.00     0.029 A 
ATOM     52  C   UNL A   1      46.677  25.965  27.779  1.00  0.00     0.049 A 
ATOM     53  H   UNL A   1      44.841  26.860  28.185  1.00  0.00     0.167 HD
ATOM     54  C   UNL A   1      40.905  28.660  28.821  1.00  0.00     0.037 A 
ATOM     55  C   UNL A   1      47.622  26.912  27.939  1.00  0.00     0.037 A 
ATOM     56  C   UNL A   1      41.849  29.708  29.110  1.00  0.00     0.049 A 
ATOM     57  C   UNL A   1      47.209  28.302  28.340  1.00  0.00     0.074 A 
ATOM     58  C   UNL A   1      41.600  30.993  29.560  1.00  0.00     0.029 A 
ATOM     59  N   UNL A   1      43.224  29.591  28.975  1.00  0.00    -0.354 N 
ATOM     60  N   UNL A   1      46.010  28.774  28.578  1.00  0.00    -0.248 NA
ATOM     61  C   UNL A   1      48.286  29.291  28.499  1.00  0.00     0.031 C 
ATOM     62  C   UNL A   1      42.821  31.667  29.657  1.00  0.00     0.029 A 
ATOM     63  C   UNL A   1      43.835  30.789  29.311  1.00  0.00     0.049 A 
ATOM     64  H   UNL A   1      43.697  28.778  28.686  1.00  0.00     0.167 HD
ATOM     65  C   UNL A   1      46.189  30.101  28.945  1.00  0.00     0.074 A 
ATOM     66  C   UNL A   1      47.613  30.357  28.909  1.00  0.00     0.031 C 
ATOM     67  C   UNL A   1      45.256  31.024  29.283  1.00  0.00     0.037 A 
BRANCH  54  68
ATOM     68  C   UNL A   1      39.443  28.980  28.926  1.00  0.00     0.064 A 
ATOM     69  C   UNL A   1      38.696  29.386  27.810  1.00  0.00     0.173 A 
ATOM     70  C   UNL A   1      38.770  28.829  30.147  1.00  0.00     0.173 A 
ATOM     71  F   UNL A   1      39.296  29.556  26.622  1.00  0.00    -0.203 F 
ATOM     72  C   UNL A   1      37.335  29.654  27.919  1.00  0.00     0.198 A 
ATOM     73  C   UNL A   1      37.402  29.071  30.246  1.00  0.00     0.198 A 
ATOM     74  F   UNL A   1      39.436  28.437  31.244  1.00  0.00    -0.203 F 
ATOM     75  F   UNL A   1      36.650  30.082  26.849  1.00  0.00    -0.200 F 
ATOM     76  C   UNL A   1      36.687  29.489  29.134  1.00  0.00     0.200 A 
ATOM     77  F   UNL A   1      36.776  28.899  31.418  1.00  0.00    -0.200 F 
ATOM     78  F   UNL A   1      35.374  29.738  29.235  1.00  0.00    -0.200 F 
ENDBRANCH  54  68
BRANCH  55  79
ATOM     79  C   UNL A   1      49.055  26.574  27.745  1.00  0.00     0.064 A 
ATOM     80  C   UNL A   1      49.861  26.220  28.836  1.00  0.00     0.173 A 
ATOM     81  C   UNL A   1      49.652  26.612  26.477  1.00  0.00     0.173 A 
ATOM     82  F   UNL A   1      49.339  26.191  30.071  1.00  0.00    -0.203 F 
ATOM     83  C   UNL A   1      51.215  25.938  28.669  1.00  0.00     0.198 A 
ATOM     84  C   UNL A   1      51.001  26.304  26.308  1.00  0.00     0.198 A 
ATOM     85  F   UNL A   1      48.924  26.941  25.400  1.00  0.00    -0.203 F 
ATOM     86  F   UNL A   1      51.973  25.649  29.736  1.00  0.00    -0.200 F 
ATOM     87  C   UNL A   1      51.783  25.976  27.405  1.00  0.00     0.200 A 
ATOM     88  F   UNL A   1      51.542  26.329  25.082  1.00  0.00    -0.200 F 
ATOM     89  F   UNL A   1      53.085  25.704  27.245  1.00  0.00    -0.200 F 
ENDBRANCH  55  79
BRANCH  67  90
ATOM     90  C   UNL A   1      45.747  32.385  29.679  1.00  0.00     0.064 A 
ATOM     91  C   UNL A   1      46.096  32.684  31.003  1.00  0.00     0.173 A 
ATOM     92  C   UNL A   1      45.905  33.389  28.712  1.00  0.00     0.173 A 
ATOM     93  F   UNL A   1      45.947  31.762  31.965  1.00  0.00    -0.203 F 
ATOM     94  C   UNL A   1      46.566  33.949  31.349  1.00  0.00     0.198 A 
ATOM     95  C   UNL A   1      46.401  34.644  29.057  1.00  0.00     0.198 A 
ATOM     96  F   UNL A   1      45.590  33.150  27.430  1.00  0.00    -0.203 F 
ATOM     97  F   UNL A   1      46.851  34.228  32.628  1.00  0.00    -0.200 F 
ATOM     98  C   UNL A   1      46.724  34.924  30.375  1.00  0.00     0.200 A 
ATOM     99  F   UNL A   1      46.565  35.580  28.113  1.00  0.00    -0.200 F 
ATOM    100  F   UNL A   1      47.182  36.138  30.710  1.00  0.00    -0.200 F 
ENDBRANCH  67  90
ENDBRANCH  41  42
ENDBRANCH  33  36
ENDBRANCH  31  32
ENDBRANCH  30  31
ENDBRANCH  29  30
ENDBRANCH   1  29
TORSDOF 16
ENDMDL
MODEL 3
REMARK VINA RESULT:      -9.9      5.402     10.787
REMARK SMILES O=C(NCCCCCCNC(=O)c1ccc(-c2c3nc(c(-c4c(F)c(F)c(F)c(F)c4F)c4ccc([nH]4)c(-c4c(F)c(F)c(F)c(F)c4F)c4nc(c(-c5c(F)c(F)c(F)c(F)c5F)c5ccc2[nH]5)C=C4)C=C3)cc1)c1ccc(NS(=O)(=O)C2=Cc3ccccc3CC2)cc1
REMARK SMILES IDX 6 1 5 2 4 3 3 4 1 5 2 6 76 8 77 9 95 10 78 11 94 12 79 13
REMARK SMILES IDX 80 14 81 16 82 17 83 18 84 19 85 20 93 21 86 22 92 23 87 24
REMARK SMILES IDX 91 25 88 26 90 27 89 28 7 29 8 30 9 31 10 32 11 33 12 35
REMARK SMILES IDX 13 36 14 37 75 38 15 39 74 40 16 41 17 42 18 43 68 44 19 45
REMARK SMILES IDX 73 46 67 47 69 48 20 49 72 50 66 51 65 52 21 54 53 55 33 56
REMARK SMILES IDX 52 57 34 58 37 59 51 60 70 61 35 62 36 63 50 65 71 66 38 67
REMARK SMILES IDX 22 68 23 69 31 70 24 71 25 72 29 73 32 74 26 75 27 76 30 77
REMARK SMILES IDX 28 78 54 79 55 80 63 81 56 82 57 83 61 84 64 85 58 86 59 87
REMARK SMILES IDX 62 88 60 89 39 90 40 91 48 92 41 93 42 94 46 95 49 96 43 97
REMARK SMILES IDX 44 98 47 99 45 100
REMARK H PARENT 3 7 80 15 10 34 69 53 37 64
REMARK Flexibility Score: inf
ROOT
ATOM      1  C   UNL A   1      36.682  21.747  25.750  1.00  0.00     0.002 C 
ENDROOT
BRANCH   1   2
ATOM      2  C   UNL A   1      35.265  22.317  25.873  1.00  0.00     0.021 C 
BRANCH   2   3
ATOM      3  C   UNL A   1      34.398  21.663  26.946  1.00  0.00     0.116 C 
BRANCH   3   4
ATOM      4  N   UNL A   1      33.924  20.356  26.529  1.00  0.00    -0.352 N 
ATOM      5  O   UNL A   1      32.479  18.904  25.586  1.00  0.00    -0.269 OA
ATOM      6  C   UNL A   1      32.901  20.053  25.668  1.00  0.00     0.251 C 
ATOM      7  H   UNL A   1      34.401  19.587  26.914  1.00  0.00     0.163 HD
BRANCH   6   8
ATOM      8  C   UNL A   1      32.321  21.110  24.813  1.00  0.00     0.039 A 
ATOM      9  C   UNL A   1      31.456  22.056  25.365  1.00  0.00     0.016 A 
ATOM     10  C   UNL A   1      32.745  21.240  23.488  1.00  0.00     0.016 A 
ATOM     11  C   UNL A   1      31.006  23.122  24.587  1.00  0.00     0.027 A 
ATOM     12  C   UNL A   1      32.274  22.303  22.706  1.00  0.00     0.027 A 
ATOM     13  C   UNL A   1      31.394  23.245  23.252  1.00  0.00     0.049 A 
BRANCH  13  14
ATOM     14  N   UNL A   1      31.105  24.441  22.524  1.00  0.00    -0.280 N 
ATOM     15  H   UNL A   1      30.582  24.383  21.691  1.00  0.00     0.180 HD
BRANCH  14  16
ATOM     16  S   UNL A   1      31.643  25.960  23.065  1.00  0.00     0.258 S 
ATOM     17  O   UNL A   1      32.840  25.662  23.822  1.00  0.00    -0.202 OA
ATOM     18  O   UNL A   1      31.758  26.764  21.860  1.00  0.00    -0.202 OA
BRANCH  16  19
ATOM     19  C   UNL A   1      30.411  26.670  24.114  1.00  0.00     0.066 C 
ATOM     20  C   UNL A   1      30.657  26.638  25.442  1.00  0.00     0.026 C 
ATOM     21  C   UNL A   1      29.793  27.944  23.590  1.00  0.00     0.055 C 
ATOM     22  C   UNL A   1      31.405  27.827  25.943  1.00  0.00    -0.021 A 
ATOM     23  C   UNL A   1      30.736  29.126  23.856  1.00  0.00     0.041 C 
ATOM     24  C   UNL A   1      32.061  27.752  27.175  1.00  0.00     0.008 A 
ATOM     25  C   UNL A   1      31.465  29.013  25.181  1.00  0.00    -0.040 A 
ATOM     26  C   UNL A   1      32.822  28.831  27.626  1.00  0.00     0.001 A 
ATOM     27  C   UNL A   1      32.253  30.078  25.632  1.00  0.00     0.004 A 
ATOM     28  C   UNL A   1      32.932  29.983  26.847  1.00  0.00     0.000 A 
ENDBRANCH  16  19
ENDBRANCH  14  16
ENDBRANCH  13  14
ENDBRANCH   6   8
ENDBRANCH   3   4
ENDBRANCH   2   3
ENDBRANCH   1   2
BRANCH   1  29
ATOM     29  C   UNL A   1      36.866  20.663  24.685  1.00  0.00     0.002 C 
BRANCH  29  30
ATOM     30  C   UNL A   1      37.920  19.599  25.001  1.00  0.00     0.021 C 
BRANCH  30  31
ATOM     31  C   UNL A   1      39.178  20.110  25.696  1.00  0.00     0.116 C 
BRANCH  31  32
ATOM     32  N   UNL A   1      40.191  19.082  25.859  1.00  0.00    -0.352 N 
ATOM     33  C   UNL A   1      41.531  19.210  26.123  1.00  0.00     0.251 C 
ATOM     34  H   UNL A   1      39.867  18.156  25.767  1.00  0.00     0.163 HD
ATOM     35  O   UNL A   1      42.261  18.224  26.098  1.00  0.00    -0.269 OA
BRANCH  33  36
ATOM     36  C   UNL A   1      42.108  20.542  26.408  1.00  0.00     0.039 A 
ATOM     37  C   UNL A   1      42.545  21.325  25.335  1.00  0.00     0.014 A 
ATOM     38  C   UNL A   1      42.230  21.015  27.717  1.00  0.00     0.014 A 
ATOM     39  C   UNL A   1      43.049  22.607  25.571  1.00  0.00     0.010 A 
ATOM     40  C   UNL A   1      42.673  22.317  27.946  1.00  0.00     0.010 A 
ATOM     41  C   UNL A   1      43.087  23.125  26.875  1.00  0.00    -0.014 A 
BRANCH  41  42
ATOM     42  C   UNL A   1      43.552  24.510  27.138  1.00  0.00     0.031 A 
ATOM     43  C   UNL A   1      42.592  25.547  27.648  1.00  0.00     0.074 A 
ATOM     44  C   UNL A   1      44.825  24.850  26.853  1.00  0.00     0.049 A 
ATOM     45  N   UNL A   1      42.791  26.824  27.868  1.00  0.00    -0.248 NA
ATOM     46  C   UNL A   1      41.219  25.098  27.924  1.00  0.00     0.031 C 
ATOM     47  C   UNL A   1      45.842  23.945  26.316  1.00  0.00     0.029 A 
ATOM     48  N   UNL A   1      45.478  26.052  26.968  1.00  0.00    -0.354 N 
ATOM     49  C   UNL A   1      41.568  27.330  28.284  1.00  0.00     0.074 A 
ATOM     50  C   UNL A   1      40.622  26.235  28.251  1.00  0.00     0.031 C 
ATOM     51  C   UNL A   1      46.994  24.617  26.165  1.00  0.00     0.029 A 
ATOM     52  C   UNL A   1      46.789  26.007  26.562  1.00  0.00     0.049 A 
ATOM     53  H   UNL A   1      45.046  26.869  27.307  1.00  0.00     0.167 HD
ATOM     54  C   UNL A   1      41.266  28.591  28.679  1.00  0.00     0.037 A 
ATOM     55  C   UNL A   1      47.720  26.980  26.510  1.00  0.00     0.037 A 
ATOM     56  C   UNL A   1      42.218  29.668  28.751  1.00  0.00     0.049 A 
ATOM     57  C   UNL A   1      47.356  28.369  26.957  1.00  0.00     0.074 A 
ATOM     58  C   UNL A   1      42.028  30.958  29.215  1.00  0.00     0.029 A 
ATOM     59  N   UNL A   1      43.542  29.580  28.348  1.00  0.00    -0.354 N 
ATOM     60  N   UNL A   1      46.215  28.819  27.420  1.00  0.00    -0.248 NA
ATOM     61  C   UNL A   1      48.414  29.387  26.877  1.00  0.00     0.031 C 
ATOM     62  C   UNL A   1      43.224  31.663  29.052  1.00  0.00     0.029 A 
ATOM     63  C   UNL A   1      44.173  30.800  28.529  1.00  0.00     0.049 A 
ATOM     64  H   UNL A   1      43.970  28.771  27.986  1.00  0.00     0.167 HD
ATOM     65  C   UNL A   1      46.425  30.159  27.716  1.00  0.00     0.074 A 
ATOM     66  C   UNL A   1      47.806  30.448  27.391  1.00  0.00     0.031 C 
ATOM     67  C   UNL A   1      45.553  31.068  28.214  1.00  0.00     0.037 A 
BRANCH  54  68
ATOM     68  C   UNL A   1      39.845  28.878  29.066  1.00  0.00     0.064 A 
ATOM     69  C   UNL A   1      38.897  29.306  28.125  1.00  0.00     0.173 A 
ATOM     70  C   UNL A   1      39.415  28.675  30.386  1.00  0.00     0.173 A 
ATOM     71  F   UNL A   1      39.261  29.526  26.852  1.00  0.00    -0.203 F 
ATOM     72  C   UNL A   1      37.577  29.544  28.496  1.00  0.00     0.198 A 
ATOM     73  C   UNL A   1      38.088  28.887  30.748  1.00  0.00     0.198 A 
ATOM     74  F   UNL A   1      40.281  28.260  31.324  1.00  0.00    -0.203 F 
ATOM     75  F   UNL A   1      36.698  29.993  27.589  1.00  0.00    -0.200 F 
ATOM     76  C   UNL A   1      37.172  29.327  29.805  1.00  0.00     0.200 A 
ATOM     77  F   UNL A   1      37.695  28.665  32.010  1.00  0.00    -0.200 F 
ATOM     78  F   UNL A   1      35.897  29.547  30.158  1.00  0.00    -0.200 F 
ENDBRANCH  54  68
BRANCH  55  79
ATOM     79  C   UNL A   1      49.095  26.671  26.041  1.00  0.00     0.064 A 
ATOM     80  C   UNL A   1      49.474  26.927  24.716  1.00  0.00     0.173 A 
ATOM     81  C   UNL A   1      50.051  26.103  26.896  1.00  0.00     0.173 A 
ATOM     82  F   UNL A   1      48.587  27.450  23.857  1.00  0.00    -0.203 F 
ATOM     83  C   UNL A   1      50.750  26.607  24.258  1.00  0.00     0.198 A 
ATOM     84  C   UNL A   1      51.335  25.808  26.443  1.00  0.00     0.198 A 
ATOM     85  F   UNL A   1      49.739  25.843  28.174  1.00  0.00    -0.203 F 
ATOM     86  F   UNL A   1      51.071  26.818  22.974  1.00  0.00    -0.200 F 
ATOM     87  C   UNL A   1      51.681  26.052  25.123  1.00  0.00     0.200 A 
ATOM     88  F   UNL A   1      52.236  25.284  27.286  1.00  0.00    -0.200 F 
ATOM     89  F   UNL A   1      52.908  25.745  24.682  1.00  0.00    -0.200 F 
ENDBRANCH  55  79
BRANCH  67  90
ATOM     90  C   UNL A   1      46.074  32.451  28.475  1.00  0.00     0.064 A 
ATOM     91  C   UNL A   1      45.991  33.462  27.508  1.00  0.00     0.173 A 
ATOM     92  C   UNL A   1      46.628  32.774  29.723  1.00  0.00     0.173 A 
ATOM     93  F   UNL A   1      45.484  33.197  26.295  1.00  0.00    -0.203 F 
ATOM     94  C   UNL A   1      46.465  34.744  27.774  1.00  0.00     0.198 A 
ATOM     95  C   UNL A   1      47.076  34.064  29.994  1.00  0.00     0.198 A 
ATOM     96  F   UNL A   1      46.725  31.842  30.683  1.00  0.00    -0.203 F 
ATOM     97  F   UNL A   1      46.417  35.685  26.821  1.00  0.00    -0.200 F 
ATOM     98  C   UNL A   1      47.000  35.045  29.018  1.00  0.00     0.200 A 
ATOM     99  F   UNL A   1      47.581  34.356  31.200  1.00  0.00    -0.200 F 
ATOM    100  F   UNL A   1      47.449  36.282  29.273  1.00  0.00    -0.200 F 
ENDBRANCH  67  90
ENDBRANCH  41  42
ENDBRANCH  33  36
ENDBRANCH  31  32
ENDBRANCH  30  31
ENDBRANCH  29  30
ENDBRANCH   1  29
TORSDOF 16
ENDMDL
