MODEL 1
REMARK VINA RESULT:     -13.9      0.000      0.000
REMARK SMILES Cc1ccc(-c2cc(C(=O)NCCCCCCNC(=O)c3ccc(-c4c5nc(c(-c6c(F)c(F)c(F)c(F)c6F)c6ccc([nH]6)c(-c6c(F)c(F)c(F)c(F)c6F)c6nc(c(-c7c(F)c(F)c(F)c(F)c7F)c7ccc4[nH]7)C=C6)C=C5)cc3)c3cc(C)ccc3n2)c(C)c1
REMARK SMILES IDX 15 1 14 2 13 3 12 4 11 5 9 6 10 7 8 9 6 10 7 11 91 12 90 13
REMARK SMILES IDX 84 14 89 15 85 16 88 17 86 18 87 19 5 20 1 21 2 22 3 23
REMARK SMILES IDX 94 24 4 25 92 26 93 27 16 28 17 29 18 30 19 31 20 33 21 34
REMARK SMILES IDX 22 35 83 36 23 37 82 38 24 39 25 40 26 41 76 42 27 43 81 44
REMARK SMILES IDX 75 45 77 46 28 47 80 48 74 49 73 50 29 52 61 53 41 54 60 55
REMARK SMILES IDX 42 56 45 57 59 58 78 59 43 60 44 61 58 63 79 64 46 65 30 66
REMARK SMILES IDX 31 67 39 68 32 69 33 70 37 71 40 72 34 73 35 74 38 75 36 76
REMARK SMILES IDX 62 77 63 78 71 79 64 80 65 81 69 82 72 83 66 84 67 85 70 86
REMARK SMILES IDX 68 87 47 88 48 89 56 90 49 91 50 92 54 93 57 94 51 95 52 96
REMARK SMILES IDX 55 97 53 98
REMARK H PARENT 11 8 18 32 77 51 45 62
REMARK Flexibility Score: inf
ROOT
ATOM      1  C   UNL A   1      31.624  30.764  25.874  1.00  0.00     0.002 C 
ENDROOT
BRANCH   1   2
ATOM      2  C   UNL A   1      31.826  29.572  26.817  1.00  0.00     0.002 C 
BRANCH   2   3
ATOM      3  C   UNL A   1      33.254  29.216  27.241  1.00  0.00     0.021 C 
BRANCH   3   4
ATOM      4  C   UNL A   1      33.991  28.191  26.391  1.00  0.00     0.116 C 
BRANCH   4   5
ATOM      5  N   UNL A   1      34.331  28.573  25.035  1.00  0.00    -0.352 N 
ATOM      6  C   UNL A   1      33.664  28.344  23.845  1.00  0.00     0.252 C 
ATOM      7  O   UNL A   1      34.119  28.867  22.827  1.00  0.00    -0.269 OA
ATOM      8  H   UNL A   1      35.172  29.078  24.947  1.00  0.00     0.163 HD
BRANCH   6   9
ATOM      9  C   UNL A   1      32.495  27.414  23.706  1.00  0.00     0.051 A 
ATOM     10  C   UNL A   1      31.719  25.165  24.025  1.00  0.00     0.072 A 
ATOM     11  C   UNL A   1      32.767  26.071  24.006  1.00  0.00     0.043 A 
ATOM     12  N   UNL A   1      30.432  25.559  23.899  1.00  0.00    -0.248 NA
ATOM     13  C   UNL A   1      30.169  26.832  23.584  1.00  0.00     0.072 A 
ATOM     14  C   UNL A   1      31.178  27.779  23.343  1.00  0.00     0.013 A 
ATOM     15  C   UNL A   1      28.842  27.227  23.501  1.00  0.00     0.029 A 
ATOM     16  C   UNL A   1      30.796  29.013  22.774  1.00  0.00     0.014 A 
ATOM     17  C   UNL A   1      28.483  28.533  23.164  1.00  0.00     0.005 A 
ATOM     18  C   UNL A   1      29.464  29.437  22.775  1.00  0.00    -0.050 A 
ATOM     19  C   UNL A   1      29.134  30.877  22.519  1.00  0.00     0.044 C 
BRANCH  10  20
ATOM     20  C   UNL A   1      31.925  23.711  24.104  1.00  0.00     0.003 A 
ATOM     21  C   UNL A   1      32.590  19.430  24.286  1.00  0.00     0.044 C 
ATOM     22  C   UNL A   1      32.356  20.909  24.206  1.00  0.00    -0.051 A 
ATOM     23  C   UNL A   1      32.376  21.584  22.984  1.00  0.00     0.004 A 
ATOM     24  C   UNL A   1      32.116  21.636  25.376  1.00  0.00     0.007 A 
ATOM     25  C   UNL A   1      32.165  22.967  22.935  1.00  0.00     0.011 A 
ATOM     26  C   UNL A   1      31.889  23.024  25.341  1.00  0.00    -0.041 A 
ATOM     27  C   UNL A   1      31.648  23.716  26.659  1.00  0.00     0.045 C 
ENDBRANCH  10  20
ENDBRANCH   6   9
ENDBRANCH   4   5
ENDBRANCH   3   4
ENDBRANCH   2   3
ENDBRANCH   1   2
BRANCH   1  28
ATOM     28  C   UNL A   1      31.385  32.140  26.501  1.00  0.00     0.021 C 
BRANCH  28  29
ATOM     29  C   UNL A   1      32.546  32.746  27.282  1.00  0.00     0.116 C 
BRANCH  29  30
ATOM     30  N   UNL A   1      32.338  34.143  27.622  1.00  0.00    -0.352 N 
ATOM     31  C   UNL A   1      32.988  34.934  28.534  1.00  0.00     0.251 C 
ATOM     32  H   UNL A   1      31.620  34.590  27.120  1.00  0.00     0.163 HD
ATOM     33  O   UNL A   1      32.572  36.069  28.767  1.00  0.00    -0.269 OA
BRANCH  31  34
ATOM     34  C   UNL A   1      34.170  34.428  29.270  1.00  0.00     0.039 A 
ATOM     35  C   UNL A   1      33.972  33.804  30.506  1.00  0.00     0.014 A 
ATOM     36  C   UNL A   1      35.464  34.577  28.765  1.00  0.00     0.014 A 
ATOM     37  C   UNL A   1      35.060  33.264  31.196  1.00  0.00     0.010 A 
ATOM     38  C   UNL A   1      36.539  33.978  29.420  1.00  0.00     0.010 A 
ATOM     39  C   UNL A   1      36.348  33.308  30.638  1.00  0.00    -0.014 A 
BRANCH  39  40
ATOM     40  C   UNL A   1      37.500  32.642  31.303  1.00  0.00     0.031 A 
ATOM     41  C   UNL A   1      38.172  31.462  30.657  1.00  0.00     0.074 A 
ATOM     42  C   UNL A   1      37.900  33.062  32.520  1.00  0.00     0.049 A 
ATOM     43  N   UNL A   1      39.121  30.691  31.124  1.00  0.00    -0.248 NA
ATOM     44  C   UNL A   1      37.703  31.088  29.314  1.00  0.00     0.031 C 
ATOM     45  C   UNL A   1      37.309  34.173  33.267  1.00  0.00     0.029 A 
ATOM     46  N   UNL A   1      38.886  32.592  33.353  1.00  0.00    -0.354 N 
ATOM     47  C   UNL A   1      39.363  29.745  30.137  1.00  0.00     0.074 A 
ATOM     48  C   UNL A   1      38.418  30.000  29.069  1.00  0.00     0.031 C 
ATOM     49  C   UNL A   1      37.947  34.306  34.440  1.00  0.00     0.029 A 
ATOM     50  C   UNL A   1      38.960  33.261  34.551  1.00  0.00     0.049 A 
ATOM     51  H   UNL A   1      39.483  31.847  33.114  1.00  0.00     0.167 HD
ATOM     52  C   UNL A   1      40.304  28.771  30.109  1.00  0.00     0.037 A 
ATOM     53  C   UNL A   1      39.739  33.042  35.629  1.00  0.00     0.037 A 
ATOM     54  C   UNL A   1      41.244  28.522  31.171  1.00  0.00     0.049 A 
ATOM     55  C   UNL A   1      40.739  31.916  35.594  1.00  0.00     0.074 A 
ATOM     56  C   UNL A   1      42.252  27.574  31.227  1.00  0.00     0.029 A 
ATOM     57  N   UNL A   1      41.292  29.226  32.366  1.00  0.00    -0.354 N 
ATOM     58  N   UNL A   1      40.994  31.064  34.629  1.00  0.00    -0.248 NA
ATOM     59  C   UNL A   1      41.562  31.720  36.796  1.00  0.00     0.031 C 
ATOM     60  C   UNL A   1      42.876  27.671  32.474  1.00  0.00     0.029 A 
ATOM     61  C   UNL A   1      42.296  28.716  33.173  1.00  0.00     0.049 A 
ATOM     62  H   UNL A   1      40.700  29.975  32.604  1.00  0.00     0.167 HD
ATOM     63  C   UNL A   1      42.023  30.256  35.096  1.00  0.00     0.074 A 
ATOM     64  C   UNL A   1      42.359  30.730  36.421  1.00  0.00     0.031 C 
ATOM     65  C   UNL A   1      42.630  29.210  34.485  1.00  0.00     0.037 A 
BRANCH  52  66
ATOM     66  C   UNL A   1      40.377  27.905  28.885  1.00  0.00     0.064 A 
ATOM     67  C   UNL A   1      39.651  26.708  28.792  1.00  0.00     0.173 A 
ATOM     68  C   UNL A   1      41.130  28.302  27.770  1.00  0.00     0.173 A 
ATOM     69  F   UNL A   1      38.922  26.278  29.834  1.00  0.00    -0.203 F 
ATOM     70  C   UNL A   1      39.693  25.930  27.638  1.00  0.00     0.198 A 
ATOM     71  C   UNL A   1      41.145  27.537  26.605  1.00  0.00     0.198 A 
ATOM     72  F   UNL A   1      41.837  29.442  27.800  1.00  0.00    -0.203 F 
ATOM     73  F   UNL A   1      39.024  24.769  27.590  1.00  0.00    -0.200 F 
ATOM     74  C   UNL A   1      40.433  26.350  26.543  1.00  0.00     0.200 A 
ATOM     75  F   UNL A   1      41.847  27.952  25.542  1.00  0.00    -0.200 F 
ATOM     76  F   UNL A   1      40.461  25.607  25.428  1.00  0.00    -0.200 F 
ENDBRANCH  52  66
BRANCH  53  77
ATOM     77  C   UNL A   1      39.600  33.892  36.843  1.00  0.00     0.064 A 
ATOM     78  C   UNL A   1      38.799  33.491  37.922  1.00  0.00     0.173 A 
ATOM     79  C   UNL A   1      40.233  35.140  36.933  1.00  0.00     0.173 A 
ATOM     80  F   UNL A   1      38.155  32.315  37.877  1.00  0.00    -0.203 F 
ATOM     81  C   UNL A   1      38.605  34.322  39.024  1.00  0.00     0.198 A 
ATOM     82  C   UNL A   1      40.069  35.954  38.052  1.00  0.00     0.198 A 
ATOM     83  F   UNL A   1      41.016  35.572  35.933  1.00  0.00    -0.203 F 
ATOM     84  F   UNL A   1      37.779  33.942  40.009  1.00  0.00    -0.200 F 
ATOM     85  C   UNL A   1      39.243  35.550  39.090  1.00  0.00     0.200 A 
ATOM     86  F   UNL A   1      40.702  37.133  38.119  1.00  0.00    -0.200 F 
ATOM     87  F   UNL A   1      39.053  36.351  40.148  1.00  0.00    -0.200 F 
ENDBRANCH  53  77
BRANCH  65  88
ATOM     88  C   UNL A   1      43.745  28.528  35.224  1.00  0.00     0.064 A 
ATOM     89  C   UNL A   1      43.501  27.472  36.114  1.00  0.00     0.173 A 
ATOM     90  C   UNL A   1      45.079  28.903  34.999  1.00  0.00     0.173 A 
ATOM     91  F   UNL A   1      42.244  27.086  36.376  1.00  0.00    -0.203 F 
ATOM     92  C   UNL A   1      44.551  26.831  36.769  1.00  0.00     0.198 A 
ATOM     93  C   UNL A   1      46.127  28.239  35.630  1.00  0.00     0.198 A 
ATOM     94  F   UNL A   1      45.367  29.904  34.153  1.00  0.00    -0.203 F 
ATOM     95  F   UNL A   1      44.291  25.855  37.650  1.00  0.00    -0.200 F 
ATOM     96  C   UNL A   1      45.862  27.209  36.519  1.00  0.00     0.200 A 
ATOM     97  F   UNL A   1      47.394  28.594  35.375  1.00  0.00    -0.200 F 
ATOM     98  F   UNL A   1      46.871  26.581  37.140  1.00  0.00    -0.200 F 
ENDBRANCH  65  88
ENDBRANCH  39  40
ENDBRANCH  31  34
ENDBRANCH  29  30
ENDBRANCH  28  29
ENDBRANCH   1  28
TORSDOF 14
ENDMDL
MODEL 2
REMARK VINA RESULT:     -13.9      0.211      1.560
REMARK SMILES Cc1ccc(-c2cc(C(=O)NCCCCCCNC(=O)c3ccc(-c4c5nc(c(-c6c(F)c(F)c(F)c(F)c6F)c6ccc([nH]6)c(-c6c(F)c(F)c(F)c(F)c6F)c6nc(c(-c7c(F)c(F)c(F)c(F)c7F)c7ccc4[nH]7)C=C6)C=C5)cc3)c3cc(C)ccc3n2)c(C)c1
REMARK SMILES IDX 15 1 14 2 13 3 12 4 11 5 9 6 10 7 8 9 6 10 7 11 91 12 90 13
REMARK SMILES IDX 84 14 89 15 85 16 88 17 86 18 87 19 5 20 1 21 2 22 3 23
REMARK SMILES IDX 94 24 4 25 92 26 93 27 16 28 17 29 18 30 19 31 20 33 21 34
REMARK SMILES IDX 22 35 83 36 23 37 82 38 24 39 25 40 26 41 76 42 27 43 81 44
REMARK SMILES IDX 75 45 77 46 28 47 80 48 74 49 73 50 29 52 61 53 41 54 60 55
REMARK SMILES IDX 42 56 45 57 59 58 78 59 43 60 44 61 58 63 79 64 46 65 30 66
REMARK SMILES IDX 31 67 39 68 32 69 33 70 37 71 40 72 34 73 35 74 38 75 36 76
REMARK SMILES IDX 62 77 63 78 71 79 64 80 65 81 69 82 72 83 66 84 67 85 70 86
REMARK SMILES IDX 68 87 47 88 48 89 56 90 49 91 50 92 54 93 57 94 51 95 52 96
REMARK SMILES IDX 55 97 53 98
REMARK H PARENT 11 8 18 32 77 51 45 62
REMARK Flexibility Score: inf
ROOT
ATOM      1  C   UNL A   1      31.562  30.766  25.993  1.00  0.00     0.002 C 
ENDROOT
BRANCH   1   2
ATOM      2  C   UNL A   1      31.839  29.614  26.967  1.00  0.00     0.002 C 
BRANCH   2   3
ATOM      3  C   UNL A   1      33.296  29.245  27.258  1.00  0.00     0.021 C 
BRANCH   3   4
ATOM      4  C   UNL A   1      33.929  28.180  26.375  1.00  0.00     0.116 C 
BRANCH   4   5
ATOM      5  N   UNL A   1      34.265  28.556  25.016  1.00  0.00    -0.352 N 
ATOM      6  C   UNL A   1      33.595  28.322  23.829  1.00  0.00     0.252 C 
ATOM      7  O   UNL A   1      34.047  28.840  22.808  1.00  0.00    -0.269 OA
ATOM      8  H   UNL A   1      35.106  29.060  24.924  1.00  0.00     0.163 HD
BRANCH   6   9
ATOM      9  C   UNL A   1      32.426  27.392  23.697  1.00  0.00     0.051 A 
ATOM     10  C   UNL A   1      31.656  25.139  24.007  1.00  0.00     0.072 A 
ATOM     11  C   UNL A   1      32.702  26.046  23.982  1.00  0.00     0.043 A 
ATOM     12  N   UNL A   1      30.367  25.532  23.901  1.00  0.00    -0.248 NA
ATOM     13  C   UNL A   1      30.099  26.807  23.599  1.00  0.00     0.072 A 
ATOM     14  C   UNL A   1      31.104  27.758  23.353  1.00  0.00     0.013 A 
ATOM     15  C   UNL A   1      28.770  27.201  23.536  1.00  0.00     0.029 A 
ATOM     16  C   UNL A   1      30.713  28.996  22.799  1.00  0.00     0.014 A 
ATOM     17  C   UNL A   1      28.406  28.510  23.214  1.00  0.00     0.005 A 
ATOM     18  C   UNL A   1      29.381  29.418  22.821  1.00  0.00    -0.050 A 
ATOM     19  C   UNL A   1      29.045  30.860  22.581  1.00  0.00     0.044 C 
BRANCH  10  20
ATOM     20  C   UNL A   1      31.865  23.685  24.071  1.00  0.00     0.003 A 
ATOM     21  C   UNL A   1      32.543  19.404  24.216  1.00  0.00     0.044 C 
ATOM     22  C   UNL A   1      32.306  20.883  24.148  1.00  0.00    -0.051 A 
ATOM     23  C   UNL A   1      32.435  21.587  22.950  1.00  0.00     0.004 A 
ATOM     24  C   UNL A   1      31.953  21.581  25.307  1.00  0.00     0.007 A 
ATOM     25  C   UNL A   1      32.218  22.970  22.913  1.00  0.00     0.011 A 
ATOM     26  C   UNL A   1      31.720  22.968  25.283  1.00  0.00    -0.041 A 
ATOM     27  C   UNL A   1      31.351  23.627  26.588  1.00  0.00     0.045 C 
ENDBRANCH  10  20
ENDBRANCH   6   9
ENDBRANCH   4   5
ENDBRANCH   3   4
ENDBRANCH   2   3
ENDBRANCH   1   2
BRANCH   1  28
ATOM     28  C   UNL A   1      31.343  32.163  26.580  1.00  0.00     0.021 C 
BRANCH  28  29
ATOM     29  C   UNL A   1      32.552  32.831  27.224  1.00  0.00     0.116 C 
BRANCH  29  30
ATOM     30  N   UNL A   1      32.301  34.203  27.627  1.00  0.00    -0.352 N 
ATOM     31  C   UNL A   1      32.934  34.977  28.565  1.00  0.00     0.251 C 
ATOM     32  H   UNL A   1      31.561  34.646  27.153  1.00  0.00     0.163 HD
ATOM     33  O   UNL A   1      32.482  36.085  28.852  1.00  0.00    -0.269 OA
BRANCH  31  34
ATOM     34  C   UNL A   1      34.142  34.482  29.265  1.00  0.00     0.039 A 
ATOM     35  C   UNL A   1      33.998  33.936  30.545  1.00  0.00     0.014 A 
ATOM     36  C   UNL A   1      35.409  34.565  28.683  1.00  0.00     0.014 A 
ATOM     37  C   UNL A   1      35.108  33.407  31.207  1.00  0.00     0.010 A 
ATOM     38  C   UNL A   1      36.504  33.976  29.314  1.00  0.00     0.010 A 
ATOM     39  C   UNL A   1      36.364  33.384  30.579  1.00  0.00    -0.014 A 
BRANCH  39  40
ATOM     40  C   UNL A   1      37.534  32.726  31.219  1.00  0.00     0.031 A 
ATOM     41  C   UNL A   1      38.223  31.573  30.542  1.00  0.00     0.074 A 
ATOM     42  C   UNL A   1      37.937  33.127  32.441  1.00  0.00     0.049 A 
ATOM     43  N   UNL A   1      39.190  30.810  30.985  1.00  0.00    -0.248 NA
ATOM     44  C   UNL A   1      37.749  31.218  29.196  1.00  0.00     0.031 C 
ATOM     45  C   UNL A   1      37.332  34.211  33.217  1.00  0.00     0.029 A 
ATOM     46  N   UNL A   1      38.940  32.659  33.256  1.00  0.00    -0.354 N 
ATOM     47  C   UNL A   1      39.441  29.890  29.975  1.00  0.00     0.074 A 
ATOM     48  C   UNL A   1      38.483  30.150  28.921  1.00  0.00     0.031 C 
ATOM     49  C   UNL A   1      37.979  34.331  34.387  1.00  0.00     0.029 A 
ATOM     50  C   UNL A   1      39.012  33.303  34.467  1.00  0.00     0.049 A 
ATOM     51  H   UNL A   1      39.549  31.931  32.995  1.00  0.00     0.167 HD
ATOM     52  C   UNL A   1      40.400  28.935  29.919  1.00  0.00     0.037 A 
ATOM     53  C   UNL A   1      39.805  33.076  35.533  1.00  0.00     0.037 A 
ATOM     54  C   UNL A   1      41.355  28.682  30.967  1.00  0.00     0.049 A 
ATOM     55  C   UNL A   1      40.826  31.971  35.465  1.00  0.00     0.074 A 
ATOM     56  C   UNL A   1      42.380  27.752  30.993  1.00  0.00     0.029 A 
ATOM     57  N   UNL A   1      41.400  29.361  32.176  1.00  0.00    -0.354 N 
ATOM     58  N   UNL A   1      41.088  31.145  34.481  1.00  0.00    -0.248 NA
ATOM     59  C   UNL A   1      41.663  31.765  36.656  1.00  0.00     0.031 C 
ATOM     60  C   UNL A   1      43.015  27.834  32.237  1.00  0.00     0.029 A 
ATOM     61  C   UNL A   1      42.421  28.853  32.964  1.00  0.00     0.049 A 
ATOM     62  H   UNL A   1      40.797  30.093  32.435  1.00  0.00     0.167 HD
ATOM     63  C   UNL A   1      42.136  30.346  34.921  1.00  0.00     0.074 A 
ATOM     64  C   UNL A   1      42.476  30.799  36.253  1.00  0.00     0.031 C 
ATOM     65  C   UNL A   1      42.757  29.325  34.283  1.00  0.00     0.037 A 
BRANCH  52  66
ATOM     66  C   UNL A   1      40.479  28.097  28.675  1.00  0.00     0.064 A 
ATOM     67  C   UNL A   1      41.265  28.488  27.580  1.00  0.00     0.173 A 
ATOM     68  C   UNL A   1      39.815  26.864  28.598  1.00  0.00     0.173 A 
ATOM     69  F   UNL A   1      41.914  29.662  27.599  1.00  0.00    -0.203 F 
ATOM     70  C   UNL A   1      41.364  27.687  26.446  1.00  0.00     0.198 A 
ATOM     71  C   UNL A   1      39.943  26.050  27.474  1.00  0.00     0.198 A 
ATOM     72  F   UNL A   1      39.057  26.437  29.619  1.00  0.00    -0.203 F 
ATOM     73  F   UNL A   1      42.087  28.101  25.396  1.00  0.00    -0.200 F 
ATOM     74  C   UNL A   1      40.711  26.464  26.398  1.00  0.00     0.200 A 
ATOM     75  F   UNL A   1      39.323  24.862  27.436  1.00  0.00    -0.200 F 
ATOM     76  F   UNL A   1      40.819  25.688  25.311  1.00  0.00    -0.200 F 
ENDBRANCH  52  66
BRANCH  53  77
ATOM     77  C   UNL A   1      39.661  33.897  36.767  1.00  0.00     0.064 A 
ATOM     78  C   UNL A   1      38.855  33.472  37.831  1.00  0.00     0.173 A 
ATOM     79  C   UNL A   1      40.295  35.143  36.889  1.00  0.00     0.173 A 
ATOM     80  F   UNL A   1      38.209  32.299  37.755  1.00  0.00    -0.203 F 
ATOM     81  C   UNL A   1      38.656  34.277  38.952  1.00  0.00     0.198 A 
ATOM     82  C   UNL A   1      40.126  35.930  38.026  1.00  0.00     0.198 A 
ATOM     83  F   UNL A   1      41.083  35.598  35.903  1.00  0.00    -0.203 F 
ATOM     84  F   UNL A   1      37.825  33.875  39.924  1.00  0.00    -0.200 F 
ATOM     85  C   UNL A   1      39.295  35.503  39.050  1.00  0.00     0.200 A 
ATOM     86  F   UNL A   1      40.760  37.107  38.124  1.00  0.00    -0.200 F 
ATOM     87  F   UNL A   1      39.100  36.279  40.125  1.00  0.00    -0.200 F 
ENDBRANCH  53  77
BRANCH  65  88
ATOM     88  C   UNL A   1      43.892  28.650  34.998  1.00  0.00     0.064 A 
ATOM     89  C   UNL A   1      45.199  29.157  34.949  1.00  0.00     0.173 A 
ATOM     90  C   UNL A   1      43.658  27.510  35.783  1.00  0.00     0.173 A 
ATOM     91  F   UNL A   1      45.478  30.234  34.201  1.00  0.00    -0.203 F 
ATOM     92  C   UNL A   1      46.234  28.535  35.643  1.00  0.00     0.198 A 
ATOM     93  C   UNL A   1      44.689  26.910  36.502  1.00  0.00     0.198 A 
ATOM     94  F   UNL A   1      42.425  26.988  35.868  1.00  0.00    -0.203 F 
ATOM     95  F   UNL A   1      47.483  29.010  35.546  1.00  0.00    -0.200 F 
ATOM     96  C   UNL A   1      45.976  27.419  36.425  1.00  0.00     0.200 A 
ATOM     97  F   UNL A   1      44.435  25.842  37.270  1.00  0.00    -0.200 F 
ATOM     98  F   UNL A   1      46.972  26.830  37.104  1.00  0.00    -0.200 F 
ENDBRANCH  65  88
ENDBRANCH  39  40
ENDBRANCH  31  34
ENDBRANCH  29  30
ENDBRANCH  28  29
ENDBRANCH   1  28
TORSDOF 14
ENDMDL
MODEL 3
REMARK VINA RESULT:     -13.8      3.903      8.666
REMARK SMILES Cc1ccc(-c2cc(C(=O)NCCCCCCNC(=O)c3ccc(-c4c5nc(c(-c6c(F)c(F)c(F)c(F)c6F)c6ccc([nH]6)c(-c6c(F)c(F)c(F)c(F)c6F)c6nc(c(-c7c(F)c(F)c(F)c(F)c7F)c7ccc4[nH]7)C=C6)C=C5)cc3)c3cc(C)ccc3n2)c(C)c1
REMARK SMILES IDX 15 1 14 2 13 3 12 4 11 5 9 6 10 7 8 9 6 10 7 11 91 12 90 13
REMARK SMILES IDX 84 14 89 15 85 16 88 17 86 18 87 19 5 20 1 21 2 22 3 23
REMARK SMILES IDX 94 24 4 25 92 26 93 27 16 28 17 29 18 30 19 31 20 33 21 34
REMARK SMILES IDX 22 35 83 36 23 37 82 38 24 39 25 40 26 41 76 42 27 43 81 44
REMARK SMILES IDX 75 45 77 46 28 47 80 48 74 49 73 50 29 52 61 53 41 54 60 55
REMARK SMILES IDX 42 56 45 57 59 58 78 59 43 60 44 61 58 63 79 64 46 65 30 66
REMARK SMILES IDX 31 67 39 68 32 69 33 70 37 71 40 72 34 73 35 74 38 75 36 76
REMARK SMILES IDX 62 77 63 78 71 79 64 80 65 81 69 82 72 83 66 84 67 85 70 86
REMARK SMILES IDX 68 87 47 88 48 89 56 90 49 91 50 92 54 93 57 94 51 95 52 96
REMARK SMILES IDX 55 97 53 98
REMARK H PARENT 11 8 18 32 77 51 45 62
REMARK Flexibility Score: inf
ROOT
ATOM      1  C   UNL A   1      31.625  28.425  25.891  1.00  0.00     0.002 C 
ENDROOT
BRANCH   1   2
ATOM      2  C   UNL A   1      31.956  29.468  24.816  1.00  0.00     0.002 C 
BRANCH   2   3
ATOM      3  C   UNL A   1      31.996  29.016  23.354  1.00  0.00     0.021 C 
BRANCH   3   4
ATOM      4  C   UNL A   1      33.357  28.644  22.783  1.00  0.00     0.116 C 
BRANCH   4   5
ATOM      5  N   UNL A   1      33.383  27.689  21.694  1.00  0.00    -0.352 N 
ATOM      6  C   UNL A   1      33.203  26.317  21.700  1.00  0.00     0.252 C 
ATOM      7  O   UNL A   1      33.174  25.742  20.611  1.00  0.00    -0.269 OA
ATOM      8  H   UNL A   1      33.557  28.079  20.807  1.00  0.00     0.163 HD
BRANCH   6   9
ATOM      9  C   UNL A   1      33.152  25.484  22.946  1.00  0.00     0.051 A 
ATOM     10  C   UNL A   1      34.443  24.200  24.511  1.00  0.00     0.072 A 
ATOM     11  C   UNL A   1      34.367  24.883  23.308  1.00  0.00     0.043 A 
ATOM     12  N   UNL A   1      33.428  24.211  25.404  1.00  0.00    -0.248 NA
ATOM     13  C   UNL A   1      32.259  24.756  25.052  1.00  0.00     0.072 A 
ATOM     14  C   UNL A   1      32.023  25.293  23.775  1.00  0.00     0.013 A 
ATOM     15  C   UNL A   1      31.243  24.796  25.997  1.00  0.00     0.029 A 
ATOM     16  C   UNL A   1      30.690  25.607  23.433  1.00  0.00     0.014 A 
ATOM     17  C   UNL A   1      29.989  25.335  25.705  1.00  0.00     0.005 A 
ATOM     18  C   UNL A   1      29.695  25.729  24.406  1.00  0.00    -0.050 A 
ATOM     19  C   UNL A   1      28.404  26.418  24.078  1.00  0.00     0.044 C 
BRANCH  10  20
ATOM     20  C   UNL A   1      35.589  23.353  24.873  1.00  0.00     0.003 A 
ATOM     21  C   UNL A   1      38.982  20.901  26.004  1.00  0.00     0.044 C 
ATOM     22  C   UNL A   1      37.820  21.763  25.611  1.00  0.00    -0.051 A 
ATOM     23  C   UNL A   1      37.888  23.155  25.685  1.00  0.00     0.004 A 
ATOM     24  C   UNL A   1      36.637  21.167  25.164  1.00  0.00     0.007 A 
ATOM     25  C   UNL A   1      36.786  23.939  25.322  1.00  0.00     0.011 A 
ATOM     26  C   UNL A   1      35.526  21.942  24.784  1.00  0.00    -0.041 A 
ATOM     27  C   UNL A   1      34.295  21.202  24.323  1.00  0.00     0.045 C 
ENDBRANCH  10  20
ENDBRANCH   6   9
ENDBRANCH   4   5
ENDBRANCH   3   4
ENDBRANCH   2   3
ENDBRANCH   1   2
BRANCH   1  28
ATOM     28  C   UNL A   1      32.737  28.015  26.858  1.00  0.00     0.021 C 
BRANCH  28  29
ATOM     29  C   UNL A   1      34.025  28.829  26.805  1.00  0.00     0.116 C 
BRANCH  29  30
ATOM     30  N   UNL A   1      33.920  30.109  27.483  1.00  0.00    -0.352 N 
ATOM     31  C   UNL A   1      34.800  30.732  28.331  1.00  0.00     0.251 C 
ATOM     32  H   UNL A   1      33.089  30.606  27.306  1.00  0.00     0.163 HD
ATOM     33  O   UNL A   1      34.465  31.766  28.909  1.00  0.00    -0.269 OA
BRANCH  31  34
ATOM     34  C   UNL A   1      36.140  30.158  28.587  1.00  0.00     0.039 A 
ATOM     35  C   UNL A   1      37.112  30.253  27.585  1.00  0.00     0.014 A 
ATOM     36  C   UNL A   1      36.442  29.517  29.790  1.00  0.00     0.014 A 
ATOM     37  C   UNL A   1      38.403  29.773  27.819  1.00  0.00     0.010 A 
ATOM     38  C   UNL A   1      37.748  29.101  30.048  1.00  0.00     0.010 A 
ATOM     39  C   UNL A   1      38.745  29.232  29.069  1.00  0.00    -0.014 A 
BRANCH  39  40
ATOM     40  C   UNL A   1      40.140  28.819  29.375  1.00  0.00     0.031 A 
ATOM     41  C   UNL A   1      41.058  29.742  30.129  1.00  0.00     0.074 A 
ATOM     42  C   UNL A   1      40.600  27.637  28.919  1.00  0.00     0.049 A 
ATOM     43  N   UNL A   1      42.330  29.602  30.403  1.00  0.00    -0.248 NA
ATOM     44  C   UNL A   1      40.472  30.996  30.624  1.00  0.00     0.031 C 
ATOM     45  C   UNL A   1      39.820  26.667  28.148  1.00  0.00     0.029 A 
ATOM     46  N   UNL A   1      41.841  27.055  29.021  1.00  0.00    -0.354 N 
ATOM     47  C   UNL A   1      42.695  30.745  31.102  1.00  0.00     0.074 A 
ATOM     48  C   UNL A   1      41.526  31.597  31.156  1.00  0.00     0.031 C 
ATOM     49  C   UNL A   1      40.594  25.611  27.855  1.00  0.00     0.029 A 
ATOM     50  C   UNL A   1      41.937  25.847  28.374  1.00  0.00     0.049 A 
ATOM     51  H   UNL A   1      42.589  27.466  29.511  1.00  0.00     0.167 HD
ATOM     52  C   UNL A   1      43.888  31.045  31.670  1.00  0.00     0.037 A 
ATOM     53  C   UNL A   1      42.996  25.032  28.196  1.00  0.00     0.037 A 
ATOM     54  C   UNL A   1      45.048  30.194  31.618  1.00  0.00     0.049 A 
ATOM     55  C   UNL A   1      44.325  25.417  28.792  1.00  0.00     0.074 A 
ATOM     56  C   UNL A   1      46.295  30.400  32.183  1.00  0.00     0.029 A 
ATOM     57  N   UNL A   1      45.105  28.975  30.958  1.00  0.00    -0.354 N 
ATOM     58  N   UNL A   1      44.641  26.476  29.498  1.00  0.00    -0.248 NA
ATOM     59  C   UNL A   1      45.447  24.493  28.567  1.00  0.00     0.031 C 
ATOM     60  C   UNL A   1      47.121  29.329  31.825  1.00  0.00     0.029 A 
ATOM     61  C   UNL A   1      46.373  28.429  31.085  1.00  0.00     0.049 A 
ATOM     62  H   UNL A   1      44.356  28.559  30.474  1.00  0.00     0.167 HD
ATOM     63  C   UNL A   1      45.983  26.330  29.826  1.00  0.00     0.074 A 
ATOM     64  C   UNL A   1      46.418  25.071  29.259  1.00  0.00     0.031 C 
ATOM     65  C   UNL A   1      46.786  27.166  30.527  1.00  0.00     0.037 A 
BRANCH  52  66
ATOM     66  C   UNL A   1      44.000  32.344  32.415  1.00  0.00     0.064 A 
ATOM     67  C   UNL A   1      43.725  32.425  33.789  1.00  0.00     0.173 A 
ATOM     68  C   UNL A   1      44.444  33.507  31.767  1.00  0.00     0.173 A 
ATOM     69  F   UNL A   1      43.289  31.344  34.454  1.00  0.00    -0.203 F 
ATOM     70  C   UNL A   1      43.868  33.624  34.481  1.00  0.00     0.198 A 
ATOM     71  C   UNL A   1      44.617  34.698  32.469  1.00  0.00     0.198 A 
ATOM     72  F   UNL A   1      44.729  33.485  30.456  1.00  0.00    -0.203 F 
ATOM     73  F   UNL A   1      43.559  33.686  35.783  1.00  0.00    -0.200 F 
ATOM     74  C   UNL A   1      44.323  34.757  33.822  1.00  0.00     0.200 A 
ATOM     75  F   UNL A   1      45.072  35.788  31.835  1.00  0.00    -0.200 F 
ATOM     76  F   UNL A   1      44.474  35.908  34.493  1.00  0.00    -0.200 F 
ENDBRANCH  52  66
BRANCH  53  77
ATOM     77  C   UNL A   1      42.856  23.777  27.408  1.00  0.00     0.064 A 
ATOM     78  C   UNL A   1      42.390  22.596  28.002  1.00  0.00     0.173 A 
ATOM     79  C   UNL A   1      43.224  23.722  26.056  1.00  0.00     0.173 A 
ATOM     80  F   UNL A   1      42.044  22.589  29.298  1.00  0.00    -0.203 F 
ATOM     81  C   UNL A   1      42.334  21.401  27.285  1.00  0.00     0.198 A 
ATOM     82  C   UNL A   1      43.134  22.537  25.330  1.00  0.00     0.198 A 
ATOM     83  F   UNL A   1      43.673  24.824  25.434  1.00  0.00    -0.203 F 
ATOM     84  F   UNL A   1      41.949  20.273  27.898  1.00  0.00    -0.200 F 
ATOM     85  C   UNL A   1      42.702  21.373  25.950  1.00  0.00     0.200 A 
ATOM     86  F   UNL A   1      43.474  22.519  24.034  1.00  0.00    -0.200 F 
ATOM     87  F   UNL A   1      42.654  20.224  25.262  1.00  0.00    -0.200 F 
ENDBRANCH  53  77
BRANCH  65  88
ATOM     88  C   UNL A   1      48.206  26.734  30.755  1.00  0.00     0.064 A 
ATOM     89  C   UNL A   1      48.557  25.894  31.822  1.00  0.00     0.173 A 
ATOM     90  C   UNL A   1      49.218  27.123  29.864  1.00  0.00     0.173 A 
ATOM     91  F   UNL A   1      47.630  25.506  32.711  1.00  0.00    -0.203 F 
ATOM     92  C   UNL A   1      49.874  25.478  32.001  1.00  0.00     0.198 A 
ATOM     93  C   UNL A   1      50.528  26.679  30.028  1.00  0.00     0.198 A 
ATOM     94  F   UNL A   1      48.934  27.921  28.824  1.00  0.00    -0.203 F 
ATOM     95  F   UNL A   1      50.195  24.713  33.054  1.00  0.00    -0.200 F 
ATOM     96  C   UNL A   1      50.855  25.863  31.100  1.00  0.00     0.200 A 
ATOM     97  F   UNL A   1      51.470  27.038  29.146  1.00  0.00    -0.200 F 
ATOM     98  F   UNL A   1      52.120  25.450  31.267  1.00  0.00    -0.200 F 
ENDBRANCH  65  88
ENDBRANCH  39  40
ENDBRANCH  31  34
ENDBRANCH  29  30
ENDBRANCH  28  29
ENDBRANCH   1  28
TORSDOF 14
ENDMDL
