MODEL 1
REMARK VINA RESULT:     -12.4      0.000      0.000
REMARK SMILES CC(C)(CCc1ccc(Cl)c2ccccc12)C(=O)NCCCCCCNC(=O)c1ccc(-c2c3nc(c(-c4c(F)c(F)c(F)c(F)c4F)c4ccc([nH]4)c(-c4c(F)c(F)c(F)c(F)c4F)c4nc(c(-c5c(F)c(F)c(F)c(F)c5F)c5ccc2[nH]5)C=C4)C=C3)cc1
REMARK SMILES IDX 22 1 21 2 20 3 19 4 17 5 18 6 2 8 1 9 3 10 4 11 5 12 6 13
REMARK SMILES IDX 7 14 16 15 8 16 11 17 15 18 9 19 12 20 14 21 10 22 13 23
REMARK SMILES IDX 23 24 24 25 25 26 26 27 27 28 28 30 29 31 30 32 91 33 31 34
REMARK SMILES IDX 90 35 32 36 33 37 34 38 84 39 35 40 89 41 83 42 85 43 36 44
REMARK SMILES IDX 88 45 82 46 81 47 37 49 69 50 49 51 68 52 50 53 53 54 67 55
REMARK SMILES IDX 86 56 51 57 52 58 66 60 87 61 54 62 38 63 39 64 47 65 40 66
REMARK SMILES IDX 41 67 45 68 48 69 42 70 43 71 46 72 44 73 70 74 71 75 79 76
REMARK SMILES IDX 72 77 73 78 77 79 80 80 74 81 75 82 78 83 76 84 55 85 56 86
REMARK SMILES IDX 64 87 57 88 58 89 62 90 65 91 59 92 60 93 63 94 61 95
REMARK H PARENT 19 7 26 29 85 48 53 59
REMARK Flexibility Score: inf
ROOT
ATOM      1  C   UNL A   1      33.044  30.079  27.115  1.00  0.00     0.002 C 
ENDROOT
BRANCH   1   2
ATOM      2  C   UNL A   1      33.660  29.300  25.951  1.00  0.00     0.021 C 
BRANCH   2   3
ATOM      3  C   UNL A   1      32.878  29.373  24.646  1.00  0.00     0.116 C 
BRANCH   3   4
ATOM      4  N   UNL A   1      33.664  28.988  23.489  1.00  0.00    -0.356 N 
ATOM      5  C   UNL A   1      33.516  28.025  22.539  1.00  0.00     0.225 C 
ATOM      6  O   UNL A   1      34.308  28.075  21.593  1.00  0.00    -0.275 OA
ATOM      7  H   UNL A   1      34.472  29.538  23.365  1.00  0.00     0.163 HD
BRANCH   5   8
ATOM      8  C   UNL A   1      32.421  26.944  22.609  1.00  0.00     0.044 C 
ATOM      9  C   UNL A   1      32.476  26.076  21.329  1.00  0.00     0.021 C 
ATOM     10  C   UNL A   1      31.030  27.621  22.554  1.00  0.00     0.021 C 
BRANCH   8  11
ATOM     11  C   UNL A   1      32.570  26.038  23.868  1.00  0.00     0.021 C 
BRANCH  11  12
ATOM     12  C   UNL A   1      33.977  25.466  24.203  1.00  0.00     0.037 C 
BRANCH  12  13
ATOM     13  C   UNL A   1      34.112  23.952  24.203  1.00  0.00    -0.040 A 
ATOM     14  C   UNL A   1      33.029  23.224  23.690  1.00  0.00     0.006 A 
ATOM     15  C   UNL A   1      35.254  23.242  24.679  1.00  0.00    -0.014 A 
ATOM     16  C   UNL A   1      32.970  21.841  23.804  1.00  0.00     0.021 A 
ATOM     17  C   UNL A   1      35.200  21.821  24.792  1.00  0.00     0.001 A 
ATOM     18  C   UNL A   1      36.469  23.877  25.027  1.00  0.00     0.009 A 
ATOM     19  C   UNL A   1      34.023  21.150  24.392  1.00  0.00     0.048 A 
ATOM     20  C   UNL A   1      36.334  21.130  25.284  1.00  0.00     0.010 A 
ATOM     21  C   UNL A   1      37.582  23.167  25.480  1.00  0.00     0.001 A 
ATOM     22  Cl  UNL A   1      33.816  19.435  24.564  1.00  0.00    -0.084 Cl
ATOM     23  C   UNL A   1      37.513  21.793  25.616  1.00  0.00     0.001 A 
ENDBRANCH  12  13
ENDBRANCH  11  12
ENDBRANCH   8  11
ENDBRANCH   5   8
ENDBRANCH   3   4
ENDBRANCH   2   3
ENDBRANCH   1   2
BRANCH   1  24
ATOM     24  C   UNL A   1      31.645  30.622  26.827  1.00  0.00     0.002 C 
BRANCH  24  25
ATOM     25  C   UNL A   1      31.555  32.148  26.769  1.00  0.00     0.021 C 
BRANCH  25  26
ATOM     26  C   UNL A   1      32.783  32.873  27.311  1.00  0.00     0.116 C 
BRANCH  26  27
ATOM     27  N   UNL A   1      32.501  34.266  27.616  1.00  0.00    -0.352 N 
ATOM     28  C   UNL A   1      33.027  35.045  28.616  1.00  0.00     0.251 C 
ATOM     29  H   UNL A   1      31.847  34.708  27.027  1.00  0.00     0.163 HD
ATOM     30  O   UNL A   1      32.539  36.132  28.892  1.00  0.00    -0.269 OA
BRANCH  28  31
ATOM     31  C   UNL A   1      34.188  34.537  29.375  1.00  0.00     0.039 A 
ATOM     32  C   UNL A   1      33.976  33.934  30.615  1.00  0.00     0.014 A 
ATOM     33  C   UNL A   1      35.475  34.629  28.838  1.00  0.00     0.014 A 
ATOM     34  C   UNL A   1      35.056  33.367  31.294  1.00  0.00     0.010 A 
ATOM     35  C   UNL A   1      36.534  33.995  29.478  1.00  0.00     0.010 A 
ATOM     36  C   UNL A   1      36.336  33.363  30.715  1.00  0.00    -0.014 A 
BRANCH  36  37
ATOM     37  C   UNL A   1      37.482  32.702  31.389  1.00  0.00     0.031 A 
ATOM     38  C   UNL A   1      38.166  31.533  30.739  1.00  0.00     0.074 A 
ATOM     39  C   UNL A   1      37.866  33.116  32.612  1.00  0.00     0.049 A 
ATOM     40  N   UNL A   1      39.138  30.783  31.192  1.00  0.00    -0.248 NA
ATOM     41  C   UNL A   1      37.672  31.134  29.411  1.00  0.00     0.031 C 
ATOM     42  C   UNL A   1      37.252  34.210  33.366  1.00  0.00     0.029 A 
ATOM     43  N   UNL A   1      38.859  32.658  33.443  1.00  0.00    -0.354 N 
ATOM     44  C   UNL A   1      39.363  29.823  30.215  1.00  0.00     0.074 A 
ATOM     45  C   UNL A   1      38.387  30.045  29.171  1.00  0.00     0.031 C 
ATOM     46  C   UNL A   1      37.897  34.356  34.534  1.00  0.00     0.029 A 
ATOM     47  C   UNL A   1      38.940  33.339  34.633  1.00  0.00     0.049 A 
ATOM     48  H   UNL A   1      39.457  31.913  33.206  1.00  0.00     0.167 HD
ATOM     49  C   UNL A   1      40.313  28.860  30.180  1.00  0.00     0.037 A 
ATOM     50  C   UNL A   1      39.755  33.156  35.689  1.00  0.00     0.037 A 
ATOM     51  C   UNL A   1      41.294  28.655  31.215  1.00  0.00     0.049 A 
ATOM     52  C   UNL A   1      40.789  32.062  35.635  1.00  0.00     0.074 A 
ATOM     53  C   UNL A   1      42.334  27.744  31.249  1.00  0.00     0.029 A 
ATOM     54  N   UNL A   1      41.348  29.369  32.404  1.00  0.00    -0.354 N 
ATOM     55  N   UNL A   1      41.039  31.206  34.673  1.00  0.00    -0.248 NA
ATOM     56  C   UNL A   1      41.656  31.912  36.811  1.00  0.00     0.031 C 
ATOM     57  C   UNL A   1      42.981  27.866  32.483  1.00  0.00     0.029 A 
ATOM     58  C   UNL A   1      42.386  28.896  33.192  1.00  0.00     0.049 A 
ATOM     59  H   UNL A   1      40.739  30.102  32.651  1.00  0.00     0.167 HD
ATOM     60  C   UNL A   1      42.110  30.440  35.115  1.00  0.00     0.074 A 
ATOM     61  C   UNL A   1      42.471  30.942  36.423  1.00  0.00     0.031 C 
ATOM     62  C   UNL A   1      42.738  29.412  34.490  1.00  0.00     0.037 A 
BRANCH  49  63
ATOM     63  C   UNL A   1      40.341  27.951  28.984  1.00  0.00     0.064 A 
ATOM     64  C   UNL A   1      41.094  28.258  27.840  1.00  0.00     0.173 A 
ATOM     65  C   UNL A   1      39.633  26.739  28.995  1.00  0.00     0.173 A 
ATOM     66  F   UNL A   1      41.780  29.408  27.773  1.00  0.00    -0.203 F 
ATOM     67  C   UNL A   1      41.112  27.402  26.742  1.00  0.00     0.198 A 
ATOM     68  C   UNL A   1      39.682  25.870  27.909  1.00  0.00     0.198 A 
ATOM     69  F   UNL A   1      38.901  26.392  30.064  1.00  0.00    -0.203 F 
ATOM     70  F   UNL A   1      41.794  27.744  25.641  1.00  0.00    -0.200 F 
ATOM     71  C   UNL A   1      40.413  26.206  26.779  1.00  0.00     0.200 A 
ATOM     72  F   UNL A   1      39.018  24.706  27.953  1.00  0.00    -0.200 F 
ATOM     73  F   UNL A   1      40.439  25.379  25.725  1.00  0.00    -0.200 F 
ENDBRANCH  49  63
BRANCH  50  74
ATOM     74  C   UNL A   1      39.640  34.037  36.881  1.00  0.00     0.064 A 
ATOM     75  C   UNL A   1      40.330  35.257  36.946  1.00  0.00     0.173 A 
ATOM     76  C   UNL A   1      38.849  33.678  37.982  1.00  0.00     0.173 A 
ATOM     77  F   UNL A   1      41.115  35.636  35.927  1.00  0.00    -0.203 F 
ATOM     78  C   UNL A   1      40.253  36.069  38.076  1.00  0.00     0.198 A 
ATOM     79  C   UNL A   1      38.747  34.506  39.098  1.00  0.00     0.198 A 
ATOM     80  F   UNL A   1      38.164  32.524  37.969  1.00  0.00    -0.203 F 
ATOM     81  F   UNL A   1      40.964  37.203  38.133  1.00  0.00    -0.200 F 
ATOM     82  C   UNL A   1      39.457  35.696  39.148  1.00  0.00     0.200 A 
ATOM     83  F   UNL A   1      37.963  34.149  40.125  1.00  0.00    -0.200 F 
ATOM     84  F   UNL A   1      39.380  36.478  40.233  1.00  0.00    -0.200 F 
ENDBRANCH  50  74
BRANCH  62  85
ATOM     85  C   UNL A   1      43.906  28.785  35.196  1.00  0.00     0.064 A 
ATOM     86  C   UNL A   1      45.220  29.238  35.000  1.00  0.00     0.173 A 
ATOM     87  C   UNL A   1      43.702  27.745  36.116  1.00  0.00     0.173 A 
ATOM     88  F   UNL A   1      45.471  30.220  34.120  1.00  0.00    -0.203 F 
ATOM     89  C   UNL A   1      46.286  28.656  35.679  1.00  0.00     0.198 A 
ATOM     90  C   UNL A   1      44.767  27.188  36.819  1.00  0.00     0.198 A 
ATOM     91  F   UNL A   1      42.466  27.279  36.347  1.00  0.00    -0.203 F 
ATOM     92  F   UNL A   1      47.538  29.071  35.437  1.00  0.00    -0.200 F 
ATOM     93  C   UNL A   1      46.059  27.638  36.594  1.00  0.00     0.200 A 
ATOM     94  F   UNL A   1      44.542  26.218  37.714  1.00  0.00    -0.200 F 
ATOM     95  F   UNL A   1      47.086  27.087  37.255  1.00  0.00    -0.200 F 
ENDBRANCH  62  85
ENDBRANCH  36  37
ENDBRANCH  28  31
ENDBRANCH  26  27
ENDBRANCH  25  26
ENDBRANCH  24  25
ENDBRANCH   1  24
TORSDOF 16
ENDMDL
MODEL 2
REMARK VINA RESULT:     -12.3      3.580      8.716
REMARK SMILES CC(C)(CCc1ccc(Cl)c2ccccc12)C(=O)NCCCCCCNC(=O)c1ccc(-c2c3nc(c(-c4c(F)c(F)c(F)c(F)c4F)c4ccc([nH]4)c(-c4c(F)c(F)c(F)c(F)c4F)c4nc(c(-c5c(F)c(F)c(F)c(F)c5F)c5ccc2[nH]5)C=C4)C=C3)cc1
REMARK SMILES IDX 22 1 21 2 20 3 19 4 17 5 18 6 2 8 1 9 3 10 4 11 5 12 6 13
REMARK SMILES IDX 7 14 16 15 8 16 11 17 15 18 9 19 12 20 14 21 10 22 13 23
REMARK SMILES IDX 23 24 24 25 25 26 26 27 27 28 28 30 29 31 30 32 91 33 31 34
REMARK SMILES IDX 90 35 32 36 33 37 34 38 84 39 35 40 89 41 83 42 85 43 36 44
REMARK SMILES IDX 88 45 82 46 81 47 37 49 69 50 49 51 68 52 50 53 53 54 67 55
REMARK SMILES IDX 86 56 51 57 52 58 66 60 87 61 54 62 38 63 39 64 47 65 40 66
REMARK SMILES IDX 41 67 45 68 48 69 42 70 43 71 46 72 44 73 70 74 71 75 79 76
REMARK SMILES IDX 72 77 73 78 77 79 80 80 74 81 75 82 78 83 76 84 55 85 56 86
REMARK SMILES IDX 64 87 57 88 58 89 62 90 65 91 59 92 60 93 63 94 61 95
REMARK H PARENT 19 7 26 29 85 48 53 59
REMARK Flexibility Score: inf
ROOT
ATOM      1  C   UNL A   1      31.576  29.178  24.427  1.00  0.00     0.002 C 
ENDROOT
BRANCH   1   2
ATOM      2  C   UNL A   1      31.146  28.816  23.004  1.00  0.00     0.021 C 
BRANCH   2   3
ATOM      3  C   UNL A   1      31.009  27.323  22.736  1.00  0.00     0.116 C 
BRANCH   3   4
ATOM      4  N   UNL A   1      31.791  26.874  21.598  1.00  0.00    -0.356 N 
ATOM      5  C   UNL A   1      32.521  25.753  21.352  1.00  0.00     0.225 C 
ATOM      6  O   UNL A   1      32.943  25.627  20.198  1.00  0.00    -0.275 OA
ATOM      7  H   UNL A   1      31.794  27.514  20.850  1.00  0.00     0.163 HD
BRANCH   5   8
ATOM      8  C   UNL A   1      32.797  24.682  22.426  1.00  0.00     0.044 C 
ATOM      9  C   UNL A   1      33.280  23.383  21.740  1.00  0.00     0.021 C 
ATOM     10  C   UNL A   1      31.464  24.285  23.105  1.00  0.00     0.021 C 
BRANCH   8  11
ATOM     11  C   UNL A   1      33.854  25.155  23.467  1.00  0.00     0.021 C 
BRANCH  11  12
ATOM     12  C   UNL A   1      33.875  24.469  24.862  1.00  0.00     0.037 C 
BRANCH  12  13
ATOM     13  C   UNL A   1      34.752  23.235  24.999  1.00  0.00    -0.040 A 
ATOM     14  C   UNL A   1      36.120  23.456  25.213  1.00  0.00     0.006 A 
ATOM     15  C   UNL A   1      34.276  21.892  24.929  1.00  0.00    -0.014 A 
ATOM     16  C   UNL A   1      37.035  22.412  25.175  1.00  0.00     0.021 A 
ATOM     17  C   UNL A   1      35.212  20.816  24.896  1.00  0.00     0.001 A 
ATOM     18  C   UNL A   1      32.901  21.559  24.917  1.00  0.00     0.009 A 
ATOM     19  C   UNL A   1      36.592  21.110  24.971  1.00  0.00     0.048 A 
ATOM     20  C   UNL A   1      34.726  19.489  24.807  1.00  0.00     0.010 A 
ATOM     21  C   UNL A   1      32.451  20.239  24.861  1.00  0.00     0.001 A 
ATOM     22  Cl  UNL A   1      37.820  19.889  24.855  1.00  0.00    -0.084 Cl
ATOM     23  C   UNL A   1      33.364  19.203  24.798  1.00  0.00     0.001 A 
ENDBRANCH  12  13
ENDBRANCH  11  12
ENDBRANCH   8  11
ENDBRANCH   5   8
ENDBRANCH   3   4
ENDBRANCH   2   3
ENDBRANCH   1   2
BRANCH   1  24
ATOM     24  C   UNL A   1      32.120  27.997  25.230  1.00  0.00     0.002 C 
BRANCH  24  25
ATOM     25  C   UNL A   1      33.569  28.158  25.693  1.00  0.00     0.021 C 
BRANCH  25  26
ATOM     26  C   UNL A   1      33.727  28.426  27.186  1.00  0.00     0.116 C 
BRANCH  26  27
ATOM     27  N   UNL A   1      33.636  29.843  27.497  1.00  0.00    -0.352 N 
ATOM     28  C   UNL A   1      34.543  30.632  28.158  1.00  0.00     0.251 C 
ATOM     29  H   UNL A   1      32.816  30.296  27.193  1.00  0.00     0.163 HD
ATOM     30  O   UNL A   1      34.243  31.754  28.542  1.00  0.00    -0.269 OA
BRANCH  28  31
ATOM     31  C   UNL A   1      35.894  30.094  28.420  1.00  0.00     0.039 A 
ATOM     32  C   UNL A   1      36.853  30.148  27.408  1.00  0.00     0.014 A 
ATOM     33  C   UNL A   1      36.213  29.573  29.678  1.00  0.00     0.014 A 
ATOM     34  C   UNL A   1      38.157  29.729  27.678  1.00  0.00     0.010 A 
ATOM     35  C   UNL A   1      37.529  29.231  29.966  1.00  0.00     0.010 A 
ATOM     36  C   UNL A   1      38.513  29.300  28.968  1.00  0.00    -0.014 A 
BRANCH  36  37
ATOM     37  C   UNL A   1      39.911  28.920  29.291  1.00  0.00     0.031 A 
ATOM     38  C   UNL A   1      40.780  29.853  30.086  1.00  0.00     0.074 A 
ATOM     39  C   UNL A   1      40.414  27.763  28.819  1.00  0.00     0.049 A 
ATOM     40  N   UNL A   1      42.041  29.733  30.416  1.00  0.00    -0.248 NA
ATOM     41  C   UNL A   1      40.158  31.104  30.548  1.00  0.00     0.031 C 
ATOM     42  C   UNL A   1      39.684  26.795  28.000  1.00  0.00     0.029 A 
ATOM     43  N   UNL A   1      41.663  27.208  28.952  1.00  0.00    -0.354 N 
ATOM     44  C   UNL A   1      42.362  30.890  31.111  1.00  0.00     0.074 A 
ATOM     45  C   UNL A   1      41.184  31.730  31.104  1.00  0.00     0.031 C 
ATOM     46  C   UNL A   1      40.488  25.755  27.725  1.00  0.00     0.029 A 
ATOM     47  C   UNL A   1      41.803  26.003  28.309  1.00  0.00     0.049 A 
ATOM     48  H   UNL A   1      42.390  27.635  29.461  1.00  0.00     0.167 HD
ATOM     49  C   UNL A   1      43.526  31.214  31.722  1.00  0.00     0.037 A 
ATOM     50  C   UNL A   1      42.873  25.193  28.195  1.00  0.00     0.037 A 
ATOM     51  C   UNL A   1      44.690  30.367  31.741  1.00  0.00     0.049 A 
ATOM     52  C   UNL A   1      44.164  25.587  28.864  1.00  0.00     0.074 A 
ATOM     53  C   UNL A   1      45.900  30.577  32.379  1.00  0.00     0.029 A 
ATOM     54  N   UNL A   1      44.792  29.148  31.083  1.00  0.00    -0.354 N 
ATOM     55  N   UNL A   1      44.433  26.652  29.580  1.00  0.00    -0.248 NA
ATOM     56  C   UNL A   1      45.297  24.665  28.712  1.00  0.00     0.031 C 
ATOM     57  C   UNL A   1      46.753  29.516  32.059  1.00  0.00     0.029 A 
ATOM     58  C   UNL A   1      46.055  28.612  31.276  1.00  0.00     0.049 A 
ATOM     59  H   UNL A   1      44.073  28.729  30.558  1.00  0.00     0.167 HD
ATOM     60  C   UNL A   1      45.753  26.511  29.990  1.00  0.00     0.074 A 
ATOM     61  C   UNL A   1      46.224  25.251  29.455  1.00  0.00     0.031 C 
ATOM     62  C   UNL A   1      46.506  27.351  30.743  1.00  0.00     0.037 A 
BRANCH  49  63
ATOM     63  C   UNL A   1      43.601  32.542  32.421  1.00  0.00     0.064 A 
ATOM     64  C   UNL A   1      43.994  33.710  31.749  1.00  0.00     0.173 A 
ATOM     65  C   UNL A   1      43.240  32.655  33.773  1.00  0.00     0.173 A 
ATOM     66  F   UNL A   1      44.360  33.655  30.460  1.00  0.00    -0.203 F 
ATOM     67  C   UNL A   1      44.054  34.933  32.411  1.00  0.00     0.198 A 
ATOM     68  C   UNL A   1      43.267  33.887  34.421  1.00  0.00     0.198 A 
ATOM     69  F   UNL A   1      42.851  31.573  34.464  1.00  0.00    -0.203 F 
ATOM     70  F   UNL A   1      44.485  36.023  31.761  1.00  0.00    -0.200 F 
ATOM     71  C   UNL A   1      43.683  35.023  33.743  1.00  0.00     0.200 A 
ATOM     72  F   UNL A   1      42.893  33.975  35.706  1.00  0.00    -0.200 F 
ATOM     73  F   UNL A   1      43.732  36.203  34.376  1.00  0.00    -0.200 F 
ENDBRANCH  49  63
BRANCH  50  74
ATOM     74  C   UNL A   1      42.768  23.923  27.429  1.00  0.00     0.064 A 
ATOM     75  C   UNL A   1      42.299  22.750  28.039  1.00  0.00     0.173 A 
ATOM     76  C   UNL A   1      43.143  23.849  26.080  1.00  0.00     0.173 A 
ATOM     77  F   UNL A   1      41.947  22.764  29.333  1.00  0.00    -0.203 F 
ATOM     78  C   UNL A   1      42.233  21.549  27.336  1.00  0.00     0.198 A 
ATOM     79  C   UNL A   1      43.045  22.656  25.368  1.00  0.00     0.198 A 
ATOM     80  F   UNL A   1      43.593  24.943  25.447  1.00  0.00    -0.203 F 
ATOM     81  F   UNL A   1      41.830  20.432  27.958  1.00  0.00    -0.200 F 
ATOM     82  C   UNL A   1      42.600  21.504  25.999  1.00  0.00     0.200 A 
ATOM     83  F   UNL A   1      43.386  22.621  24.073  1.00  0.00    -0.200 F 
ATOM     84  F   UNL A   1      42.534  20.350  25.322  1.00  0.00    -0.200 F 
ENDBRANCH  50  74
BRANCH  62  85
ATOM     85  C   UNL A   1      47.908  26.919  31.067  1.00  0.00     0.064 A 
ATOM     86  C   UNL A   1      48.186  26.046  32.129  1.00  0.00     0.173 A 
ATOM     87  C   UNL A   1      48.983  27.350  30.273  1.00  0.00     0.173 A 
ATOM     88  F   UNL A   1      47.197  25.616  32.927  1.00  0.00    -0.203 F 
ATOM     89  C   UNL A   1      49.491  25.643  32.401  1.00  0.00     0.198 A 
ATOM     90  C   UNL A   1      50.281  26.917  30.527  1.00  0.00     0.198 A 
ATOM     91  F   UNL A   1      48.772  28.180  29.241  1.00  0.00    -0.203 F 
ATOM     92  F   UNL A   1      49.738  24.849  33.452  1.00  0.00    -0.200 F 
ATOM     93  C   UNL A   1      50.535  26.071  31.595  1.00  0.00     0.200 A 
ATOM     94  F   UNL A   1      51.286  27.318  29.737  1.00  0.00    -0.200 F 
ATOM     95  F   UNL A   1      51.789  25.672  31.851  1.00  0.00    -0.200 F 
ENDBRANCH  62  85
ENDBRANCH  36  37
ENDBRANCH  28  31
ENDBRANCH  26  27
ENDBRANCH  25  26
ENDBRANCH  24  25
ENDBRANCH   1  24
TORSDOF 16
ENDMDL
MODEL 3
REMARK VINA RESULT:     -12.2      0.788      2.110
REMARK SMILES CC(C)(CCc1ccc(Cl)c2ccccc12)C(=O)NCCCCCCNC(=O)c1ccc(-c2c3nc(c(-c4c(F)c(F)c(F)c(F)c4F)c4ccc([nH]4)c(-c4c(F)c(F)c(F)c(F)c4F)c4nc(c(-c5c(F)c(F)c(F)c(F)c5F)c5ccc2[nH]5)C=C4)C=C3)cc1
REMARK SMILES IDX 22 1 21 2 20 3 19 4 17 5 18 6 2 8 1 9 3 10 4 11 5 12 6 13
REMARK SMILES IDX 7 14 16 15 8 16 11 17 15 18 9 19 12 20 14 21 10 22 13 23
REMARK SMILES IDX 23 24 24 25 25 26 26 27 27 28 28 30 29 31 30 32 91 33 31 34
REMARK SMILES IDX 90 35 32 36 33 37 34 38 84 39 35 40 89 41 83 42 85 43 36 44
REMARK SMILES IDX 88 45 82 46 81 47 37 49 69 50 49 51 68 52 50 53 53 54 67 55
REMARK SMILES IDX 86 56 51 57 52 58 66 60 87 61 54 62 38 63 39 64 47 65 40 66
REMARK SMILES IDX 41 67 45 68 48 69 42 70 43 71 46 72 44 73 70 74 71 75 79 76
REMARK SMILES IDX 72 77 73 78 77 79 80 80 74 81 75 82 78 83 76 84 55 85 56 86
REMARK SMILES IDX 64 87 57 88 58 89 62 90 65 91 59 92 60 93 63 94 61 95
REMARK H PARENT 19 7 26 29 85 48 53 59
REMARK Flexibility Score: inf
ROOT
ATOM      1  C   UNL A   1      32.866  30.020  27.026  1.00  0.00     0.002 C 
ENDROOT
BRANCH   1   2
ATOM      2  C   UNL A   1      33.702  29.139  26.097  1.00  0.00     0.021 C 
BRANCH   2   3
ATOM      3  C   UNL A   1      33.306  29.201  24.628  1.00  0.00     0.116 C 
BRANCH   3   4
ATOM      4  N   UNL A   1      33.567  27.963  23.915  1.00  0.00    -0.356 N 
ATOM      5  C   UNL A   1      32.797  26.886  23.603  1.00  0.00     0.225 C 
ATOM      6  O   UNL A   1      33.309  26.060  22.842  1.00  0.00    -0.275 OA
ATOM      7  H   UNL A   1      34.494  27.888  23.590  1.00  0.00     0.163 HD
BRANCH   5   8
ATOM      8  C   UNL A   1      31.363  26.701  24.137  1.00  0.00     0.044 C 
ATOM      9  C   UNL A   1      30.641  25.620  23.298  1.00  0.00     0.021 C 
ATOM     10  C   UNL A   1      30.551  27.994  23.878  1.00  0.00     0.021 C 
BRANCH   8  11
ATOM     11  C   UNL A   1      31.345  26.302  25.642  1.00  0.00     0.021 C 
BRANCH  11  12
ATOM     12  C   UNL A   1      32.597  25.594  26.233  1.00  0.00     0.037 C 
BRANCH  12  13
ATOM     13  C   UNL A   1      32.802  24.139  25.844  1.00  0.00    -0.040 A 
ATOM     14  C   UNL A   1      31.659  23.328  25.819  1.00  0.00     0.006 A 
ATOM     15  C   UNL A   1      34.062  23.563  25.505  1.00  0.00    -0.014 A 
ATOM     16  C   UNL A   1      31.752  21.953  25.652  1.00  0.00     0.021 A 
ATOM     17  C   UNL A   1      34.162  22.151  25.326  1.00  0.00     0.001 A 
ATOM     18  C   UNL A   1      35.234  24.328  25.306  1.00  0.00     0.009 A 
ATOM     19  C   UNL A   1      32.996  21.363  25.454  1.00  0.00     0.048 A 
ATOM     20  C   UNL A   1      35.422  21.589  25.008  1.00  0.00     0.010 A 
ATOM     21  C   UNL A   1      36.457  23.750  24.961  1.00  0.00     0.001 A 
ATOM     22  Cl  UNL A   1      33.016  19.631  25.341  1.00  0.00    -0.084 Cl
ATOM     23  C   UNL A   1      36.553  22.378  24.820  1.00  0.00     0.001 A 
ENDBRANCH  12  13
ENDBRANCH  11  12
ENDBRANCH   8  11
ENDBRANCH   5   8
ENDBRANCH   3   4
ENDBRANCH   2   3
ENDBRANCH   1   2
BRANCH   1  24
ATOM     24  C   UNL A   1      31.641  30.640  26.357  1.00  0.00     0.002 C 
BRANCH  24  25
ATOM     25  C   UNL A   1      31.480  32.143  26.594  1.00  0.00     0.021 C 
BRANCH  25  26
ATOM     26  C   UNL A   1      32.619  32.782  27.382  1.00  0.00     0.116 C 
BRANCH  26  27
ATOM     27  N   UNL A   1      32.387  34.198  27.620  1.00  0.00    -0.352 N 
ATOM     28  C   UNL A   1      32.961  35.009  28.567  1.00  0.00     0.251 C 
ATOM     29  H   UNL A   1      31.732  34.630  27.025  1.00  0.00     0.163 HD
ATOM     30  O   UNL A   1      32.513  36.124  28.798  1.00  0.00    -0.269 OA
BRANCH  28  31
ATOM     31  C   UNL A   1      34.124  34.504  29.324  1.00  0.00     0.039 A 
ATOM     32  C   UNL A   1      33.916  33.901  30.565  1.00  0.00     0.014 A 
ATOM     33  C   UNL A   1      35.411  34.598  28.784  1.00  0.00     0.014 A 
ATOM     34  C   UNL A   1      34.998  33.337  31.243  1.00  0.00     0.010 A 
ATOM     35  C   UNL A   1      36.472  33.966  29.423  1.00  0.00     0.010 A 
ATOM     36  C   UNL A   1      36.277  33.335  30.661  1.00  0.00    -0.014 A 
BRANCH  36  37
ATOM     37  C   UNL A   1      37.425  32.676  31.334  1.00  0.00     0.031 A 
ATOM     38  C   UNL A   1      38.129  31.527  30.669  1.00  0.00     0.074 A 
ATOM     39  C   UNL A   1      37.793  33.074  32.567  1.00  0.00     0.049 A 
ATOM     40  N   UNL A   1      39.107  30.782  31.118  1.00  0.00    -0.248 NA
ATOM     41  C   UNL A   1      37.652  31.146  29.330  1.00  0.00     0.031 C 
ATOM     42  C   UNL A   1      37.159  34.146  33.334  1.00  0.00     0.029 A 
ATOM     43  N   UNL A   1      38.785  32.614  33.398  1.00  0.00    -0.354 N 
ATOM     44  C   UNL A   1      39.352  29.843  30.126  1.00  0.00     0.074 A 
ATOM     45  C   UNL A   1      38.383  30.071  29.077  1.00  0.00     0.031 C 
ATOM     46  C   UNL A   1      37.792  34.280  34.511  1.00  0.00     0.029 A 
ATOM     47  C   UNL A   1      38.847  33.274  34.601  1.00  0.00     0.049 A 
ATOM     48  H   UNL A   1      39.395  31.880  33.154  1.00  0.00     0.167 HD
ATOM     49  C   UNL A   1      40.315  28.892  30.083  1.00  0.00     0.037 A 
ATOM     50  C   UNL A   1      39.655  33.083  35.661  1.00  0.00     0.037 A 
ATOM     51  C   UNL A   1      41.289  28.681  31.122  1.00  0.00     0.049 A 
ATOM     52  C   UNL A   1      40.703  32.003  35.596  1.00  0.00     0.074 A 
ATOM     53  C   UNL A   1      42.341  27.783  31.150  1.00  0.00     0.029 A 
ATOM     54  N   UNL A   1      41.324  29.375  32.324  1.00  0.00    -0.354 N 
ATOM     55  N   UNL A   1      40.973  31.168  34.622  1.00  0.00    -0.248 NA
ATOM     56  C   UNL A   1      41.562  31.842  36.778  1.00  0.00     0.031 C 
ATOM     57  C   UNL A   1      42.975  27.891  32.391  1.00  0.00     0.029 A 
ATOM     58  C   UNL A   1      42.361  28.901  33.112  1.00  0.00     0.049 A 
ATOM     59  H   UNL A   1      40.704  30.095  32.579  1.00  0.00     0.167 HD
ATOM     60  C   UNL A   1      42.049  30.407  35.060  1.00  0.00     0.074 A 
ATOM     61  C   UNL A   1      42.393  30.890  36.380  1.00  0.00     0.031 C 
ATOM     62  C   UNL A   1      42.696  29.398  34.422  1.00  0.00     0.037 A 
BRANCH  49  63
ATOM     63  C   UNL A   1      40.365  28.005  28.871  1.00  0.00     0.064 A 
ATOM     64  C   UNL A   1      39.659  26.792  28.814  1.00  0.00     0.173 A 
ATOM     65  C   UNL A   1      41.097  28.389  27.737  1.00  0.00     0.173 A 
ATOM     66  F   UNL A   1      38.952  26.373  29.873  1.00  0.00    -0.203 F 
ATOM     67  C   UNL A   1      39.712  25.984  27.682  1.00  0.00     0.198 A 
ATOM     68  C   UNL A   1      41.119  27.594  26.594  1.00  0.00     0.198 A 
ATOM     69  F   UNL A   1      41.785  29.540  27.733  1.00  0.00    -0.203 F 
ATOM     70  F   UNL A   1      39.075  24.805  27.673  1.00  0.00    -0.200 F 
ATOM     71  C   UNL A   1      40.434  26.388  26.570  1.00  0.00     0.200 A 
ATOM     72  F   UNL A   1      41.805  27.995  25.514  1.00  0.00    -0.200 F 
ATOM     73  F   UNL A   1      40.477  25.614  25.477  1.00  0.00    -0.200 F 
ENDBRANCH  49  63
BRANCH  50  74
ATOM     74  C   UNL A   1      39.519  33.941  36.867  1.00  0.00     0.064 A 
ATOM     75  C   UNL A   1      38.763  33.519  37.971  1.00  0.00     0.173 A 
ATOM     76  C   UNL A   1      40.129  35.202  36.941  1.00  0.00     0.173 A 
ATOM     77  F   UNL A   1      38.143  32.330  37.942  1.00  0.00    -0.203 F 
ATOM     78  C   UNL A   1      38.603  34.334  39.089  1.00  0.00     0.198 A 
ATOM     79  C   UNL A   1      39.995  36.003  38.073  1.00  0.00     0.198 A 
ATOM     80  F   UNL A   1      40.868  35.652  35.915  1.00  0.00    -0.203 F 
ATOM     81  F   UNL A   1      37.832  33.928  40.107  1.00  0.00    -0.200 F 
ATOM     82  C   UNL A   1      39.224  35.573  39.142  1.00  0.00     0.200 A 
ATOM     83  F   UNL A   1      40.610  37.192  38.126  1.00  0.00    -0.200 F 
ATOM     84  F   UNL A   1      39.072  36.356  40.218  1.00  0.00    -0.200 F 
ENDBRANCH  50  74
BRANCH  62  85
ATOM     85  C   UNL A   1      43.865  28.774  35.128  1.00  0.00     0.064 A 
ATOM     86  C   UNL A   1      43.717  27.650  35.955  1.00  0.00     0.173 A 
ATOM     87  C   UNL A   1      45.160  29.281  34.937  1.00  0.00     0.173 A 
ATOM     88  F   UNL A   1      42.498  27.135  36.182  1.00  0.00    -0.203 F 
ATOM     89  C   UNL A   1      44.817  27.075  36.586  1.00  0.00     0.198 A 
ATOM     90  C   UNL A   1      46.262  28.682  35.542  1.00  0.00     0.198 A 
ATOM     91  F   UNL A   1      45.360  30.349  34.151  1.00  0.00    -0.203 F 
ATOM     92  F   UNL A   1      44.643  26.033  37.411  1.00  0.00    -0.200 F 
ATOM     93  C   UNL A   1      46.089  27.585  36.371  1.00  0.00     0.200 A 
ATOM     94  F   UNL A   1      47.491  29.166  35.320  1.00  0.00    -0.200 F 
ATOM     95  F   UNL A   1      47.148  27.023  36.970  1.00  0.00    -0.200 F 
ENDBRANCH  62  85
ENDBRANCH  36  37
ENDBRANCH  28  31
ENDBRANCH  26  27
ENDBRANCH  25  26
ENDBRANCH  24  25
ENDBRANCH   1  24
TORSDOF 16
ENDMDL
