MODEL 1
REMARK VINA RESULT:      -9.1      0.000      0.000
REMARK SMILES O=C(NCCCCCCNC(=O)c1ccc(S(=O)(=O)[O-])cc1N1C(=O)/C(=C\C=C\c2ccccc2)[NH+]=C1c1ccccc1)c1ccc(-c2c3nc(c(-c4c(F)c(F)c(F)c(F)c4F)c4ccc([nH]4)c(-c4c(F)c(F)c(F)c(F)c4F)c4nc(c(-c5c(F)c(F)c(F)c(F)c5F)c5ccc2[nH]5)C=C4)C=C3)cc1
REMARK SMILES IDX 7 1 6 2 5 3 4 4 3 5 1 6 2 7 44 9 45 10 106 11 46 12 105 13
REMARK SMILES IDX 47 14 48 15 49 16 99 17 50 18 104 19 98 20 100 21 51 22
REMARK SMILES IDX 103 23 97 24 96 25 52 27 84 28 64 29 83 30 65 31 68 32 82 33
REMARK SMILES IDX 101 34 66 35 67 36 81 38 102 39 69 40 53 41 54 42 62 43
REMARK SMILES IDX 55 44 56 45 60 46 63 47 57 48 58 49 61 50 59 51 85 52 86 53
REMARK SMILES IDX 94 54 87 55 88 56 92 57 95 58 89 59 90 60 93 61 91 62 70 63
REMARK SMILES IDX 71 64 79 65 72 66 73 67 77 68 80 69 74 70 75 71 78 72 76 73
REMARK SMILES IDX 8 74 9 75 10 76 11 77 12 79 13 80 14 81 22 82 15 83 21 84
REMARK SMILES IDX 16 85 23 86 24 87 37 88 25 89 26 90 36 91 27 92 38 94 39 95
REMARK SMILES IDX 43 96 40 97 42 98 41 99 28 100 29 101 30 102 31 103 35 104
REMARK SMILES IDX 32 105 34 106 33 107 17 108 18 109 19 110 20 111
REMARK H PARENT 3 8 100 26 68 37 10 78 36 93
REMARK Flexibility Score: inf
ROOT
ATOM      1  C   UNL A   1      48.405  26.313  24.623  1.00  0.00     0.002 C 
ENDROOT
BRANCH   1   2
ATOM      2  C   UNL A   1      49.659  26.912  25.274  1.00  0.00     0.002 C 
BRANCH   2   3
ATOM      3  C   UNL A   1      50.544  25.935  26.053  1.00  0.00     0.021 C 
BRANCH   3   4
ATOM      4  C   UNL A   1      51.009  26.435  27.416  1.00  0.00     0.116 C 
BRANCH   4   5
ATOM      5  N   UNL A   1      51.901  27.578  27.306  1.00  0.00    -0.352 N 
ATOM      6  O   UNL A   1      52.481  29.755  27.238  1.00  0.00    -0.269 OA
ATOM      7  C   UNL A   1      51.670  28.900  27.580  1.00  0.00     0.251 C 
ATOM      8  H   UNL A   1      52.810  27.370  26.989  1.00  0.00     0.163 HD
BRANCH   7   9
ATOM      9  C   UNL A   1      50.436  29.301  28.284  1.00  0.00     0.039 A 
ATOM     10  C   UNL A   1      49.290  29.656  27.568  1.00  0.00     0.014 A 
ATOM     11  C   UNL A   1      50.417  29.280  29.681  1.00  0.00     0.014 A 
ATOM     12  C   UNL A   1      48.161  30.102  28.245  1.00  0.00     0.010 A 
ATOM     13  C   UNL A   1      49.255  29.649  30.361  1.00  0.00     0.010 A 
ATOM     14  C   UNL A   1      48.125  30.079  29.647  1.00  0.00    -0.014 A 
BRANCH  14  15
ATOM     15  C   UNL A   1      46.873  30.432  30.358  1.00  0.00     0.031 A 
ATOM     16  C   UNL A   1      46.267  29.499  31.364  1.00  0.00     0.074 A 
ATOM     17  C   UNL A   1      46.267  31.597  30.060  1.00  0.00     0.049 A 
ATOM     18  N   UNL A   1      45.143  29.614  32.025  1.00  0.00    -0.248 NA
ATOM     19  C   UNL A   1      47.017  28.270  31.657  1.00  0.00     0.031 C 
ATOM     20  C   UNL A   1      46.760  32.573  29.087  1.00  0.00     0.029 A 
ATOM     21  N   UNL A   1      45.103  32.149  30.527  1.00  0.00    -0.354 N 
ATOM     22  C   UNL A   1      45.038  28.464  32.794  1.00  0.00     0.074 A 
ATOM     23  C   UNL A   1      46.198  27.651  32.496  1.00  0.00     0.031 C 
ATOM     24  C   UNL A   1      45.911  33.609  29.035  1.00  0.00     0.029 A 
ATOM     25  C   UNL A   1      44.781  33.336  29.916  1.00  0.00     0.049 A 
ATOM     26  H   UNL A   1      44.552  31.737  31.232  1.00  0.00     0.167 HD
ATOM     27  C   UNL A   1      44.060  28.124  33.669  1.00  0.00     0.037 A 
ATOM     28  C   UNL A   1      43.679  34.101  30.017  1.00  0.00     0.037 A 
ATOM     29  C   UNL A   1      42.907  28.945  33.949  1.00  0.00     0.049 A 
ATOM     30  C   UNL A   1      42.587  33.684  30.960  1.00  0.00     0.074 A 
ATOM     31  C   UNL A   1      41.887  28.719  34.854  1.00  0.00     0.029 A 
ATOM     32  N   UNL A   1      42.612  30.141  33.306  1.00  0.00    -0.354 N 
ATOM     33  N   UNL A   1      42.522  32.624  31.727  1.00  0.00    -0.248 NA
ATOM     34  C   UNL A   1      41.418  34.568  31.053  1.00  0.00     0.031 C 
ATOM     35  C   UNL A   1      40.939  29.736  34.708  1.00  0.00     0.029 A 
ATOM     36  C   UNL A   1      41.405  30.642  33.768  1.00  0.00     0.049 A 
ATOM     37  H   UNL A   1      43.177  30.570  32.624  1.00  0.00     0.167 HD
ATOM     38  C   UNL A   1      41.319  32.721  32.412  1.00  0.00     0.074 A 
ATOM     39  C   UNL A   1      40.690  33.951  31.974  1.00  0.00     0.031 C 
ATOM     40  C   UNL A   1      40.790  31.870  33.325  1.00  0.00     0.037 A 
BRANCH  27  41
ATOM     41  C   UNL A   1      44.173  26.790  34.354  1.00  0.00     0.064 A 
ATOM     42  C   UNL A   1      44.604  26.668  35.684  1.00  0.00     0.173 A 
ATOM     43  C   UNL A   1      43.833  25.612  33.669  1.00  0.00     0.173 A 
ATOM     44  F   UNL A   1      44.946  27.759  36.387  1.00  0.00    -0.203 F 
ATOM     45  C   UNL A   1      44.739  25.418  36.284  1.00  0.00     0.198 A 
ATOM     46  C   UNL A   1      43.932  24.367  34.285  1.00  0.00     0.198 A 
ATOM     47  F   UNL A   1      43.402  25.667  32.400  1.00  0.00    -0.203 F 
ATOM     48  F   UNL A   1      45.219  25.325  37.532  1.00  0.00    -0.200 F 
ATOM     49  C   UNL A   1      44.398  24.269  35.587  1.00  0.00     0.200 A 
ATOM     50  F   UNL A   1      43.584  23.260  33.614  1.00  0.00    -0.200 F 
ATOM     51  F   UNL A   1      44.530  23.068  36.165  1.00  0.00    -0.200 F 
ENDBRANCH  27  41
BRANCH  28  52
ATOM     52  C   UNL A   1      43.566  35.320  29.177  1.00  0.00     0.064 A 
ATOM     53  C   UNL A   1      43.220  35.238  27.823  1.00  0.00     0.173 A 
ATOM     54  C   UNL A   1      43.746  36.597  29.730  1.00  0.00     0.173 A 
ATOM     55  F   UNL A   1      43.050  34.040  27.245  1.00  0.00    -0.203 F 
ATOM     56  C   UNL A   1      43.063  36.389  27.052  1.00  0.00     0.198 A 
ATOM     57  C   UNL A   1      43.559  37.747  28.968  1.00  0.00     0.198 A 
ATOM     58  F   UNL A   1      44.066  36.727  31.027  1.00  0.00    -0.203 F 
ATOM     59  F   UNL A   1      42.760  36.284  25.751  1.00  0.00    -0.200 F 
ATOM     60  C   UNL A   1      43.223  37.642  27.627  1.00  0.00     0.200 A 
ATOM     61  F   UNL A   1      43.690  38.954  29.535  1.00  0.00    -0.200 F 
ATOM     62  F   UNL A   1      43.052  38.746  26.889  1.00  0.00    -0.200 F 
ENDBRANCH  28  52
BRANCH  40  63
ATOM     63  C   UNL A   1      39.479  32.251  33.951  1.00  0.00     0.064 A 
ATOM     64  C   UNL A   1      39.408  33.099  35.065  1.00  0.00     0.173 A 
ATOM     65  C   UNL A   1      38.273  31.815  33.378  1.00  0.00     0.173 A 
ATOM     66  F   UNL A   1      40.530  33.528  35.661  1.00  0.00    -0.203 F 
ATOM     67  C   UNL A   1      38.176  33.489  35.589  1.00  0.00     0.198 A 
ATOM     68  C   UNL A   1      37.046  32.233  33.884  1.00  0.00     0.198 A 
ATOM     69  F   UNL A   1      38.287  31.005  32.309  1.00  0.00    -0.203 F 
ATOM     70  F   UNL A   1      38.131  34.271  36.676  1.00  0.00    -0.200 F 
ATOM     71  C   UNL A   1      36.998  33.066  34.991  1.00  0.00     0.200 A 
ATOM     72  F   UNL A   1      35.910  31.836  33.294  1.00  0.00    -0.200 F 
ATOM     73  F   UNL A   1      35.816  33.459  35.484  1.00  0.00    -0.200 F 
ENDBRANCH  40  63
ENDBRANCH  14  15
ENDBRANCH   7   9
ENDBRANCH   4   5
ENDBRANCH   3   4
ENDBRANCH   2   3
ENDBRANCH   1   2
BRANCH   1  74
ATOM     74  C   UNL A   1      47.225  27.266  24.451  1.00  0.00     0.021 C 
BRANCH  74  75
ATOM     75  C   UNL A   1      45.907  26.747  24.999  1.00  0.00     0.116 C 
BRANCH  75  76
ATOM     76  N   UNL A   1      44.740  27.541  24.723  1.00  0.00    -0.352 N 
ATOM     77  C   UNL A   1      43.419  27.292  25.028  1.00  0.00     0.255 C 
ATOM     78  H   UNL A   1      44.910  28.385  24.247  1.00  0.00     0.163 HD
ATOM     79  O   UNL A   1      42.572  28.093  24.631  1.00  0.00    -0.269 OA
BRANCH  77  80
ATOM     80  C   UNL A   1      42.950  26.044  25.716  1.00  0.00     0.087 A 
ATOM     81  C   UNL A   1      42.907  24.906  24.885  1.00  0.00     0.019 A 
ATOM     82  C   UNL A   1      42.576  25.902  27.073  1.00  0.00     0.150 A 
ATOM     83  C   UNL A   1      42.512  23.658  25.376  1.00  0.00     0.020 A 
ATOM     84  C   UNL A   1      42.159  24.647  27.555  1.00  0.00     0.072 A 
ATOM     85  C   UNL A   1      42.134  23.540  26.711  1.00  0.00     0.059 A 
BRANCH  82  86
ATOM     86  N   UNL A   1      42.585  26.966  27.992  1.00  0.00    -0.153 N 
ATOM     87  C   UNL A   1      41.489  27.760  28.209  1.00  0.00     0.385 C 
ATOM     88  C   UNL A   1      43.579  27.350  28.864  1.00  0.00     0.295 C 
ATOM     89  O   UNL A   1      40.366  27.659  27.746  1.00  0.00    -0.236 OA
ATOM     90  C   UNL A   1      41.989  28.733  29.231  1.00  0.00     0.215 C 
ATOM     91  N   UNL A   1      43.271  28.373  29.616  1.00  0.00    -0.233 N 
ATOM     92  C   UNL A   1      41.343  29.829  29.660  1.00  0.00     0.060 C 
ATOM     93  H   UNL A   1      43.828  28.796  30.308  1.00  0.00     0.312 HD
BRANCH  88  94
ATOM     94  C   UNL A   1      44.939  26.728  28.900  1.00  0.00     0.065 A 
ATOM     95  C   UNL A   1      45.135  25.605  29.709  1.00  0.00     0.017 A 
ATOM     96  C   UNL A   1      46.045  27.256  28.213  1.00  0.00     0.017 A 
ATOM     97  C   UNL A   1      46.405  25.024  29.815  1.00  0.00     0.001 A 
ATOM     98  C   UNL A   1      47.317  26.696  28.344  1.00  0.00     0.001 A 
ATOM     99  C   UNL A   1      47.496  25.576  29.144  1.00  0.00     0.000 A 
ENDBRANCH  88  94
BRANCH  92 100
ATOM    100  C   UNL A   1      40.019  30.254  29.245  1.00  0.00     0.005 C 
ATOM    101  C   UNL A   1      39.439  31.415  29.587  1.00  0.00     0.008 C 
BRANCH 101 102
ATOM    102  C   UNL A   1      38.060  31.739  29.178  1.00  0.00    -0.026 A 
ATOM    103  C   UNL A   1      37.326  30.833  28.403  1.00  0.00     0.008 A 
ATOM    104  C   UNL A   1      37.473  32.970  29.510  1.00  0.00     0.008 A 
ATOM    105  C   UNL A   1      36.022  31.140  27.998  1.00  0.00     0.001 A 
ATOM    106  C   UNL A   1      36.172  33.276  29.104  1.00  0.00     0.001 A 
ATOM    107  C   UNL A   1      35.445  32.359  28.350  1.00  0.00     0.000 A 
ENDBRANCH 101 102
ENDBRANCH  92 100
ENDBRANCH  82  86
BRANCH  85 108
ATOM    108  S   UNL A   1      41.619  21.965  27.331  1.00  0.00     0.124 S 
ATOM    109  O   UNL A   1      41.806  21.969  28.763  1.00  0.00    -0.237 OA
ATOM    110  O   UNL A   1      40.344  21.656  26.724  1.00  0.00    -0.237 OA
ATOM    111  O   UNL A   1      42.676  20.897  26.739  1.00  0.00    -0.744 OA
ENDBRANCH  85 108
ENDBRANCH  77  80
ENDBRANCH  75  76
ENDBRANCH  74  75
ENDBRANCH   1  74
TORSDOF 18
ENDMDL
MODEL 2
REMARK VINA RESULT:      -9.1      3.884      8.382
REMARK SMILES O=C(NCCCCCCNC(=O)c1ccc(S(=O)(=O)[O-])cc1N1C(=O)/C(=C\C=C\c2ccccc2)[NH+]=C1c1ccccc1)c1ccc(-c2c3nc(c(-c4c(F)c(F)c(F)c(F)c4F)c4ccc([nH]4)c(-c4c(F)c(F)c(F)c(F)c4F)c4nc(c(-c5c(F)c(F)c(F)c(F)c5F)c5ccc2[nH]5)C=C4)C=C3)cc1
REMARK SMILES IDX 7 1 6 2 5 3 4 4 3 5 1 6 2 7 44 9 45 10 106 11 46 12 105 13
REMARK SMILES IDX 47 14 48 15 49 16 99 17 50 18 104 19 98 20 100 21 51 22
REMARK SMILES IDX 103 23 97 24 96 25 52 27 84 28 64 29 83 30 65 31 68 32 82 33
REMARK SMILES IDX 101 34 66 35 67 36 81 38 102 39 69 40 53 41 54 42 62 43
REMARK SMILES IDX 55 44 56 45 60 46 63 47 57 48 58 49 61 50 59 51 85 52 86 53
REMARK SMILES IDX 94 54 87 55 88 56 92 57 95 58 89 59 90 60 93 61 91 62 70 63
REMARK SMILES IDX 71 64 79 65 72 66 73 67 77 68 80 69 74 70 75 71 78 72 76 73
REMARK SMILES IDX 8 74 9 75 10 76 11 77 12 79 13 80 14 81 22 82 15 83 21 84
REMARK SMILES IDX 16 85 23 86 24 87 37 88 25 89 26 90 36 91 27 92 38 94 39 95
REMARK SMILES IDX 43 96 40 97 42 98 41 99 28 100 29 101 30 102 31 103 35 104
REMARK SMILES IDX 32 105 34 106 33 107 17 108 18 109 19 110 20 111
REMARK H PARENT 3 8 100 26 68 37 10 78 36 93
REMARK Flexibility Score: inf
ROOT
ATOM      1  C   UNL A   1      45.261  24.741  32.401  1.00  0.00     0.002 C 
ENDROOT
BRANCH   1   2
ATOM      2  C   UNL A   1      45.165  23.766  33.583  1.00  0.00     0.002 C 
BRANCH   2   3
ATOM      3  C   UNL A   1      46.431  23.611  34.430  1.00  0.00     0.021 C 
BRANCH   3   4
ATOM      4  C   UNL A   1      47.473  24.707  34.236  1.00  0.00     0.116 C 
BRANCH   4   5
ATOM      5  N   UNL A   1      47.753  25.424  35.470  1.00  0.00    -0.352 N 
ATOM      6  O   UNL A   1      47.723  27.154  36.913  1.00  0.00    -0.269 OA
ATOM      7  C   UNL A   1      47.221  26.594  35.944  1.00  0.00     0.251 C 
ATOM      8  H   UNL A   1      48.425  25.003  36.054  1.00  0.00     0.163 HD
BRANCH   7   9
ATOM      9  C   UNL A   1      46.043  27.187  35.282  1.00  0.00     0.039 A 
ATOM     10  C   UNL A   1      46.196  28.174  34.305  1.00  0.00     0.014 A 
ATOM     11  C   UNL A   1      44.770  26.719  35.618  1.00  0.00     0.014 A 
ATOM     12  C   UNL A   1      45.074  28.775  33.746  1.00  0.00     0.010 A 
ATOM     13  C   UNL A   1      43.647  27.265  34.996  1.00  0.00     0.010 A 
ATOM     14  C   UNL A   1      43.791  28.309  34.068  1.00  0.00    -0.014 A 
BRANCH  14  15
ATOM     15  C   UNL A   1      42.607  28.867  33.371  1.00  0.00     0.031 A 
ATOM     16  C   UNL A   1      42.264  28.444  31.974  1.00  0.00     0.074 A 
ATOM     17  C   UNL A   1      41.860  29.791  34.004  1.00  0.00     0.049 A 
ATOM     18  N   UNL A   1      41.312  28.880  31.189  1.00  0.00    -0.248 NA
ATOM     19  C   UNL A   1      43.109  27.402  31.374  1.00  0.00     0.031 C 
ATOM     20  C   UNL A   1      42.112  30.286  35.359  1.00  0.00     0.029 A 
ATOM     21  N   UNL A   1      40.754  30.488  33.592  1.00  0.00    -0.354 N 
ATOM     22  C   UNL A   1      41.455  28.185  29.996  1.00  0.00     0.074 A 
ATOM     23  C   UNL A   1      42.605  27.319  30.151  1.00  0.00     0.031 C 
ATOM     24  C   UNL A   1      41.183  31.201  35.670  1.00  0.00     0.029 A 
ATOM     25  C   UNL A   1      40.317  31.407  34.515  1.00  0.00     0.049 A 
ATOM     26  H   UNL A   1      40.316  30.345  32.722  1.00  0.00     0.167 HD
ATOM     27  C   UNL A   1      40.693  28.265  28.878  1.00  0.00     0.037 A 
ATOM     28  C   UNL A   1      39.354  32.342  34.428  1.00  0.00     0.037 A 
ATOM     29  C   UNL A   1      39.554  29.139  28.741  1.00  0.00     0.049 A 
ATOM     30  C   UNL A   1      38.550  32.445  33.164  1.00  0.00     0.074 A 
ATOM     31  C   UNL A   1      38.684  29.260  27.673  1.00  0.00     0.029 A 
ATOM     32  N   UNL A   1      39.142  30.060  29.697  1.00  0.00    -0.354 N 
ATOM     33  N   UNL A   1      38.654  31.743  32.062  1.00  0.00    -0.248 NA
ATOM     34  C   UNL A   1      37.493  33.464  33.131  1.00  0.00     0.031 C 
ATOM     35  C   UNL A   1      37.793  30.302  27.949  1.00  0.00     0.029 A 
ATOM     36  C   UNL A   1      38.055  30.780  29.224  1.00  0.00     0.049 A 
ATOM     37  H   UNL A   1      39.560  30.183  30.579  1.00  0.00     0.167 HD
ATOM     38  C   UNL A   1      37.666  32.218  31.212  1.00  0.00     0.074 A 
ATOM     39  C   UNL A   1      36.966  33.263  31.931  1.00  0.00     0.031 C 
ATOM     40  C   UNL A   1      37.365  31.818  29.952  1.00  0.00     0.037 A 
BRANCH  27  41
ATOM     41  C   UNL A   1      41.091  27.417  27.703  1.00  0.00     0.064 A 
ATOM     42  C   UNL A   1      40.621  26.106  27.535  1.00  0.00     0.173 A 
ATOM     43  C   UNL A   1      41.953  27.931  26.720  1.00  0.00     0.173 A 
ATOM     44  F   UNL A   1      39.798  25.561  28.444  1.00  0.00    -0.203 F 
ATOM     45  C   UNL A   1      41.036  25.326  26.458  1.00  0.00     0.198 A 
ATOM     46  C   UNL A   1      42.335  27.161  25.624  1.00  0.00     0.198 A 
ATOM     47  F   UNL A   1      42.425  29.182  26.820  1.00  0.00    -0.203 F 
ATOM     48  F   UNL A   1      40.626  24.053  26.358  1.00  0.00    -0.200 F 
ATOM     49  C   UNL A   1      41.888  25.855  25.501  1.00  0.00     0.200 A 
ATOM     50  F   UNL A   1      43.145  27.682  24.691  1.00  0.00    -0.200 F 
ATOM     51  F   UNL A   1      42.288  25.102  24.467  1.00  0.00    -0.200 F 
ENDBRANCH  27  41
BRANCH  28  52
ATOM     52  C   UNL A   1      39.133  33.260  35.574  1.00  0.00     0.064 A 
ATOM     53  C   UNL A   1      38.376  32.865  36.684  1.00  0.00     0.173 A 
ATOM     54  C   UNL A   1      39.725  34.532  35.606  1.00  0.00     0.173 A 
ATOM     55  F   UNL A   1      37.780  31.664  36.695  1.00  0.00    -0.203 F 
ATOM     56  C   UNL A   1      38.215  33.710  37.780  1.00  0.00     0.198 A 
ATOM     57  C   UNL A   1      39.591  35.363  36.715  1.00  0.00     0.198 A 
ATOM     58  F   UNL A   1      40.470  34.951  34.571  1.00  0.00    -0.203 F 
ATOM     59  F   UNL A   1      37.463  33.320  38.818  1.00  0.00    -0.200 F 
ATOM     60  C   UNL A   1      38.831  34.954  37.799  1.00  0.00     0.200 A 
ATOM     61  F   UNL A   1      40.207  36.553  36.737  1.00  0.00    -0.200 F 
ATOM     62  F   UNL A   1      38.692  35.756  38.863  1.00  0.00    -0.200 F 
ENDBRANCH  28  52
BRANCH  40  63
ATOM     63  C   UNL A   1      36.200  32.480  29.273  1.00  0.00     0.064 A 
ATOM     64  C   UNL A   1      35.033  31.775  28.948  1.00  0.00     0.173 A 
ATOM     65  C   UNL A   1      36.231  33.859  29.011  1.00  0.00     0.173 A 
ATOM     66  F   UNL A   1      34.959  30.453  29.161  1.00  0.00    -0.203 F 
ATOM     67  C   UNL A   1      33.941  32.426  28.376  1.00  0.00     0.198 A 
ATOM     68  C   UNL A   1      35.127  34.511  28.469  1.00  0.00     0.198 A 
ATOM     69  F   UNL A   1      37.324  34.579  29.306  1.00  0.00    -0.203 F 
ATOM     70  F   UNL A   1      32.848  31.727  28.040  1.00  0.00    -0.200 F 
ATOM     71  C   UNL A   1      33.985  33.794  28.148  1.00  0.00     0.200 A 
ATOM     72  F   UNL A   1      35.166  35.835  28.267  1.00  0.00    -0.200 F 
ATOM     73  F   UNL A   1      32.927  34.421  27.618  1.00  0.00    -0.200 F 
ENDBRANCH  40  63
ENDBRANCH  14  15
ENDBRANCH   7   9
ENDBRANCH   4   5
ENDBRANCH   3   4
ENDBRANCH   2   3
ENDBRANCH   1   2
BRANCH   1  74
ATOM     74  C   UNL A   1      44.638  24.262  31.093  1.00  0.00     0.021 C 
BRANCH  74  75
ATOM     75  C   UNL A   1      45.237  24.882  29.843  1.00  0.00     0.116 C 
BRANCH  75  76
ATOM     76  N   UNL A   1      46.665  24.795  29.703  1.00  0.00    -0.352 N 
ATOM     77  C   UNL A   1      47.546  25.686  29.128  1.00  0.00     0.255 C 
ATOM     78  H   UNL A   1      47.074  23.978  30.071  1.00  0.00     0.163 HD
ATOM     79  O   UNL A   1      48.733  25.367  29.063  1.00  0.00    -0.269 OA
BRANCH  77  80
ATOM     80  C   UNL A   1      47.118  26.968  28.478  1.00  0.00     0.087 A 
ATOM     81  C   UNL A   1      46.923  28.037  29.378  1.00  0.00     0.019 A 
ATOM     82  C   UNL A   1      46.914  27.204  27.098  1.00  0.00     0.150 A 
ATOM     83  C   UNL A   1      46.544  29.306  28.932  1.00  0.00     0.020 A 
ATOM     84  C   UNL A   1      46.511  28.480  26.659  1.00  0.00     0.072 A 
ATOM     85  C   UNL A   1      46.334  29.517  27.572  1.00  0.00     0.059 A 
BRANCH  82  86
ATOM     86  N   UNL A   1      47.083  26.216  26.112  1.00  0.00    -0.153 N 
ATOM     87  C   UNL A   1      46.134  25.260  25.859  1.00  0.00     0.385 C 
ATOM     88  C   UNL A   1      48.106  26.062  25.205  1.00  0.00     0.295 C 
ATOM     89  O   UNL A   1      45.021  25.138  26.342  1.00  0.00    -0.236 OA
ATOM     90  C   UNL A   1      46.767  24.451  24.771  1.00  0.00     0.215 C 
ATOM     91  N   UNL A   1      47.959  25.049  24.392  1.00  0.00    -0.233 N 
ATOM     92  C   UNL A   1      46.308  23.289  24.281  1.00  0.00     0.060 C 
ATOM     93  H   UNL A   1      48.564  24.772  23.668  1.00  0.00     0.312 HD
BRANCH  88  94
ATOM     94  C   UNL A   1      49.339  26.910  25.191  1.00  0.00     0.065 A 
ATOM     95  C   UNL A   1      49.744  27.473  23.978  1.00  0.00     0.017 A 
ATOM     96  C   UNL A   1      50.146  27.114  26.323  1.00  0.00     0.017 A 
ATOM     97  C   UNL A   1      50.922  28.228  23.908  1.00  0.00     0.001 A 
ATOM     98  C   UNL A   1      51.335  27.839  26.246  1.00  0.00     0.001 A 
ATOM     99  C   UNL A   1      51.722  28.400  25.038  1.00  0.00     0.000 A 
ENDBRANCH  88  94
BRANCH  92 100
ATOM    100  C   UNL A   1      45.087  22.618  24.684  1.00  0.00     0.005 C 
ATOM    101  C   UNL A   1      45.028  21.428  25.304  1.00  0.00     0.008 C 
BRANCH 101 102
ATOM    102  C   UNL A   1      43.739  20.785  25.618  1.00  0.00    -0.026 A 
ATOM    103  C   UNL A   1      43.592  19.399  25.474  1.00  0.00     0.008 A 
ATOM    104  C   UNL A   1      42.627  21.541  26.020  1.00  0.00     0.008 A 
ATOM    105  C   UNL A   1      42.367  18.784  25.756  1.00  0.00     0.001 A 
ATOM    106  C   UNL A   1      41.405  20.925  26.300  1.00  0.00     0.001 A 
ATOM    107  C   UNL A   1      41.276  19.545  26.170  1.00  0.00     0.000 A 
ENDBRANCH 101 102
ENDBRANCH  92 100
ENDBRANCH  82  86
BRANCH  85 108
ATOM    108  S   UNL A   1      45.839  31.119  27.007  1.00  0.00     0.124 S 
ATOM    109  O   UNL A   1      44.437  31.283  27.312  1.00  0.00    -0.237 OA
ATOM    110  O   UNL A   1      46.837  32.063  27.455  1.00  0.00    -0.237 OA
ATOM    111  O   UNL A   1      45.950  31.067  25.398  1.00  0.00    -0.744 OA
ENDBRANCH  85 108
ENDBRANCH  77  80
ENDBRANCH  75  76
ENDBRANCH  74  75
ENDBRANCH   1  74
TORSDOF 18
ENDMDL
MODEL 3
REMARK VINA RESULT:      -9.0      4.485     10.315
REMARK SMILES O=C(NCCCCCCNC(=O)c1ccc(S(=O)(=O)[O-])cc1N1C(=O)/C(=C\C=C\c2ccccc2)[NH+]=C1c1ccccc1)c1ccc(-c2c3nc(c(-c4c(F)c(F)c(F)c(F)c4F)c4ccc([nH]4)c(-c4c(F)c(F)c(F)c(F)c4F)c4nc(c(-c5c(F)c(F)c(F)c(F)c5F)c5ccc2[nH]5)C=C4)C=C3)cc1
REMARK SMILES IDX 7 1 6 2 5 3 4 4 3 5 1 6 2 7 44 9 45 10 106 11 46 12 105 13
REMARK SMILES IDX 47 14 48 15 49 16 99 17 50 18 104 19 98 20 100 21 51 22
REMARK SMILES IDX 103 23 97 24 96 25 52 27 84 28 64 29 83 30 65 31 68 32 82 33
REMARK SMILES IDX 101 34 66 35 67 36 81 38 102 39 69 40 53 41 54 42 62 43
REMARK SMILES IDX 55 44 56 45 60 46 63 47 57 48 58 49 61 50 59 51 85 52 86 53
REMARK SMILES IDX 94 54 87 55 88 56 92 57 95 58 89 59 90 60 93 61 91 62 70 63
REMARK SMILES IDX 71 64 79 65 72 66 73 67 77 68 80 69 74 70 75 71 78 72 76 73
REMARK SMILES IDX 8 74 9 75 10 76 11 77 12 79 13 80 14 81 22 82 15 83 21 84
REMARK SMILES IDX 16 85 23 86 24 87 37 88 25 89 26 90 36 91 27 92 38 94 39 95
REMARK SMILES IDX 43 96 40 97 42 98 41 99 28 100 29 101 30 102 31 103 35 104
REMARK SMILES IDX 32 105 34 106 33 107 17 108 18 109 19 110 20 111
REMARK H PARENT 3 8 100 26 68 37 10 78 36 93
REMARK Flexibility Score: inf
ROOT
ATOM      1  C   UNL A   1      44.231  36.176  32.582  1.00  0.00     0.002 C 
ENDROOT
BRANCH   1   2
ATOM      2  C   UNL A   1      44.609  37.648  32.365  1.00  0.00     0.002 C 
BRANCH   2   3
ATOM      3  C   UNL A   1      43.950  38.341  31.170  1.00  0.00     0.021 C 
BRANCH   3   4
ATOM      4  C   UNL A   1      44.089  37.605  29.842  1.00  0.00     0.116 C 
BRANCH   4   5
ATOM      5  N   UNL A   1      45.437  37.693  29.304  1.00  0.00    -0.352 N 
ATOM      6  O   UNL A   1      47.467  36.948  28.668  1.00  0.00    -0.269 OA
ATOM      7  C   UNL A   1      46.291  36.697  28.910  1.00  0.00     0.251 C 
ATOM      8  H   UNL A   1      45.790  38.607  29.207  1.00  0.00     0.163 HD
BRANCH   7   9
ATOM      9  C   UNL A   1      45.795  35.312  28.782  1.00  0.00     0.039 A 
ATOM     10  C   UNL A   1      45.088  34.910  27.646  1.00  0.00     0.014 A 
ATOM     11  C   UNL A   1      46.079  34.395  29.797  1.00  0.00     0.014 A 
ATOM     12  C   UNL A   1      44.565  33.624  27.575  1.00  0.00     0.010 A 
ATOM     13  C   UNL A   1      45.624  33.080  29.687  1.00  0.00     0.010 A 
ATOM     14  C   UNL A   1      44.849  32.691  28.582  1.00  0.00    -0.014 A 
BRANCH  14  15
ATOM     15  C   UNL A   1      44.397  31.287  28.436  1.00  0.00     0.031 A 
ATOM     16  C   UNL A   1      45.210  30.290  27.667  1.00  0.00     0.074 A 
ATOM     17  C   UNL A   1      43.218  30.928  28.981  1.00  0.00     0.049 A 
ATOM     18  N   UNL A   1      44.933  29.044  27.378  1.00  0.00    -0.248 NA
ATOM     19  C   UNL A   1      46.500  30.758  27.142  1.00  0.00     0.031 C 
ATOM     20  C   UNL A   1      42.338  31.820  29.738  1.00  0.00     0.029 A 
ATOM     21  N   UNL A   1      42.551  29.730  28.969  1.00  0.00    -0.354 N 
ATOM     22  C   UNL A   1      46.001  28.584  26.620  1.00  0.00     0.074 A 
ATOM     23  C   UNL A   1      46.917  29.694  26.468  1.00  0.00     0.031 C 
ATOM     24  C   UNL A   1      41.251  31.138  30.125  1.00  0.00     0.029 A 
ATOM     25  C   UNL A   1      41.325  29.786  29.585  1.00  0.00     0.049 A 
ATOM     26  H   UNL A   1      42.915  28.911  28.560  1.00  0.00     0.167 HD
ATOM     27  C   UNL A   1      46.193  27.347  26.101  1.00  0.00     0.037 A 
ATOM     28  C   UNL A   1      40.347  28.866  29.669  1.00  0.00     0.037 A 
ATOM     29  C   UNL A   1      45.264  26.254  26.258  1.00  0.00     0.049 A 
ATOM     30  C   UNL A   1      40.562  27.515  29.050  1.00  0.00     0.074 A 
ATOM     31  C   UNL A   1      45.387  24.949  25.818  1.00  0.00     0.029 A 
ATOM     32  N   UNL A   1      44.029  26.348  26.886  1.00  0.00    -0.354 N 
ATOM     33  N   UNL A   1      41.599  27.070  28.384  1.00  0.00    -0.248 NA
ATOM     34  C   UNL A   1      39.475  26.538  29.195  1.00  0.00     0.031 C 
ATOM     35  C   UNL A   1      44.199  24.274  26.113  1.00  0.00     0.029 A 
ATOM     36  C   UNL A   1      43.363  25.134  26.808  1.00  0.00     0.049 A 
ATOM     37  H   UNL A   1      43.677  27.158  27.321  1.00  0.00     0.167 HD
ATOM     38  C   UNL A   1      41.303  25.756  28.048  1.00  0.00     0.074 A 
ATOM     39  C   UNL A   1      39.990  25.475  28.593  1.00  0.00     0.031 C 
ATOM     40  C   UNL A   1      42.056  24.866  27.357  1.00  0.00     0.037 A 
BRANCH  27  41
ATOM     41  C   UNL A   1      47.433  27.122  25.281  1.00  0.00     0.064 A 
ATOM     42  C   UNL A   1      48.567  26.480  25.803  1.00  0.00     0.173 A 
ATOM     43  C   UNL A   1      47.483  27.547  23.944  1.00  0.00     0.173 A 
ATOM     44  F   UNL A   1      48.578  26.056  27.076  1.00  0.00    -0.203 F 
ATOM     45  C   UNL A   1      49.718  26.319  25.036  1.00  0.00     0.198 A 
ATOM     46  C   UNL A   1      48.623  27.349  23.168  1.00  0.00     0.198 A 
ATOM     47  F   UNL A   1      46.426  28.154  23.386  1.00  0.00    -0.203 F 
ATOM     48  F   UNL A   1      50.811  25.766  25.581  1.00  0.00    -0.200 F 
ATOM     49  C   UNL A   1      49.744  26.749  23.718  1.00  0.00     0.200 A 
ATOM     50  F   UNL A   1      48.638  27.749  21.889  1.00  0.00    -0.200 F 
ATOM     51  F   UNL A   1      50.853  26.594  22.982  1.00  0.00    -0.200 F 
ENDBRANCH  27  41
BRANCH  28  52
ATOM     52  C   UNL A   1      39.078  29.222  30.351  1.00  0.00     0.064 A 
ATOM     53  C   UNL A   1      38.964  29.171  31.746  1.00  0.00     0.173 A 
ATOM     54  C   UNL A   1      37.969  29.677  29.621  1.00  0.00     0.173 A 
ATOM     55  F   UNL A   1      39.992  28.730  32.486  1.00  0.00    -0.203 F 
ATOM     56  C   UNL A   1      37.787  29.556  32.385  1.00  0.00     0.198 A 
ATOM     57  C   UNL A   1      36.804  30.092  30.262  1.00  0.00     0.198 A 
ATOM     58  F   UNL A   1      38.033  29.755  28.283  1.00  0.00    -0.203 F 
ATOM     59  F   UNL A   1      37.693  29.472  33.719  1.00  0.00    -0.200 F 
ATOM     60  C   UNL A   1      36.712  30.027  31.643  1.00  0.00     0.200 A 
ATOM     61  F   UNL A   1      35.779  30.567  29.542  1.00  0.00    -0.200 F 
ATOM     62  F   UNL A   1      35.589  30.416  32.261  1.00  0.00    -0.200 F 
ENDBRANCH  28  52
BRANCH  40  63
ATOM     63  C   UNL A   1      41.503  23.481  27.178  1.00  0.00     0.064 A 
ATOM     64  C   UNL A   1      40.388  23.227  26.367  1.00  0.00     0.173 A 
ATOM     65  C   UNL A   1      42.146  22.384  27.774  1.00  0.00     0.173 A 
ATOM     66  F   UNL A   1      39.726  24.241  25.790  1.00  0.00    -0.203 F 
ATOM     67  C   UNL A   1      39.931  21.926  26.166  1.00  0.00     0.198 A 
ATOM     68  C   UNL A   1      41.707  21.084  27.545  1.00  0.00     0.198 A 
ATOM     69  F   UNL A   1      43.218  22.573  28.557  1.00  0.00    -0.203 F 
ATOM     70  F   UNL A   1      38.842  21.708  25.416  1.00  0.00    -0.200 F 
ATOM     71  C   UNL A   1      40.598  20.855  26.745  1.00  0.00     0.200 A 
ATOM     72  F   UNL A   1      42.363  20.051  28.092  1.00  0.00    -0.200 F 
ATOM     73  F   UNL A   1      40.170  19.604  26.534  1.00  0.00    -0.200 F 
ENDBRANCH  40  63
ENDBRANCH  14  15
ENDBRANCH   7   9
ENDBRANCH   4   5
ENDBRANCH   3   4
ENDBRANCH   2   3
ENDBRANCH   1   2
BRANCH   1  74
ATOM     74  C   UNL A   1      44.151  35.717  34.035  1.00  0.00     0.021 C 
BRANCH  74  75
ATOM     75  C   UNL A   1      42.744  35.659  34.603  1.00  0.00     0.116 C 
BRANCH  75  76
ATOM     76  N   UNL A   1      41.670  35.563  33.652  1.00  0.00    -0.352 N 
ATOM     77  C   UNL A   1      40.871  34.485  33.337  1.00  0.00     0.255 C 
ATOM     78  H   UNL A   1      41.478  36.389  33.153  1.00  0.00     0.163 HD
ATOM     79  O   UNL A   1      40.047  34.620  32.433  1.00  0.00    -0.269 OA
BRANCH  77  80
ATOM     80  C   UNL A   1      41.030  33.129  33.959  1.00  0.00     0.087 A 
ATOM     81  C   UNL A   1      42.238  32.479  33.631  1.00  0.00     0.019 A 
ATOM     82  C   UNL A   1      40.124  32.470  34.823  1.00  0.00     0.150 A 
ATOM     83  C   UNL A   1      42.551  31.217  34.144  1.00  0.00     0.020 A 
ATOM     84  C   UNL A   1      40.437  31.190  35.318  1.00  0.00     0.072 A 
ATOM     85  C   UNL A   1      41.642  30.578  34.982  1.00  0.00     0.059 A 
BRANCH  82  86
ATOM     86  N   UNL A   1      38.894  33.024  35.220  1.00  0.00    -0.153 N 
ATOM     87  C   UNL A   1      37.803  33.062  34.391  1.00  0.00     0.385 C 
ATOM     88  C   UNL A   1      38.524  33.520  36.449  1.00  0.00     0.295 C 
ATOM     89  O   UNL A   1      37.673  32.593  33.274  1.00  0.00    -0.236 OA
ATOM     90  C   UNL A   1      36.775  33.744  35.238  1.00  0.00     0.215 C 
ATOM     91  N   UNL A   1      37.289  33.943  36.510  1.00  0.00    -0.233 N 
ATOM     92  C   UNL A   1      35.571  34.172  34.826  1.00  0.00     0.060 C 
ATOM     93  H   UNL A   1      36.824  34.321  37.291  1.00  0.00     0.312 HD
BRANCH  88  94
ATOM     94  C   UNL A   1      39.462  33.663  37.606  1.00  0.00     0.065 A 
ATOM     95  C   UNL A   1      39.229  32.894  38.749  1.00  0.00     0.017 A 
ATOM     96  C   UNL A   1      40.527  34.579  37.623  1.00  0.00     0.017 A 
ATOM     97  C   UNL A   1      40.050  33.036  39.875  1.00  0.00     0.001 A 
ATOM     98  C   UNL A   1      41.325  34.743  38.756  1.00  0.00     0.001 A 
ATOM     99  C   UNL A   1      41.088  33.968  39.883  1.00  0.00     0.000 A 
ENDBRANCH  88  94
BRANCH  92 100
ATOM    100  C   UNL A   1      35.022  34.016  33.493  1.00  0.00     0.005 C 
ATOM    101  C   UNL A   1      35.101  34.930  32.513  1.00  0.00     0.008 C 
BRANCH 101 102
ATOM    102  C   UNL A   1      34.454  34.718  31.205  1.00  0.00    -0.026 A 
ATOM    103  C   UNL A   1      34.818  33.625  30.410  1.00  0.00     0.008 A 
ATOM    104  C   UNL A   1      33.500  35.622  30.710  1.00  0.00     0.008 A 
ATOM    105  C   UNL A   1      34.219  33.426  29.161  1.00  0.00     0.001 A 
ATOM    106  C   UNL A   1      32.903  35.423  29.463  1.00  0.00     0.001 A 
ATOM    107  C   UNL A   1      33.261  34.322  28.689  1.00  0.00     0.000 A 
ENDBRANCH 101 102
ENDBRANCH  92 100
ENDBRANCH  82  86
BRANCH  85 108
ATOM    108  S   UNL A   1      42.029  28.974  35.621  1.00  0.00     0.124 S 
ATOM    109  O   UNL A   1      42.609  29.147  36.932  1.00  0.00    -0.237 OA
ATOM    110  O   UNL A   1      40.878  28.129  35.396  1.00  0.00    -0.237 OA
ATOM    111  O   UNL A   1      43.206  28.402  34.676  1.00  0.00    -0.744 OA
ENDBRANCH  85 108
ENDBRANCH  77  80
ENDBRANCH  75  76
ENDBRANCH  74  75
ENDBRANCH   1  74
TORSDOF 18
ENDMDL
