MODEL 1
REMARK VINA RESULT:     -12.4      0.000      0.000
REMARK SMILES CC[C@H](C)N1C(=O)c2ccccc2[C@@H](C(=O)NCCCCCCNC(=O)c2ccc(-c3c4nc(c(-c5c(F)c(F)c(F)c(F)c5F)c5ccc([nH]5)c(-c5c(F)c(F)c(F)c(F)c5F)c5nc(c(-c6c(F)c(F)c(F)c(F)c6F)c6ccc3[nH]6)C=C5)C=C4)cc2)C12CCCCC2
REMARK SMILES IDX 20 1 19 2 18 3 17 4 15 5 16 6 14 8 5 9 6 10 90 11 7 12 8 13
REMARK SMILES IDX 91 14 95 15 9 16 13 17 92 18 94 19 10 20 12 21 93 22 11 23
REMARK SMILES IDX 3 24 4 25 2 26 1 27 21 28 22 29 23 30 24 31 25 32 26 34
REMARK SMILES IDX 27 35 28 36 89 37 29 38 88 39 30 40 31 41 32 42 82 43 33 44
REMARK SMILES IDX 87 45 81 46 83 47 34 48 86 49 80 50 79 51 35 53 67 54 47 55
REMARK SMILES IDX 66 56 48 57 51 58 65 59 84 60 49 61 50 62 64 64 85 65 52 66
REMARK SMILES IDX 36 67 37 68 45 69 38 70 39 71 43 72 46 73 40 74 41 75 44 76
REMARK SMILES IDX 42 77 68 78 69 79 77 80 70 81 71 82 75 83 78 84 72 85 73 86
REMARK SMILES IDX 76 87 74 88 53 89 54 90 62 91 55 92 56 93 60 94 63 95 57 96
REMARK SMILES IDX 58 97 61 98 59 99
REMARK H PARENT 17 7 24 33 83 52 51 63
REMARK Flexibility Score: inf
ROOT
ATOM      1  C   UNL A   1      35.876  21.754  24.429  1.00  0.00     0.002 C 
ENDROOT
BRANCH   1   2
ATOM      2  C   UNL A   1      35.290  22.193  25.772  1.00  0.00     0.021 C 
BRANCH   2   3
ATOM      3  C   UNL A   1      34.821  23.647  25.829  1.00  0.00     0.116 C 
BRANCH   3   4
ATOM      4  N   UNL A   1      33.706  23.834  26.743  1.00  0.00    -0.355 N 
ATOM      5  C   UNL A   1      32.444  24.320  26.587  1.00  0.00     0.229 C 
ATOM      6  O   UNL A   1      31.729  24.287  27.595  1.00  0.00    -0.274 OA
ATOM      7  H   UNL A   1      33.905  23.553  27.666  1.00  0.00     0.163 HD
BRANCH   5   8
ATOM      8  C   UNL A   1      31.869  24.803  25.237  1.00  0.00     0.135 C 
ATOM      9  N   UNL A   1      32.136  26.369  23.222  1.00  0.00    -0.329 N 
ATOM     10  C   UNL A   1      32.865  25.345  22.556  1.00  0.00     0.254 C 
ATOM     11  C   UNL A   1      32.171  26.316  24.766  1.00  0.00     0.059 C 
ATOM     12  O   UNL A   1      33.594  25.536  21.585  1.00  0.00    -0.269 OA
ATOM     13  C   UNL A   1      32.625  23.962  22.983  1.00  0.00     0.044 A 
ATOM     14  C   UNL A   1      33.569  26.871  25.159  1.00  0.00     0.030 C 
ATOM     15  C   UNL A   1      31.099  27.215  25.466  1.00  0.00     0.030 C 
ATOM     16  C   UNL A   1      32.950  22.911  22.111  1.00  0.00     0.014 A 
ATOM     17  C   UNL A   1      32.039  23.700  24.210  1.00  0.00    -0.020 A 
ATOM     18  C   UNL A   1      33.814  27.173  26.638  1.00  0.00     0.002 C 
ATOM     19  C   UNL A   1      31.321  27.446  26.967  1.00  0.00     0.002 C 
ATOM     20  C   UNL A   1      32.643  21.594  22.448  1.00  0.00     0.001 A 
ATOM     21  C   UNL A   1      31.676  22.371  24.515  1.00  0.00     0.005 A 
ATOM     22  C   UNL A   1      32.709  27.993  27.275  1.00  0.00     0.000 C 
ATOM     23  C   UNL A   1      31.985  21.327  23.643  1.00  0.00     0.000 A 
BRANCH   9  24
ATOM     24  C   UNL A   1      31.954  27.556  22.317  1.00  0.00     0.082 C 
ATOM     25  C   UNL A   1      30.435  27.835  22.180  1.00  0.00     0.031 C 
BRANCH  24  26
ATOM     26  C   UNL A   1      32.715  28.889  22.482  1.00  0.00     0.021 C 
ATOM     27  C   UNL A   1      34.239  28.795  22.516  1.00  0.00     0.006 C 
ENDBRANCH  24  26
ENDBRANCH   9  24
ENDBRANCH   5   8
ENDBRANCH   3   4
ENDBRANCH   2   3
ENDBRANCH   1   2
BRANCH   1  28
ATOM     28  C   UNL A   1      37.401  21.679  24.400  1.00  0.00     0.002 C 
BRANCH  28  29
ATOM     29  C   UNL A   1      37.989  20.417  25.030  1.00  0.00     0.021 C 
BRANCH  29  30
ATOM     30  C   UNL A   1      39.227  20.650  25.889  1.00  0.00     0.116 C 
BRANCH  30  31
ATOM     31  N   UNL A   1      40.097  19.485  25.938  1.00  0.00    -0.352 N 
ATOM     32  C   UNL A   1      41.460  19.463  26.115  1.00  0.00     0.251 C 
ATOM     33  H   UNL A   1      39.657  18.609  25.834  1.00  0.00     0.163 HD
ATOM     34  O   UNL A   1      42.108  18.434  25.977  1.00  0.00    -0.269 OA
BRANCH  32  35
ATOM     35  C   UNL A   1      42.130  20.734  26.447  1.00  0.00     0.039 A 
ATOM     36  C   UNL A   1      42.264  21.110  27.786  1.00  0.00     0.014 A 
ATOM     37  C   UNL A   1      42.517  21.593  25.418  1.00  0.00     0.014 A 
ATOM     38  C   UNL A   1      42.649  22.408  28.093  1.00  0.00     0.010 A 
ATOM     39  C   UNL A   1      42.980  22.872  25.735  1.00  0.00     0.010 A 
ATOM     40  C   UNL A   1      43.009  23.304  27.071  1.00  0.00    -0.014 A 
BRANCH  40  41
ATOM     41  C   UNL A   1      43.416  24.686  27.427  1.00  0.00     0.031 A 
ATOM     42  C   UNL A   1      42.396  25.716  27.828  1.00  0.00     0.074 A 
ATOM     43  C   UNL A   1      44.726  24.998  27.426  1.00  0.00     0.049 A 
ATOM     44  N   UNL A   1      42.577  26.970  28.162  1.00  0.00    -0.248 NA
ATOM     45  C   UNL A   1      40.988  25.289  27.853  1.00  0.00     0.031 C 
ATOM     46  C   UNL A   1      45.805  24.078  27.064  1.00  0.00     0.029 A 
ATOM     47  N   UNL A   1      45.374  26.160  27.758  1.00  0.00    -0.354 N 
ATOM     48  C   UNL A   1      41.312  27.484  28.415  1.00  0.00     0.074 A 
ATOM     49  C   UNL A   1      40.367  26.416  28.173  1.00  0.00     0.031 C 
ATOM     50  C   UNL A   1      46.983  24.694  27.240  1.00  0.00     0.029 A 
ATOM     51  C   UNL A   1      46.740  26.069  27.663  1.00  0.00     0.049 A 
ATOM     52  H   UNL A   1      44.905  26.979  28.038  1.00  0.00     0.167 HD
ATOM     53  C   UNL A   1      40.976  28.732  28.820  1.00  0.00     0.037 A 
ATOM     54  C   UNL A   1      47.693  26.994  27.875  1.00  0.00     0.037 A 
ATOM     55  C   UNL A   1      41.925  29.782  29.090  1.00  0.00     0.049 A 
ATOM     56  C   UNL A   1      47.291  28.378  28.294  1.00  0.00     0.074 A 
ATOM     57  C   UNL A   1      41.683  31.067  29.543  1.00  0.00     0.029 A 
ATOM     58  N   UNL A   1      43.299  29.666  28.932  1.00  0.00    -0.354 N 
ATOM     59  N   UNL A   1      46.092  28.849  28.536  1.00  0.00    -0.248 NA
ATOM     60  C   UNL A   1      48.369  29.360  28.458  1.00  0.00     0.031 C 
ATOM     61  C   UNL A   1      42.905  31.744  29.615  1.00  0.00     0.029 A 
ATOM     62  C   UNL A   1      43.914  30.866  29.253  1.00  0.00     0.049 A 
ATOM     63  H   UNL A   1      43.768  28.853  28.635  1.00  0.00     0.167 HD
ATOM     64  C   UNL A   1      46.270  30.180  28.885  1.00  0.00     0.074 A 
ATOM     65  C   UNL A   1      47.696  30.435  28.847  1.00  0.00     0.031 C 
ATOM     66  C   UNL A   1      45.335  31.107  29.201  1.00  0.00     0.037 A 
BRANCH  53  67
ATOM     67  C   UNL A   1      39.518  29.048  28.993  1.00  0.00     0.064 A 
ATOM     68  C   UNL A   1      38.704  29.392  27.905  1.00  0.00     0.173 A 
ATOM     69  C   UNL A   1      38.914  28.932  30.255  1.00  0.00     0.173 A 
ATOM     70  F   UNL A   1      39.234  29.525  26.681  1.00  0.00    -0.203 F 
ATOM     71  C   UNL A   1      37.341  29.625  28.076  1.00  0.00     0.198 A 
ATOM     72  C   UNL A   1      37.547  29.140  30.418  1.00  0.00     0.198 A 
ATOM     73  F   UNL A   1      39.646  28.599  31.328  1.00  0.00    -0.203 F 
ATOM     74  F   UNL A   1      36.588  29.983  27.027  1.00  0.00    -0.200 F 
ATOM     75  C   UNL A   1      36.762  29.489  29.329  1.00  0.00     0.200 A 
ATOM     76  F   UNL A   1      36.986  28.996  31.627  1.00  0.00    -0.200 F 
ATOM     77  F   UNL A   1      35.448  29.699  29.488  1.00  0.00    -0.200 F 
ENDBRANCH  53  67
BRANCH  54  78
ATOM     78  C   UNL A   1      49.119  26.623  27.688  1.00  0.00     0.064 A 
ATOM     79  C   UNL A   1      49.940  26.346  28.787  1.00  0.00     0.173 A 
ATOM     80  C   UNL A   1      49.671  26.485  26.405  1.00  0.00     0.173 A 
ATOM     81  F   UNL A   1      49.461  26.482  30.032  1.00  0.00    -0.203 F 
ATOM     82  C   UNL A   1      51.262  25.942  28.611  1.00  0.00     0.198 A 
ATOM     83  C   UNL A   1      50.984  26.055  26.230  1.00  0.00     0.198 A 
ATOM     84  F   UNL A   1      48.922  26.734  25.322  1.00  0.00    -0.203 F 
ATOM     85  F   UNL A   1      52.035  25.704  29.680  1.00  0.00    -0.200 F 
ATOM     86  C   UNL A   1      51.779  25.786  27.334  1.00  0.00     0.200 A 
ATOM     87  F   UNL A   1      51.472  25.888  24.994  1.00  0.00    -0.200 F 
ATOM     88  F   UNL A   1      53.044  25.377  27.165  1.00  0.00    -0.200 F 
ENDBRANCH  54  78
BRANCH  66  89
ATOM     89  C   UNL A   1      45.816  32.488  29.531  1.00  0.00     0.064 A 
ATOM     90  C   UNL A   1      45.907  33.482  28.546  1.00  0.00     0.173 A 
ATOM     91  C   UNL A   1      46.127  32.839  30.853  1.00  0.00     0.173 A 
ATOM     92  F   UNL A   1      45.635  33.190  27.265  1.00  0.00    -0.203 F 
ATOM     93  C   UNL A   1      46.305  34.776  28.872  1.00  0.00     0.198 A 
ATOM     94  C   UNL A   1      46.499  34.141  31.178  1.00  0.00     0.198 A 
ATOM     95  F   UNL A   1      46.049  31.925  31.831  1.00  0.00    -0.203 F 
ATOM     96  F   UNL A   1      46.417  35.701  27.909  1.00  0.00    -0.200 F 
ATOM     97  C   UNL A   1      46.590  35.106  30.187  1.00  0.00     0.200 A 
ATOM     98  F   UNL A   1      46.762  34.461  32.453  1.00  0.00    -0.200 F 
ATOM     99  F   UNL A   1      46.959  36.356  30.501  1.00  0.00    -0.200 F 
ENDBRANCH  66  89
ENDBRANCH  40  41
ENDBRANCH  32  35
ENDBRANCH  30  31
ENDBRANCH  29  30
ENDBRANCH  28  29
ENDBRANCH   1  28
TORSDOF 15
ENDMDL
MODEL 2
REMARK VINA RESULT:     -12.4      0.248      7.078
REMARK SMILES CC[C@H](C)N1C(=O)c2ccccc2[C@@H](C(=O)NCCCCCCNC(=O)c2ccc(-c3c4nc(c(-c5c(F)c(F)c(F)c(F)c5F)c5ccc([nH]5)c(-c5c(F)c(F)c(F)c(F)c5F)c5nc(c(-c6c(F)c(F)c(F)c(F)c6F)c6ccc3[nH]6)C=C5)C=C4)cc2)C12CCCCC2
REMARK SMILES IDX 20 1 19 2 18 3 17 4 15 5 16 6 14 8 5 9 6 10 90 11 7 12 8 13
REMARK SMILES IDX 91 14 95 15 9 16 13 17 92 18 94 19 10 20 12 21 93 22 11 23
REMARK SMILES IDX 3 24 4 25 2 26 1 27 21 28 22 29 23 30 24 31 25 32 26 34
REMARK SMILES IDX 27 35 28 36 89 37 29 38 88 39 30 40 31 41 32 42 82 43 33 44
REMARK SMILES IDX 87 45 81 46 83 47 34 48 86 49 80 50 79 51 35 53 67 54 47 55
REMARK SMILES IDX 66 56 48 57 51 58 65 59 84 60 49 61 50 62 64 64 85 65 52 66
REMARK SMILES IDX 36 67 37 68 45 69 38 70 39 71 43 72 46 73 40 74 41 75 44 76
REMARK SMILES IDX 42 77 68 78 69 79 77 80 70 81 71 82 75 83 78 84 72 85 73 86
REMARK SMILES IDX 76 87 74 88 53 89 54 90 62 91 55 92 56 93 60 94 63 95 57 96
REMARK SMILES IDX 58 97 61 98 59 99
REMARK H PARENT 17 7 24 33 83 52 51 63
REMARK Flexibility Score: inf
ROOT
ATOM      1  C   UNL A   1      35.884  21.661  24.779  1.00  0.00     0.002 C 
ENDROOT
BRANCH   1   2
ATOM      2  C   UNL A   1      35.641  22.509  26.029  1.00  0.00     0.021 C 
BRANCH   2   3
ATOM      3  C   UNL A   1      34.834  23.786  25.799  1.00  0.00     0.116 C 
BRANCH   3   4
ATOM      4  N   UNL A   1      33.691  23.889  26.691  1.00  0.00    -0.355 N 
ATOM      5  C   UNL A   1      32.410  24.318  26.518  1.00  0.00     0.229 C 
ATOM      6  O   UNL A   1      31.675  24.217  27.507  1.00  0.00    -0.274 OA
ATOM      7  H   UNL A   1      33.882  23.588  27.608  1.00  0.00     0.163 HD
BRANCH   5   8
ATOM      8  C   UNL A   1      31.844  24.817  25.171  1.00  0.00     0.135 C 
ATOM      9  N   UNL A   1      32.094  26.443  23.202  1.00  0.00    -0.329 N 
ATOM     10  C   UNL A   1      32.868  25.460  22.523  1.00  0.00     0.254 C 
ATOM     11  C   UNL A   1      32.104  26.350  24.743  1.00  0.00     0.059 C 
ATOM     12  O   UNL A   1      33.608  25.698  21.571  1.00  0.00    -0.269 OA
ATOM     13  C   UNL A   1      32.666  24.059  22.911  1.00  0.00     0.044 A 
ATOM     14  C   UNL A   1      33.476  26.939  25.177  1.00  0.00     0.030 C 
ATOM     15  C   UNL A   1      30.992  27.196  25.447  1.00  0.00     0.030 C 
ATOM     16  C   UNL A   1      33.040  23.042  22.019  1.00  0.00     0.014 A 
ATOM     17  C   UNL A   1      32.067  23.747  24.120  1.00  0.00    -0.020 A 
ATOM     18  C   UNL A   1      33.686  27.211  26.666  1.00  0.00     0.002 C 
ATOM     19  C   UNL A   1      31.180  27.396  26.957  1.00  0.00     0.002 C 
ATOM     20  C   UNL A   1      32.770  21.708  22.317  1.00  0.00     0.001 A 
ATOM     21  C   UNL A   1      31.743  22.400  24.384  1.00  0.00     0.005 A 
ATOM     22  C   UNL A   1      32.544  27.979  27.304  1.00  0.00     0.000 C 
ATOM     23  C   UNL A   1      32.100  21.389  23.492  1.00  0.00     0.000 A 
BRANCH   9  24
ATOM     24  C   UNL A   1      31.891  27.646  22.323  1.00  0.00     0.082 C 
ATOM     25  C   UNL A   1      30.369  27.933  22.239  1.00  0.00     0.031 C 
BRANCH  24  26
ATOM     26  C   UNL A   1      32.662  28.973  22.488  1.00  0.00     0.021 C 
ATOM     27  C   UNL A   1      34.175  28.854  22.665  1.00  0.00     0.006 C 
ENDBRANCH  24  26
ENDBRANCH   9  24
ENDBRANCH   5   8
ENDBRANCH   3   4
ENDBRANCH   2   3
ENDBRANCH   1   2
BRANCH   1  28
ATOM     28  C   UNL A   1      37.356  21.472  24.421  1.00  0.00     0.002 C 
BRANCH  28  29
ATOM     29  C   UNL A   1      38.007  20.232  25.032  1.00  0.00     0.021 C 
BRANCH  29  30
ATOM     30  C   UNL A   1      39.285  20.502  25.817  1.00  0.00     0.116 C 
BRANCH  30  31
ATOM     31  N   UNL A   1      40.156  19.338  25.880  1.00  0.00    -0.352 N 
ATOM     32  C   UNL A   1      41.511  19.317  26.108  1.00  0.00     0.251 C 
ATOM     33  H   UNL A   1      39.724  18.463  25.742  1.00  0.00     0.163 HD
ATOM     34  O   UNL A   1      42.168  18.292  25.977  1.00  0.00    -0.269 OA
BRANCH  32  35
ATOM     35  C   UNL A   1      42.164  20.583  26.490  1.00  0.00     0.039 A 
ATOM     36  C   UNL A   1      42.200  20.959  27.835  1.00  0.00     0.014 A 
ATOM     37  C   UNL A   1      42.633  21.439  25.492  1.00  0.00     0.014 A 
ATOM     38  C   UNL A   1      42.570  22.255  28.168  1.00  0.00     0.010 A 
ATOM     39  C   UNL A   1      43.080  22.714  25.842  1.00  0.00     0.010 A 
ATOM     40  C   UNL A   1      43.011  23.147  27.176  1.00  0.00    -0.014 A 
BRANCH  40  41
ATOM     41  C   UNL A   1      43.401  24.527  27.561  1.00  0.00     0.031 A 
ATOM     42  C   UNL A   1      44.842  24.956  27.558  1.00  0.00     0.074 A 
ATOM     43  C   UNL A   1      42.434  25.411  27.876  1.00  0.00     0.049 A 
ATOM     44  N   UNL A   1      45.358  26.119  27.872  1.00  0.00    -0.248 NA
ATOM     45  C   UNL A   1      45.838  23.951  27.155  1.00  0.00     0.031 C 
ATOM     46  C   UNL A   1      41.002  25.110  27.904  1.00  0.00     0.029 A 
ATOM     47  N   UNL A   1      42.504  26.739  28.209  1.00  0.00    -0.354 N 
ATOM     48  C   UNL A   1      46.731  25.979  27.727  1.00  0.00     0.074 A 
ATOM     49  C   UNL A   1      46.975  24.612  27.319  1.00  0.00     0.031 C 
ATOM     50  C   UNL A   1      40.325  26.232  28.188  1.00  0.00     0.029 A 
ATOM     51  C   UNL A   1      41.276  27.312  28.426  1.00  0.00     0.049 A 
ATOM     52  H   UNL A   1      43.352  27.233  28.285  1.00  0.00     0.167 HD
ATOM     53  C   UNL A   1      47.696  26.911  27.909  1.00  0.00     0.037 A 
ATOM     54  C   UNL A   1      40.950  28.564  28.795  1.00  0.00     0.037 A 
ATOM     55  C   UNL A   1      47.444  28.279  28.284  1.00  0.00     0.049 A 
ATOM     56  C   UNL A   1      42.042  29.569  29.020  1.00  0.00     0.074 A 
ATOM     57  C   UNL A   1      48.355  29.308  28.455  1.00  0.00     0.029 A 
ATOM     58  N   UNL A   1      46.189  28.809  28.546  1.00  0.00    -0.354 N 
ATOM     59  N   UNL A   1      43.336  29.426  28.872  1.00  0.00    -0.248 NA
ATOM     60  C   UNL A   1      41.630  30.904  29.472  1.00  0.00     0.031 C 
ATOM     61  C   UNL A   1      47.655  30.448  28.864  1.00  0.00     0.029 A 
ATOM     62  C   UNL A   1      46.304  30.143  28.902  1.00  0.00     0.049 A 
ATOM     63  H   UNL A   1      45.342  28.311  28.488  1.00  0.00     0.167 HD
ATOM     64  C   UNL A   1      43.895  30.650  29.209  1.00  0.00     0.074 A 
ATOM     65  C   UNL A   1      42.796  31.533  29.546  1.00  0.00     0.031 C 
ATOM     66  C   UNL A   1      45.201  31.006  29.244  1.00  0.00     0.037 A 
BRANCH  53  67
ATOM     67  C   UNL A   1      49.126  26.492  27.717  1.00  0.00     0.064 A 
ATOM     68  C   UNL A   1      49.704  26.408  26.442  1.00  0.00     0.173 A 
ATOM     69  C   UNL A   1      49.946  26.243  28.828  1.00  0.00     0.173 A 
ATOM     70  F   UNL A   1      48.961  26.628  25.348  1.00  0.00    -0.203 F 
ATOM     71  C   UNL A   1      51.048  26.076  26.286  1.00  0.00     0.198 A 
ATOM     72  C   UNL A   1      51.295  25.936  28.670  1.00  0.00     0.198 A 
ATOM     73  F   UNL A   1      49.445  26.316  30.070  1.00  0.00    -0.203 F 
ATOM     74  F   UNL A   1      51.572  25.971  25.057  1.00  0.00    -0.200 F 
ATOM     75  C   UNL A   1      51.845  25.849  27.400  1.00  0.00     0.200 A 
ATOM     76  F   UNL A   1      52.067  25.729  29.746  1.00  0.00    -0.200 F 
ATOM     77  F   UNL A   1      53.140  25.543  27.247  1.00  0.00    -0.200 F 
ENDBRANCH  53  67
BRANCH  54  78
ATOM     78  C   UNL A   1      39.519  28.920  28.970  1.00  0.00     0.064 A 
ATOM     79  C   UNL A   1      38.745  29.344  27.883  1.00  0.00     0.173 A 
ATOM     80  C   UNL A   1      38.885  28.789  30.215  1.00  0.00     0.173 A 
ATOM     81  F   UNL A   1      39.312  29.501  26.678  1.00  0.00    -0.203 F 
ATOM     82  C   UNL A   1      37.388  29.623  28.034  1.00  0.00     0.198 A 
ATOM     83  C   UNL A   1      37.523  29.041  30.358  1.00  0.00     0.198 A 
ATOM     84  F   UNL A   1      39.583  28.380  31.284  1.00  0.00    -0.203 F 
ATOM     85  F   UNL A   1      36.674  30.049  26.983  1.00  0.00    -0.200 F 
ATOM     86  C   UNL A   1      36.776  29.460  29.267  1.00  0.00     0.200 A 
ATOM     87  F   UNL A   1      36.934  28.864  31.548  1.00  0.00    -0.200 F 
ATOM     88  F   UNL A   1      35.467  29.709  29.407  1.00  0.00    -0.200 F 
ENDBRANCH  54  78
BRANCH  66  89
ATOM     89  C   UNL A   1      45.522  32.411  29.660  1.00  0.00     0.064 A 
ATOM     90  C   UNL A   1      45.554  33.457  28.727  1.00  0.00     0.173 A 
ATOM     91  C   UNL A   1      45.735  32.724  31.010  1.00  0.00     0.173 A 
ATOM     92  F   UNL A   1      45.370  33.204  27.422  1.00  0.00    -0.203 F 
ATOM     93  C   UNL A   1      45.800  34.766  29.131  1.00  0.00     0.198 A 
ATOM     94  C   UNL A   1      45.955  34.039  31.413  1.00  0.00     0.198 A 
ATOM     95  F   UNL A   1      45.709  31.759  31.941  1.00  0.00    -0.203 F 
ATOM     96  F   UNL A   1      45.858  35.746  28.218  1.00  0.00    -0.200 F 
ATOM     97  C   UNL A   1      45.991  35.057  30.472  1.00  0.00     0.200 A 
ATOM     98  F   UNL A   1      46.126  34.320  32.712  1.00  0.00    -0.200 F 
ATOM     99  F   UNL A   1      46.214  36.321  30.861  1.00  0.00    -0.200 F 
ENDBRANCH  66  89
ENDBRANCH  40  41
ENDBRANCH  32  35
ENDBRANCH  30  31
ENDBRANCH  29  30
ENDBRANCH  28  29
ENDBRANCH   1  28
TORSDOF 15
ENDMDL
MODEL 3
REMARK VINA RESULT:     -12.3      0.689      7.058
REMARK SMILES CC[C@H](C)N1C(=O)c2ccccc2[C@@H](C(=O)NCCCCCCNC(=O)c2ccc(-c3c4nc(c(-c5c(F)c(F)c(F)c(F)c5F)c5ccc([nH]5)c(-c5c(F)c(F)c(F)c(F)c5F)c5nc(c(-c6c(F)c(F)c(F)c(F)c6F)c6ccc3[nH]6)C=C5)C=C4)cc2)C12CCCCC2
REMARK SMILES IDX 20 1 19 2 18 3 17 4 15 5 16 6 14 8 5 9 6 10 90 11 7 12 8 13
REMARK SMILES IDX 91 14 95 15 9 16 13 17 92 18 94 19 10 20 12 21 93 22 11 23
REMARK SMILES IDX 3 24 4 25 2 26 1 27 21 28 22 29 23 30 24 31 25 32 26 34
REMARK SMILES IDX 27 35 28 36 89 37 29 38 88 39 30 40 31 41 32 42 82 43 33 44
REMARK SMILES IDX 87 45 81 46 83 47 34 48 86 49 80 50 79 51 35 53 67 54 47 55
REMARK SMILES IDX 66 56 48 57 51 58 65 59 84 60 49 61 50 62 64 64 85 65 52 66
REMARK SMILES IDX 36 67 37 68 45 69 38 70 39 71 43 72 46 73 40 74 41 75 44 76
REMARK SMILES IDX 42 77 68 78 69 79 77 80 70 81 71 82 75 83 78 84 72 85 73 86
REMARK SMILES IDX 76 87 74 88 53 89 54 90 62 91 55 92 56 93 60 94 63 95 57 96
REMARK SMILES IDX 58 97 61 98 59 99
REMARK H PARENT 17 7 24 33 83 52 51 63
REMARK Flexibility Score: inf
ROOT
ATOM      1  C   UNL A   1      35.873  21.448  24.616  1.00  0.00     0.002 C 
ENDROOT
BRANCH   1   2
ATOM      2  C   UNL A   1      35.294  22.018  25.912  1.00  0.00     0.021 C 
BRANCH   2   3
ATOM      3  C   UNL A   1      34.783  23.456  25.815  1.00  0.00     0.116 C 
BRANCH   3   4
ATOM      4  N   UNL A   1      33.694  23.721  26.740  1.00  0.00    -0.355 N 
ATOM      5  C   UNL A   1      32.455  24.265  26.589  1.00  0.00     0.229 C 
ATOM      6  O   UNL A   1      31.755  24.292  27.608  1.00  0.00    -0.274 OA
ATOM      7  H   UNL A   1      33.893  23.454  27.666  1.00  0.00     0.163 HD
BRANCH   5   8
ATOM      8  C   UNL A   1      31.884  24.742  25.236  1.00  0.00     0.135 C 
ATOM      9  N   UNL A   1      32.153  26.303  23.217  1.00  0.00    -0.329 N 
ATOM     10  C   UNL A   1      32.888  25.280  22.556  1.00  0.00     0.254 C 
ATOM     11  C   UNL A   1      32.182  26.254  24.761  1.00  0.00     0.059 C 
ATOM     12  O   UNL A   1      33.620  25.469  21.588  1.00  0.00    -0.269 OA
ATOM     13  C   UNL A   1      32.651  23.896  22.987  1.00  0.00     0.044 A 
ATOM     14  C   UNL A   1      33.577  26.815  25.158  1.00  0.00     0.030 C 
ATOM     15  C   UNL A   1      31.105  27.152  25.454  1.00  0.00     0.030 C 
ATOM     16  C   UNL A   1      32.982  22.844  22.120  1.00  0.00     0.014 A 
ATOM     17  C   UNL A   1      32.061  23.637  24.212  1.00  0.00    -0.020 A 
ATOM     18  C   UNL A   1      33.815  27.123  26.637  1.00  0.00     0.002 C 
ATOM     19  C   UNL A   1      31.321  27.388  26.956  1.00  0.00     0.002 C 
ATOM     20  C   UNL A   1      32.679  21.527  22.459  1.00  0.00     0.001 A 
ATOM     21  C   UNL A   1      31.701  22.308  24.520  1.00  0.00     0.005 A 
ATOM     22  C   UNL A   1      32.705  27.941  27.267  1.00  0.00     0.000 C 
ATOM     23  C   UNL A   1      32.017  21.262  23.653  1.00  0.00     0.000 A 
BRANCH   9  24
ATOM     24  C   UNL A   1      31.971  27.487  22.307  1.00  0.00     0.082 C 
ATOM     25  C   UNL A   1      30.454  27.792  22.205  1.00  0.00     0.031 C 
BRANCH  24  26
ATOM     26  C   UNL A   1      32.759  28.807  22.445  1.00  0.00     0.021 C 
ATOM     27  C   UNL A   1      34.281  28.683  22.473  1.00  0.00     0.006 C 
ENDBRANCH  24  26
ENDBRANCH   9  24
ENDBRANCH   5   8
ENDBRANCH   3   4
ENDBRANCH   2   3
ENDBRANCH   1   2
BRANCH   1  28
ATOM     28  C   UNL A   1      37.399  21.462  24.547  1.00  0.00     0.002 C 
BRANCH  28  29
ATOM     29  C   UNL A   1      38.069  20.159  24.983  1.00  0.00     0.021 C 
BRANCH  29  30
ATOM     30  C   UNL A   1      39.230  20.333  25.954  1.00  0.00     0.116 C 
BRANCH  30  31
ATOM     31  N   UNL A   1      40.129  19.189  25.957  1.00  0.00    -0.352 N 
ATOM     32  C   UNL A   1      41.499  19.199  26.073  1.00  0.00     0.251 C 
ATOM     33  H   UNL A   1      39.707  18.304  25.865  1.00  0.00     0.163 HD
ATOM     34  O   UNL A   1      42.165  18.186  25.898  1.00  0.00    -0.269 OA
BRANCH  32  35
ATOM     35  C   UNL A   1      42.153  20.484  26.385  1.00  0.00     0.039 A 
ATOM     36  C   UNL A   1      42.243  20.903  27.714  1.00  0.00     0.014 A 
ATOM     37  C   UNL A   1      42.568  21.312  25.341  1.00  0.00     0.014 A 
ATOM     38  C   UNL A   1      42.613  22.212  27.990  1.00  0.00     0.010 A 
ATOM     39  C   UNL A   1      43.015  22.602  25.630  1.00  0.00     0.010 A 
ATOM     40  C   UNL A   1      43.000  23.077  26.952  1.00  0.00    -0.014 A 
BRANCH  40  41
ATOM     41  C   UNL A   1      43.389  24.472  27.275  1.00  0.00     0.031 A 
ATOM     42  C   UNL A   1      44.782  24.970  27.007  1.00  0.00     0.074 A 
ATOM     43  C   UNL A   1      42.459  25.306  27.778  1.00  0.00     0.049 A 
ATOM     44  N   UNL A   1      45.293  26.156  27.235  1.00  0.00    -0.248 NA
ATOM     45  C   UNL A   1      45.731  24.017  26.412  1.00  0.00     0.031 C 
ATOM     46  C   UNL A   1      41.073  24.937  28.070  1.00  0.00     0.029 A 
ATOM     47  N   UNL A   1      42.528  26.635  28.110  1.00  0.00    -0.354 N 
ATOM     48  C   UNL A   1      46.620  26.083  26.833  1.00  0.00     0.074 A 
ATOM     49  C   UNL A   1      46.847  24.731  26.368  1.00  0.00     0.031 C 
ATOM     50  C   UNL A   1      40.410  26.023  28.492  1.00  0.00     0.029 A 
ATOM     51  C   UNL A   1      41.338  27.147  28.562  1.00  0.00     0.049 A 
ATOM     52  H   UNL A   1      43.351  27.169  28.032  1.00  0.00     0.167 HD
ATOM     53  C   UNL A   1      47.557  27.060  26.843  1.00  0.00     0.037 A 
ATOM     54  C   UNL A   1      41.028  28.380  29.002  1.00  0.00     0.037 A 
ATOM     55  C   UNL A   1      47.316  28.413  27.278  1.00  0.00     0.049 A 
ATOM     56  C   UNL A   1      42.094  29.436  29.031  1.00  0.00     0.074 A 
ATOM     57  C   UNL A   1      48.193  29.484  27.288  1.00  0.00     0.029 A 
ATOM     58  N   UNL A   1      46.109  28.880  27.777  1.00  0.00    -0.354 N 
ATOM     59  N   UNL A   1      43.343  29.356  28.642  1.00  0.00    -0.248 NA
ATOM     60  C   UNL A   1      41.713  30.747  29.571  1.00  0.00     0.031 C 
ATOM     61  C   UNL A   1      47.531  30.587  27.837  1.00  0.00     0.029 A 
ATOM     62  C   UNL A   1      46.227  30.217  28.124  1.00  0.00     0.049 A 
ATOM     63  H   UNL A   1      45.290  28.342  27.873  1.00  0.00     0.167 HD
ATOM     64  C   UNL A   1      43.897  30.605  28.884  1.00  0.00     0.074 A 
ATOM     65  C   UNL A   1      42.841  31.432  29.433  1.00  0.00     0.031 C 
ATOM     66  C   UNL A   1      45.168  31.024  28.678  1.00  0.00     0.037 A 
BRANCH  53  67
ATOM     67  C   UNL A   1      48.943  26.713  26.380  1.00  0.00     0.064 A 
ATOM     68  C   UNL A   1      49.352  26.924  25.056  1.00  0.00     0.173 A 
ATOM     69  C   UNL A   1      49.894  26.229  27.293  1.00  0.00     0.173 A 
ATOM     70  F   UNL A   1      48.480  27.374  24.144  1.00  0.00    -0.203 F 
ATOM     71  C   UNL A   1      50.659  26.650  24.659  1.00  0.00     0.198 A 
ATOM     72  C   UNL A   1      51.206  25.982  26.898  1.00  0.00     0.198 A 
ATOM     73  F   UNL A   1      49.556  26.016  28.573  1.00  0.00    -0.203 F 
ATOM     74  F   UNL A   1      51.021  26.830  23.381  1.00  0.00    -0.200 F 
ATOM     75  C   UNL A   1      51.587  26.189  25.581  1.00  0.00     0.200 A 
ATOM     76  F   UNL A   1      52.105  25.548  27.793  1.00  0.00    -0.200 F 
ATOM     77  F   UNL A   1      52.848  25.940  25.199  1.00  0.00    -0.200 F 
ENDBRANCH  53  67
BRANCH  54  78
ATOM     78  C   UNL A   1      39.640  28.665  29.447  1.00  0.00     0.064 A 
ATOM     79  C   UNL A   1      39.252  28.448  30.775  1.00  0.00     0.173 A 
ATOM     80  C   UNL A   1      38.693  29.210  28.568  1.00  0.00     0.173 A 
ATOM     81  F   UNL A   1      40.119  27.911  31.647  1.00  0.00    -0.203 F 
ATOM     82  C   UNL A   1      37.968  28.768  31.208  1.00  0.00     0.198 A 
ATOM     83  C   UNL A   1      37.418  29.555  29.009  1.00  0.00     0.198 A 
ATOM     84  F   UNL A   1      39.019  29.441  27.288  1.00  0.00    -0.203 F 
ATOM     85  F   UNL A   1      37.614  28.530  32.479  1.00  0.00    -0.200 F 
ATOM     86  C   UNL A   1      37.056  29.332  30.329  1.00  0.00     0.200 A 
ATOM     87  F   UNL A   1      36.547  30.116  28.160  1.00  0.00    -0.200 F 
ATOM     88  F   UNL A   1      35.827  29.659  30.751  1.00  0.00    -0.200 F 
ENDBRANCH  54  78
BRANCH  66  89
ATOM     89  C   UNL A   1      45.496  32.440  29.045  1.00  0.00     0.064 A 
ATOM     90  C   UNL A   1      46.051  32.759  30.292  1.00  0.00     0.173 A 
ATOM     91  C   UNL A   1      45.314  33.478  28.119  1.00  0.00     0.173 A 
ATOM     92  F   UNL A   1      46.229  31.802  31.216  1.00  0.00    -0.203 F 
ATOM     93  C   UNL A   1      46.401  34.070  30.604  1.00  0.00     0.198 A 
ATOM     94  C   UNL A   1      45.690  34.783  28.425  1.00  0.00     0.198 A 
ATOM     95  F   UNL A   1      44.793  33.222  26.910  1.00  0.00    -0.203 F 
ATOM     96  F   UNL A   1      46.899  34.357  31.815  1.00  0.00    -0.200 F 
ATOM     97  C   UNL A   1      46.229  35.078  29.669  1.00  0.00     0.200 A 
ATOM     98  F   UNL A   1      45.536  35.754  27.514  1.00  0.00    -0.200 F 
ATOM     99  F   UNL A   1      46.581  36.337  29.965  1.00  0.00    -0.200 F 
ENDBRANCH  66  89
ENDBRANCH  40  41
ENDBRANCH  32  35
ENDBRANCH  30  31
ENDBRANCH  29  30
ENDBRANCH  28  29
ENDBRANCH   1  28
TORSDOF 15
ENDMDL
