MODEL 1
REMARK VINA RESULT:     -11.5      0.000      0.000
REMARK SMILES O=C(CSc1nc2cccnc2n1CC(F)(F)F)NCCCCCCNC(=O)c1ccc(-c2c3nc(c(-c4c(F)c(F)c(F)c(F)c4F)c4ccc([nH]4)c(-c4c(F)c(F)c(F)c(F)c4F)c4nc(c(-c5c(F)c(F)c(F)c(F)c5F)c5ccc2[nH]5)C=C4)C=C3)cc1
REMARK SMILES IDX 21 1 20 2 19 3 1 4 2 5 3 7 4 8 5 9 6 10 13 11 7 12 12 13
REMARK SMILES IDX 8 14 11 15 9 16 10 17 14 18 15 19 16 20 17 21 18 22 22 23
REMARK SMILES IDX 23 24 24 25 25 26 26 27 27 28 28 30 29 31 30 32 91 33 31 34
REMARK SMILES IDX 90 35 32 36 33 37 34 38 84 39 35 40 89 41 83 42 85 43 36 44
REMARK SMILES IDX 88 45 82 46 81 47 37 49 69 50 49 51 68 52 50 53 53 54 67 55
REMARK SMILES IDX 86 56 51 57 52 58 66 60 87 61 54 62 38 63 39 64 47 65 40 66
REMARK SMILES IDX 41 67 45 68 48 69 42 70 43 71 46 72 44 73 70 74 71 75 79 76
REMARK SMILES IDX 72 77 73 78 77 79 80 80 74 81 75 82 78 83 76 84 55 85 56 86
REMARK SMILES IDX 64 87 57 88 58 89 62 90 65 91 59 92 60 93 63 94 61 95
REMARK H PARENT 19 6 26 29 85 48 53 59
REMARK Flexibility Score: inf
ROOT
ATOM      1  C   UNL A   1      40.415  21.664  27.376  1.00  0.00     0.021 C 
ENDROOT
BRANCH   1   2
ATOM      2  C   UNL A   1      39.632  21.877  26.081  1.00  0.00     0.116 C 
BRANCH   2   3
ATOM      3  N   UNL A   1      38.253  22.225  26.339  1.00  0.00    -0.355 N 
ATOM      4  O   UNL A   1      37.357  20.979  24.634  1.00  0.00    -0.274 OA
ATOM      5  C   UNL A   1      37.203  21.711  25.611  1.00  0.00     0.230 C 
ATOM      6  H   UNL A   1      38.055  22.857  27.067  1.00  0.00     0.163 HD
BRANCH   5   7
ATOM      7  C   UNL A   1      35.829  22.237  25.985  1.00  0.00     0.178 C 
BRANCH   7   8
ATOM      8  S   UNL A   1      34.770  22.641  24.575  1.00  0.00    -0.078 SA
BRANCH   8   9
ATOM      9  C   UNL A   1      34.017  24.102  25.109  1.00  0.00     0.171 A 
ATOM     10  N   UNL A   1      34.415  25.304  24.760  1.00  0.00    -0.221 NA
ATOM     11  N   UNL A   1      32.894  24.131  25.895  1.00  0.00    -0.294 N 
ATOM     12  C   UNL A   1      33.516  26.159  25.346  1.00  0.00     0.109 A 
ATOM     13  C   UNL A   1      32.556  25.451  26.058  1.00  0.00     0.160 A 
ATOM     14  C   UNL A   1      33.425  27.555  25.337  1.00  0.00     0.034 A 
ATOM     15  N   UNL A   1      31.522  25.948  26.765  1.00  0.00    -0.237 NA
ATOM     16  C   UNL A   1      32.368  28.130  26.049  1.00  0.00     0.022 A 
ATOM     17  C   UNL A   1      31.475  27.303  26.724  1.00  0.00     0.113 A 
BRANCH  11  18
ATOM     18  C   UNL A   1      32.209  23.037  26.546  1.00  0.00     0.241 C 
BRANCH  18  19
ATOM     19  C   UNL A   1      31.142  22.384  25.699  1.00  0.00     0.406 C 
ATOM     20  F   UNL A   1      29.973  22.251  26.361  1.00  0.00    -0.169 F 
ATOM     21  F   UNL A   1      30.884  23.151  24.612  1.00  0.00    -0.169 F 
ATOM     22  F   UNL A   1      31.505  21.164  25.252  1.00  0.00    -0.169 F 
ENDBRANCH  18  19
ENDBRANCH  11  18
ENDBRANCH   8   9
ENDBRANCH   7   8
ENDBRANCH   5   7
ENDBRANCH   2   3
ENDBRANCH   1   2
BRANCH   1  23
ATOM     23  C   UNL A   1      41.504  20.586  27.298  1.00  0.00     0.002 C 
BRANCH  23  24
ATOM     24  C   UNL A   1      41.408  19.617  26.109  1.00  0.00     0.002 C 
BRANCH  24  25
ATOM     25  C   UNL A   1      42.435  18.478  26.077  1.00  0.00     0.021 C 
BRANCH  25  26
ATOM     26  C   UNL A   1      43.871  18.948  26.236  1.00  0.00     0.116 C 
BRANCH  26  27
ATOM     27  N   UNL A   1      44.541  19.151  24.954  1.00  0.00    -0.352 N 
ATOM     28  C   UNL A   1      44.636  20.316  24.230  1.00  0.00     0.251 C 
ATOM     29  H   UNL A   1      44.976  18.361  24.562  1.00  0.00     0.163 HD
ATOM     30  O   UNL A   1      44.914  20.296  23.030  1.00  0.00    -0.269 OA
BRANCH  28  31
ATOM     31  C   UNL A   1      44.416  21.601  24.910  1.00  0.00     0.039 A 
ATOM     32  C   UNL A   1      43.318  22.406  24.592  1.00  0.00     0.014 A 
ATOM     33  C   UNL A   1      45.351  22.013  25.860  1.00  0.00     0.014 A 
ATOM     34  C   UNL A   1      43.150  23.610  25.269  1.00  0.00     0.010 A 
ATOM     35  C   UNL A   1      45.114  23.126  26.623  1.00  0.00     0.010 A 
ATOM     36  C   UNL A   1      44.056  23.957  26.283  1.00  0.00    -0.014 A 
BRANCH  36  37
ATOM     37  C   UNL A   1      43.881  25.181  27.045  1.00  0.00     0.031 A 
ATOM     38  C   UNL A   1      44.870  26.250  26.753  1.00  0.00     0.074 A 
ATOM     39  C   UNL A   1      42.794  25.399  27.813  1.00  0.00     0.049 A 
ATOM     40  N   UNL A   1      45.753  26.740  27.557  1.00  0.00    -0.248 NA
ATOM     41  C   UNL A   1      44.968  26.760  25.376  1.00  0.00     0.031 C 
ATOM     42  C   UNL A   1      41.589  24.578  27.966  1.00  0.00     0.029 A 
ATOM     43  N   UNL A   1      42.509  26.489  28.571  1.00  0.00    -0.354 N 
ATOM     44  C   UNL A   1      46.417  27.735  26.848  1.00  0.00     0.074 A 
ATOM     45  C   UNL A   1      45.994  27.607  25.477  1.00  0.00     0.031 C 
ATOM     46  C   UNL A   1      40.623  25.301  28.576  1.00  0.00     0.029 A 
ATOM     47  C   UNL A   1      41.191  26.568  28.998  1.00  0.00     0.049 A 
ATOM     48  H   UNL A   1      43.183  27.169  28.799  1.00  0.00     0.167 HD
ATOM     49  C   UNL A   1      47.106  28.716  27.495  1.00  0.00     0.037 A 
ATOM     50  C   UNL A   1      40.613  27.630  29.612  1.00  0.00     0.037 A 
ATOM     51  C   UNL A   1      47.361  28.356  28.866  1.00  0.00     0.049 A 
ATOM     52  C   UNL A   1      41.714  28.437  30.204  1.00  0.00     0.074 A 
ATOM     53  C   UNL A   1      48.048  27.323  29.477  1.00  0.00     0.029 A 
ATOM     54  N   UNL A   1      46.542  28.878  29.838  1.00  0.00    -0.354 N 
ATOM     55  N   UNL A   1      42.470  28.016  31.183  1.00  0.00    -0.248 NA
ATOM     56  C   UNL A   1      42.289  29.493  29.380  1.00  0.00     0.031 C 
ATOM     57  C   UNL A   1      47.237  26.955  30.590  1.00  0.00     0.029 A 
ATOM     58  C   UNL A   1      46.153  27.832  30.637  1.00  0.00     0.049 A 
ATOM     59  H   UNL A   1      46.283  29.822  29.942  1.00  0.00     0.167 HD
ATOM     60  C   UNL A   1      43.750  28.429  30.845  1.00  0.00     0.074 A 
ATOM     61  C   UNL A   1      43.567  29.390  29.758  1.00  0.00     0.031 C 
ATOM     62  C   UNL A   1      44.854  27.743  31.263  1.00  0.00     0.037 A 
BRANCH  49  63
ATOM     63  C   UNL A   1      47.257  30.129  26.999  1.00  0.00     0.064 A 
ATOM     64  C   UNL A   1      48.519  30.752  27.065  1.00  0.00     0.173 A 
ATOM     65  C   UNL A   1      46.164  30.985  26.748  1.00  0.00     0.173 A 
ATOM     66  F   UNL A   1      49.624  30.035  27.318  1.00  0.00    -0.203 F 
ATOM     67  C   UNL A   1      48.662  32.138  26.964  1.00  0.00     0.198 A 
ATOM     68  C   UNL A   1      46.319  32.361  26.595  1.00  0.00     0.198 A 
ATOM     69  F   UNL A   1      44.901  30.546  26.759  1.00  0.00    -0.203 F 
ATOM     70  F   UNL A   1      49.863  32.700  27.160  1.00  0.00    -0.200 F 
ATOM     71  C   UNL A   1      47.561  32.943  26.735  1.00  0.00     0.200 A 
ATOM     72  F   UNL A   1      45.235  33.126  26.395  1.00  0.00    -0.200 F 
ATOM     73  F   UNL A   1      47.686  34.276  26.701  1.00  0.00    -0.200 F 
ENDBRANCH  49  63
BRANCH  50  74
ATOM     74  C   UNL A   1      39.249  28.167  29.378  1.00  0.00     0.064 A 
ATOM     75  C   UNL A   1      38.353  28.360  30.442  1.00  0.00     0.173 A 
ATOM     76  C   UNL A   1      38.895  28.762  28.150  1.00  0.00     0.173 A 
ATOM     77  F   UNL A   1      38.635  27.870  31.658  1.00  0.00    -0.203 F 
ATOM     78  C   UNL A   1      37.187  29.122  30.292  1.00  0.00     0.198 A 
ATOM     79  C   UNL A   1      37.730  29.516  28.000  1.00  0.00     0.198 A 
ATOM     80  F   UNL A   1      39.719  28.705  27.093  1.00  0.00    -0.203 F 
ATOM     81  F   UNL A   1      36.386  29.335  31.346  1.00  0.00    -0.200 F 
ATOM     82  C   UNL A   1      36.882  29.707  29.074  1.00  0.00     0.200 A 
ATOM     83  F   UNL A   1      37.468  30.107  26.826  1.00  0.00    -0.200 F 
ATOM     84  F   UNL A   1      35.799  30.487  28.946  1.00  0.00    -0.200 F 
ENDBRANCH  50  74
BRANCH  62  85
ATOM     85  C   UNL A   1      44.675  26.643  32.275  1.00  0.00     0.064 A 
ATOM     86  C   UNL A   1      44.511  26.864  33.655  1.00  0.00     0.173 A 
ATOM     87  C   UNL A   1      44.468  25.338  31.808  1.00  0.00     0.173 A 
ATOM     88  F   UNL A   1      44.594  28.094  34.171  1.00  0.00    -0.203 F 
ATOM     89  C   UNL A   1      44.184  25.823  34.524  1.00  0.00     0.198 A 
ATOM     90  C   UNL A   1      44.107  24.308  32.672  1.00  0.00     0.198 A 
ATOM     91  F   UNL A   1      44.556  25.074  30.494  1.00  0.00    -0.203 F 
ATOM     92  F   UNL A   1      44.031  26.065  35.834  1.00  0.00    -0.200 F 
ATOM     93  C   UNL A   1      43.972  24.548  34.029  1.00  0.00     0.200 A 
ATOM     94  F   UNL A   1      43.852  23.087  32.181  1.00  0.00    -0.200 F 
ATOM     95  F   UNL A   1      43.605  23.558  34.855  1.00  0.00    -0.200 F 
ENDBRANCH  62  85
ENDBRANCH  36  37
ENDBRANCH  28  31
ENDBRANCH  26  27
ENDBRANCH  25  26
ENDBRANCH  24  25
ENDBRANCH  23  24
ENDBRANCH   1  23
TORSDOF 17
ENDMDL
MODEL 2
REMARK VINA RESULT:     -11.3      1.571      2.725
REMARK SMILES O=C(CSc1nc2cccnc2n1CC(F)(F)F)NCCCCCCNC(=O)c1ccc(-c2c3nc(c(-c4c(F)c(F)c(F)c(F)c4F)c4ccc([nH]4)c(-c4c(F)c(F)c(F)c(F)c4F)c4nc(c(-c5c(F)c(F)c(F)c(F)c5F)c5ccc2[nH]5)C=C4)C=C3)cc1
REMARK SMILES IDX 21 1 20 2 19 3 1 4 2 5 3 7 4 8 5 9 6 10 13 11 7 12 12 13
REMARK SMILES IDX 8 14 11 15 9 16 10 17 14 18 15 19 16 20 17 21 18 22 22 23
REMARK SMILES IDX 23 24 24 25 25 26 26 27 27 28 28 30 29 31 30 32 91 33 31 34
REMARK SMILES IDX 90 35 32 36 33 37 34 38 84 39 35 40 89 41 83 42 85 43 36 44
REMARK SMILES IDX 88 45 82 46 81 47 37 49 69 50 49 51 68 52 50 53 53 54 67 55
REMARK SMILES IDX 86 56 51 57 52 58 66 60 87 61 54 62 38 63 39 64 47 65 40 66
REMARK SMILES IDX 41 67 45 68 48 69 42 70 43 71 46 72 44 73 70 74 71 75 79 76
REMARK SMILES IDX 72 77 73 78 77 79 80 80 74 81 75 82 78 83 76 84 55 85 56 86
REMARK SMILES IDX 64 87 57 88 58 89 62 90 65 91 59 92 60 93 63 94 61 95
REMARK H PARENT 19 6 26 29 85 48 53 59
REMARK Flexibility Score: inf
ROOT
ATOM      1  C   UNL A   1      40.343  21.811  27.527  1.00  0.00     0.021 C 
ENDROOT
BRANCH   1   2
ATOM      2  C   UNL A   1      39.720  21.821  26.132  1.00  0.00     0.116 C 
BRANCH   2   3
ATOM      3  N   UNL A   1      38.300  22.084  26.180  1.00  0.00    -0.355 N 
ATOM      4  O   UNL A   1      38.464  24.370  26.082  1.00  0.00    -0.274 OA
ATOM      5  C   UNL A   1      37.771  23.354  26.110  1.00  0.00     0.230 C 
ATOM      6  H   UNL A   1      37.683  21.323  26.267  1.00  0.00     0.163 HD
BRANCH   5   7
ATOM      7  C   UNL A   1      36.261  23.441  26.237  1.00  0.00     0.178 C 
BRANCH   7   8
ATOM      8  S   UNL A   1      35.371  23.410  24.662  1.00  0.00    -0.078 SA
BRANCH   8   9
ATOM      9  C   UNL A   1      34.765  21.792  24.633  1.00  0.00     0.171 A 
ATOM     10  N   UNL A   1      35.526  20.722  24.661  1.00  0.00    -0.221 NA
ATOM     11  N   UNL A   1      33.429  21.484  24.643  1.00  0.00    -0.294 N 
ATOM     12  C   UNL A   1      34.651  19.666  24.687  1.00  0.00     0.109 A 
ATOM     13  C   UNL A   1      33.336  20.116  24.678  1.00  0.00     0.160 A 
ATOM     14  C   UNL A   1      34.867  18.284  24.719  1.00  0.00     0.034 A 
ATOM     15  N   UNL A   1      32.211  19.374  24.691  1.00  0.00    -0.237 NA
ATOM     16  C   UNL A   1      33.737  17.461  24.739  1.00  0.00     0.022 A 
ATOM     17  C   UNL A   1      32.473  18.044  24.724  1.00  0.00     0.113 A 
BRANCH  11  18
ATOM     18  C   UNL A   1      32.290  22.368  24.533  1.00  0.00     0.241 C 
BRANCH  18  19
ATOM     19  C   UNL A   1      31.658  22.731  25.856  1.00  0.00     0.406 C 
ATOM     20  F   UNL A   1      30.503  22.065  26.071  1.00  0.00    -0.169 F 
ATOM     21  F   UNL A   1      32.491  22.395  26.871  1.00  0.00    -0.169 F 
ATOM     22  F   UNL A   1      31.402  24.050  25.967  1.00  0.00    -0.169 F 
ENDBRANCH  18  19
ENDBRANCH  11  18
ENDBRANCH   8   9
ENDBRANCH   7   8
ENDBRANCH   5   7
ENDBRANCH   2   3
ENDBRANCH   1   2
BRANCH   1  23
ATOM     23  C   UNL A   1      41.769  21.248  27.589  1.00  0.00     0.002 C 
BRANCH  23  24
ATOM     24  C   UNL A   1      41.885  19.728  27.784  1.00  0.00     0.002 C 
BRANCH  24  25
ATOM     25  C   UNL A   1      42.683  18.966  26.718  1.00  0.00     0.021 C 
BRANCH  25  26
ATOM     26  C   UNL A   1      42.625  19.606  25.341  1.00  0.00     0.116 C 
BRANCH  26  27
ATOM     27  N   UNL A   1      43.932  19.657  24.689  1.00  0.00    -0.352 N 
ATOM     28  C   UNL A   1      44.714  20.764  24.456  1.00  0.00     0.251 C 
ATOM     29  H   UNL A   1      44.295  18.797  24.379  1.00  0.00     0.163 HD
ATOM     30  O   UNL A   1      45.610  20.741  23.611  1.00  0.00    -0.269 OA
BRANCH  28  31
ATOM     31  C   UNL A   1      44.479  21.984  25.242  1.00  0.00     0.039 A 
ATOM     32  C   UNL A   1      45.176  22.221  26.430  1.00  0.00     0.014 A 
ATOM     33  C   UNL A   1      43.515  22.885  24.789  1.00  0.00     0.014 A 
ATOM     34  C   UNL A   1      44.922  23.393  27.134  1.00  0.00     0.010 A 
ATOM     35  C   UNL A   1      43.364  24.100  25.404  1.00  0.00     0.010 A 
ATOM     36  C   UNL A   1      44.013  24.325  26.609  1.00  0.00    -0.014 A 
BRANCH  36  37
ATOM     37  C   UNL A   1      43.764  25.583  27.291  1.00  0.00     0.031 A 
ATOM     38  C   UNL A   1      44.697  26.684  26.939  1.00  0.00     0.074 A 
ATOM     39  C   UNL A   1      42.659  25.789  28.036  1.00  0.00     0.049 A 
ATOM     40  N   UNL A   1      45.543  27.270  27.717  1.00  0.00    -0.248 NA
ATOM     41  C   UNL A   1      44.782  27.111  25.533  1.00  0.00     0.031 C 
ATOM     42  C   UNL A   1      41.498  24.914  28.231  1.00  0.00     0.029 A 
ATOM     43  N   UNL A   1      42.307  26.907  28.721  1.00  0.00    -0.354 N 
ATOM     44  C   UNL A   1      46.160  28.254  26.952  1.00  0.00     0.074 A 
ATOM     45  C   UNL A   1      45.760  28.017  25.588  1.00  0.00     0.031 C 
ATOM     46  C   UNL A   1      40.488  25.620  28.788  1.00  0.00     0.029 A 
ATOM     47  C   UNL A   1      40.982  26.940  29.133  1.00  0.00     0.049 A 
ATOM     48  H   UNL A   1      42.940  27.636  28.911  1.00  0.00     0.167 HD
ATOM     49  C   UNL A   1      46.789  29.310  27.540  1.00  0.00     0.037 A 
ATOM     50  C   UNL A   1      40.341  28.005  29.674  1.00  0.00     0.037 A 
ATOM     51  C   UNL A   1      47.048  29.051  28.934  1.00  0.00     0.049 A 
ATOM     52  C   UNL A   1      41.391  28.907  30.222  1.00  0.00     0.074 A 
ATOM     53  C   UNL A   1      47.782  28.097  29.613  1.00  0.00     0.029 A 
ATOM     54  N   UNL A   1      46.191  29.587  29.864  1.00  0.00    -0.354 N 
ATOM     55  N   UNL A   1      42.157  28.590  31.231  1.00  0.00    -0.248 NA
ATOM     56  C   UNL A   1      41.916  29.939  29.337  1.00  0.00     0.031 C 
ATOM     57  C   UNL A   1      46.981  27.756  30.741  1.00  0.00     0.029 A 
ATOM     58  C   UNL A   1      45.851  28.574  30.725  1.00  0.00     0.049 A 
ATOM     59  H   UNL A   1      45.880  30.521  29.907  1.00  0.00     0.167 HD
ATOM     60  C   UNL A   1      43.416  29.050  30.877  1.00  0.00     0.074 A 
ATOM     61  C   UNL A   1      43.194  29.930  29.730  1.00  0.00     0.031 C 
ATOM     62  C   UNL A   1      44.552  28.453  31.346  1.00  0.00     0.037 A 
BRANCH  49  63
ATOM     63  C   UNL A   1      46.868  30.695  26.958  1.00  0.00     0.064 A 
ATOM     64  C   UNL A   1      48.101  31.377  26.966  1.00  0.00     0.173 A 
ATOM     65  C   UNL A   1      45.734  31.484  26.673  1.00  0.00     0.173 A 
ATOM     66  F   UNL A   1      49.240  30.727  27.244  1.00  0.00    -0.203 F 
ATOM     67  C   UNL A   1      48.179  32.760  26.779  1.00  0.00     0.198 A 
ATOM     68  C   UNL A   1      45.823  32.854  26.434  1.00  0.00     0.198 A 
ATOM     69  F   UNL A   1      44.492  30.990  26.730  1.00  0.00    -0.203 F 
ATOM     70  F   UNL A   1      49.356  33.385  26.921  1.00  0.00    -0.200 F 
ATOM     71  C   UNL A   1      47.039  33.498  26.519  1.00  0.00     0.200 A 
ATOM     72  F   UNL A   1      44.704  33.556  26.205  1.00  0.00    -0.200 F 
ATOM     73  F   UNL A   1      47.103  34.831  26.402  1.00  0.00    -0.200 F 
ENDBRANCH  49  63
BRANCH  50  74
ATOM     74  C   UNL A   1      38.953  28.452  29.397  1.00  0.00     0.064 A 
ATOM     75  C   UNL A   1      38.038  28.670  30.440  1.00  0.00     0.173 A 
ATOM     76  C   UNL A   1      38.578  28.940  28.128  1.00  0.00     0.173 A 
ATOM     77  F   UNL A   1      38.336  28.281  31.688  1.00  0.00    -0.203 F 
ATOM     78  C   UNL A   1      36.835  29.356  30.231  1.00  0.00     0.198 A 
ATOM     79  C   UNL A   1      37.376  29.618  27.920  1.00  0.00     0.198 A 
ATOM     80  F   UNL A   1      39.413  28.854  27.082  1.00  0.00    -0.203 F 
ATOM     81  F   UNL A   1      36.015  29.599  31.264  1.00  0.00    -0.200 F 
ATOM     82  C   UNL A   1      36.510  29.838  28.974  1.00  0.00     0.200 A 
ATOM     83  F   UNL A   1      37.093  30.111  26.706  1.00  0.00    -0.200 F 
ATOM     84  F   UNL A   1      35.389  30.548  28.786  1.00  0.00    -0.200 F 
ENDBRANCH  50  74
BRANCH  62  85
ATOM     85  C   UNL A   1      44.421  27.411  32.424  1.00  0.00     0.064 A 
ATOM     86  C   UNL A   1      44.297  26.032  32.172  1.00  0.00     0.173 A 
ATOM     87  C   UNL A   1      44.624  27.801  33.754  1.00  0.00     0.173 A 
ATOM     88  F   UNL A   1      44.199  25.565  30.923  1.00  0.00    -0.203 F 
ATOM     89  C   UNL A   1      44.347  25.097  33.205  1.00  0.00     0.198 A 
ATOM     90  C   UNL A   1      44.708  26.864  34.780  1.00  0.00     0.198 A 
ATOM     91  F   UNL A   1      44.804  29.098  34.052  1.00  0.00    -0.203 F 
ATOM     92  F   UNL A   1      44.229  23.789  32.935  1.00  0.00    -0.200 F 
ATOM     93  C   UNL A   1      44.563  25.514  34.508  1.00  0.00     0.200 A 
ATOM     94  F   UNL A   1      44.969  27.269  36.031  1.00  0.00    -0.200 F 
ATOM     95  F   UNL A   1      44.663  24.613  35.495  1.00  0.00    -0.200 F 
ENDBRANCH  62  85
ENDBRANCH  36  37
ENDBRANCH  28  31
ENDBRANCH  26  27
ENDBRANCH  25  26
ENDBRANCH  24  25
ENDBRANCH  23  24
ENDBRANCH   1  23
TORSDOF 17
ENDMDL
MODEL 3
REMARK VINA RESULT:     -11.2      3.203      4.724
REMARK SMILES O=C(CSc1nc2cccnc2n1CC(F)(F)F)NCCCCCCNC(=O)c1ccc(-c2c3nc(c(-c4c(F)c(F)c(F)c(F)c4F)c4ccc([nH]4)c(-c4c(F)c(F)c(F)c(F)c4F)c4nc(c(-c5c(F)c(F)c(F)c(F)c5F)c5ccc2[nH]5)C=C4)C=C3)cc1
REMARK SMILES IDX 21 1 20 2 19 3 1 4 2 5 3 7 4 8 5 9 6 10 13 11 7 12 12 13
REMARK SMILES IDX 8 14 11 15 9 16 10 17 14 18 15 19 16 20 17 21 18 22 22 23
REMARK SMILES IDX 23 24 24 25 25 26 26 27 27 28 28 30 29 31 30 32 91 33 31 34
REMARK SMILES IDX 90 35 32 36 33 37 34 38 84 39 35 40 89 41 83 42 85 43 36 44
REMARK SMILES IDX 88 45 82 46 81 47 37 49 69 50 49 51 68 52 50 53 53 54 67 55
REMARK SMILES IDX 86 56 51 57 52 58 66 60 87 61 54 62 38 63 39 64 47 65 40 66
REMARK SMILES IDX 41 67 45 68 48 69 42 70 43 71 46 72 44 73 70 74 71 75 79 76
REMARK SMILES IDX 72 77 73 78 77 79 80 80 74 81 75 82 78 83 76 84 55 85 56 86
REMARK SMILES IDX 64 87 57 88 58 89 62 90 65 91 59 92 60 93 63 94 61 95
REMARK H PARENT 19 6 26 29 85 48 53 59
REMARK Flexibility Score: inf
ROOT
ATOM      1  C   UNL A   1      35.859  22.349  24.845  1.00  0.00     0.021 C 
ENDROOT
BRANCH   1   2
ATOM      2  C   UNL A   1      34.395  22.498  24.436  1.00  0.00     0.116 C 
BRANCH   2   3
ATOM      3  N   UNL A   1      34.101  23.835  23.972  1.00  0.00    -0.355 N 
ATOM      4  O   UNL A   1      33.690  23.258  21.790  1.00  0.00    -0.274 OA
ATOM      5  C   UNL A   1      33.726  24.111  22.676  1.00  0.00     0.230 C 
ATOM      6  H   UNL A   1      34.171  24.581  24.610  1.00  0.00     0.163 HD
BRANCH   5   7
ATOM      7  C   UNL A   1      33.516  25.580  22.356  1.00  0.00     0.178 C 
BRANCH   7   8
ATOM      8  S   UNL A   1      31.865  26.206  22.751  1.00  0.00    -0.078 SA
BRANCH   8   9
ATOM      9  C   UNL A   1      32.216  27.375  23.974  1.00  0.00     0.171 A 
ATOM     10  N   UNL A   1      33.353  27.433  24.630  1.00  0.00    -0.221 NA
ATOM     11  N   UNL A   1      31.360  28.389  24.321  1.00  0.00    -0.294 N 
ATOM     12  C   UNL A   1      33.235  28.530  25.446  1.00  0.00     0.109 A 
ATOM     13  C   UNL A   1      32.001  29.143  25.271  1.00  0.00     0.160 A 
ATOM     14  C   UNL A   1      34.117  29.091  26.376  1.00  0.00     0.034 A 
ATOM     15  N   UNL A   1      31.528  30.237  25.900  1.00  0.00    -0.237 NA
ATOM     16  C   UNL A   1      33.684  30.232  27.059  1.00  0.00     0.022 A 
ATOM     17  C   UNL A   1      32.418  30.745  26.788  1.00  0.00     0.113 A 
BRANCH  11  18
ATOM     18  C   UNL A   1      29.998  28.617  23.892  1.00  0.00     0.241 C 
BRANCH  18  19
ATOM     19  C   UNL A   1      29.864  29.601  22.755  1.00  0.00     0.406 C 
ATOM     20  F   UNL A   1      30.964  29.631  21.972  1.00  0.00    -0.169 F 
ATOM     21  F   UNL A   1      28.831  29.240  21.954  1.00  0.00    -0.169 F 
ATOM     22  F   UNL A   1      29.623  30.859  23.179  1.00  0.00    -0.169 F 
ENDBRANCH  18  19
ENDBRANCH  11  18
ENDBRANCH   8   9
ENDBRANCH   7   8
ENDBRANCH   5   7
ENDBRANCH   2   3
ENDBRANCH   1   2
BRANCH   1  23
ATOM     23  C   UNL A   1      36.563  23.664  25.202  1.00  0.00     0.002 C 
BRANCH  23  24
ATOM     24  C   UNL A   1      37.866  23.532  26.008  1.00  0.00     0.002 C 
BRANCH  24  25
ATOM     25  C   UNL A   1      38.605  22.194  25.888  1.00  0.00     0.021 C 
BRANCH  25  26
ATOM     26  C   UNL A   1      39.732  22.028  26.894  1.00  0.00     0.116 C 
BRANCH  26  27
ATOM     27  N   UNL A   1      41.044  21.935  26.258  1.00  0.00    -0.352 N 
ATOM     28  C   UNL A   1      41.930  22.956  26.001  1.00  0.00     0.251 C 
ATOM     29  H   UNL A   1      41.328  21.035  25.979  1.00  0.00     0.163 HD
ATOM     30  O   UNL A   1      42.828  22.822  25.170  1.00  0.00    -0.269 OA
BRANCH  28  31
ATOM     31  C   UNL A   1      41.803  24.216  26.747  1.00  0.00     0.039 A 
ATOM     32  C   UNL A   1      42.350  24.356  28.026  1.00  0.00     0.014 A 
ATOM     33  C   UNL A   1      41.091  25.262  26.159  1.00  0.00     0.014 A 
ATOM     34  C   UNL A   1      42.209  25.570  28.688  1.00  0.00     0.010 A 
ATOM     35  C   UNL A   1      41.070  26.499  26.748  1.00  0.00     0.010 A 
ATOM     36  C   UNL A   1      41.567  26.635  28.037  1.00  0.00    -0.014 A 
BRANCH  36  37
ATOM     37  C   UNL A   1      41.448  27.933  28.678  1.00  0.00     0.031 A 
ATOM     38  C   UNL A   1      42.510  28.909  28.321  1.00  0.00     0.074 A 
ATOM     39  C   UNL A   1      40.357  28.286  29.386  1.00  0.00     0.049 A 
ATOM     40  N   UNL A   1      43.399  29.418  29.105  1.00  0.00    -0.248 NA
ATOM     41  C   UNL A   1      42.676  29.281  26.906  1.00  0.00     0.031 C 
ATOM     42  C   UNL A   1      39.099  27.557  29.575  1.00  0.00     0.029 A 
ATOM     43  N   UNL A   1      40.120  29.458  30.032  1.00  0.00    -0.354 N 
ATOM     44  C   UNL A   1      44.143  30.301  28.330  1.00  0.00     0.074 A 
ATOM     45  C   UNL A   1      43.750  30.071  26.963  1.00  0.00     0.031 C 
ATOM     46  C   UNL A   1      38.164  28.390  30.085  1.00  0.00     0.029 A 
ATOM     47  C   UNL A   1      38.799  29.654  30.407  1.00  0.00     0.049 A 
ATOM     48  H   UNL A   1      40.829  30.114  30.219  1.00  0.00     0.167 HD
ATOM     49  C   UNL A   1      44.875  31.295  28.906  1.00  0.00     0.037 A 
ATOM     50  C   UNL A   1      38.273  30.802  30.902  1.00  0.00     0.037 A 
ATOM     51  C   UNL A   1      45.070  31.050  30.313  1.00  0.00     0.049 A 
ATOM     52  C   UNL A   1      39.406  31.594  31.453  1.00  0.00     0.074 A 
ATOM     53  C   UNL A   1      45.674  30.040  31.037  1.00  0.00     0.029 A 
ATOM     54  N   UNL A   1      44.259  31.709  31.205  1.00  0.00    -0.354 N 
ATOM     55  N   UNL A   1      40.107  31.221  32.490  1.00  0.00    -0.248 NA
ATOM     56  C   UNL A   1      40.067  32.531  30.555  1.00  0.00     0.031 C 
ATOM     57  C   UNL A   1      44.812  29.826  32.152  1.00  0.00     0.029 A 
ATOM     58  C   UNL A   1      43.785  30.767  32.083  1.00  0.00     0.049 A 
ATOM     59  H   UNL A   1      44.058  32.672  31.214  1.00  0.00     0.167 HD
ATOM     60  C   UNL A   1      41.418  31.523  32.158  1.00  0.00     0.074 A 
ATOM     61  C   UNL A   1      41.325  32.388  30.981  1.00  0.00     0.031 C 
ATOM     62  C   UNL A   1      42.466  30.815  32.673  1.00  0.00     0.037 A 
BRANCH  49  63
ATOM     63  C   UNL A   1      45.127  32.644  28.288  1.00  0.00     0.064 A 
ATOM     64  C   UNL A   1      44.048  33.533  28.108  1.00  0.00     0.173 A 
ATOM     65  C   UNL A   1      46.313  32.975  27.600  1.00  0.00     0.173 A 
ATOM     66  F   UNL A   1      42.867  33.303  28.701  1.00  0.00    -0.203 F 
ATOM     67  C   UNL A   1      44.131  34.625  27.241  1.00  0.00     0.198 A 
ATOM     68  C   UNL A   1      46.407  34.096  26.778  1.00  0.00     0.198 A 
ATOM     69  F   UNL A   1      47.382  32.170  27.600  1.00  0.00    -0.203 F 
ATOM     70  F   UNL A   1      43.042  35.369  27.002  1.00  0.00    -0.200 F 
ATOM     71  C   UNL A   1      45.309  34.903  26.572  1.00  0.00     0.200 A 
ATOM     72  F   UNL A   1      47.552  34.335  26.121  1.00  0.00    -0.200 F 
ATOM     73  F   UNL A   1      45.373  35.911  25.693  1.00  0.00    -0.200 F 
ENDBRANCH  49  63
BRANCH  50  74
ATOM     74  C   UNL A   1      36.952  31.395  30.576  1.00  0.00     0.064 A 
ATOM     75  C   UNL A   1      36.031  31.717  31.586  1.00  0.00     0.173 A 
ATOM     76  C   UNL A   1      36.677  31.915  29.294  1.00  0.00     0.173 A 
ATOM     77  F   UNL A   1      36.241  31.305  32.845  1.00  0.00    -0.203 F 
ATOM     78  C   UNL A   1      34.918  32.530  31.335  1.00  0.00     0.198 A 
ATOM     79  C   UNL A   1      35.563  32.719  29.043  1.00  0.00     0.198 A 
ATOM     80  F   UNL A   1      37.532  31.733  28.278  1.00  0.00    -0.203 F 
ATOM     81  F   UNL A   1      34.094  32.866  32.338  1.00  0.00    -0.200 F 
ATOM     82  C   UNL A   1      34.691  33.037  30.067  1.00  0.00     0.200 A 
ATOM     83  F   UNL A   1      35.378  33.234  27.820  1.00  0.00    -0.200 F 
ATOM     84  F   UNL A   1      33.661  33.865  29.839  1.00  0.00    -0.200 F 
ENDBRANCH  50  74
BRANCH  62  85
ATOM     85  C   UNL A   1      42.192  29.826  33.775  1.00  0.00     0.064 A 
ATOM     86  C   UNL A   1      41.824  28.487  33.554  1.00  0.00     0.173 A 
ATOM     87  C   UNL A   1      42.500  30.196  35.090  1.00  0.00     0.173 A 
ATOM     88  F   UNL A   1      41.608  28.025  32.318  1.00  0.00    -0.203 F 
ATOM     89  C   UNL A   1      41.743  27.573  34.604  1.00  0.00     0.198 A 
ATOM     90  C   UNL A   1      42.453  29.274  36.132  1.00  0.00     0.198 A 
ATOM     91  F   UNL A   1      42.911  31.447  35.357  1.00  0.00    -0.203 F 
ATOM     92  F   UNL A   1      41.393  26.300  34.363  1.00  0.00    -0.200 F 
ATOM     93  C   UNL A   1      42.068  27.965  35.891  1.00  0.00     0.200 A 
ATOM     94  F   UNL A   1      42.818  29.646  37.367  1.00  0.00    -0.200 F 
ATOM     95  F   UNL A   1      42.042  27.075  36.893  1.00  0.00    -0.200 F 
ENDBRANCH  62  85
ENDBRANCH  36  37
ENDBRANCH  28  31
ENDBRANCH  26  27
ENDBRANCH  25  26
ENDBRANCH  24  25
ENDBRANCH  23  24
ENDBRANCH   1  23
TORSDOF 17
ENDMDL
