MODEL 1
REMARK VINA RESULT:     -12.9      0.000      0.000
REMARK SMILES COc1ccc2c(CC(=O)NCCCCCCNC(=O)c3ccc(-c4c5nc(c(-c6c(F)c(F)c(F)c(F)c6F)c6ccc([nH]6)c(-c6c(F)c(F)c(F)c(F)c6F)c6nc(c(-c7c(F)c(F)c(F)c(F)c7F)c7ccc4[nH]7)C=C6)C=C5)cc3)c(C(=O)c3cc(C)ccn3)[nH]c2c1
REMARK SMILES IDX 14 1 13 2 12 3 11 4 9 5 10 6 8 8 7 9 3 10 4 11 96 12 5 13
REMARK SMILES IDX 95 14 6 15 94 16 84 17 2 19 1 20 85 21 86 22 87 23 88 24
REMARK SMILES IDX 93 25 89 26 92 27 90 28 91 29 15 30 16 31 17 32 18 33 19 34
REMARK SMILES IDX 20 36 21 37 22 38 83 39 23 40 82 41 24 42 25 43 26 44 76 45
REMARK SMILES IDX 27 46 81 47 75 48 77 49 28 50 80 51 74 52 73 53 29 55 61 56
REMARK SMILES IDX 41 57 60 58 42 59 45 60 59 61 78 62 43 63 44 64 58 66 79 67
REMARK SMILES IDX 46 68 30 69 31 70 39 71 32 72 33 73 37 74 40 75 34 76 35 77
REMARK SMILES IDX 38 78 36 79 62 80 63 81 71 82 64 83 65 84 69 85 72 86 66 87
REMARK SMILES IDX 67 88 70 89 68 90 47 91 48 92 56 93 49 94 50 95 54 96 57 97
REMARK SMILES IDX 51 98 52 99 55 100 53 101
REMARK H PARENT 11 7 94 18 18 35 77 54 45 65
REMARK Flexibility Score: inf
ROOT
ATOM      1  C   UNL A   1      36.990  22.308  25.654  1.00  0.00     0.002 C 
ENDROOT
BRANCH   1   2
ATOM      2  C   UNL A   1      36.654  23.696  25.091  1.00  0.00     0.021 C 
BRANCH   2   3
ATOM      3  C   UNL A   1      35.159  24.009  25.077  1.00  0.00     0.116 C 
BRANCH   3   4
ATOM      4  N   UNL A   1      34.707  24.425  23.769  1.00  0.00    -0.356 N 
ATOM      5  C   UNL A   1      33.833  25.411  23.416  1.00  0.00     0.224 C 
ATOM      6  O   UNL A   1      33.753  25.676  22.212  1.00  0.00    -0.275 OA
ATOM      7  H   UNL A   1      35.090  23.919  23.016  1.00  0.00     0.163 HD
BRANCH   5   8
ATOM      8  C   UNL A   1      33.110  26.252  24.463  1.00  0.00     0.138 C 
BRANCH   8   9
ATOM      9  C   UNL A   1      31.607  26.299  24.345  1.00  0.00    -0.002 A 
ATOM     10  C   UNL A   1      28.886  28.965  22.525  1.00  0.00     0.120 A 
ATOM     11  C   UNL A   1      30.231  29.237  22.299  1.00  0.00     0.047 A 
ATOM     12  C   UNL A   1      28.506  27.866  23.309  1.00  0.00     0.073 A 
ATOM     13  C   UNL A   1      31.226  28.407  22.831  1.00  0.00     0.014 A 
ATOM     14  C   UNL A   1      29.515  27.043  23.830  1.00  0.00     0.050 A 
ATOM     15  C   UNL A   1      30.866  27.290  23.616  1.00  0.00     0.004 A 
ATOM     16  N   UNL A   1      29.431  25.916  24.608  1.00  0.00    -0.351 N 
ATOM     17  C   UNL A   1      30.682  25.397  24.875  1.00  0.00     0.093 A 
ATOM     18  H   UNL A   1      28.587  25.526  24.935  1.00  0.00     0.167 HD
BRANCH  10  19
ATOM     19  O   UNL A   1      27.847  29.731  22.067  1.00  0.00    -0.497 OA
ATOM     20  C   UNL A   1      28.202  30.753  21.139  1.00  0.00     0.278 C 
ENDBRANCH  10  19
BRANCH  17  21
ATOM     21  C   UNL A   1      30.954  24.159  25.600  1.00  0.00     0.227 C 
ATOM     22  O   UNL A   1      30.768  24.035  26.807  1.00  0.00    -0.285 OA
BRANCH  21  23
ATOM     23  C   UNL A   1      31.541  22.997  24.879  1.00  0.00     0.113 A 
ATOM     24  C   UNL A   1      32.067  21.927  25.598  1.00  0.00     0.036 A 
ATOM     25  N   UNL A   1      31.472  23.039  23.525  1.00  0.00    -0.253 NA
ATOM     26  C   UNL A   1      32.552  20.828  24.887  1.00  0.00    -0.047 A 
ATOM     27  C   UNL A   1      31.918  21.951  22.865  1.00  0.00     0.112 A 
ATOM     28  C   UNL A   1      33.131  19.640  25.592  1.00  0.00     0.044 C 
ATOM     29  C   UNL A   1      32.463  20.841  23.492  1.00  0.00     0.023 A 
ENDBRANCH  21  23
ENDBRANCH  17  21
ENDBRANCH   8   9
ENDBRANCH   5   8
ENDBRANCH   3   4
ENDBRANCH   2   3
ENDBRANCH   1   2
BRANCH   1  30
ATOM     30  C   UNL A   1      36.967  21.169  24.629  1.00  0.00     0.002 C 
BRANCH  30  31
ATOM     31  C   UNL A   1      37.889  19.992  24.951  1.00  0.00     0.021 C 
BRANCH  31  32
ATOM     32  C   UNL A   1      39.151  20.377  25.714  1.00  0.00     0.116 C 
BRANCH  32  33
ATOM     33  N   UNL A   1      40.077  19.261  25.839  1.00  0.00    -0.352 N 
ATOM     34  C   UNL A   1      41.435  19.284  26.040  1.00  0.00     0.251 C 
ATOM     35  H   UNL A   1      39.674  18.366  25.769  1.00  0.00     0.163 HD
ATOM     36  O   UNL A   1      42.104  18.261  25.931  1.00  0.00    -0.269 OA
BRANCH  34  37
ATOM     37  C   UNL A   1      42.092  20.563  26.375  1.00  0.00     0.039 A 
ATOM     38  C   UNL A   1      42.574  21.374  25.344  1.00  0.00     0.014 A 
ATOM     39  C   UNL A   1      42.206  20.967  27.708  1.00  0.00     0.014 A 
ATOM     40  C   UNL A   1      43.108  22.629  25.648  1.00  0.00     0.010 A 
ATOM     41  C   UNL A   1      42.667  22.245  28.001  1.00  0.00     0.010 A 
ATOM     42  C   UNL A   1      43.121  23.089  26.974  1.00  0.00    -0.014 A 
BRANCH  42  43
ATOM     43  C   UNL A   1      43.605  24.447  27.328  1.00  0.00     0.031 A 
ATOM     44  C   UNL A   1      42.636  25.467  27.857  1.00  0.00     0.074 A 
ATOM     45  C   UNL A   1      44.884  24.789  27.084  1.00  0.00     0.049 A 
ATOM     46  N   UNL A   1      42.814  26.744  28.078  1.00  0.00    -0.248 NA
ATOM     47  C   UNL A   1      41.273  24.991  28.145  1.00  0.00     0.031 C 
ATOM     48  C   UNL A   1      45.913  23.896  26.549  1.00  0.00     0.029 A 
ATOM     49  N   UNL A   1      45.533  25.990  27.232  1.00  0.00    -0.354 N 
ATOM     50  C   UNL A   1      41.586  27.225  28.512  1.00  0.00     0.074 A 
ATOM     51  C   UNL A   1      40.657  26.116  28.474  1.00  0.00     0.031 C 
ATOM     52  C   UNL A   1      47.063  24.576  26.423  1.00  0.00     0.029 A 
ATOM     53  C   UNL A   1      46.844  25.964  26.820  1.00  0.00     0.049 A 
ATOM     54  H   UNL A   1      45.101  26.795  27.600  1.00  0.00     0.167 HD
ATOM     55  C   UNL A   1      41.268  28.475  28.925  1.00  0.00     0.037 A 
ATOM     56  C   UNL A   1      47.756  26.952  26.747  1.00  0.00     0.037 A 
ATOM     57  C   UNL A   1      42.203  29.568  28.978  1.00  0.00     0.049 A 
ATOM     58  C   UNL A   1      47.368  28.342  27.177  1.00  0.00     0.074 A 
ATOM     59  C   UNL A   1      41.992  30.861  29.422  1.00  0.00     0.029 A 
ATOM     60  N   UNL A   1      43.528  29.494  28.571  1.00  0.00    -0.354 N 
ATOM     61  N   UNL A   1      46.217  28.776  27.632  1.00  0.00    -0.248 NA
ATOM     62  C   UNL A   1      48.404  29.381  27.087  1.00  0.00     0.031 C 
ATOM     63  C   UNL A   1      43.172  31.586  29.232  1.00  0.00     0.029 A 
ATOM     64  C   UNL A   1      44.138  30.726  28.733  1.00  0.00     0.049 A 
ATOM     65  H   UNL A   1      43.966  28.687  28.219  1.00  0.00     0.167 HD
ATOM     66  C   UNL A   1      46.403  30.121  27.924  1.00  0.00     0.074 A 
ATOM     67  C   UNL A   1      47.777  30.434  27.592  1.00  0.00     0.031 C 
ATOM     68  C   UNL A   1      45.517  31.014  28.427  1.00  0.00     0.037 A 
BRANCH  55  69
ATOM     69  C   UNL A   1      39.850  28.730  29.346  1.00  0.00     0.064 A 
ATOM     70  C   UNL A   1      38.879  29.177  28.437  1.00  0.00     0.173 A 
ATOM     71  C   UNL A   1      39.444  28.483  30.666  1.00  0.00     0.173 A 
ATOM     72  F   UNL A   1      39.215  29.438  27.163  1.00  0.00    -0.203 F 
ATOM     73  C   UNL A   1      37.565  29.397  28.841  1.00  0.00     0.198 A 
ATOM     74  C   UNL A   1      38.121  28.671  31.059  1.00  0.00     0.198 A 
ATOM     75  F   UNL A   1      40.329  28.046  31.576  1.00  0.00    -0.203 F 
ATOM     76  F   UNL A   1      36.669  29.875  27.966  1.00  0.00    -0.200 F 
ATOM     77  C   UNL A   1      37.185  29.136  30.148  1.00  0.00     0.200 A 
ATOM     78  F   UNL A   1      37.753  28.402  32.319  1.00  0.00    -0.200 F 
ATOM     79  F   UNL A   1      35.917  29.339  30.533  1.00  0.00    -0.200 F 
ENDBRANCH  55  69
BRANCH  56  80
ATOM     80  C   UNL A   1      49.130  26.664  26.258  1.00  0.00     0.064 A 
ATOM     81  C   UNL A   1      49.493  26.934  24.931  1.00  0.00     0.173 A 
ATOM     82  C   UNL A   1      50.105  26.105  27.097  1.00  0.00     0.173 A 
ATOM     83  F   UNL A   1      48.590  27.451  24.083  1.00  0.00    -0.203 F 
ATOM     84  C   UNL A   1      50.767  26.634  24.456  1.00  0.00     0.198 A 
ATOM     85  C   UNL A   1      51.390  25.834  26.629  1.00  0.00     0.198 A 
ATOM     86  F   UNL A   1      49.814  25.829  28.377  1.00  0.00    -0.203 F 
ATOM     87  F   UNL A   1      51.070  26.855  23.169  1.00  0.00    -0.200 F 
ATOM     88  C   UNL A   1      51.717  26.090  25.306  1.00  0.00     0.200 A 
ATOM     89  F   UNL A   1      52.308  25.321  27.460  1.00  0.00    -0.200 F 
ATOM     90  F   UNL A   1      52.944  25.802  24.849  1.00  0.00    -0.200 F 
ENDBRANCH  56  80
BRANCH  68  91
ATOM     91  C   UNL A   1      46.011  32.400  28.721  1.00  0.00     0.064 A 
ATOM     92  C   UNL A   1      45.943  33.429  27.772  1.00  0.00     0.173 A 
ATOM     93  C   UNL A   1      46.481  32.719  30.006  1.00  0.00     0.173 A 
ATOM     94  F   UNL A   1      45.514  33.174  26.527  1.00  0.00    -0.203 F 
ATOM     95  C   UNL A   1      46.338  34.725  28.096  1.00  0.00     0.198 A 
ATOM     96  C   UNL A   1      46.846  34.020  30.334  1.00  0.00     0.198 A 
ATOM     97  F   UNL A   1      46.559  31.770  30.950  1.00  0.00    -0.203 F 
ATOM     98  F   UNL A   1      46.296  35.689  27.165  1.00  0.00    -0.200 F 
ATOM     99  C   UNL A   1      46.777  35.021  29.378  1.00  0.00     0.200 A 
ATOM    100  F   UNL A   1      47.253  34.307  31.578  1.00  0.00    -0.200 F 
ATOM    101  F   UNL A   1      47.136  36.275  29.692  1.00  0.00    -0.200 F 
ENDBRANCH  68  91
ENDBRANCH  42  43
ENDBRANCH  34  37
ENDBRANCH  32  33
ENDBRANCH  31  32
ENDBRANCH  30  31
ENDBRANCH   1  30
TORSDOF 17
ENDMDL
MODEL 2
REMARK VINA RESULT:     -12.9      1.706      4.037
REMARK SMILES COc1ccc2c(CC(=O)NCCCCCCNC(=O)c3ccc(-c4c5nc(c(-c6c(F)c(F)c(F)c(F)c6F)c6ccc([nH]6)c(-c6c(F)c(F)c(F)c(F)c6F)c6nc(c(-c7c(F)c(F)c(F)c(F)c7F)c7ccc4[nH]7)C=C6)C=C5)cc3)c(C(=O)c3cc(C)ccn3)[nH]c2c1
REMARK SMILES IDX 14 1 13 2 12 3 11 4 9 5 10 6 8 8 7 9 3 10 4 11 96 12 5 13
REMARK SMILES IDX 95 14 6 15 94 16 84 17 2 19 1 20 85 21 86 22 87 23 88 24
REMARK SMILES IDX 93 25 89 26 92 27 90 28 91 29 15 30 16 31 17 32 18 33 19 34
REMARK SMILES IDX 20 36 21 37 22 38 83 39 23 40 82 41 24 42 25 43 26 44 76 45
REMARK SMILES IDX 27 46 81 47 75 48 77 49 28 50 80 51 74 52 73 53 29 55 61 56
REMARK SMILES IDX 41 57 60 58 42 59 45 60 59 61 78 62 43 63 44 64 58 66 79 67
REMARK SMILES IDX 46 68 30 69 31 70 39 71 32 72 33 73 37 74 40 75 34 76 35 77
REMARK SMILES IDX 38 78 36 79 62 80 63 81 71 82 64 83 65 84 69 85 72 86 66 87
REMARK SMILES IDX 67 88 70 89 68 90 47 91 48 92 56 93 49 94 50 95 54 96 57 97
REMARK SMILES IDX 51 98 52 99 55 100 53 101
REMARK H PARENT 11 7 94 18 18 35 77 54 45 65
REMARK Flexibility Score: inf
ROOT
ATOM      1  C   UNL A   1      36.646  22.117  24.090  1.00  0.00     0.002 C 
ENDROOT
BRANCH   1   2
ATOM      2  C   UNL A   1      36.365  23.475  24.748  1.00  0.00     0.021 C 
BRANCH   2   3
ATOM      3  C   UNL A   1      35.029  24.092  24.338  1.00  0.00     0.116 C 
BRANCH   3   4
ATOM      4  N   UNL A   1      34.580  23.603  23.054  1.00  0.00    -0.356 N 
ATOM      5  C   UNL A   1      33.410  22.991  22.709  1.00  0.00     0.224 C 
ATOM      6  O   UNL A   1      33.205  22.829  21.502  1.00  0.00    -0.275 OA
ATOM      7  H   UNL A   1      35.216  23.732  22.314  1.00  0.00     0.163 HD
BRANCH   5   8
ATOM      8  C   UNL A   1      32.341  22.667  23.747  1.00  0.00     0.138 C 
BRANCH   8   9
ATOM      9  C   UNL A   1      32.648  21.515  24.670  1.00  0.00    -0.002 A 
ATOM     10  C   UNL A   1      32.885  17.330  24.168  1.00  0.00     0.120 A 
ATOM     11  C   UNL A   1      32.677  18.061  23.002  1.00  0.00     0.047 A 
ATOM     12  C   UNL A   1      33.005  17.982  25.403  1.00  0.00     0.073 A 
ATOM     13  C   UNL A   1      32.606  19.460  23.042  1.00  0.00     0.014 A 
ATOM     14  C   UNL A   1      32.937  19.383  25.422  1.00  0.00     0.050 A 
ATOM     15  C   UNL A   1      32.733  20.138  24.273  1.00  0.00     0.004 A 
ATOM     16  N   UNL A   1      33.030  20.264  26.470  1.00  0.00    -0.351 N 
ATOM     17  C   UNL A   1      32.935  21.571  26.036  1.00  0.00     0.093 A 
ATOM     18  H   UNL A   1      33.150  20.000  27.412  1.00  0.00     0.167 HD
BRANCH  10  19
ATOM     19  O   UNL A   1      32.945  15.963  24.230  1.00  0.00    -0.497 OA
ATOM     20  C   UNL A   1      33.014  15.411  25.541  1.00  0.00     0.278 C 
ENDBRANCH  10  19
BRANCH  17  21
ATOM     21  C   UNL A   1      33.079  22.759  26.872  1.00  0.00     0.227 C 
ATOM     22  O   UNL A   1      33.943  22.870  27.737  1.00  0.00    -0.285 OA
BRANCH  21  23
ATOM     23  C   UNL A   1      32.110  23.880  26.731  1.00  0.00     0.113 A 
ATOM     24  C   UNL A   1      32.563  25.149  26.379  1.00  0.00     0.036 A 
ATOM     25  N   UNL A   1      30.803  23.566  26.911  1.00  0.00    -0.253 NA
ATOM     26  C   UNL A   1      31.618  26.160  26.196  1.00  0.00    -0.047 A 
ATOM     27  C   UNL A   1      29.910  24.552  26.696  1.00  0.00     0.112 A 
ATOM     28  C   UNL A   1      32.030  27.550  25.814  1.00  0.00     0.044 C 
ATOM     29  C   UNL A   1      30.264  25.848  26.348  1.00  0.00     0.023 A 
ENDBRANCH  21  23
ENDBRANCH  17  21
ENDBRANCH   8   9
ENDBRANCH   5   8
ENDBRANCH   3   4
ENDBRANCH   2   3
ENDBRANCH   1   2
BRANCH   1  30
ATOM     30  C   UNL A   1      36.652  20.920  25.047  1.00  0.00     0.002 C 
BRANCH  30  31
ATOM     31  C   UNL A   1      37.837  19.967  24.882  1.00  0.00     0.021 C 
BRANCH  31  32
ATOM     32  C   UNL A   1      39.064  20.347  25.702  1.00  0.00     0.116 C 
BRANCH  32  33
ATOM     33  N   UNL A   1      39.991  19.235  25.848  1.00  0.00    -0.352 N 
ATOM     34  C   UNL A   1      41.347  19.263  26.058  1.00  0.00     0.251 C 
ATOM     35  H   UNL A   1      39.590  18.338  25.788  1.00  0.00     0.163 HD
ATOM     36  O   UNL A   1      42.020  18.240  25.967  1.00  0.00    -0.269 OA
BRANCH  34  37
ATOM     37  C   UNL A   1      42.001  20.547  26.380  1.00  0.00     0.039 A 
ATOM     38  C   UNL A   1      42.364  21.408  25.341  1.00  0.00     0.014 A 
ATOM     39  C   UNL A   1      42.227  20.907  27.711  1.00  0.00     0.014 A 
ATOM     40  C   UNL A   1      42.891  22.667  25.642  1.00  0.00     0.010 A 
ATOM     41  C   UNL A   1      42.682  22.186  28.009  1.00  0.00     0.010 A 
ATOM     42  C   UNL A   1      43.016  23.079  26.978  1.00  0.00    -0.014 A 
BRANCH  42  43
ATOM     43  C   UNL A   1      43.496  24.437  27.338  1.00  0.00     0.031 A 
ATOM     44  C   UNL A   1      42.524  25.453  27.867  1.00  0.00     0.074 A 
ATOM     45  C   UNL A   1      44.775  24.783  27.098  1.00  0.00     0.049 A 
ATOM     46  N   UNL A   1      42.699  26.729  28.094  1.00  0.00    -0.248 NA
ATOM     47  C   UNL A   1      41.161  24.973  28.151  1.00  0.00     0.031 C 
ATOM     48  C   UNL A   1      45.807  23.894  26.563  1.00  0.00     0.029 A 
ATOM     49  N   UNL A   1      45.421  25.984  27.252  1.00  0.00    -0.354 N 
ATOM     50  C   UNL A   1      41.468  27.207  28.527  1.00  0.00     0.074 A 
ATOM     51  C   UNL A   1      40.542  26.095  28.482  1.00  0.00     0.031 C 
ATOM     52  C   UNL A   1      46.957  24.576  26.442  1.00  0.00     0.029 A 
ATOM     53  C   UNL A   1      46.733  25.962  26.843  1.00  0.00     0.049 A 
ATOM     54  H   UNL A   1      44.986  26.787  27.622  1.00  0.00     0.167 HD
ATOM     55  C   UNL A   1      41.147  28.455  28.942  1.00  0.00     0.037 A 
ATOM     56  C   UNL A   1      47.643  26.953  26.776  1.00  0.00     0.037 A 
ATOM     57  C   UNL A   1      42.079  29.549  29.002  1.00  0.00     0.049 A 
ATOM     58  C   UNL A   1      47.251  28.340  27.210  1.00  0.00     0.074 A 
ATOM     59  C   UNL A   1      41.864  30.840  29.450  1.00  0.00     0.029 A 
ATOM     60  N   UNL A   1      43.405  29.480  28.598  1.00  0.00    -0.354 N 
ATOM     61  N   UNL A   1      46.098  28.770  27.664  1.00  0.00    -0.248 NA
ATOM     62  C   UNL A   1      48.285  29.382  27.126  1.00  0.00     0.031 C 
ATOM     63  C   UNL A   1      43.043  31.568  29.266  1.00  0.00     0.029 A 
ATOM     64  C   UNL A   1      44.013  30.712  28.766  1.00  0.00     0.049 A 
ATOM     65  H   UNL A   1      43.846  28.674  28.244  1.00  0.00     0.167 HD
ATOM     66  C   UNL A   1      46.281  30.115  27.960  1.00  0.00     0.074 A 
ATOM     67  C   UNL A   1      47.655  30.432  27.633  1.00  0.00     0.031 C 
ATOM     68  C   UNL A   1      45.391  31.004  28.464  1.00  0.00     0.037 A 
BRANCH  55  69
ATOM     69  C   UNL A   1      39.727  28.705  29.361  1.00  0.00     0.064 A 
ATOM     70  C   UNL A   1      39.303  28.516  30.685  1.00  0.00     0.173 A 
ATOM     71  C   UNL A   1      38.786  29.182  28.435  1.00  0.00     0.173 A 
ATOM     72  F   UNL A   1      40.160  28.052  31.608  1.00  0.00    -0.203 F 
ATOM     73  C   UNL A   1      37.985  28.764  31.059  1.00  0.00     0.198 A 
ATOM     74  C   UNL A   1      37.478  29.463  28.820  1.00  0.00     0.198 A 
ATOM     75  F   UNL A   1      39.138  29.390  27.157  1.00  0.00    -0.203 F 
ATOM     76  F   UNL A   1      37.592  28.524  32.318  1.00  0.00    -0.200 F 
ATOM     77  C   UNL A   1      37.076  29.245  30.129  1.00  0.00     0.200 A 
ATOM     78  F   UNL A   1      36.605  29.944  27.924  1.00  0.00    -0.200 F 
ATOM     79  F   UNL A   1      35.810  29.493  30.493  1.00  0.00    -0.200 F 
ENDBRANCH  55  69
BRANCH  56  80
ATOM     80  C   UNL A   1      49.019  26.669  26.289  1.00  0.00     0.064 A 
ATOM     81  C   UNL A   1      49.388  26.955  24.967  1.00  0.00     0.173 A 
ATOM     82  C   UNL A   1      49.990  26.099  27.126  1.00  0.00     0.173 A 
ATOM     83  F   UNL A   1      48.489  27.481  24.122  1.00  0.00    -0.203 F 
ATOM     84  C   UNL A   1      50.664  26.659  24.494  1.00  0.00     0.198 A 
ATOM     85  C   UNL A   1      51.277  25.833  26.661  1.00  0.00     0.198 A 
ATOM     86  F   UNL A   1      49.694  25.810  28.402  1.00  0.00    -0.203 F 
ATOM     87  F   UNL A   1      50.972  26.895  23.211  1.00  0.00    -0.200 F 
ATOM     88  C   UNL A   1      51.610  26.104  25.342  1.00  0.00     0.200 A 
ATOM     89  F   UNL A   1      52.191  25.310  27.489  1.00  0.00    -0.200 F 
ATOM     90  F   UNL A   1      52.838  25.820  24.887  1.00  0.00    -0.200 F 
ENDBRANCH  56  80
BRANCH  68  91
ATOM     91  C   UNL A   1      45.881  32.390  28.764  1.00  0.00     0.064 A 
ATOM     92  C   UNL A   1      45.792  33.428  27.828  1.00  0.00     0.173 A 
ATOM     93  C   UNL A   1      46.370  32.699  30.045  1.00  0.00     0.173 A 
ATOM     94  F   UNL A   1      45.345  33.183  26.587  1.00  0.00    -0.203 F 
ATOM     95  C   UNL A   1      46.184  34.723  28.157  1.00  0.00     0.198 A 
ATOM     96  C   UNL A   1      46.732  33.999  30.380  1.00  0.00     0.198 A 
ATOM     97  F   UNL A   1      46.469  31.741  30.978  1.00  0.00    -0.203 F 
ATOM     98  F   UNL A   1      46.122  35.696  27.237  1.00  0.00    -0.200 F 
ATOM     99  C   UNL A   1      46.642  35.009  29.435  1.00  0.00     0.200 A 
ATOM    100  F   UNL A   1      47.158  34.277  31.620  1.00  0.00    -0.200 F 
ATOM    101  F   UNL A   1      46.999  36.262  29.757  1.00  0.00    -0.200 F 
ENDBRANCH  68  91
ENDBRANCH  42  43
ENDBRANCH  34  37
ENDBRANCH  32  33
ENDBRANCH  31  32
ENDBRANCH  30  31
ENDBRANCH   1  30
TORSDOF 17
ENDMDL
MODEL 3
REMARK VINA RESULT:     -12.8      5.549     10.991
REMARK SMILES COc1ccc2c(CC(=O)NCCCCCCNC(=O)c3ccc(-c4c5nc(c(-c6c(F)c(F)c(F)c(F)c6F)c6ccc([nH]6)c(-c6c(F)c(F)c(F)c(F)c6F)c6nc(c(-c7c(F)c(F)c(F)c(F)c7F)c7ccc4[nH]7)C=C6)C=C5)cc3)c(C(=O)c3cc(C)ccn3)[nH]c2c1
REMARK SMILES IDX 14 1 13 2 12 3 11 4 9 5 10 6 8 8 7 9 3 10 4 11 96 12 5 13
REMARK SMILES IDX 95 14 6 15 94 16 84 17 2 19 1 20 85 21 86 22 87 23 88 24
REMARK SMILES IDX 93 25 89 26 92 27 90 28 91 29 15 30 16 31 17 32 18 33 19 34
REMARK SMILES IDX 20 36 21 37 22 38 83 39 23 40 82 41 24 42 25 43 26 44 76 45
REMARK SMILES IDX 27 46 81 47 75 48 77 49 28 50 80 51 74 52 73 53 29 55 61 56
REMARK SMILES IDX 41 57 60 58 42 59 45 60 59 61 78 62 43 63 44 64 58 66 79 67
REMARK SMILES IDX 46 68 30 69 31 70 39 71 32 72 33 73 37 74 40 75 34 76 35 77
REMARK SMILES IDX 38 78 36 79 62 80 63 81 71 82 64 83 65 84 69 85 72 86 66 87
REMARK SMILES IDX 67 88 70 89 68 90 47 91 48 92 56 93 49 94 50 95 54 96 57 97
REMARK SMILES IDX 51 98 52 99 55 100 53 101
REMARK H PARENT 11 7 94 18 18 35 77 54 45 65
REMARK Flexibility Score: inf
ROOT
ATOM      1  C   UNL A   1      32.679  29.949  27.372  1.00  0.00     0.002 C 
ENDROOT
BRANCH   1   2
ATOM      2  C   UNL A   1      32.846  28.456  27.057  1.00  0.00     0.021 C 
BRANCH   2   3
ATOM      3  C   UNL A   1      34.070  28.141  26.200  1.00  0.00     0.116 C 
BRANCH   3   4
ATOM      4  N   UNL A   1      34.041  28.845  24.938  1.00  0.00    -0.356 N 
ATOM      5  C   UNL A   1      33.767  28.384  23.683  1.00  0.00     0.224 C 
ATOM      6  O   UNL A   1      33.639  29.234  22.797  1.00  0.00    -0.275 OA
ATOM      7  H   UNL A   1      34.252  29.806  24.992  1.00  0.00     0.163 HD
BRANCH   5   8
ATOM      8  C   UNL A   1      33.476  26.911  23.418  1.00  0.00     0.138 C 
BRANCH   8   9
ATOM      9  C   UNL A   1      32.157  26.398  23.938  1.00  0.00    -0.002 A 
ATOM     10  C   UNL A   1      31.055  23.533  26.837  1.00  0.00     0.120 A 
ATOM     11  C   UNL A   1      32.419  23.791  26.739  1.00  0.00     0.047 A 
ATOM     12  C   UNL A   1      30.145  24.205  26.009  1.00  0.00     0.073 A 
ATOM     13  C   UNL A   1      32.901  24.741  25.830  1.00  0.00     0.014 A 
ATOM     14  C   UNL A   1      30.645  25.157  25.108  1.00  0.00     0.050 A 
ATOM     15  C   UNL A   1      32.002  25.436  24.993  1.00  0.00     0.004 A 
ATOM     16  N   UNL A   1      29.992  25.955  24.203  1.00  0.00    -0.351 N 
ATOM     17  C   UNL A   1      30.876  26.775  23.530  1.00  0.00     0.093 A 
ATOM     18  H   UNL A   1      29.019  25.945  24.051  1.00  0.00     0.167 HD
BRANCH  10  19
ATOM     19  O   UNL A   1      30.495  22.608  27.677  1.00  0.00    -0.497 OA
ATOM     20  C   UNL A   1      29.076  22.491  27.604  1.00  0.00     0.278 C 
ENDBRANCH  10  19
BRANCH  17  21
ATOM     21  C   UNL A   1      30.512  27.806  22.561  1.00  0.00     0.227 C 
ATOM     22  O   UNL A   1      31.068  27.929  21.473  1.00  0.00    -0.285 OA
BRANCH  21  23
ATOM     23  C   UNL A   1      29.463  28.802  22.906  1.00  0.00     0.113 A 
ATOM     24  C   UNL A   1      29.803  30.143  23.064  1.00  0.00     0.036 A 
ATOM     25  N   UNL A   1      28.195  28.328  22.995  1.00  0.00    -0.253 NA
ATOM     26  C   UNL A   1      28.782  31.058  23.326  1.00  0.00    -0.047 A 
ATOM     27  C   UNL A   1      27.225  29.237  23.216  1.00  0.00     0.112 A 
ATOM     28  C   UNL A   1      29.072  32.517  23.506  1.00  0.00     0.044 C 
ATOM     29  C   UNL A   1      27.466  30.592  23.392  1.00  0.00     0.023 A 
ENDBRANCH  21  23
ENDBRANCH  17  21
ENDBRANCH   8   9
ENDBRANCH   5   8
ENDBRANCH   3   4
ENDBRANCH   2   3
ENDBRANCH   1   2
BRANCH   1  30
ATOM     30  C   UNL A   1      31.480  30.625  26.697  1.00  0.00     0.002 C 
BRANCH  30  31
ATOM     31  C   UNL A   1      31.607  32.139  26.522  1.00  0.00     0.021 C 
BRANCH  31  32
ATOM     32  C   UNL A   1      32.686  32.780  27.386  1.00  0.00     0.116 C 
BRANCH  32  33
ATOM     33  N   UNL A   1      32.406  34.182  27.661  1.00  0.00    -0.352 N 
ATOM     34  C   UNL A   1      32.970  35.007  28.603  1.00  0.00     0.251 C 
ATOM     35  H   UNL A   1      31.717  34.596  27.094  1.00  0.00     0.163 HD
ATOM     36  O   UNL A   1      32.490  36.111  28.840  1.00  0.00    -0.269 OA
BRANCH  34  37
ATOM     37  C   UNL A   1      34.158  34.544  29.348  1.00  0.00     0.039 A 
ATOM     38  C   UNL A   1      33.994  34.000  30.625  1.00  0.00     0.014 A 
ATOM     39  C   UNL A   1      35.426  34.626  28.768  1.00  0.00     0.014 A 
ATOM     40  C   UNL A   1      35.100  33.470  31.294  1.00  0.00     0.010 A 
ATOM     41  C   UNL A   1      36.511  34.032  29.403  1.00  0.00     0.010 A 
ATOM     42  C   UNL A   1      36.358  33.446  30.671  1.00  0.00    -0.014 A 
BRANCH  42  43
ATOM     43  C   UNL A   1      37.540  32.820  31.315  1.00  0.00     0.031 A 
ATOM     44  C   UNL A   1      38.229  31.666  30.643  1.00  0.00     0.074 A 
ATOM     45  C   UNL A   1      37.930  33.224  32.539  1.00  0.00     0.049 A 
ATOM     46  N   UNL A   1      39.171  30.882  31.100  1.00  0.00    -0.248 NA
ATOM     47  C   UNL A   1      37.772  31.329  29.285  1.00  0.00     0.031 C 
ATOM     48  C   UNL A   1      37.327  34.316  33.303  1.00  0.00     0.029 A 
ATOM     49  N   UNL A   1      38.916  32.745  33.367  1.00  0.00    -0.354 N 
ATOM     50  C   UNL A   1      39.405  29.951  30.096  1.00  0.00     0.074 A 
ATOM     51  C   UNL A   1      38.472  30.235  29.027  1.00  0.00     0.031 C 
ATOM     52  C   UNL A   1      37.959  34.430  34.482  1.00  0.00     0.029 A 
ATOM     53  C   UNL A   1      38.979  33.389  34.579  1.00  0.00     0.049 A 
ATOM     54  H   UNL A   1      39.521  32.010  33.115  1.00  0.00     0.167 HD
ATOM     55  C   UNL A   1      40.330  28.962  30.062  1.00  0.00     0.037 A 
ATOM     56  C   UNL A   1      39.753  33.150  35.655  1.00  0.00     0.037 A 
ATOM     57  C   UNL A   1      41.267  28.699  31.121  1.00  0.00     0.049 A 
ATOM     58  C   UNL A   1      40.749  32.022  35.606  1.00  0.00     0.074 A 
ATOM     59  C   UNL A   1      42.273  27.750  31.166  1.00  0.00     0.029 A 
ATOM     60  N   UNL A   1      41.312  29.388  32.325  1.00  0.00    -0.354 N 
ATOM     61  N   UNL A   1      40.996  31.178  34.634  1.00  0.00    -0.248 NA
ATOM     62  C   UNL A   1      41.576  31.811  36.804  1.00  0.00     0.031 C 
ATOM     63  C   UNL A   1      42.890  27.826  32.418  1.00  0.00     0.029 A 
ATOM     64  C   UNL A   1      42.313  28.869  33.128  1.00  0.00     0.049 A 
ATOM     65  H   UNL A   1      40.719  30.134  32.572  1.00  0.00     0.167 HD
ATOM     66  C   UNL A   1      42.033  30.370  35.082  1.00  0.00     0.074 A 
ATOM     67  C   UNL A   1      42.368  30.822  36.416  1.00  0.00     0.031 C 
ATOM     68  C   UNL A   1      42.655  29.350  34.442  1.00  0.00     0.037 A 
BRANCH  55  69
ATOM     69  C   UNL A   1      40.369  28.087  28.843  1.00  0.00     0.064 A 
ATOM     70  C   UNL A   1      41.111  28.440  27.705  1.00  0.00     0.173 A 
ATOM     71  C   UNL A   1      39.692  26.858  28.826  1.00  0.00     0.173 A 
ATOM     72  F   UNL A   1      41.770  29.609  27.664  1.00  0.00    -0.203 F 
ATOM     73  C   UNL A   1      41.147  27.612  26.586  1.00  0.00     0.198 A 
ATOM     74  C   UNL A   1      39.758  26.016  27.719  1.00  0.00     0.198 A 
ATOM     75  F   UNL A   1      38.974  26.466  29.890  1.00  0.00    -0.203 F 
ATOM     76  F   UNL A   1      41.819  27.996  25.492  1.00  0.00    -0.200 F 
ATOM     77  C   UNL A   1      40.478  26.398  26.597  1.00  0.00     0.200 A 
ATOM     78  F   UNL A   1      39.125  24.835  27.738  1.00  0.00    -0.200 F 
ATOM     79  F   UNL A   1      40.521  25.597  25.523  1.00  0.00    -0.200 F 
ENDBRANCH  55  69
BRANCH  56  80
ATOM     80  C   UNL A   1      39.629  34.003  36.867  1.00  0.00     0.064 A 
ATOM     81  C   UNL A   1      38.829  33.605  37.947  1.00  0.00     0.173 A 
ATOM     82  C   UNL A   1      40.295  35.233  36.970  1.00  0.00     0.173 A 
ATOM     83  F   UNL A   1      38.156  32.446  37.889  1.00  0.00    -0.203 F 
ATOM     84  C   UNL A   1      38.679  34.415  39.071  1.00  0.00     0.198 A 
ATOM     85  C   UNL A   1      40.170  36.028  38.108  1.00  0.00     0.198 A 
ATOM     86  F   UNL A   1      41.077  35.661  35.968  1.00  0.00    -0.203 F 
ATOM     87  F   UNL A   1      37.867  34.033  40.066  1.00  0.00    -0.200 F 
ATOM     88  C   UNL A   1      39.354  35.623  39.153  1.00  0.00     0.200 A 
ATOM     89  F   UNL A   1      40.836  37.188  38.189  1.00  0.00    -0.200 F 
ATOM     90  F   UNL A   1      39.211  36.401  40.235  1.00  0.00    -0.200 F 
ENDBRANCH  56  80
BRANCH  68  91
ATOM     91  C   UNL A   1      43.810  28.690  35.137  1.00  0.00     0.064 A 
ATOM     92  C   UNL A   1      43.642  27.555  35.942  1.00  0.00     0.173 A 
ATOM     93  C   UNL A   1      45.117  29.155  34.919  1.00  0.00     0.173 A 
ATOM     94  F   UNL A   1      42.413  27.079  36.191  1.00  0.00    -0.203 F 
ATOM     95  C   UNL A   1      44.740  26.916  36.514  1.00  0.00     0.198 A 
ATOM     96  C   UNL A   1      46.213  28.497  35.467  1.00  0.00     0.198 A 
ATOM     97  F   UNL A   1      45.331  30.233  34.151  1.00  0.00    -0.203 F 
ATOM     98  F   UNL A   1      44.555  25.852  37.307  1.00  0.00    -0.200 F 
ATOM     99  C   UNL A   1      46.024  27.380  36.266  1.00  0.00     0.200 A 
ATOM    100  F   UNL A   1      47.454  28.936  35.213  1.00  0.00    -0.200 F 
ATOM    101  F   UNL A   1      47.080  26.750  36.800  1.00  0.00    -0.200 F 
ENDBRANCH  68  91
ENDBRANCH  42  43
ENDBRANCH  34  37
ENDBRANCH  32  33
ENDBRANCH  31  32
ENDBRANCH  30  31
ENDBRANCH   1  30
TORSDOF 17
ENDMDL
