MODEL 1
REMARK VINA RESULT:     -10.8      0.000      0.000
REMARK SMILES O=C(NCCCCCCNC(=O)c1cc(NC(=S)NC(=O)c2ccccc2Cl)c(Cl)cc1Cl)c1ccc(-c2c3nc(c(-c4c(F)c(F)c(F)c(F)c4F)c4ccc([nH]4)c(-c4c(F)c(F)c(F)c(F)c4F)c4nc(c(-c5c(F)c(F)c(F)c(F)c5F)c5ccc2[nH]5)C=C4)C=C3)cc1
REMARK SMILES IDX 7 1 6 2 5 3 4 4 3 5 1 6 2 7 34 9 35 10 96 11 36 12 95 13
REMARK SMILES IDX 37 14 38 15 39 16 89 17 40 18 94 19 88 20 90 21 41 22 93 23
REMARK SMILES IDX 87 24 86 25 42 27 74 28 54 29 73 30 55 31 58 32 72 33 91 34
REMARK SMILES IDX 56 35 57 36 71 38 92 39 59 40 43 41 44 42 52 43 45 44 46 45
REMARK SMILES IDX 50 46 53 47 47 48 48 49 51 50 49 51 75 52 76 53 84 54 77 55
REMARK SMILES IDX 78 56 82 57 85 58 79 59 80 60 83 61 81 62 60 63 61 64 69 65
REMARK SMILES IDX 62 66 63 67 67 68 70 69 64 70 65 71 68 72 66 73 8 74 9 75
REMARK SMILES IDX 10 76 11 77 12 79 13 80 14 81 32 82 15 83 31 84 33 85 29 86
REMARK SMILES IDX 30 87 16 88 17 90 18 91 19 92 20 93 21 95 22 96 23 97 27 98
REMARK SMILES IDX 24 99 26 100 28 101 25 102
REMARK H PARENT 3 8 90 26 58 37 10 78 16 89 19 94
REMARK Flexibility Score: inf
ROOT
ATOM      1  C   UNL A   1      42.082  36.071  28.111  1.00  0.00     0.002 C 
ENDROOT
BRANCH   1   2
ATOM      2  C   UNL A   1      42.305  37.585  28.250  1.00  0.00     0.002 C 
BRANCH   2   3
ATOM      3  C   UNL A   1      43.737  38.043  27.973  1.00  0.00     0.021 C 
BRANCH   3   4
ATOM      4  C   UNL A   1      44.663  37.837  29.159  1.00  0.00     0.116 C 
BRANCH   4   5
ATOM      5  N   UNL A   1      46.059  37.830  28.745  1.00  0.00    -0.352 N 
ATOM      6  O   UNL A   1      48.110  36.916  28.484  1.00  0.00    -0.269 OA
ATOM      7  C   UNL A   1      46.899  36.761  28.579  1.00  0.00     0.251 C 
ATOM      8  H   UNL A   1      46.452  38.713  28.558  1.00  0.00     0.163 HD
BRANCH   7   9
ATOM      9  C   UNL A   1      46.308  35.413  28.512  1.00  0.00     0.039 A 
ATOM     10  C   UNL A   1      45.600  35.034  27.369  1.00  0.00     0.014 A 
ATOM     11  C   UNL A   1      46.447  34.538  29.589  1.00  0.00     0.014 A 
ATOM     12  C   UNL A   1      44.912  33.835  27.358  1.00  0.00     0.010 A 
ATOM     13  C   UNL A   1      45.855  33.277  29.524  1.00  0.00     0.010 A 
ATOM     14  C   UNL A   1      45.076  32.922  28.411  1.00  0.00    -0.014 A 
BRANCH  14  15
ATOM     15  C   UNL A   1      44.531  31.555  28.248  1.00  0.00     0.031 A 
ATOM     16  C   UNL A   1      43.233  31.145  28.877  1.00  0.00     0.074 A 
ATOM     17  C   UNL A   1      45.236  30.687  27.495  1.00  0.00     0.049 A 
ATOM     18  N   UNL A   1      42.632  29.984  28.828  1.00  0.00    -0.248 NA
ATOM     19  C   UNL A   1      42.518  32.160  29.665  1.00  0.00     0.031 C 
ATOM     20  C   UNL A   1      46.518  30.985  26.845  1.00  0.00     0.029 A 
ATOM     21  N   UNL A   1      44.980  29.390  27.134  1.00  0.00    -0.354 N 
ATOM     22  C   UNL A   1      41.481  30.119  29.590  1.00  0.00     0.074 A 
ATOM     23  C   UNL A   1      41.475  31.469  30.111  1.00  0.00     0.031 C 
ATOM     24  C   UNL A   1      46.911  29.923  26.132  1.00  0.00     0.029 A 
ATOM     25  C   UNL A   1      45.962  28.839  26.347  1.00  0.00     0.049 A 
ATOM     26  H   UNL A   1      44.173  28.902  27.412  1.00  0.00     0.167 HD
ATOM     27  C   UNL A   1      40.522  29.192  29.826  1.00  0.00     0.037 A 
ATOM     28  C   UNL A   1      46.107  27.587  25.883  1.00  0.00     0.037 A 
ATOM     29  C   UNL A   1      40.544  27.851  29.295  1.00  0.00     0.049 A 
ATOM     30  C   UNL A   1      45.050  26.573  26.216  1.00  0.00     0.074 A 
ATOM     31  C   UNL A   1      39.596  26.854  29.441  1.00  0.00     0.029 A 
ATOM     32  N   UNL A   1      41.572  27.315  28.533  1.00  0.00    -0.354 N 
ATOM     33  N   UNL A   1      43.936  26.729  26.888  1.00  0.00    -0.248 NA
ATOM     34  C   UNL A   1      45.270  25.208  25.725  1.00  0.00     0.031 C 
ATOM     35  C   UNL A   1      40.085  25.693  28.838  1.00  0.00     0.029 A 
ATOM     36  C   UNL A   1      41.299  25.987  28.239  1.00  0.00     0.049 A 
ATOM     37  H   UNL A   1      42.376  27.804  28.242  1.00  0.00     0.167 HD
ATOM     38  C   UNL A   1      43.310  25.491  26.877  1.00  0.00     0.074 A 
ATOM     39  C   UNL A   1      44.154  24.604  26.104  1.00  0.00     0.031 C 
ATOM     40  C   UNL A   1      42.144  25.119  27.460  1.00  0.00     0.037 A 
BRANCH  27  41
ATOM     41  C   UNL A   1      39.371  29.568  30.715  1.00  0.00     0.064 A 
ATOM     42  C   UNL A   1      38.108  29.889  30.198  1.00  0.00     0.173 A 
ATOM     43  C   UNL A   1      39.512  29.508  32.111  1.00  0.00     0.173 A 
ATOM     44  F   UNL A   1      37.920  29.968  28.873  1.00  0.00    -0.203 F 
ATOM     45  C   UNL A   1      37.032  30.145  31.045  1.00  0.00     0.198 A 
ATOM     46  C   UNL A   1      38.427  29.732  32.953  1.00  0.00     0.198 A 
ATOM     47  F   UNL A   1      40.697  29.198  32.659  1.00  0.00    -0.203 F 
ATOM     48  F   UNL A   1      35.840  30.476  30.529  1.00  0.00    -0.200 F 
ATOM     49  C   UNL A   1      37.189  30.054  32.421  1.00  0.00     0.200 A 
ATOM     50  F   UNL A   1      38.577  29.622  34.281  1.00  0.00    -0.200 F 
ATOM     51  F   UNL A   1      36.145  30.274  33.232  1.00  0.00    -0.200 F 
ENDBRANCH  27  41
BRANCH  28  52
ATOM     52  C   UNL A   1      47.313  27.209  25.099  1.00  0.00     0.064 A 
ATOM     53  C   UNL A   1      48.375  26.515  25.693  1.00  0.00     0.173 A 
ATOM     54  C   UNL A   1      47.449  27.576  23.750  1.00  0.00     0.173 A 
ATOM     55  F   UNL A   1      48.300  26.151  26.982  1.00  0.00    -0.203 F 
ATOM     56  C   UNL A   1      49.545  26.247  24.985  1.00  0.00     0.198 A 
ATOM     57  C   UNL A   1      48.599  27.265  23.030  1.00  0.00     0.198 A 
ATOM     58  F   UNL A   1      46.458  28.231  23.127  1.00  0.00    -0.203 F 
ATOM     59  F   UNL A   1      50.576  25.655  25.603  1.00  0.00    -0.200 F 
ATOM     60  C   UNL A   1      49.654  26.619  23.654  1.00  0.00     0.200 A 
ATOM     61  F   UNL A   1      48.689  27.604  21.737  1.00  0.00    -0.200 F 
ATOM     62  F   UNL A   1      50.782  26.368  22.976  1.00  0.00    -0.200 F 
ENDBRANCH  28  52
BRANCH  40  63
ATOM     63  C   UNL A   1      41.691  23.704  27.240  1.00  0.00     0.064 A 
ATOM     64  C   UNL A   1      42.338  22.615  27.844  1.00  0.00     0.173 A 
ATOM     65  C   UNL A   1      40.578  23.435  26.429  1.00  0.00     0.173 A 
ATOM     66  F   UNL A   1      43.417  22.813  28.617  1.00  0.00    -0.203 F 
ATOM     67  C   UNL A   1      41.912  21.310  27.611  1.00  0.00     0.198 A 
ATOM     68  C   UNL A   1      40.127  22.134  26.235  1.00  0.00     0.198 A 
ATOM     69  F   UNL A   1      39.917  24.439  25.832  1.00  0.00    -0.203 F 
ATOM     70  F   UNL A   1      42.589  20.282  28.142  1.00  0.00    -0.200 F 
ATOM     71  C   UNL A   1      40.802  21.071  26.815  1.00  0.00     0.200 A 
ATOM     72  F   UNL A   1      39.042  21.908  25.482  1.00  0.00    -0.200 F 
ATOM     73  F   UNL A   1      40.388  19.814  26.599  1.00  0.00    -0.200 F 
ENDBRANCH  40  63
ENDBRANCH  14  15
ENDBRANCH   7   9
ENDBRANCH   4   5
ENDBRANCH   3   4
ENDBRANCH   2   3
ENDBRANCH   1   2
BRANCH   1  74
ATOM     74  C   UNL A   1      41.687  35.376  29.410  1.00  0.00     0.021 C 
BRANCH  74  75
ATOM     75  C   UNL A   1      40.207  35.026  29.430  1.00  0.00     0.116 C 
BRANCH  75  76
ATOM     76  N   UNL A   1      39.801  34.378  30.673  1.00  0.00    -0.352 N 
ATOM     77  C   UNL A   1      38.683  33.735  31.181  1.00  0.00     0.252 C 
ATOM     78  H   UNL A   1      40.526  34.405  31.338  1.00  0.00     0.163 HD
ATOM     79  O   UNL A   1      38.936  33.074  32.190  1.00  0.00    -0.269 OA
BRANCH  77  80
ATOM     80  C   UNL A   1      37.171  33.689  30.518  1.00  0.00     0.060 A 
ATOM     81  C   UNL A   1      36.173  33.016  28.900  1.00  0.00     0.043 A 
ATOM     82  C   UNL A   1      36.194  34.112  30.869  1.00  0.00     0.055 A 
ATOM     83  C   UNL A   1      35.111  32.640  28.051  1.00  0.00     0.060 A 
ATOM     84  C   UNL A   1      34.604  33.923  29.644  1.00  0.00     0.044 A 
ATOM     85  Cl  UNL A   1      36.465  35.019  32.728  1.00  0.00    -0.083 Cl
ATOM     86  C   UNL A   1      34.121  33.346  28.444  1.00  0.00     0.066 A 
ATOM     87  Cl  UNL A   1      32.594  33.469  27.746  1.00  0.00    -0.082 Cl
BRANCH  83  88
ATOM     88  N   UNL A   1      35.234  31.584  27.141  1.00  0.00    -0.331 N 
ATOM     89  H   UNL A   1      35.991  31.662  26.517  1.00  0.00     0.169 HD
BRANCH  88  90
ATOM     90  C   UNL A   1      34.472  30.461  26.976  1.00  0.00     0.177 C 
ATOM     91  S   UNL A   1      34.986  29.057  27.738  1.00  0.00    -0.040 S 
BRANCH  90  92
ATOM     92  N   UNL A   1      33.305  30.355  26.223  1.00  0.00    -0.299 N 
ATOM     93  C   UNL A   1      32.445  29.484  25.505  1.00  0.00     0.258 C 
ATOM     94  H   UNL A   1      32.916  31.257  26.163  1.00  0.00     0.172 HD
ATOM     95  O   UNL A   1      31.472  29.930  24.906  1.00  0.00    -0.269 OA
BRANCH  93  96
ATOM     96  C   UNL A   1      32.734  28.028  25.421  1.00  0.00     0.058 A 
ATOM     97  C   UNL A   1      31.619  26.540  26.309  1.00  0.00     0.015 A 
ATOM     98  C   UNL A   1      33.519  27.341  23.709  1.00  0.00     0.053 A 
ATOM     99  C   UNL A   1      31.581  24.735  25.473  1.00  0.00     0.001 A 
ATOM    100  C   UNL A   1      33.540  25.518  22.904  1.00  0.00     0.021 A 
ATOM    101  Cl  UNL A   1      34.215  28.580  22.685  1.00  0.00    -0.083 Cl
ATOM    102  C   UNL A   1      32.559  24.026  23.878  1.00  0.00     0.002 A 
ENDBRANCH  93  96
ENDBRANCH  90  92
ENDBRANCH  88  90
ENDBRANCH  83  88
ENDBRANCH  77  80
ENDBRANCH  75  76
ENDBRANCH  74  75
ENDBRANCH   1  74
TORSDOF 17
ENDMDL
MODEL 2
REMARK VINA RESULT:     -10.7      5.172     10.085
REMARK SMILES O=C(NCCCCCCNC(=O)c1cc(NC(=S)NC(=O)c2ccccc2Cl)c(Cl)cc1Cl)c1ccc(-c2c3nc(c(-c4c(F)c(F)c(F)c(F)c4F)c4ccc([nH]4)c(-c4c(F)c(F)c(F)c(F)c4F)c4nc(c(-c5c(F)c(F)c(F)c(F)c5F)c5ccc2[nH]5)C=C4)C=C3)cc1
REMARK SMILES IDX 7 1 6 2 5 3 4 4 3 5 1 6 2 7 34 9 35 10 96 11 36 12 95 13
REMARK SMILES IDX 37 14 38 15 39 16 89 17 40 18 94 19 88 20 90 21 41 22 93 23
REMARK SMILES IDX 87 24 86 25 42 27 74 28 54 29 73 30 55 31 58 32 72 33 91 34
REMARK SMILES IDX 56 35 57 36 71 38 92 39 59 40 43 41 44 42 52 43 45 44 46 45
REMARK SMILES IDX 50 46 53 47 47 48 48 49 51 50 49 51 75 52 76 53 84 54 77 55
REMARK SMILES IDX 78 56 82 57 85 58 79 59 80 60 83 61 81 62 60 63 61 64 69 65
REMARK SMILES IDX 62 66 63 67 67 68 70 69 64 70 65 71 68 72 66 73 8 74 9 75
REMARK SMILES IDX 10 76 11 77 12 79 13 80 14 81 32 82 15 83 31 84 33 85 29 86
REMARK SMILES IDX 30 87 16 88 17 90 18 91 19 92 20 93 21 95 22 96 23 97 27 98
REMARK SMILES IDX 24 99 26 100 28 101 25 102
REMARK H PARENT 3 8 90 26 58 37 10 78 16 89 19 94
REMARK Flexibility Score: inf
ROOT
ATOM      1  C   UNL A   1      32.351  28.983  24.878  1.00  0.00     0.002 C 
ENDROOT
BRANCH   1   2
ATOM      2  C   UNL A   1      33.512  28.134  25.418  1.00  0.00     0.002 C 
BRANCH   2   3
ATOM      3  C   UNL A   1      33.816  28.345  26.902  1.00  0.00     0.021 C 
BRANCH   3   4
ATOM      4  C   UNL A   1      35.090  29.137  27.136  1.00  0.00     0.116 C 
BRANCH   4   5
ATOM      5  N   UNL A   1      34.839  30.571  27.081  1.00  0.00    -0.352 N 
ATOM      6  O   UNL A   1      34.770  32.669  27.920  1.00  0.00    -0.269 OA
ATOM      7  C   UNL A   1      35.270  31.550  27.936  1.00  0.00     0.251 C 
ATOM      8  H   UNL A   1      34.284  30.877  26.328  1.00  0.00     0.163 HD
BRANCH   7   9
ATOM      9  C   UNL A   1      36.359  31.228  28.873  1.00  0.00     0.039 A 
ATOM     10  C   UNL A   1      37.557  31.943  28.801  1.00  0.00     0.014 A 
ATOM     11  C   UNL A   1      36.190  30.209  29.811  1.00  0.00     0.014 A 
ATOM     12  C   UNL A   1      38.636  31.546  29.569  1.00  0.00     0.010 A 
ATOM     13  C   UNL A   1      37.242  29.894  30.672  1.00  0.00     0.010 A 
ATOM     14  C   UNL A   1      38.474  30.555  30.549  1.00  0.00    -0.014 A 
BRANCH  14  15
ATOM     15  C   UNL A   1      39.574  30.336  31.516  1.00  0.00     0.031 A 
ATOM     16  C   UNL A   1      39.638  31.079  32.817  1.00  0.00     0.074 A 
ATOM     17  C   UNL A   1      40.516  29.427  31.194  1.00  0.00     0.049 A 
ATOM     18  N   UNL A   1      40.541  30.997  33.760  1.00  0.00    -0.248 NA
ATOM     19  C   UNL A   1      38.560  32.038  33.098  1.00  0.00     0.031 C 
ATOM     20  C   UNL A   1      40.549  28.655  29.946  1.00  0.00     0.029 A 
ATOM     21  N   UNL A   1      41.614  28.983  31.882  1.00  0.00    -0.354 N 
ATOM     22  C   UNL A   1      40.154  31.904  34.736  1.00  0.00     0.074 A 
ATOM     23  C   UNL A   1      38.945  32.543  34.263  1.00  0.00     0.031 C 
ATOM     24  C   UNL A   1      41.583  27.805  29.978  1.00  0.00     0.029 A 
ATOM     25  C   UNL A   1      42.338  28.034  31.201  1.00  0.00     0.049 A 
ATOM     26  H   UNL A   1      41.860  29.311  32.777  1.00  0.00     0.167 HD
ATOM     27  C   UNL A   1      40.761  32.169  35.918  1.00  0.00     0.037 A 
ATOM     28  C   UNL A   1      43.506  27.443  31.506  1.00  0.00     0.037 A 
ATOM     29  C   UNL A   1      41.966  31.519  36.373  1.00  0.00     0.049 A 
ATOM     30  C   UNL A   1      44.176  27.809  32.800  1.00  0.00     0.074 A 
ATOM     31  C   UNL A   1      42.632  31.688  37.574  1.00  0.00     0.029 A 
ATOM     32  N   UNL A   1      42.693  30.591  35.641  1.00  0.00    -0.354 N 
ATOM     33  N   UNL A   1      43.770  28.624  33.742  1.00  0.00    -0.248 NA
ATOM     34  C   UNL A   1      45.470  27.172  33.072  1.00  0.00     0.031 C 
ATOM     35  C   UNL A   1      43.802  30.926  37.537  1.00  0.00     0.029 A 
ATOM     36  C   UNL A   1      43.824  30.212  36.350  1.00  0.00     0.049 A 
ATOM     37  H   UNL A   1      42.444  30.251  34.751  1.00  0.00     0.167 HD
ATOM     38  C   UNL A   1      44.742  28.576  34.730  1.00  0.00     0.074 A 
ATOM     39  C   UNL A   1      45.742  27.628  34.285  1.00  0.00     0.031 C 
ATOM     40  C   UNL A   1      44.806  29.261  35.898  1.00  0.00     0.037 A 
BRANCH  27  41
ATOM     41  C   UNL A   1      40.163  33.223  36.805  1.00  0.00     0.064 A 
ATOM     42  C   UNL A   1      39.127  32.934  37.705  1.00  0.00     0.173 A 
ATOM     43  C   UNL A   1      40.705  34.519  36.823  1.00  0.00     0.173 A 
ATOM     44  F   UNL A   1      38.568  31.716  37.724  1.00  0.00    -0.203 F 
ATOM     45  C   UNL A   1      38.650  33.906  38.583  1.00  0.00     0.198 A 
ATOM     46  C   UNL A   1      40.249  35.476  37.724  1.00  0.00     0.198 A 
ATOM     47  F   UNL A   1      41.703  34.846  35.988  1.00  0.00    -0.203 F 
ATOM     48  F   UNL A   1      37.642  33.615  39.416  1.00  0.00    -0.200 F 
ATOM     49  C   UNL A   1      39.220  35.171  38.601  1.00  0.00     0.200 A 
ATOM     50  F   UNL A   1      40.816  36.690  37.753  1.00  0.00    -0.200 F 
ATOM     51  F   UNL A   1      38.778  36.094  39.465  1.00  0.00    -0.200 F 
ENDBRANCH  27  41
BRANCH  28  52
ATOM     52  C   UNL A   1      44.135  26.487  30.558  1.00  0.00     0.064 A 
ATOM     53  C   UNL A   1      44.757  26.934  29.384  1.00  0.00     0.173 A 
ATOM     54  C   UNL A   1      44.089  25.102  30.782  1.00  0.00     0.173 A 
ATOM     55  F   UNL A   1      44.820  28.247  29.118  1.00  0.00    -0.203 F 
ATOM     56  C   UNL A   1      45.261  26.032  28.450  1.00  0.00     0.198 A 
ATOM     57  C   UNL A   1      44.636  24.204  29.870  1.00  0.00     0.198 A 
ATOM     58  F   UNL A   1      43.517  24.618  31.895  1.00  0.00    -0.203 F 
ATOM     59  F   UNL A   1      45.776  26.486  27.298  1.00  0.00    -0.200 F 
ATOM     60  C   UNL A   1      45.203  24.669  28.695  1.00  0.00     0.200 A 
ATOM     61  F   UNL A   1      44.600  22.889  30.124  1.00  0.00    -0.200 F 
ATOM     62  F   UNL A   1      45.681  23.803  27.791  1.00  0.00    -0.200 F 
ENDBRANCH  28  52
BRANCH  40  63
ATOM     63  C   UNL A   1      45.973  28.969  36.799  1.00  0.00     0.064 A 
ATOM     64  C   UNL A   1      47.169  29.699  36.723  1.00  0.00     0.173 A 
ATOM     65  C   UNL A   1      45.884  27.957  37.766  1.00  0.00     0.173 A 
ATOM     66  F   UNL A   1      47.314  30.668  35.806  1.00  0.00    -0.203 F 
ATOM     67  C   UNL A   1      48.244  29.400  37.555  1.00  0.00     0.198 A 
ATOM     68  C   UNL A   1      46.944  27.690  38.626  1.00  0.00     0.198 A 
ATOM     69  F   UNL A   1      44.761  27.231  37.886  1.00  0.00    -0.203 F 
ATOM     70  F   UNL A   1      49.401  30.064  37.417  1.00  0.00    -0.200 F 
ATOM     71  C   UNL A   1      48.128  28.402  38.512  1.00  0.00     0.200 A 
ATOM     72  F   UNL A   1      46.822  26.739  39.563  1.00  0.00    -0.200 F 
ATOM     73  F   UNL A   1      49.162  28.121  39.318  1.00  0.00    -0.200 F 
ENDBRANCH  40  63
ENDBRANCH  14  15
ENDBRANCH   7   9
ENDBRANCH   4   5
ENDBRANCH   3   4
ENDBRANCH   2   3
ENDBRANCH   1   2
BRANCH   1  74
ATOM     74  C   UNL A   1      32.140  28.866  23.372  1.00  0.00     0.021 C 
BRANCH  74  75
ATOM     75  C   UNL A   1      33.459  28.691  22.634  1.00  0.00     0.116 C 
BRANCH  75  76
ATOM     76  N   UNL A   1      33.416  27.606  21.660  1.00  0.00    -0.352 N 
ATOM     77  C   UNL A   1      33.410  26.219  21.662  1.00  0.00     0.252 C 
ATOM     78  H   UNL A   1      33.382  27.958  20.741  1.00  0.00     0.163 HD
ATOM     79  O   UNL A   1      33.046  25.747  20.583  1.00  0.00    -0.269 OA
BRANCH  77  80
ATOM     80  C   UNL A   1      33.712  25.223  22.944  1.00  0.00     0.060 A 
ATOM     81  C   UNL A   1      35.209  24.214  23.844  1.00  0.00     0.043 A 
ATOM     82  C   UNL A   1      33.034  24.792  23.725  1.00  0.00     0.055 A 
ATOM     83  C   UNL A   1      35.931  23.487  24.814  1.00  0.00     0.060 A 
ATOM     84  C   UNL A   1      33.836  23.491  25.040  1.00  0.00     0.044 A 
ATOM     85  Cl  UNL A   1      31.100  25.519  23.433  1.00  0.00    -0.083 Cl
ATOM     86  C   UNL A   1      35.033  22.895  25.505  1.00  0.00     0.066 A 
ATOM     87  Cl  UNL A   1      35.249  21.760  26.729  1.00  0.00    -0.082 Cl
BRANCH  83  88
ATOM     88  N   UNL A   1      37.315  23.630  24.961  1.00  0.00    -0.331 N 
ATOM     89  H   UNL A   1      37.775  24.021  24.184  1.00  0.00     0.169 HD
BRANCH  88  90
ATOM     90  C   UNL A   1      38.134  23.312  26.009  1.00  0.00     0.177 C 
ATOM     91  S   UNL A   1      38.847  21.794  26.003  1.00  0.00    -0.040 S 
BRANCH  90  92
ATOM     92  N   UNL A   1      38.432  24.123  27.102  1.00  0.00    -0.299 N 
ATOM     93  C   UNL A   1      39.460  24.749  27.855  1.00  0.00     0.258 C 
ATOM     94  H   UNL A   1      37.577  24.361  27.529  1.00  0.00     0.172 HD
ATOM     95  O   UNL A   1      39.186  25.376  28.873  1.00  0.00    -0.269 OA
BRANCH  93  96
ATOM     96  C   UNL A   1      40.886  24.612  27.457  1.00  0.00     0.058 A 
ATOM     97  C   UNL A   1      41.834  22.837  27.021  1.00  0.00     0.015 A 
ATOM     98  C   UNL A   1      41.679  26.082  26.349  1.00  0.00     0.053 A 
ATOM     99  C   UNL A   1      43.367  22.849  25.752  1.00  0.00     0.001 A 
ATOM    100  C   UNL A   1      43.255  26.113  25.130  1.00  0.00     0.021 A 
ATOM    101  Cl  UNL A   1      40.764  27.576  26.368  1.00  0.00    -0.083 Cl
ATOM    102  C   UNL A   1      44.273  24.377  24.832  1.00  0.00     0.002 A 
ENDBRANCH  93  96
ENDBRANCH  90  92
ENDBRANCH  88  90
ENDBRANCH  83  88
ENDBRANCH  77  80
ENDBRANCH  75  76
ENDBRANCH  74  75
ENDBRANCH   1  74
TORSDOF 17
ENDMDL
MODEL 3
REMARK VINA RESULT:     -10.7      5.255     11.973
REMARK SMILES O=C(NCCCCCCNC(=O)c1cc(NC(=S)NC(=O)c2ccccc2Cl)c(Cl)cc1Cl)c1ccc(-c2c3nc(c(-c4c(F)c(F)c(F)c(F)c4F)c4ccc([nH]4)c(-c4c(F)c(F)c(F)c(F)c4F)c4nc(c(-c5c(F)c(F)c(F)c(F)c5F)c5ccc2[nH]5)C=C4)C=C3)cc1
REMARK SMILES IDX 7 1 6 2 5 3 4 4 3 5 1 6 2 7 34 9 35 10 96 11 36 12 95 13
REMARK SMILES IDX 37 14 38 15 39 16 89 17 40 18 94 19 88 20 90 21 41 22 93 23
REMARK SMILES IDX 87 24 86 25 42 27 74 28 54 29 73 30 55 31 58 32 72 33 91 34
REMARK SMILES IDX 56 35 57 36 71 38 92 39 59 40 43 41 44 42 52 43 45 44 46 45
REMARK SMILES IDX 50 46 53 47 47 48 48 49 51 50 49 51 75 52 76 53 84 54 77 55
REMARK SMILES IDX 78 56 82 57 85 58 79 59 80 60 83 61 81 62 60 63 61 64 69 65
REMARK SMILES IDX 62 66 63 67 67 68 70 69 64 70 65 71 68 72 66 73 8 74 9 75
REMARK SMILES IDX 10 76 11 77 12 79 13 80 14 81 32 82 15 83 31 84 33 85 29 86
REMARK SMILES IDX 30 87 16 88 17 90 18 91 19 92 20 93 21 95 22 96 23 97 27 98
REMARK SMILES IDX 24 99 26 100 28 101 25 102
REMARK H PARENT 3 8 90 26 58 37 10 78 16 89 19 94
REMARK Flexibility Score: inf
ROOT
ATOM      1  C   UNL A   1      44.400  24.289  31.709  1.00  0.00     0.002 C 
ENDROOT
BRANCH   1   2
ATOM      2  C   UNL A   1      44.126  22.961  32.432  1.00  0.00     0.002 C 
BRANCH   2   3
ATOM      3  C   UNL A   1      43.713  23.110  33.897  1.00  0.00     0.021 C 
BRANCH   3   4
ATOM      4  C   UNL A   1      44.900  23.239  34.835  1.00  0.00     0.116 C 
BRANCH   4   5
ATOM      5  N   UNL A   1      44.470  23.529  36.195  1.00  0.00    -0.352 N 
ATOM      6  O   UNL A   1      44.158  24.850  38.003  1.00  0.00    -0.269 OA
ATOM      7  C   UNL A   1      44.262  24.747  36.787  1.00  0.00     0.251 C 
ATOM      8  H   UNL A   1      44.305  22.745  36.766  1.00  0.00     0.163 HD
BRANCH   7   9
ATOM      9  C   UNL A   1      44.161  25.935  35.922  1.00  0.00     0.039 A 
ATOM     10  C   UNL A   1      45.304  26.699  35.675  1.00  0.00     0.014 A 
ATOM     11  C   UNL A   1      42.930  26.292  35.373  1.00  0.00     0.014 A 
ATOM     12  C   UNL A   1      45.191  27.898  34.996  1.00  0.00     0.010 A 
ATOM     13  C   UNL A   1      42.844  27.439  34.582  1.00  0.00     0.010 A 
ATOM     14  C   UNL A   1      43.973  28.252  34.396  1.00  0.00    -0.014 A 
BRANCH  14  15
ATOM     15  C   UNL A   1      43.954  29.408  33.471  1.00  0.00     0.031 A 
ATOM     16  C   UNL A   1      44.230  29.248  32.006  1.00  0.00     0.074 A 
ATOM     17  C   UNL A   1      43.662  30.618  33.989  1.00  0.00     0.049 A 
ATOM     18  N   UNL A   1      44.255  30.166  31.074  1.00  0.00    -0.248 NA
ATOM     19  C   UNL A   1      44.521  27.891  31.521  1.00  0.00     0.031 C 
ATOM     20  C   UNL A   1      43.386  30.882  35.406  1.00  0.00     0.029 A 
ATOM     21  N   UNL A   1      43.533  31.846  33.396  1.00  0.00    -0.354 N 
ATOM     22  C   UNL A   1      44.580  29.506  29.898  1.00  0.00     0.074 A 
ATOM     23  C   UNL A   1      44.766  28.111  30.235  1.00  0.00     0.031 C 
ATOM     24  C   UNL A   1      43.077  32.175  35.564  1.00  0.00     0.029 A 
ATOM     25  C   UNL A   1      43.223  32.849  34.282  1.00  0.00     0.049 A 
ATOM     26  H   UNL A   1      43.650  31.995  32.431  1.00  0.00     0.167 HD
ATOM     27  C   UNL A   1      44.709  30.029  28.656  1.00  0.00     0.037 A 
ATOM     28  C   UNL A   1      43.112  34.175  34.094  1.00  0.00     0.037 A 
ATOM     29  C   UNL A   1      44.517  31.423  28.339  1.00  0.00     0.049 A 
ATOM     30  C   UNL A   1      43.319  34.722  32.710  1.00  0.00     0.074 A 
ATOM     31  C   UNL A   1      44.581  32.040  27.103  1.00  0.00     0.029 A 
ATOM     32  N   UNL A   1      44.242  32.417  29.267  1.00  0.00    -0.354 N 
ATOM     33  N   UNL A   1      43.568  34.080  31.596  1.00  0.00    -0.248 NA
ATOM     34  C   UNL A   1      43.230  36.179  32.559  1.00  0.00     0.031 C 
ATOM     35  C   UNL A   1      44.426  33.416  27.291  1.00  0.00     0.029 A 
ATOM     36  C   UNL A   1      44.176  33.650  28.633  1.00  0.00     0.049 A 
ATOM     37  H   UNL A   1      44.111  32.271  30.232  1.00  0.00     0.167 HD
ATOM     38  C   UNL A   1      43.637  35.051  30.606  1.00  0.00     0.074 A 
ATOM     39  C   UNL A   1      43.373  36.320  31.250  1.00  0.00     0.031 C 
ATOM     40  C   UNL A   1      43.903  34.905  29.285  1.00  0.00     0.037 A 
BRANCH  27  41
ATOM     41  C   UNL A   1      45.100  29.110  27.533  1.00  0.00     0.064 A 
ATOM     42  C   UNL A   1      46.427  28.705  27.335  1.00  0.00     0.173 A 
ATOM     43  C   UNL A   1      44.113  28.550  26.705  1.00  0.00     0.173 A 
ATOM     44  F   UNL A   1      47.410  29.213  28.093  1.00  0.00    -0.203 F 
ATOM     45  C   UNL A   1      46.754  27.780  26.345  1.00  0.00     0.198 A 
ATOM     46  C   UNL A   1      44.438  27.602  25.740  1.00  0.00     0.198 A 
ATOM     47  F   UNL A   1      42.826  28.898  26.857  1.00  0.00    -0.203 F 
ATOM     48  F   UNL A   1      48.032  27.427  26.156  1.00  0.00    -0.200 F 
ATOM     49  C   UNL A   1      45.758  27.220  25.557  1.00  0.00     0.200 A 
ATOM     50  F   UNL A   1      43.471  27.049  24.995  1.00  0.00    -0.200 F 
ATOM     51  F   UNL A   1      46.071  26.312  24.624  1.00  0.00    -0.200 F 
ENDBRANCH  27  41
BRANCH  28  52
ATOM     52  C   UNL A   1      42.836  35.078  35.243  1.00  0.00     0.064 A 
ATOM     53  C   UNL A   1      43.881  35.634  35.994  1.00  0.00     0.173 A 
ATOM     54  C   UNL A   1      41.522  35.368  35.643  1.00  0.00     0.173 A 
ATOM     55  F   UNL A   1      45.154  35.381  35.660  1.00  0.00    -0.203 F 
ATOM     56  C   UNL A   1      43.621  36.401  37.128  1.00  0.00     0.198 A 
ATOM     57  C   UNL A   1      41.264  36.173  36.748  1.00  0.00     0.198 A 
ATOM     58  F   UNL A   1      40.483  34.872  34.953  1.00  0.00    -0.203 F 
ATOM     59  F   UNL A   1      44.640  36.851  37.874  1.00  0.00    -0.200 F 
ATOM     60  C   UNL A   1      42.314  36.673  37.501  1.00  0.00     0.200 A 
ATOM     61  F   UNL A   1      40.000  36.454  37.089  1.00  0.00    -0.200 F 
ATOM     62  F   UNL A   1      42.066  37.403  38.597  1.00  0.00    -0.200 F 
ENDBRANCH  28  52
BRANCH  40  63
ATOM     63  C   UNL A   1      43.870  36.147  28.440  1.00  0.00     0.064 A 
ATOM     64  C   UNL A   1      42.676  36.642  27.895  1.00  0.00     0.173 A 
ATOM     65  C   UNL A   1      45.051  36.863  28.190  1.00  0.00     0.173 A 
ATOM     66  F   UNL A   1      41.521  35.987  28.089  1.00  0.00    -0.203 F 
ATOM     67  C   UNL A   1      42.672  37.785  27.099  1.00  0.00     0.198 A 
ATOM     68  C   UNL A   1      45.036  38.030  27.433  1.00  0.00     0.198 A 
ATOM     69  F   UNL A   1      46.220  36.438  28.693  1.00  0.00    -0.203 F 
ATOM     70  F   UNL A   1      41.531  38.199  26.531  1.00  0.00    -0.200 F 
ATOM     71  C   UNL A   1      43.850  38.482  26.877  1.00  0.00     0.200 A 
ATOM     72  F   UNL A   1      46.172  38.713  27.236  1.00  0.00    -0.200 F 
ATOM     73  F   UNL A   1      43.843  39.587  26.118  1.00  0.00    -0.200 F 
ENDBRANCH  40  63
ENDBRANCH  14  15
ENDBRANCH   7   9
ENDBRANCH   4   5
ENDBRANCH   3   4
ENDBRANCH   2   3
ENDBRANCH   1   2
BRANCH   1  74
ATOM     74  C   UNL A   1      43.922  24.321  30.261  1.00  0.00     0.021 C 
BRANCH  74  75
ATOM     75  C   UNL A   1      44.151  22.988  29.567  1.00  0.00     0.116 C 
BRANCH  75  76
ATOM     76  N   UNL A   1      42.910  22.380  29.097  1.00  0.00    -0.352 N 
ATOM     77  C   UNL A   1      41.778  22.763  28.394  1.00  0.00     0.252 C 
ATOM     78  H   UNL A   1      42.864  21.431  29.351  1.00  0.00     0.163 HD
ATOM     79  O   UNL A   1      41.138  21.799  27.969  1.00  0.00    -0.269 OA
BRANCH  77  80
ATOM     80  C   UNL A   1      41.318  24.300  28.004  1.00  0.00     0.060 A 
ATOM     81  C   UNL A   1      40.109  25.793  28.617  1.00  0.00     0.043 A 
ATOM     82  C   UNL A   1      41.610  24.968  27.153  1.00  0.00     0.055 A 
ATOM     83  C   UNL A   1      39.535  27.075  28.744  1.00  0.00     0.060 A 
ATOM     84  C   UNL A   1      40.674  26.748  27.002  1.00  0.00     0.044 A 
ATOM     85  Cl  UNL A   1      43.044  24.005  25.982  1.00  0.00    -0.083 Cl
ATOM     86  C   UNL A   1      39.777  27.648  27.628  1.00  0.00     0.066 A 
ATOM     87  Cl  UNL A   1      39.231  29.148  27.092  1.00  0.00    -0.082 Cl
BRANCH  83  88
ATOM     88  N   UNL A   1      39.004  27.528  29.958  1.00  0.00    -0.331 N 
ATOM     89  H   UNL A   1      38.163  27.093  30.229  1.00  0.00     0.169 HD
BRANCH  88  90
ATOM     90  C   UNL A   1      39.463  28.476  30.829  1.00  0.00     0.177 C 
ATOM     91  S   UNL A   1      40.867  29.294  30.414  1.00  0.00    -0.040 S 
BRANCH  90  92
ATOM     92  N   UNL A   1      38.886  28.831  32.046  1.00  0.00    -0.299 N 
ATOM     93  C   UNL A   1      38.364  29.889  32.834  1.00  0.00     0.258 C 
ATOM     94  H   UNL A   1      38.808  28.008  32.581  1.00  0.00     0.172 HD
ATOM     95  O   UNL A   1      37.991  29.678  33.984  1.00  0.00    -0.269 OA
BRANCH  93  96
ATOM     96  C   UNL A   1      38.308  31.277  32.305  1.00  0.00     0.058 A 
ATOM     97  C   UNL A   1      39.776  32.702  32.544  1.00  0.00     0.015 A 
ATOM     98  C   UNL A   1      37.386  31.558  30.547  1.00  0.00     0.053 A 
ATOM     99  C   UNL A   1      39.977  34.119  31.162  1.00  0.00     0.001 A 
ATOM    100  C   UNL A   1      37.537  33.013  29.194  1.00  0.00     0.021 A 
ATOM    101  Cl  UNL A   1      36.344  30.237  30.058  1.00  0.00    -0.083 Cl
ATOM    102  C   UNL A   1      38.890  34.495  29.525  1.00  0.00     0.002 A 
ENDBRANCH  93  96
ENDBRANCH  90  92
ENDBRANCH  88  90
ENDBRANCH  83  88
ENDBRANCH  77  80
ENDBRANCH  75  76
ENDBRANCH  74  75
ENDBRANCH   1  74
TORSDOF 17
ENDMDL
