MODEL 1
REMARK VINA RESULT:     -11.5      0.000      0.000
REMARK SMILES CC(C)[N@@H+]1CC[C@@H]([N@@H+]2CC[C@@H](C(=O)NCCCCCCNC(=O)c3ccc(-c4c5nc(c(-c6c(F)c(F)c(F)c(F)c6F)c6ccc([nH]6)c(-c6c(F)c(F)c(F)c(F)c6F)c6nc(c(-c7c(F)c(F)c(F)c(F)c7F)c7ccc4[nH]7)C=C6)C=C5)cc3)[C@H]2C)C1
REMARK SMILES IDX 17 1 16 2 15 3 14 4 12 5 13 6 11 8 8 9 9 10 87 11 10 13
REMARK SMILES IDX 88 14 7 15 4 16 5 17 89 18 6 20 2 21 1 22 3 23 18 24 19 25
REMARK SMILES IDX 20 26 21 27 22 28 23 30 24 31 25 32 86 33 26 34 85 35 27 36
REMARK SMILES IDX 28 37 29 38 79 39 30 40 84 41 78 42 80 43 31 44 83 45 77 46
REMARK SMILES IDX 76 47 32 49 64 50 44 51 63 52 45 53 48 54 62 55 81 56 46 57
REMARK SMILES IDX 47 58 61 60 82 61 49 62 33 63 34 64 42 65 35 66 36 67 40 68
REMARK SMILES IDX 43 69 37 70 38 71 41 72 39 73 65 74 66 75 74 76 67 77 68 78
REMARK SMILES IDX 72 79 75 80 69 81 70 82 73 83 71 84 50 85 51 86 59 87 52 88
REMARK SMILES IDX 53 89 57 90 60 91 54 92 55 93 58 94 56 95
REMARK H PARENT 14 7 8 12 4 19 21 29 80 48 48 59
REMARK Flexibility Score: inf
ROOT
ATOM      1  C   UNL A   1      35.332  33.529  28.876  1.00  0.00     0.002 C 
ENDROOT
BRANCH   1   2
ATOM      2  C   UNL A   1      34.643  32.163  28.973  1.00  0.00     0.021 C 
BRANCH   2   3
ATOM      3  C   UNL A   1      34.070  31.664  27.646  1.00  0.00     0.116 C 
BRANCH   3   4
ATOM      4  N   UNL A   1      34.579  30.344  27.330  1.00  0.00    -0.356 N 
ATOM      5  C   UNL A   1      33.949  29.253  26.819  1.00  0.00     0.229 C 
ATOM      6  O   UNL A   1      34.536  28.173  26.879  1.00  0.00    -0.275 OA
ATOM      7  H   UNL A   1      35.537  30.216  27.516  1.00  0.00     0.163 HD
BRANCH   5   8
ATOM      8  C   UNL A   1      32.561  29.400  26.231  1.00  0.00     0.142 C 
ATOM      9  N   UNL A   1      31.408  28.285  24.418  1.00  0.00    -0.325 N 
ATOM     10  C   UNL A   1      31.333  27.437  25.613  1.00  0.00     0.263 C 
ATOM     11  C   UNL A   1      32.468  29.283  24.696  1.00  0.00     0.194 C 
ATOM     12  H   UNL A   1      31.633  27.693  23.619  1.00  0.00     0.348 HD
ATOM     13  C   UNL A   1      31.641  28.327  26.796  1.00  0.00     0.081 C 
ATOM     14  C   UNL A   1      33.750  28.910  23.952  1.00  0.00     0.076 C 
BRANCH   9  15
ATOM     15  C   UNL A   1      30.145  28.890  23.945  1.00  0.00     0.245 C 
ATOM     16  N   UNL A   1      29.861  30.878  22.538  1.00  0.00    -0.328 N 
ATOM     17  C   UNL A   1      30.014  29.701  21.687  1.00  0.00     0.269 C 
ATOM     18  C   UNL A   1      30.106  30.442  23.931  1.00  0.00     0.328 C 
ATOM     19  H   UNL A   1      30.553  31.575  22.262  1.00  0.00     0.348 HD
ATOM     20  C   UNL A   1      29.649  28.516  22.550  1.00  0.00     0.132 C 
BRANCH  16  21
ATOM     21  C   UNL A   1      28.626  31.652  22.349  1.00  0.00     0.177 C 
ATOM     22  C   UNL A   1      27.995  31.315  20.988  1.00  0.00     0.075 C 
ATOM     23  C   UNL A   1      27.576  31.505  23.455  1.00  0.00     0.075 C 
ENDBRANCH  16  21
ENDBRANCH   9  15
ENDBRANCH   5   8
ENDBRANCH   3   4
ENDBRANCH   2   3
ENDBRANCH   1   2
BRANCH   1  24
ATOM     24  C   UNL A   1      34.553  34.587  28.087  1.00  0.00     0.002 C 
BRANCH  24  25
ATOM     25  C   UNL A   1      33.279  35.084  28.771  1.00  0.00     0.021 C 
BRANCH  25  26
ATOM     26  C   UNL A   1      33.503  36.236  29.741  1.00  0.00     0.116 C 
BRANCH  26  27
ATOM     27  N   UNL A   1      32.498  36.264  30.792  1.00  0.00    -0.352 N 
ATOM     28  C   UNL A   1      32.491  35.610  31.996  1.00  0.00     0.251 C 
ATOM     29  H   UNL A   1      31.714  36.831  30.613  1.00  0.00     0.163 HD
ATOM     30  O   UNL A   1      31.471  35.573  32.680  1.00  0.00    -0.269 OA
BRANCH  28  31
ATOM     31  C   UNL A   1      33.716  34.928  32.460  1.00  0.00     0.039 A 
ATOM     32  C   UNL A   1      33.624  33.616  32.928  1.00  0.00     0.014 A 
ATOM     33  C   UNL A   1      34.951  35.581  32.424  1.00  0.00     0.014 A 
ATOM     34  C   UNL A   1      34.784  32.938  33.307  1.00  0.00     0.010 A 
ATOM     35  C   UNL A   1      36.112  34.879  32.724  1.00  0.00     0.010 A 
ATOM     36  C   UNL A   1      36.041  33.553  33.177  1.00  0.00    -0.014 A 
BRANCH  36  37
ATOM     37  C   UNL A   1      37.290  32.826  33.513  1.00  0.00     0.031 A 
ATOM     38  C   UNL A   1      38.024  33.140  34.788  1.00  0.00     0.074 A 
ATOM     39  C   UNL A   1      37.795  31.929  32.644  1.00  0.00     0.049 A 
ATOM     40  N   UNL A   1      39.162  32.665  35.226  1.00  0.00    -0.248 NA
ATOM     41  C   UNL A   1      37.410  34.141  35.674  1.00  0.00     0.031 C 
ATOM     42  C   UNL A   1      37.198  31.571  31.358  1.00  0.00     0.029 A 
ATOM     43  N   UNL A   1      38.931  31.162  32.708  1.00  0.00    -0.354 N 
ATOM     44  C   UNL A   1      39.403  33.315  36.429  1.00  0.00     0.074 A 
ATOM     45  C   UNL A   1      38.328  34.262  36.622  1.00  0.00     0.031 C 
ATOM     46  C   UNL A   1      37.957  30.636  30.765  1.00  0.00     0.029 A 
ATOM     47  C   UNL A   1      39.117  30.363  31.607  1.00  0.00     0.049 A 
ATOM     48  H   UNL A   1      39.553  31.182  33.471  1.00  0.00     0.167 HD
ATOM     49  C   UNL A   1      40.417  33.121  37.306  1.00  0.00     0.037 A 
ATOM     50  C   UNL A   1      40.118  29.513  31.306  1.00  0.00     0.037 A 
ATOM     51  C   UNL A   1      41.476  32.165  37.116  1.00  0.00     0.049 A 
ATOM     52  C   UNL A   1      41.247  29.335  32.286  1.00  0.00     0.074 A 
ATOM     53  C   UNL A   1      42.523  31.855  37.968  1.00  0.00     0.029 A 
ATOM     54  N   UNL A   1      41.629  31.368  35.990  1.00  0.00    -0.354 N 
ATOM     55  N   UNL A   1      41.429  29.905  33.452  1.00  0.00    -0.248 NA
ATOM     56  C   UNL A   1      42.307  28.389  31.909  1.00  0.00     0.031 C 
ATOM     57  C   UNL A   1      43.339  30.915  37.333  1.00  0.00     0.029 A 
ATOM     58  C   UNL A   1      42.767  30.587  36.114  1.00  0.00     0.049 A 
ATOM     59  H   UNL A   1      41.019  31.358  35.218  1.00  0.00     0.167 HD
ATOM     60  C   UNL A   1      42.602  29.364  33.963  1.00  0.00     0.074 A 
ATOM     61  C   UNL A   1      43.081  28.409  32.985  1.00  0.00     0.031 C 
ATOM     62  C   UNL A   1      43.226  29.633  35.137  1.00  0.00     0.037 A 
BRANCH  49  63
ATOM     63  C   UNL A   1      40.431  33.961  38.552  1.00  0.00     0.064 A 
ATOM     64  C   UNL A   1      41.122  35.182  38.612  1.00  0.00     0.173 A 
ATOM     65  C   UNL A   1      39.713  33.560  39.688  1.00  0.00     0.173 A 
ATOM     66  F   UNL A   1      41.833  35.609  37.557  1.00  0.00    -0.203 F 
ATOM     67  C   UNL A   1      41.122  35.951  39.773  1.00  0.00     0.198 A 
ATOM     68  C   UNL A   1      39.686  34.349  40.836  1.00  0.00     0.198 A 
ATOM     69  F   UNL A   1      39.029  32.406  39.685  1.00  0.00    -0.203 F 
ATOM     70  F   UNL A   1      41.835  37.084  39.825  1.00  0.00    -0.200 F 
ATOM     71  C   UNL A   1      40.398  35.537  40.881  1.00  0.00     0.200 A 
ATOM     72  F   UNL A   1      38.972  33.955  41.901  1.00  0.00    -0.200 F 
ATOM     73  F   UNL A   1      40.391  36.283  41.995  1.00  0.00    -0.200 F 
ENDBRANCH  49  63
BRANCH  50  74
ATOM     74  C   UNL A   1      40.091  28.753  30.028  1.00  0.00     0.064 A 
ATOM     75  C   UNL A   1      39.482  27.491  29.952  1.00  0.00     0.173 A 
ATOM     76  C   UNL A   1      40.681  29.261  28.862  1.00  0.00     0.173 A 
ATOM     77  F   UNL A   1      38.921  26.952  31.045  1.00  0.00    -0.203 F 
ATOM     78  C   UNL A   1      39.488  26.758  28.767  1.00  0.00     0.198 A 
ATOM     79  C   UNL A   1      40.658  28.542  27.669  1.00  0.00     0.198 A 
ATOM     80  F   UNL A   1      41.272  30.466  28.878  1.00  0.00    -0.203 F 
ATOM     81  F   UNL A   1      38.948  25.533  28.738  1.00  0.00    -0.200 F 
ATOM     82  C   UNL A   1      40.072  27.287  27.626  1.00  0.00     0.200 A 
ATOM     83  F   UNL A   1      41.208  29.065  26.564  1.00  0.00    -0.200 F 
ATOM     84  F   UNL A   1      40.076  26.583  26.485  1.00  0.00    -0.200 F 
ENDBRANCH  50  74
BRANCH  62  85
ATOM     85  C   UNL A   1      44.471  28.854  35.452  1.00  0.00     0.064 A 
ATOM     86  C   UNL A   1      45.746  29.320  35.100  1.00  0.00     0.173 A 
ATOM     87  C   UNL A   1      44.388  27.641  36.155  1.00  0.00     0.173 A 
ATOM     88  F   UNL A   1      45.881  30.466  34.415  1.00  0.00    -0.203 F 
ATOM     89  C   UNL A   1      46.888  28.588  35.414  1.00  0.00     0.198 A 
ATOM     90  C   UNL A   1      45.533  26.930  36.499  1.00  0.00     0.198 A 
ATOM     91  F   UNL A   1      43.193  27.154  36.522  1.00  0.00    -0.203 F 
ATOM     92  F   UNL A   1      48.092  29.027  35.021  1.00  0.00    -0.200 F 
ATOM     93  C   UNL A   1      46.782  27.399  36.122  1.00  0.00     0.200 A 
ATOM     94  F   UNL A   1      45.428  25.791  37.198  1.00  0.00    -0.200 F 
ATOM     95  F   UNL A   1      47.883  26.701  36.432  1.00  0.00    -0.200 F 
ENDBRANCH  62  85
ENDBRANCH  36  37
ENDBRANCH  28  31
ENDBRANCH  26  27
ENDBRANCH  25  26
ENDBRANCH  24  25
ENDBRANCH   1  24
TORSDOF 15
ENDMDL
MODEL 2
REMARK VINA RESULT:     -11.5      7.682     13.180
REMARK SMILES CC(C)[N@@H+]1CC[C@@H]([N@@H+]2CC[C@@H](C(=O)NCCCCCCNC(=O)c3ccc(-c4c5nc(c(-c6c(F)c(F)c(F)c(F)c6F)c6ccc([nH]6)c(-c6c(F)c(F)c(F)c(F)c6F)c6nc(c(-c7c(F)c(F)c(F)c(F)c7F)c7ccc4[nH]7)C=C6)C=C5)cc3)[C@H]2C)C1
REMARK SMILES IDX 17 1 16 2 15 3 14 4 12 5 13 6 11 8 8 9 9 10 87 11 10 13
REMARK SMILES IDX 88 14 7 15 4 16 5 17 89 18 6 20 2 21 1 22 3 23 18 24 19 25
REMARK SMILES IDX 20 26 21 27 22 28 23 30 24 31 25 32 86 33 26 34 85 35 27 36
REMARK SMILES IDX 28 37 29 38 79 39 30 40 84 41 78 42 80 43 31 44 83 45 77 46
REMARK SMILES IDX 76 47 32 49 64 50 44 51 63 52 45 53 48 54 62 55 81 56 46 57
REMARK SMILES IDX 47 58 61 60 82 61 49 62 33 63 34 64 42 65 35 66 36 67 40 68
REMARK SMILES IDX 43 69 37 70 38 71 41 72 39 73 65 74 66 75 74 76 67 77 68 78
REMARK SMILES IDX 72 79 75 80 69 81 70 82 73 83 71 84 50 85 51 86 59 87 52 88
REMARK SMILES IDX 53 89 57 90 60 91 54 92 55 93 58 94 56 95
REMARK H PARENT 14 7 8 12 4 19 21 29 80 48 48 59
REMARK Flexibility Score: inf
ROOT
ATOM      1  C   UNL A   1      40.691  21.700  27.313  1.00  0.00     0.002 C 
ENDROOT
BRANCH   1   2
ATOM      2  C   UNL A   1      39.801  22.863  26.855  1.00  0.00     0.021 C 
BRANCH   2   3
ATOM      3  C   UNL A   1      38.545  22.420  26.104  1.00  0.00     0.116 C 
BRANCH   3   4
ATOM      4  N   UNL A   1      37.511  23.433  26.188  1.00  0.00    -0.356 N 
ATOM      5  C   UNL A   1      36.293  23.504  25.591  1.00  0.00     0.229 C 
ATOM      6  O   UNL A   1      35.704  24.584  25.618  1.00  0.00    -0.275 OA
ATOM      7  H   UNL A   1      37.728  24.195  26.774  1.00  0.00     0.163 HD
BRANCH   5   8
ATOM      8  C   UNL A   1      35.728  22.280  24.901  1.00  0.00     0.142 C 
ATOM      9  N   UNL A   1      33.549  21.227  24.926  1.00  0.00    -0.325 N 
ATOM     10  C   UNL A   1      33.510  22.360  23.995  1.00  0.00     0.263 C 
ATOM     11  C   UNL A   1      34.769  21.417  25.746  1.00  0.00     0.194 C 
ATOM     12  H   UNL A   1      32.698  21.245  25.488  1.00  0.00     0.348 HD
ATOM     13  C   UNL A   1      34.947  22.696  23.662  1.00  0.00     0.081 C 
ATOM     14  C   UNL A   1      34.396  21.950  27.129  1.00  0.00     0.076 C 
BRANCH   9  15
ATOM     15  C   UNL A   1      33.443  19.875  24.340  1.00  0.00     0.245 C 
ATOM     16  N   UNL A   1      34.034  17.733  25.377  1.00  0.00    -0.328 N 
ATOM     17  C   UNL A   1      32.652  18.066  25.712  1.00  0.00     0.269 C 
ATOM     18  C   UNL A   1      34.607  18.903  24.675  1.00  0.00     0.328 C 
ATOM     19  H   UNL A   1      34.547  17.556  26.241  1.00  0.00     0.348 HD
ATOM     20  C   UNL A   1      32.198  19.050  24.658  1.00  0.00     0.132 C 
BRANCH  16  21
ATOM     21  C   UNL A   1      34.237  16.449  24.690  1.00  0.00     0.177 C 
ATOM     22  C   UNL A   1      33.201  15.422  25.175  1.00  0.00     0.075 C 
ATOM     23  C   UNL A   1      34.226  16.509  23.159  1.00  0.00     0.075 C 
ENDBRANCH  16  21
ENDBRANCH   9  15
ENDBRANCH   5   8
ENDBRANCH   3   4
ENDBRANCH   2   3
ENDBRANCH   1   2
BRANCH   1  24
ATOM     24  C   UNL A   1      41.812  21.326  26.338  1.00  0.00     0.002 C 
BRANCH  24  25
ATOM     25  C   UNL A   1      41.803  19.865  25.887  1.00  0.00     0.021 C 
BRANCH  25  26
ATOM     26  C   UNL A   1      43.064  19.093  26.252  1.00  0.00     0.116 C 
BRANCH  26  27
ATOM     27  N   UNL A   1      43.837  18.729  25.076  1.00  0.00    -0.352 N 
ATOM     28  C   UNL A   1      44.586  19.529  24.254  1.00  0.00     0.251 C 
ATOM     29  H   UNL A   1      43.819  17.774  24.837  1.00  0.00     0.163 HD
ATOM     30  O   UNL A   1      45.006  19.102  23.182  1.00  0.00    -0.269 OA
BRANCH  28  31
ATOM     31  C   UNL A   1      44.870  20.921  24.656  1.00  0.00     0.039 A 
ATOM     32  C   UNL A   1      44.471  21.963  23.816  1.00  0.00     0.014 A 
ATOM     33  C   UNL A   1      45.519  21.195  25.863  1.00  0.00     0.014 A 
ATOM     34  C   UNL A   1      44.674  23.285  24.215  1.00  0.00     0.010 A 
ATOM     35  C   UNL A   1      45.646  22.510  26.296  1.00  0.00     0.010 A 
ATOM     36  C   UNL A   1      45.233  23.569  25.473  1.00  0.00    -0.014 A 
BRANCH  36  37
ATOM     37  C   UNL A   1      45.397  24.967  25.942  1.00  0.00     0.031 A 
ATOM     38  C   UNL A   1      46.747  25.627  25.888  1.00  0.00     0.074 A 
ATOM     39  C   UNL A   1      44.345  25.620  26.474  1.00  0.00     0.049 A 
ATOM     40  N   UNL A   1      47.107  26.812  26.310  1.00  0.00    -0.248 NA
ATOM     41  C   UNL A   1      47.844  24.839  25.304  1.00  0.00     0.031 C 
ATOM     42  C   UNL A   1      42.997  25.071  26.621  1.00  0.00     0.029 A 
ATOM     43  N   UNL A   1      44.248  26.885  26.997  1.00  0.00    -0.354 N 
ATOM     44  C   UNL A   1      48.468  26.906  26.053  1.00  0.00     0.074 A 
ATOM     45  C   UNL A   1      48.883  25.637  25.497  1.00  0.00     0.031 C 
ATOM     46  C   UNL A   1      42.201  26.002  27.173  1.00  0.00     0.029 A 
ATOM     47  C   UNL A   1      42.992  27.194  27.459  1.00  0.00     0.049 A 
ATOM     48  H   UNL A   1      45.006  27.511  27.038  1.00  0.00     0.167 HD
ATOM     49  C   UNL A   1      49.293  27.964  26.242  1.00  0.00     0.037 A 
ATOM     50  C   UNL A   1      42.533  28.310  28.057  1.00  0.00     0.037 A 
ATOM     51  C   UNL A   1      48.871  29.230  26.781  1.00  0.00     0.049 A 
ATOM     52  C   UNL A   1      43.477  29.462  28.278  1.00  0.00     0.074 A 
ATOM     53  C   UNL A   1      49.616  30.382  26.964  1.00  0.00     0.029 A 
ATOM     54  N   UNL A   1      47.588  29.508  27.232  1.00  0.00    -0.354 N 
ATOM     55  N   UNL A   1      44.746  29.565  27.969  1.00  0.00    -0.248 NA
ATOM     56  C   UNL A   1      42.920  30.658  28.927  1.00  0.00     0.031 C 
ATOM     57  C   UNL A   1      48.801  31.336  27.580  1.00  0.00     0.029 A 
ATOM     58  C   UNL A   1      47.529  30.805  27.719  1.00  0.00     0.049 A 
ATOM     59  H   UNL A   1      46.832  28.879  27.209  1.00  0.00     0.167 HD
ATOM     60  C   UNL A   1      45.132  30.843  28.353  1.00  0.00     0.074 A 
ATOM     61  C   UNL A   1      43.956  31.485  28.904  1.00  0.00     0.031 C 
ATOM     62  C   UNL A   1      46.349  31.433  28.256  1.00  0.00     0.037 A 
BRANCH  49  63
ATOM     63  C   UNL A   1      50.738  27.797  25.862  1.00  0.00     0.064 A 
ATOM     64  C   UNL A   1      51.720  27.486  26.816  1.00  0.00     0.173 A 
ATOM     65  C   UNL A   1      51.139  27.913  24.523  1.00  0.00     0.173 A 
ATOM     66  F   UNL A   1      51.393  27.373  28.112  1.00  0.00    -0.203 F 
ATOM     67  C   UNL A   1      53.054  27.331  26.447  1.00  0.00     0.198 A 
ATOM     68  C   UNL A   1      52.468  27.723  24.153  1.00  0.00     0.198 A 
ATOM     69  F   UNL A   1      50.241  28.204  23.569  1.00  0.00    -0.203 F 
ATOM     70  F   UNL A   1      53.982  27.090  27.383  1.00  0.00    -0.200 F 
ATOM     71  C   UNL A   1      53.426  27.442  25.116  1.00  0.00     0.200 A 
ATOM     72  F   UNL A   1      52.823  27.815  22.863  1.00  0.00    -0.200 F 
ATOM     73  F   UNL A   1      54.709  27.284  24.761  1.00  0.00    -0.200 F 
ENDBRANCH  49  63
BRANCH  50  74
ATOM     74  C   UNL A   1      41.108  28.401  28.474  1.00  0.00     0.064 A 
ATOM     75  C   UNL A   1      40.135  28.917  27.606  1.00  0.00     0.173 A 
ATOM     76  C   UNL A   1      40.691  27.986  29.747  1.00  0.00     0.173 A 
ATOM     77  F   UNL A   1      40.486  29.345  26.385  1.00  0.00    -0.203 F 
ATOM     78  C   UNL A   1      38.806  29.040  28.006  1.00  0.00     0.198 A 
ATOM     79  C   UNL A   1      39.356  28.079  30.134  1.00  0.00     0.198 A 
ATOM     80  F   UNL A   1      41.581  27.479  30.614  1.00  0.00    -0.203 F 
ATOM     81  F   UNL A   1      37.907  29.588  27.177  1.00  0.00    -0.200 F 
ATOM     82  C   UNL A   1      38.417  28.616  29.268  1.00  0.00     0.200 A 
ATOM     83  F   UNL A   1      38.983  27.651  31.348  1.00  0.00    -0.200 F 
ATOM     84  F   UNL A   1      37.138  28.732  29.652  1.00  0.00    -0.200 F 
ENDBRANCH  50  74
BRANCH  62  85
ATOM     85  C   UNL A   1      46.464  32.859  28.715  1.00  0.00     0.064 A 
ATOM     86  C   UNL A   1      46.826  33.187  30.029  1.00  0.00     0.173 A 
ATOM     87  C   UNL A   1      46.249  33.912  27.812  1.00  0.00     0.173 A 
ATOM     88  F   UNL A   1      47.029  32.219  30.936  1.00  0.00    -0.203 F 
ATOM     89  C   UNL A   1      46.941  34.516  30.430  1.00  0.00     0.198 A 
ATOM     90  C   UNL A   1      46.399  35.238  28.206  1.00  0.00     0.198 A 
ATOM     91  F   UNL A   1      45.907  33.653  26.540  1.00  0.00    -0.203 F 
ATOM     92  F   UNL A   1      47.236  34.806  31.704  1.00  0.00    -0.200 F 
ATOM     93  C   UNL A   1      46.737  35.540  29.516  1.00  0.00     0.200 A 
ATOM     94  F   UNL A   1      46.219  36.225  27.317  1.00  0.00    -0.200 F 
ATOM     95  F   UNL A   1      46.857  36.818  29.901  1.00  0.00    -0.200 F 
ENDBRANCH  62  85
ENDBRANCH  36  37
ENDBRANCH  28  31
ENDBRANCH  26  27
ENDBRANCH  25  26
ENDBRANCH  24  25
ENDBRANCH   1  24
TORSDOF 15
ENDMDL
MODEL 3
REMARK VINA RESULT:     -11.3      7.757     13.220
REMARK SMILES CC(C)[N@@H+]1CC[C@@H]([N@@H+]2CC[C@@H](C(=O)NCCCCCCNC(=O)c3ccc(-c4c5nc(c(-c6c(F)c(F)c(F)c(F)c6F)c6ccc([nH]6)c(-c6c(F)c(F)c(F)c(F)c6F)c6nc(c(-c7c(F)c(F)c(F)c(F)c7F)c7ccc4[nH]7)C=C6)C=C5)cc3)[C@H]2C)C1
REMARK SMILES IDX 17 1 16 2 15 3 14 4 12 5 13 6 11 8 8 9 9 10 87 11 10 13
REMARK SMILES IDX 88 14 7 15 4 16 5 17 89 18 6 20 2 21 1 22 3 23 18 24 19 25
REMARK SMILES IDX 20 26 21 27 22 28 23 30 24 31 25 32 86 33 26 34 85 35 27 36
REMARK SMILES IDX 28 37 29 38 79 39 30 40 84 41 78 42 80 43 31 44 83 45 77 46
REMARK SMILES IDX 76 47 32 49 64 50 44 51 63 52 45 53 48 54 62 55 81 56 46 57
REMARK SMILES IDX 47 58 61 60 82 61 49 62 33 63 34 64 42 65 35 66 36 67 40 68
REMARK SMILES IDX 43 69 37 70 38 71 41 72 39 73 65 74 66 75 74 76 67 77 68 78
REMARK SMILES IDX 72 79 75 80 69 81 70 82 73 83 71 84 50 85 51 86 59 87 52 88
REMARK SMILES IDX 53 89 57 90 60 91 54 92 55 93 58 94 56 95
REMARK H PARENT 14 7 8 12 4 19 21 29 80 48 48 59
REMARK Flexibility Score: inf
ROOT
ATOM      1  C   UNL A   1      40.779  20.904  27.322  1.00  0.00     0.002 C 
ENDROOT
BRANCH   1   2
ATOM      2  C   UNL A   1      40.039  22.210  27.002  1.00  0.00     0.021 C 
BRANCH   2   3
ATOM      3  C   UNL A   1      38.868  22.034  26.034  1.00  0.00     0.116 C 
BRANCH   3   4
ATOM      4  N   UNL A   1      37.898  23.098  26.203  1.00  0.00    -0.356 N 
ATOM      5  C   UNL A   1      36.658  23.256  25.669  1.00  0.00     0.229 C 
ATOM      6  O   UNL A   1      36.132  24.364  25.761  1.00  0.00    -0.275 OA
ATOM      7  H   UNL A   1      38.184  23.826  26.801  1.00  0.00     0.163 HD
BRANCH   5   8
ATOM      8  C   UNL A   1      35.993  22.089  24.969  1.00  0.00     0.142 C 
ATOM      9  N   UNL A   1      33.727  21.240  24.961  1.00  0.00    -0.325 N 
ATOM     10  C   UNL A   1      33.805  22.372  24.032  1.00  0.00     0.263 C 
ATOM     11  C   UNL A   1      34.947  21.317  25.798  1.00  0.00     0.194 C 
ATOM     12  H   UNL A   1      32.873  21.335  25.511  1.00  0.00     0.348 HD
ATOM     13  C   UNL A   1      35.271  22.575  23.720  1.00  0.00     0.081 C 
ATOM     14  C   UNL A   1      34.606  21.881  27.177  1.00  0.00     0.076 C 
BRANCH   9  15
ATOM     15  C   UNL A   1      33.506  19.903  24.371  1.00  0.00     0.245 C 
ATOM     16  N   UNL A   1      34.019  17.717  25.357  1.00  0.00    -0.328 N 
ATOM     17  C   UNL A   1      32.680  18.131  25.770  1.00  0.00     0.269 C 
ATOM     18  C   UNL A   1      34.624  18.858  24.635  1.00  0.00     0.328 C 
ATOM     19  H   UNL A   1      34.566  17.500  26.191  1.00  0.00     0.348 HD
ATOM     20  C   UNL A   1      32.231  19.152  24.751  1.00  0.00     0.132 C 
BRANCH  16  21
ATOM     21  C   UNL A   1      34.104  16.431  24.650  1.00  0.00     0.177 C 
ATOM     22  C   UNL A   1      32.985  15.492  25.127  1.00  0.00     0.075 C 
ATOM     23  C   UNL A   1      34.091  16.515  23.120  1.00  0.00     0.075 C 
ENDBRANCH  16  21
ENDBRANCH   9  15
ENDBRANCH   5   8
ENDBRANCH   3   4
ENDBRANCH   2   3
ENDBRANCH   1   2
BRANCH   1  24
ATOM     24  C   UNL A   1      42.097  20.710  26.564  1.00  0.00     0.002 C 
BRANCH  24  25
ATOM     25  C   UNL A   1      42.218  19.376  25.827  1.00  0.00     0.021 C 
BRANCH  25  26
ATOM     26  C   UNL A   1      43.557  18.678  26.020  1.00  0.00     0.116 C 
BRANCH  26  27
ATOM     27  N   UNL A   1      44.299  18.571  24.774  1.00  0.00    -0.352 N 
ATOM     28  C   UNL A   1      44.838  19.567  24.003  1.00  0.00     0.251 C 
ATOM     29  H   UNL A   1      44.431  17.655  24.437  1.00  0.00     0.163 HD
ATOM     30  O   UNL A   1      45.251  19.325  22.872  1.00  0.00    -0.269 OA
BRANCH  28  31
ATOM     31  C   UNL A   1      44.901  20.944  24.534  1.00  0.00     0.039 A 
ATOM     32  C   UNL A   1      45.543  21.170  25.753  1.00  0.00     0.014 A 
ATOM     33  C   UNL A   1      44.336  22.007  23.824  1.00  0.00     0.014 A 
ATOM     34  C   UNL A   1      45.668  22.475  26.233  1.00  0.00     0.010 A 
ATOM     35  C   UNL A   1      44.533  23.311  24.262  1.00  0.00     0.010 A 
ATOM     36  C   UNL A   1      45.193  23.559  25.475  1.00  0.00    -0.014 A 
BRANCH  36  37
ATOM     37  C   UNL A   1      45.374  24.957  25.937  1.00  0.00     0.031 A 
ATOM     38  C   UNL A   1      46.729  25.606  25.864  1.00  0.00     0.074 A 
ATOM     39  C   UNL A   1      44.334  25.620  26.479  1.00  0.00     0.049 A 
ATOM     40  N   UNL A   1      47.103  26.789  26.278  1.00  0.00    -0.248 NA
ATOM     41  C   UNL A   1      47.812  24.807  25.270  1.00  0.00     0.031 C 
ATOM     42  C   UNL A   1      42.983  25.083  26.644  1.00  0.00     0.029 A 
ATOM     43  N   UNL A   1      44.254  26.888  26.999  1.00  0.00    -0.354 N 
ATOM     44  C   UNL A   1      48.462  26.871  26.004  1.00  0.00     0.074 A 
ATOM     45  C   UNL A   1      48.860  25.598  25.447  1.00  0.00     0.031 C 
ATOM     46  C   UNL A   1      42.202  26.021  27.202  1.00  0.00     0.029 A 
ATOM     47  C   UNL A   1      43.006  27.208  27.475  1.00  0.00     0.049 A 
ATOM     48  H   UNL A   1      45.017  27.508  27.029  1.00  0.00     0.167 HD
ATOM     49  C   UNL A   1      49.298  27.923  26.179  1.00  0.00     0.037 A 
ATOM     50  C   UNL A   1      42.563  28.330  28.074  1.00  0.00     0.037 A 
ATOM     51  C   UNL A   1      48.892  29.194  26.719  1.00  0.00     0.049 A 
ATOM     52  C   UNL A   1      43.519  29.475  28.280  1.00  0.00     0.074 A 
ATOM     53  C   UNL A   1      49.649  30.341  26.889  1.00  0.00     0.029 A 
ATOM     54  N   UNL A   1      47.617  29.485  27.184  1.00  0.00    -0.354 N 
ATOM     55  N   UNL A   1      44.785  29.567  27.956  1.00  0.00    -0.248 NA
ATOM     56  C   UNL A   1      42.979  30.678  28.931  1.00  0.00     0.031 C 
ATOM     57  C   UNL A   1      48.849  31.304  27.511  1.00  0.00     0.029 A 
ATOM     58  C   UNL A   1      47.574  30.784  27.667  1.00  0.00     0.049 A 
ATOM     59  H   UNL A   1      46.856  28.861  27.173  1.00  0.00     0.167 HD
ATOM     60  C   UNL A   1      45.185  30.843  28.330  1.00  0.00     0.074 A 
ATOM     61  C   UNL A   1      44.021  31.496  28.894  1.00  0.00     0.031 C 
ATOM     62  C   UNL A   1      46.406  31.423  28.217  1.00  0.00     0.037 A 
BRANCH  49  63
ATOM     63  C   UNL A   1      50.736  27.744  25.782  1.00  0.00     0.064 A 
ATOM     64  C   UNL A   1      51.165  27.927  24.458  1.00  0.00     0.173 A 
ATOM     65  C   UNL A   1      51.704  27.420  26.744  1.00  0.00     0.173 A 
ATOM     66  F   UNL A   1      50.279  28.227  23.496  1.00  0.00    -0.203 F 
ATOM     67  C   UNL A   1      52.502  27.760  24.107  1.00  0.00     0.198 A 
ATOM     68  C   UNL A   1      53.046  27.289  26.396  1.00  0.00     0.198 A 
ATOM     69  F   UNL A   1      51.352  27.239  28.026  1.00  0.00    -0.203 F 
ATOM     70  F   UNL A   1      52.878  27.885  22.827  1.00  0.00    -0.200 F 
ATOM     71  C   UNL A   1      53.442  27.449  25.077  1.00  0.00     0.200 A 
ATOM     72  F   UNL A   1      53.956  27.004  27.338  1.00  0.00    -0.200 F 
ATOM     73  F   UNL A   1      54.731  27.298  24.739  1.00  0.00    -0.200 F 
ENDBRANCH  49  63
BRANCH  50  74
ATOM     74  C   UNL A   1      41.144  28.434  28.508  1.00  0.00     0.064 A 
ATOM     75  C   UNL A   1      40.748  28.006  29.784  1.00  0.00     0.173 A 
ATOM     76  C   UNL A   1      40.155  28.949  27.658  1.00  0.00     0.173 A 
ATOM     77  F   UNL A   1      41.653  27.488  30.627  1.00  0.00    -0.203 F 
ATOM     78  C   UNL A   1      39.414  28.066  30.181  1.00  0.00     0.198 A 
ATOM     79  C   UNL A   1      38.827  29.038  28.069  1.00  0.00     0.198 A 
ATOM     80  F   UNL A   1      40.481  29.378  26.429  1.00  0.00    -0.203 F 
ATOM     81  F   UNL A   1      39.054  27.599  31.385  1.00  0.00    -0.200 F 
ATOM     82  C   UNL A   1      38.456  28.587  29.326  1.00  0.00     0.200 A 
ATOM     83  F   UNL A   1      37.907  29.559  27.244  1.00  0.00    -0.200 F 
ATOM     84  F   UNL A   1      37.173  28.646  29.709  1.00  0.00    -0.200 F 
ENDBRANCH  50  74
BRANCH  62  85
ATOM     85  C   UNL A   1      46.538  32.849  28.669  1.00  0.00     0.064 A 
ATOM     86  C   UNL A   1      46.922  33.180  29.977  1.00  0.00     0.173 A 
ATOM     87  C   UNL A   1      46.317  33.901  27.766  1.00  0.00     0.173 A 
ATOM     88  F   UNL A   1      47.132  32.213  30.884  1.00  0.00    -0.203 F 
ATOM     89  C   UNL A   1      47.052  34.508  30.371  1.00  0.00     0.198 A 
ATOM     90  C   UNL A   1      46.482  35.228  28.153  1.00  0.00     0.198 A 
ATOM     91  F   UNL A   1      45.955  33.641  26.500  1.00  0.00    -0.203 F 
ATOM     92  F   UNL A   1      47.369  34.800  31.640  1.00  0.00    -0.200 F 
ATOM     93  C   UNL A   1      46.842  35.531  29.457  1.00  0.00     0.200 A 
ATOM     94  F   UNL A   1      46.296  36.213  27.263  1.00  0.00    -0.200 F 
ATOM     95  F   UNL A   1      46.977  36.809  29.836  1.00  0.00    -0.200 F 
ENDBRANCH  62  85
ENDBRANCH  36  37
ENDBRANCH  28  31
ENDBRANCH  26  27
ENDBRANCH  25  26
ENDBRANCH  24  25
ENDBRANCH   1  24
TORSDOF 15
ENDMDL
