MODEL 1
REMARK VINA RESULT:     -12.4      0.000      0.000
REMARK SMILES Cc1ccc(C)c(S(=O)(=O)N[C@H](CC2=c3ccccc3=NC2)C(=O)NCCCCCCNC(=O)c2ccc(-c3c4nc(c(-c5c(F)c(F)c(F)c(F)c5F)c5ccc([nH]5)c(-c5c(F)c(F)c(F)c(F)c5F)c5nc(c(-c6c(F)c(F)c(F)c(F)c6F)c6ccc3[nH]6)C=C5)C=C4)cc2)c1
REMARK SMILES IDX 28 1 27 2 26 3 25 4 23 5 24 6 12 8 11 9 8 11 9 12 10 13 7 14
REMARK SMILES IDX 1 15 2 16 3 17 98 18 4 19 5 20 6 21 13 22 14 23 15 24 22 25
REMARK SMILES IDX 16 26 20 27 21 28 17 29 19 30 18 31 29 32 30 33 31 34 32 35
REMARK SMILES IDX 33 36 34 38 35 39 36 40 97 41 37 42 96 43 38 44 39 45 40 46
REMARK SMILES IDX 90 47 41 48 95 49 89 50 91 51 42 52 94 53 88 54 87 55 43 57
REMARK SMILES IDX 75 58 55 59 74 60 56 61 59 62 73 63 92 64 57 65 58 66 72 68
REMARK SMILES IDX 93 69 60 70 44 71 45 72 53 73 46 74 47 75 51 76 54 77 48 78
REMARK SMILES IDX 49 79 52 80 50 81 76 82 77 83 85 84 78 85 79 86 83 87 86 88
REMARK SMILES IDX 80 89 81 90 84 91 82 92 61 93 62 94 70 95 63 96 64 97 68 98
REMARK SMILES IDX 71 99 65 100 66 101 69 102 67 103
REMARK H PARENT 25 7 11 10 32 37 91 56 59 67
REMARK Flexibility Score: inf
ROOT
ATOM      1  C   UNL A   1      39.234  23.240  27.156  1.00  0.00     0.002 C 
ENDROOT
BRANCH   1   2
ATOM      2  C   UNL A   1      38.261  24.253  26.548  1.00  0.00     0.021 C 
BRANCH   2   3
ATOM      3  C   UNL A   1      37.138  23.703  25.650  1.00  0.00     0.116 C 
BRANCH   3   4
ATOM      4  N   UNL A   1      36.300  22.664  26.242  1.00  0.00    -0.355 N 
ATOM      5  C   UNL A   1      34.977  22.323  26.174  1.00  0.00     0.238 C 
ATOM      6  O   UNL A   1      34.609  21.425  26.941  1.00  0.00    -0.273 OA
ATOM      7  H   UNL A   1      36.810  22.064  26.833  1.00  0.00     0.163 HD
BRANCH   5   8
ATOM      8  C   UNL A   1      33.954  23.007  25.254  1.00  0.00     0.163 C 
BRANCH   8   9
ATOM      9  N   UNL A   1      32.622  22.351  25.369  1.00  0.00    -0.198 NA
ATOM     10  H   UNL A   1      32.213  22.343  24.435  1.00  0.00     0.142 HD
BRANCH   9  11
ATOM     11  S   UNL A   1      31.464  22.999  26.406  1.00  0.00     0.241 S 
ATOM     12  O   UNL A   1      32.022  23.029  27.730  1.00  0.00    -0.207 OA
ATOM     13  O   UNL A   1      30.250  22.268  26.089  1.00  0.00    -0.207 OA
BRANCH  11  14
ATOM     14  C   UNL A   1      31.232  24.665  25.830  1.00  0.00     0.085 A 
ATOM     15  C   UNL A   1      31.440  28.145  27.363  1.00  0.00     0.044 C 
ATOM     16  C   UNL A   1      31.203  27.040  26.378  1.00  0.00    -0.050 A 
ATOM     17  C   UNL A   1      30.641  27.300  25.129  1.00  0.00     0.004 A 
ATOM     18  C   UNL A   1      31.531  25.723  26.701  1.00  0.00     0.025 A 
ATOM     19  C   UNL A   1      30.408  26.258  24.225  1.00  0.00     0.005 A 
ATOM     20  C   UNL A   1      30.695  24.924  24.559  1.00  0.00    -0.031 A 
ATOM     21  C   UNL A   1      30.427  23.872  23.518  1.00  0.00     0.046 C 
ENDBRANCH  11  14
ENDBRANCH   9  11
ENDBRANCH   8   9
BRANCH   8  22
ATOM     22  C   UNL A   1      34.346  23.182  23.751  1.00  0.00     0.063 C 
BRANCH  22  23
ATOM     23  C   UNL A   1      33.951  24.441  23.034  1.00  0.00    -0.037 C 
ATOM     24  C   UNL A   1      33.961  25.725  23.393  1.00  0.00     0.001 A 
ATOM     25  C   UNL A   1      33.313  24.315  21.690  1.00  0.00     0.174 C 
ATOM     26  C   UNL A   1      34.236  26.486  24.572  1.00  0.00     0.010 A 
ATOM     27  C   UNL A   1      33.519  26.400  22.158  1.00  0.00     0.065 A 
ATOM     28  N   UNL A   1      33.091  25.670  21.179  1.00  0.00    -0.280 NA
ATOM     29  C   UNL A   1      34.107  27.825  24.520  1.00  0.00     0.001 A 
ATOM     30  C   UNL A   1      33.591  27.869  22.130  1.00  0.00     0.028 A 
ATOM     31  C   UNL A   1      33.824  28.521  23.276  1.00  0.00     0.002 A 
ENDBRANCH  22  23
ENDBRANCH   8  22
ENDBRANCH   5   8
ENDBRANCH   3   4
ENDBRANCH   2   3
ENDBRANCH   1   2
BRANCH   1  32
ATOM     32  C   UNL A   1      39.648  22.085  26.244  1.00  0.00     0.002 C 
BRANCH  32  33
ATOM     33  C   UNL A   1      40.607  21.030  26.821  1.00  0.00     0.021 C 
BRANCH  33  34
ATOM     34  C   UNL A   1      41.977  21.513  27.303  1.00  0.00     0.116 C 
BRANCH  34  35
ATOM     35  N   UNL A   1      42.810  22.044  26.220  1.00  0.00    -0.352 N 
ATOM     36  C   UNL A   1      42.947  23.302  25.663  1.00  0.00     0.251 C 
ATOM     37  H   UNL A   1      43.393  21.367  25.805  1.00  0.00     0.163 HD
ATOM     38  O   UNL A   1      43.397  23.398  24.523  1.00  0.00    -0.269 OA
BRANCH  36  39
ATOM     39  C   UNL A   1      42.598  24.537  26.403  1.00  0.00     0.039 A 
ATOM     40  C   UNL A   1      41.702  25.487  25.887  1.00  0.00     0.014 A 
ATOM     41  C   UNL A   1      43.241  24.813  27.596  1.00  0.00     0.014 A 
ATOM     42  C   UNL A   1      41.500  26.689  26.575  1.00  0.00     0.010 A 
ATOM     43  C   UNL A   1      42.888  25.871  28.379  1.00  0.00     0.010 A 
ATOM     44  C   UNL A   1      42.120  26.872  27.814  1.00  0.00    -0.014 A 
BRANCH  44  45
ATOM     45  C   UNL A   1      42.032  28.085  28.608  1.00  0.00     0.031 A 
ATOM     46  C   UNL A   1      42.986  29.148  28.262  1.00  0.00     0.074 A 
ATOM     47  C   UNL A   1      40.935  28.374  29.340  1.00  0.00     0.049 A 
ATOM     48  N   UNL A   1      43.866  29.670  29.046  1.00  0.00    -0.248 NA
ATOM     49  C   UNL A   1      43.022  29.648  26.882  1.00  0.00     0.031 C 
ATOM     50  C   UNL A   1      39.748  27.539  29.525  1.00  0.00     0.029 A 
ATOM     51  N   UNL A   1      40.596  29.539  29.968  1.00  0.00    -0.354 N 
ATOM     52  C   UNL A   1      44.449  30.692  28.317  1.00  0.00     0.074 A 
ATOM     53  C   UNL A   1      44.041  30.505  26.948  1.00  0.00     0.031 C 
ATOM     54  C   UNL A   1      38.761  28.294  30.048  1.00  0.00     0.029 A 
ATOM     55  C   UNL A   1      39.259  29.618  30.328  1.00  0.00     0.049 A 
ATOM     56  H   UNL A   1      41.244  30.258  30.150  1.00  0.00     0.167 HD
ATOM     57  C   UNL A   1      45.003  31.764  28.942  1.00  0.00     0.037 A 
ATOM     58  C   UNL A   1      38.579  30.684  30.815  1.00  0.00     0.037 A 
ATOM     59  C   UNL A   1      45.195  31.526  30.351  1.00  0.00     0.049 A 
ATOM     60  C   UNL A   1      39.568  31.602  31.413  1.00  0.00     0.074 A 
ATOM     61  C   UNL A   1      45.853  30.554  31.084  1.00  0.00     0.029 A 
ATOM     62  N   UNL A   1      44.344  32.137  31.240  1.00  0.00    -0.354 N 
ATOM     63  N   UNL A   1      40.247  31.319  32.489  1.00  0.00    -0.248 NA
ATOM     64  C   UNL A   1      40.138  32.630  30.558  1.00  0.00     0.031 C 
ATOM     65  C   UNL A   1      45.021  30.309  32.216  1.00  0.00     0.029 A 
ATOM     66  C   UNL A   1      43.937  31.182  32.138  1.00  0.00     0.049 A 
ATOM     67  H   UNL A   1      44.077  33.084  31.235  1.00  0.00     0.167 HD
ATOM     68  C   UNL A   1      41.526  31.766  32.204  1.00  0.00     0.074 A 
ATOM     69  C   UNL A   1      41.375  32.663  31.061  1.00  0.00     0.031 C 
ATOM     70  C   UNL A   1      42.618  31.137  32.725  1.00  0.00     0.037 A 
BRANCH  57  71
ATOM     71  C   UNL A   1      45.061  33.135  28.333  1.00  0.00     0.064 A 
ATOM     72  C   UNL A   1      46.311  33.728  28.091  1.00  0.00     0.173 A 
ATOM     73  C   UNL A   1      43.941  33.983  28.200  1.00  0.00     0.173 A 
ATOM     74  F   UNL A   1      47.441  33.022  28.247  1.00  0.00    -0.203 F 
ATOM     75  C   UNL A   1      46.430  35.080  27.762  1.00  0.00     0.198 A 
ATOM     76  C   UNL A   1      44.056  35.312  27.803  1.00  0.00     0.198 A 
ATOM     77  F   UNL A   1      42.709  33.594  28.554  1.00  0.00    -0.203 F 
ATOM     78  F   UNL A   1      47.646  35.631  27.651  1.00  0.00    -0.200 F 
ATOM     79  C   UNL A   1      45.303  35.868  27.609  1.00  0.00     0.200 A 
ATOM     80  F   UNL A   1      42.953  36.064  27.686  1.00  0.00    -0.200 F 
ATOM     81  F   UNL A   1      45.417  37.172  27.329  1.00  0.00    -0.200 F 
ENDBRANCH  57  71
BRANCH  58  82
ATOM     82  C   UNL A   1      37.208  31.112  30.456  1.00  0.00     0.064 A 
ATOM     83  C   UNL A   1      36.285  31.553  31.416  1.00  0.00     0.173 A 
ATOM     84  C   UNL A   1      36.880  31.360  29.107  1.00  0.00     0.173 A 
ATOM     85  F   UNL A   1      36.554  31.414  32.722  1.00  0.00    -0.203 F 
ATOM     86  C   UNL A   1      35.098  32.199  31.048  1.00  0.00     0.198 A 
ATOM     87  C   UNL A   1      35.700  32.010  28.742  1.00  0.00     0.198 A 
ATOM     88  F   UNL A   1      37.749  31.063  28.131  1.00  0.00    -0.203 F 
ATOM     89  F   UNL A   1      34.255  32.645  31.991  1.00  0.00    -0.200 F 
ATOM     90  C   UNL A   1      34.809  32.430  29.712  1.00  0.00     0.200 A 
ATOM     91  F   UNL A   1      35.450  32.264  27.449  1.00  0.00    -0.200 F 
ATOM     92  F   UNL A   1      33.695  33.087  29.359  1.00  0.00    -0.200 F 
ENDBRANCH  58  82
BRANCH  70  93
ATOM     93  C   UNL A   1      42.398  30.120  33.813  1.00  0.00     0.064 A 
ATOM     94  C   UNL A   1      42.156  28.755  33.576  1.00  0.00     0.173 A 
ATOM     95  C   UNL A   1      42.614  30.510  35.141  1.00  0.00     0.173 A 
ATOM     96  F   UNL A   1      42.023  28.283  32.333  1.00  0.00    -0.203 F 
ATOM     97  C   UNL A   1      42.114  27.832  34.620  1.00  0.00     0.198 A 
ATOM     98  C   UNL A   1      42.603  29.582  36.178  1.00  0.00     0.198 A 
ATOM     99  F   UNL A   1      42.894  31.792  35.425  1.00  0.00    -0.203 F 
ATOM    100  F   UNL A   1      41.887  26.534  34.361  1.00  0.00    -0.200 F 
ATOM    101  C   UNL A   1      42.350  28.244  35.919  1.00  0.00     0.200 A 
ATOM    102  F   UNL A   1      42.875  29.978  37.429  1.00  0.00    -0.200 F 
ATOM    103  F   UNL A   1      42.362  27.349  36.917  1.00  0.00    -0.200 F 
ENDBRANCH  70  93
ENDBRANCH  44  45
ENDBRANCH  36  39
ENDBRANCH  34  35
ENDBRANCH  33  34
ENDBRANCH  32  33
ENDBRANCH   1  32
TORSDOF 18
ENDMDL
MODEL 2
REMARK VINA RESULT:     -11.9      3.206      8.470
REMARK SMILES Cc1ccc(C)c(S(=O)(=O)N[C@H](CC2=c3ccccc3=NC2)C(=O)NCCCCCCNC(=O)c2ccc(-c3c4nc(c(-c5c(F)c(F)c(F)c(F)c5F)c5ccc([nH]5)c(-c5c(F)c(F)c(F)c(F)c5F)c5nc(c(-c6c(F)c(F)c(F)c(F)c6F)c6ccc3[nH]6)C=C5)C=C4)cc2)c1
REMARK SMILES IDX 28 1 27 2 26 3 25 4 23 5 24 6 12 8 11 9 8 11 9 12 10 13 7 14
REMARK SMILES IDX 1 15 2 16 3 17 98 18 4 19 5 20 6 21 13 22 14 23 15 24 22 25
REMARK SMILES IDX 16 26 20 27 21 28 17 29 19 30 18 31 29 32 30 33 31 34 32 35
REMARK SMILES IDX 33 36 34 38 35 39 36 40 97 41 37 42 96 43 38 44 39 45 40 46
REMARK SMILES IDX 90 47 41 48 95 49 89 50 91 51 42 52 94 53 88 54 87 55 43 57
REMARK SMILES IDX 75 58 55 59 74 60 56 61 59 62 73 63 92 64 57 65 58 66 72 68
REMARK SMILES IDX 93 69 60 70 44 71 45 72 53 73 46 74 47 75 51 76 54 77 48 78
REMARK SMILES IDX 49 79 52 80 50 81 76 82 77 83 85 84 78 85 79 86 83 87 86 88
REMARK SMILES IDX 80 89 81 90 84 91 82 92 61 93 62 94 70 95 63 96 64 97 68 98
REMARK SMILES IDX 71 99 65 100 66 101 69 102 67 103
REMARK H PARENT 25 7 11 10 32 37 91 56 59 67
REMARK Flexibility Score: inf
ROOT
ATOM      1  C   UNL A   1      33.914  29.598  26.611  1.00  0.00     0.002 C 
ENDROOT
BRANCH   1   2
ATOM      2  C   UNL A   1      33.363  28.336  27.277  1.00  0.00     0.021 C 
BRANCH   2   3
ATOM      3  C   UNL A   1      31.834  28.224  27.424  1.00  0.00     0.116 C 
BRANCH   3   4
ATOM      4  N   UNL A   1      31.270  26.893  27.219  1.00  0.00    -0.355 N 
ATOM      5  C   UNL A   1      31.095  26.064  26.146  1.00  0.00     0.238 C 
ATOM      6  O   UNL A   1      30.445  25.032  26.359  1.00  0.00    -0.273 OA
ATOM      7  H   UNL A   1      30.935  26.497  28.056  1.00  0.00     0.163 HD
BRANCH   5   8
ATOM      8  C   UNL A   1      31.612  26.361  24.730  1.00  0.00     0.163 C 
BRANCH   8   9
ATOM      9  N   UNL A   1      33.013  25.881  24.570  1.00  0.00    -0.198 NA
ATOM     10  H   UNL A   1      33.566  26.678  24.255  1.00  0.00     0.142 HD
BRANCH   9  11
ATOM     11  S   UNL A   1      33.341  24.609  23.516  1.00  0.00     0.241 S 
ATOM     12  O   UNL A   1      34.041  25.145  22.381  1.00  0.00    -0.207 OA
ATOM     13  O   UNL A   1      32.073  23.912  23.391  1.00  0.00    -0.207 OA
BRANCH  11  14
ATOM     14  C   UNL A   1      34.431  23.542  24.428  1.00  0.00     0.085 A 
ATOM     15  C   UNL A   1      37.769  23.928  26.222  1.00  0.00     0.044 C 
ATOM     16  C   UNL A   1      36.535  23.308  25.637  1.00  0.00    -0.050 A 
ATOM     17  C   UNL A   1      36.352  21.926  25.646  1.00  0.00     0.004 A 
ATOM     18  C   UNL A   1      35.548  24.109  25.061  1.00  0.00     0.025 A 
ATOM     19  C   UNL A   1      35.205  21.359  25.083  1.00  0.00     0.005 A 
ATOM     20  C   UNL A   1      34.227  22.154  24.460  1.00  0.00    -0.031 A 
ATOM     21  C   UNL A   1      33.018  21.459  23.897  1.00  0.00     0.046 C 
ENDBRANCH  11  14
ENDBRANCH   9  11
ENDBRANCH   8   9
BRANCH   8  22
ATOM     22  C   UNL A   1      31.478  27.828  24.211  1.00  0.00     0.063 C 
BRANCH  22  23
ATOM     23  C   UNL A   1      30.136  28.322  23.753  1.00  0.00    -0.037 C 
ATOM     24  C   UNL A   1      29.602  29.541  23.671  1.00  0.00     0.001 A 
ATOM     25  C   UNL A   1      29.095  27.310  23.405  1.00  0.00     0.174 C 
ATOM     26  C   UNL A   1      29.966  30.875  24.033  1.00  0.00     0.010 A 
ATOM     27  C   UNL A   1      28.288  29.269  23.057  1.00  0.00     0.065 A 
ATOM     28  N   UNL A   1      27.916  28.037  22.927  1.00  0.00    -0.280 NA
ATOM     29  C   UNL A   1      29.097  31.872  23.780  1.00  0.00     0.001 A 
ATOM     30  C   UNL A   1      27.485  30.429  22.642  1.00  0.00     0.028 A 
ATOM     31  C   UNL A   1      27.867  31.648  23.040  1.00  0.00     0.002 A 
ENDBRANCH  22  23
ENDBRANCH   8  22
ENDBRANCH   5   8
ENDBRANCH   3   4
ENDBRANCH   2   3
ENDBRANCH   1   2
BRANCH   1  32
ATOM     32  C   UNL A   1      33.708  30.902  27.382  1.00  0.00     0.002 C 
BRANCH  32  33
ATOM     33  C   UNL A   1      34.946  31.774  27.652  1.00  0.00     0.021 C 
BRANCH  33  34
ATOM     34  C   UNL A   1      34.712  33.159  28.261  1.00  0.00     0.116 C 
BRANCH  34  35
ATOM     35  N   UNL A   1      34.566  33.126  29.720  1.00  0.00    -0.352 N 
ATOM     36  C   UNL A   1      35.082  32.303  30.702  1.00  0.00     0.251 C 
ATOM     37  H   UNL A   1      33.981  33.836  30.071  1.00  0.00     0.163 HD
ATOM     38  O   UNL A   1      34.496  32.229  31.781  1.00  0.00    -0.269 OA
BRANCH  36  39
ATOM     39  C   UNL A   1      36.332  31.530  30.511  1.00  0.00     0.039 A 
ATOM     40  C   UNL A   1      36.339  30.127  30.449  1.00  0.00     0.014 A 
ATOM     41  C   UNL A   1      37.542  32.200  30.484  1.00  0.00     0.014 A 
ATOM     42  C   UNL A   1      37.560  29.446  30.385  1.00  0.00     0.010 A 
ATOM     43  C   UNL A   1      38.714  31.563  30.200  1.00  0.00     0.010 A 
ATOM     44  C   UNL A   1      38.742  30.183  30.282  1.00  0.00    -0.014 A 
BRANCH  44  45
ATOM     45  C   UNL A   1      40.073  29.606  30.253  1.00  0.00     0.031 A 
ATOM     46  C   UNL A   1      40.692  29.357  31.563  1.00  0.00     0.074 A 
ATOM     47  C   UNL A   1      40.557  28.994  29.151  1.00  0.00     0.049 A 
ATOM     48  N   UNL A   1      41.801  29.854  31.992  1.00  0.00    -0.248 NA
ATOM     49  C   UNL A   1      39.980  28.519  32.537  1.00  0.00     0.031 C 
ATOM     50  C   UNL A   1      39.909  28.881  27.844  1.00  0.00     0.029 A 
ATOM     51  N   UNL A   1      41.680  28.228  29.009  1.00  0.00    -0.354 N 
ATOM     52  C   UNL A   1      42.024  29.253  33.219  1.00  0.00     0.074 A 
ATOM     53  C   UNL A   1      40.792  28.606  33.591  1.00  0.00     0.031 C 
ATOM     54  C   UNL A   1      40.552  27.944  27.119  1.00  0.00     0.029 A 
ATOM     55  C   UNL A   1      41.699  27.466  27.849  1.00  0.00     0.049 A 
ATOM     56  H   UNL A   1      42.409  28.218  29.670  1.00  0.00     0.167 HD
ATOM     57  C   UNL A   1      43.285  29.112  33.706  1.00  0.00     0.037 A 
ATOM     58  C   UNL A   1      42.578  26.498  27.492  1.00  0.00     0.037 A 
ATOM     59  C   UNL A   1      44.234  29.927  32.988  1.00  0.00     0.049 A 
ATOM     60  C   UNL A   1      43.819  26.726  28.257  1.00  0.00     0.074 A 
ATOM     61  C   UNL A   1      44.323  31.277  32.700  1.00  0.00     0.029 A 
ATOM     62  N   UNL A   1      45.091  29.311  32.108  1.00  0.00    -0.354 N 
ATOM     63  N   UNL A   1      44.600  27.752  28.066  1.00  0.00    -0.248 NA
ATOM     64  C   UNL A   1      43.949  26.066  29.545  1.00  0.00     0.031 C 
ATOM     65  C   UNL A   1      44.831  31.346  31.370  1.00  0.00     0.029 A 
ATOM     66  C   UNL A   1      45.075  30.041  30.945  1.00  0.00     0.049 A 
ATOM     67  H   UNL A   1      45.619  28.499  32.279  1.00  0.00     0.167 HD
ATOM     68  C   UNL A   1      44.951  28.149  29.344  1.00  0.00     0.074 A 
ATOM     69  C   UNL A   1      44.622  27.014  30.203  1.00  0.00     0.031 C 
ATOM     70  C   UNL A   1      45.192  29.461  29.628  1.00  0.00     0.037 A 
BRANCH  57  71
ATOM     71  C   UNL A   1      43.699  27.990  34.613  1.00  0.00     0.064 A 
ATOM     72  C   UNL A   1      43.610  26.666  34.155  1.00  0.00     0.173 A 
ATOM     73  C   UNL A   1      43.952  28.149  35.993  1.00  0.00     0.173 A 
ATOM     74  F   UNL A   1      43.316  26.408  32.872  1.00  0.00    -0.203 F 
ATOM     75  C   UNL A   1      43.741  25.579  35.023  1.00  0.00     0.198 A 
ATOM     76  C   UNL A   1      44.152  27.065  36.843  1.00  0.00     0.198 A 
ATOM     77  F   UNL A   1      43.904  29.347  36.591  1.00  0.00    -0.203 F 
ATOM     78  F   UNL A   1      43.537  24.337  34.565  1.00  0.00    -0.200 F 
ATOM     79  C   UNL A   1      44.022  25.780  36.363  1.00  0.00     0.200 A 
ATOM     80  F   UNL A   1      44.398  27.282  38.142  1.00  0.00    -0.200 F 
ATOM     81  F   UNL A   1      44.112  24.740  37.202  1.00  0.00    -0.200 F 
ENDBRANCH  57  71
BRANCH  58  82
ATOM     82  C   UNL A   1      42.270  25.208  26.835  1.00  0.00     0.064 A 
ATOM     83  C   UNL A   1      42.976  24.752  25.712  1.00  0.00     0.173 A 
ATOM     84  C   UNL A   1      41.450  24.265  27.487  1.00  0.00     0.173 A 
ATOM     85  F   UNL A   1      43.829  25.568  25.076  1.00  0.00    -0.203 F 
ATOM     86  C   UNL A   1      42.862  23.430  25.263  1.00  0.00     0.198 A 
ATOM     87  C   UNL A   1      41.341  22.947  27.042  1.00  0.00     0.198 A 
ATOM     88  F   UNL A   1      40.818  24.587  28.625  1.00  0.00    -0.203 F 
ATOM     89  F   UNL A   1      43.582  23.013  24.210  1.00  0.00    -0.200 F 
ATOM     90  C   UNL A   1      42.049  22.529  25.931  1.00  0.00     0.200 A 
ATOM     91  F   UNL A   1      40.583  22.073  27.720  1.00  0.00    -0.200 F 
ATOM     92  F   UNL A   1      41.971  21.252  25.528  1.00  0.00    -0.200 F 
ENDBRANCH  58  82
BRANCH  70  93
ATOM     93  C   UNL A   1      45.322  30.422  28.476  1.00  0.00     0.064 A 
ATOM     94  C   UNL A   1      44.261  31.197  27.975  1.00  0.00     0.173 A 
ATOM     95  C   UNL A   1      46.603  30.695  27.980  1.00  0.00     0.173 A 
ATOM     96  F   UNL A   1      43.020  31.060  28.453  1.00  0.00    -0.203 F 
ATOM     97  C   UNL A   1      44.471  32.183  27.012  1.00  0.00     0.198 A 
ATOM     98  C   UNL A   1      46.815  31.702  27.042  1.00  0.00     0.198 A 
ATOM     99  F   UNL A   1      47.663  30.019  28.453  1.00  0.00    -0.203 F 
ATOM    100  F   UNL A   1      43.438  32.910  26.557  1.00  0.00    -0.200 F 
ATOM    101  C   UNL A   1      45.751  32.443  26.556  1.00  0.00     0.200 A 
ATOM    102  F   UNL A   1      48.062  31.980  26.634  1.00  0.00    -0.200 F 
ATOM    103  F   UNL A   1      45.961  33.425  25.669  1.00  0.00    -0.200 F 
ENDBRANCH  70  93
ENDBRANCH  44  45
ENDBRANCH  36  39
ENDBRANCH  34  35
ENDBRANCH  33  34
ENDBRANCH  32  33
ENDBRANCH   1  32
TORSDOF 18
ENDMDL
MODEL 3
REMARK VINA RESULT:     -11.9      3.221      8.430
REMARK SMILES Cc1ccc(C)c(S(=O)(=O)N[C@H](CC2=c3ccccc3=NC2)C(=O)NCCCCCCNC(=O)c2ccc(-c3c4nc(c(-c5c(F)c(F)c(F)c(F)c5F)c5ccc([nH]5)c(-c5c(F)c(F)c(F)c(F)c5F)c5nc(c(-c6c(F)c(F)c(F)c(F)c6F)c6ccc3[nH]6)C=C5)C=C4)cc2)c1
REMARK SMILES IDX 28 1 27 2 26 3 25 4 23 5 24 6 12 8 11 9 8 11 9 12 10 13 7 14
REMARK SMILES IDX 1 15 2 16 3 17 98 18 4 19 5 20 6 21 13 22 14 23 15 24 22 25
REMARK SMILES IDX 16 26 20 27 21 28 17 29 19 30 18 31 29 32 30 33 31 34 32 35
REMARK SMILES IDX 33 36 34 38 35 39 36 40 97 41 37 42 96 43 38 44 39 45 40 46
REMARK SMILES IDX 90 47 41 48 95 49 89 50 91 51 42 52 94 53 88 54 87 55 43 57
REMARK SMILES IDX 75 58 55 59 74 60 56 61 59 62 73 63 92 64 57 65 58 66 72 68
REMARK SMILES IDX 93 69 60 70 44 71 45 72 53 73 46 74 47 75 51 76 54 77 48 78
REMARK SMILES IDX 49 79 52 80 50 81 76 82 77 83 85 84 78 85 79 86 83 87 86 88
REMARK SMILES IDX 80 89 81 90 84 91 82 92 61 93 62 94 70 95 63 96 64 97 68 98
REMARK SMILES IDX 71 99 65 100 66 101 69 102 67 103
REMARK H PARENT 25 7 11 10 32 37 91 56 59 67
REMARK Flexibility Score: inf
ROOT
ATOM      1  C   UNL A   1      31.719  29.624  25.720  1.00  0.00     0.002 C 
ENDROOT
BRANCH   1   2
ATOM      2  C   UNL A   1      32.073  28.252  26.296  1.00  0.00     0.021 C 
BRANCH   2   3
ATOM      3  C   UNL A   1      33.264  27.507  25.666  1.00  0.00     0.116 C 
BRANCH   3   4
ATOM      4  N   UNL A   1      33.456  26.127  26.105  1.00  0.00    -0.355 N 
ATOM      5  C   UNL A   1      33.877  24.967  25.516  1.00  0.00     0.238 C 
ATOM      6  O   UNL A   1      33.784  23.944  26.206  1.00  0.00    -0.273 OA
ATOM      7  H   UNL A   1      33.227  26.001  27.055  1.00  0.00     0.163 HD
BRANCH   5   8
ATOM      8  C   UNL A   1      34.402  24.871  24.075  1.00  0.00     0.163 C 
BRANCH   8   9
ATOM      9  N   UNL A   1      33.277  24.692  23.116  1.00  0.00    -0.198 NA
ATOM     10  H   UNL A   1      33.491  23.866  22.556  1.00  0.00     0.142 HD
BRANCH   9  11
ATOM     11  S   UNL A   1      32.898  25.930  22.039  1.00  0.00     0.241 S 
ATOM     12  O   UNL A   1      32.774  25.353  20.728  1.00  0.00    -0.207 OA
ATOM     13  O   UNL A   1      33.861  26.974  22.341  1.00  0.00    -0.207 OA
BRANCH  11  14
ATOM     14  C   UNL A   1      31.309  26.518  22.574  1.00  0.00     0.085 A 
ATOM     15  C   UNL A   1      29.486  29.862  22.576  1.00  0.00     0.044 C 
ATOM     16  C   UNL A   1      29.801  28.417  22.823  1.00  0.00    -0.050 A 
ATOM     17  C   UNL A   1      28.964  27.624  23.606  1.00  0.00     0.004 A 
ATOM     18  C   UNL A   1      30.950  27.842  22.279  1.00  0.00     0.025 A 
ATOM     19  C   UNL A   1      29.277  26.281  23.843  1.00  0.00     0.005 A 
ATOM     20  C   UNL A   1      30.455  25.705  23.336  1.00  0.00    -0.031 A 
ATOM     21  C   UNL A   1      30.700  24.251  23.628  1.00  0.00     0.046 C 
ENDBRANCH  11  14
ENDBRANCH   9  11
ENDBRANCH   8   9
BRANCH   8  22
ATOM     22  C   UNL A   1      35.529  23.827  23.791  1.00  0.00     0.063 C 
BRANCH  22  23
ATOM     23  C   UNL A   1      35.357  22.415  24.273  1.00  0.00    -0.037 C 
ATOM     24  C   UNL A   1      34.361  21.537  24.159  1.00  0.00     0.001 A 
ATOM     25  C   UNL A   1      36.417  21.838  25.152  1.00  0.00     0.174 C 
ATOM     26  C   UNL A   1      33.026  21.522  23.648  1.00  0.00     0.010 A 
ATOM     27  C   UNL A   1      34.926  20.335  24.800  1.00  0.00     0.065 A 
ATOM     28  N   UNL A   1      36.054  20.445  25.424  1.00  0.00    -0.280 NA
ATOM     29  C   UNL A   1      32.311  20.384  23.744  1.00  0.00     0.001 A 
ATOM     30  C   UNL A   1      34.154  19.087  24.691  1.00  0.00     0.028 A 
ATOM     31  C   UNL A   1      32.899  19.148  24.230  1.00  0.00     0.002 A 
ENDBRANCH  22  23
ENDBRANCH   8  22
ENDBRANCH   5   8
ENDBRANCH   3   4
ENDBRANCH   2   3
ENDBRANCH   1   2
BRANCH   1  32
ATOM     32  C   UNL A   1      32.115  30.828  26.574  1.00  0.00     0.002 C 
BRANCH  32  33
ATOM     33  C   UNL A   1      33.341  30.679  27.492  1.00  0.00     0.021 C 
BRANCH  33  34
ATOM     34  C   UNL A   1      34.273  31.886  27.622  1.00  0.00     0.116 C 
BRANCH  34  35
ATOM     35  N   UNL A   1      34.361  32.396  28.994  1.00  0.00    -0.352 N 
ATOM     36  C   UNL A   1      35.101  32.015  30.098  1.00  0.00     0.251 C 
ATOM     37  H   UNL A   1      33.773  33.167  29.164  1.00  0.00     0.163 HD
ATOM     38  O   UNL A   1      34.700  32.331  31.216  1.00  0.00    -0.269 OA
BRANCH  36  39
ATOM     39  C   UNL A   1      36.372  31.264  29.977  1.00  0.00     0.039 A 
ATOM     40  C   UNL A   1      36.409  29.862  29.931  1.00  0.00     0.014 A 
ATOM     41  C   UNL A   1      37.569  31.958  30.002  1.00  0.00     0.014 A 
ATOM     42  C   UNL A   1      37.645  29.204  29.936  1.00  0.00     0.010 A 
ATOM     43  C   UNL A   1      38.766  31.342  29.784  1.00  0.00     0.010 A 
ATOM     44  C   UNL A   1      38.816  29.963  29.882  1.00  0.00    -0.014 A 
BRANCH  44  45
ATOM     45  C   UNL A   1      40.158  29.412  29.926  1.00  0.00     0.031 A 
ATOM     46  C   UNL A   1      40.710  29.175  31.268  1.00  0.00     0.074 A 
ATOM     47  C   UNL A   1      40.713  28.810  28.852  1.00  0.00     0.049 A 
ATOM     48  N   UNL A   1      41.785  29.693  31.755  1.00  0.00    -0.248 NA
ATOM     49  C   UNL A   1      39.963  28.324  32.202  1.00  0.00     0.031 C 
ATOM     50  C   UNL A   1      40.138  28.685  27.512  1.00  0.00     0.029 A 
ATOM     51  N   UNL A   1      41.856  28.066  28.771  1.00  0.00    -0.354 N 
ATOM     52  C   UNL A   1      41.953  29.097  32.993  1.00  0.00     0.074 A 
ATOM     53  C   UNL A   1      40.715  28.426  33.298  1.00  0.00     0.031 C 
ATOM     54  C   UNL A   1      40.837  27.760  26.823  1.00  0.00     0.029 A 
ATOM     55  C   UNL A   1      41.953  27.305  27.615  1.00  0.00     0.049 A 
ATOM     56  H   UNL A   1      42.549  28.070  29.471  1.00  0.00     0.167 HD
ATOM     57  C   UNL A   1      43.189  28.980  33.547  1.00  0.00     0.037 A 
ATOM     58  C   UNL A   1      42.868  26.354  27.306  1.00  0.00     0.037 A 
ATOM     59  C   UNL A   1      44.158  29.814  32.880  1.00  0.00     0.049 A 
ATOM     60  C   UNL A   1      44.061  26.606  28.137  1.00  0.00     0.074 A 
ATOM     61  C   UNL A   1      44.236  31.166  32.597  1.00  0.00     0.029 A 
ATOM     62  N   UNL A   1      45.074  29.215  32.048  1.00  0.00    -0.354 N 
ATOM     63  N   UNL A   1      44.831  27.648  27.987  1.00  0.00    -0.248 NA
ATOM     64  C   UNL A   1      44.135  25.948  29.431  1.00  0.00     0.031 C 
ATOM     65  C   UNL A   1      44.814  31.244  31.295  1.00  0.00     0.029 A 
ATOM     66  C   UNL A   1      45.106  29.945  30.885  1.00  0.00     0.049 A 
ATOM     67  H   UNL A   1      45.607  28.413  32.248  1.00  0.00     0.167 HD
ATOM     68  C   UNL A   1      45.105  28.051  29.282  1.00  0.00     0.074 A 
ATOM     69  C   UNL A   1      44.753  26.909  30.123  1.00  0.00     0.031 C 
ATOM     70  C   UNL A   1      45.305  29.367  29.577  1.00  0.00     0.037 A 
BRANCH  57  71
ATOM     71  C   UNL A   1      43.575  27.867  34.476  1.00  0.00     0.064 A 
ATOM     72  C   UNL A   1      43.552  26.542  34.010  1.00  0.00     0.173 A 
ATOM     73  C   UNL A   1      43.735  28.027  35.870  1.00  0.00     0.173 A 
ATOM     74  F   UNL A   1      43.347  26.281  32.710  1.00  0.00    -0.203 F 
ATOM     75  C   UNL A   1      43.658  25.457  34.882  1.00  0.00     0.198 A 
ATOM     76  C   UNL A   1      43.911  26.946  36.728  1.00  0.00     0.198 A 
ATOM     77  F   UNL A   1      43.616  29.221  36.466  1.00  0.00    -0.203 F 
ATOM     78  F   UNL A   1      43.518  24.211  34.410  1.00  0.00    -0.200 F 
ATOM     79  C   UNL A   1      43.847  25.659  36.238  1.00  0.00     0.200 A 
ATOM     80  F   UNL A   1      44.067  27.164  38.041  1.00  0.00    -0.200 F 
ATOM     81  F   UNL A   1      43.913  24.619  37.078  1.00  0.00    -0.200 F 
ENDBRANCH  57  71
BRANCH  58  82
ATOM     82  C   UNL A   1      42.621  25.058  26.635  1.00  0.00     0.064 A 
ATOM     83  C   UNL A   1      43.311  24.671  25.477  1.00  0.00     0.173 A 
ATOM     84  C   UNL A   1      41.891  24.051  27.298  1.00  0.00     0.173 A 
ATOM     85  F   UNL A   1      44.082  25.554  24.826  1.00  0.00    -0.203 F 
ATOM     86  C   UNL A   1      43.268  23.353  25.005  1.00  0.00     0.198 A 
ATOM     87  C   UNL A   1      41.853  22.737  26.831  1.00  0.00     0.198 A 
ATOM     88  F   UNL A   1      41.284  24.309  28.466  1.00  0.00    -0.203 F 
ATOM     89  F   UNL A   1      43.972  23.004  23.918  1.00  0.00    -0.200 F 
ATOM     90  C   UNL A   1      42.543  22.387  25.685  1.00  0.00     0.200 A 
ATOM     91  F   UNL A   1      41.181  21.802  27.519  1.00  0.00    -0.200 F 
ATOM     92  F   UNL A   1      42.535  21.115  25.259  1.00  0.00    -0.200 F 
ENDBRANCH  58  82
BRANCH  70  93
ATOM     93  C   UNL A   1      45.478  30.331  28.433  1.00  0.00     0.064 A 
ATOM     94  C   UNL A   1      44.425  31.063  27.855  1.00  0.00     0.173 A 
ATOM     95  C   UNL A   1      46.779  30.653  28.027  1.00  0.00     0.173 A 
ATOM     96  F   UNL A   1      43.161  30.878  28.245  1.00  0.00    -0.203 F 
ATOM     97  C   UNL A   1      44.664  32.054  26.905  1.00  0.00     0.198 A 
ATOM     98  C   UNL A   1      47.018  31.666  27.102  1.00  0.00     0.198 A 
ATOM     99  F   UNL A   1      47.829  30.020  28.575  1.00  0.00    -0.203 F 
ATOM    100  F   UNL A   1      43.638  32.739  26.376  1.00  0.00    -0.200 F 
ATOM    101  C   UNL A   1      45.961  32.363  26.538  1.00  0.00     0.200 A 
ATOM    102  F   UNL A   1      48.277  31.992  26.781  1.00  0.00    -0.200 F 
ATOM    103  F   UNL A   1      46.195  33.352  25.664  1.00  0.00    -0.200 F 
ENDBRANCH  70  93
ENDBRANCH  44  45
ENDBRANCH  36  39
ENDBRANCH  34  35
ENDBRANCH  33  34
ENDBRANCH  32  33
ENDBRANCH   1  32
TORSDOF 18
ENDMDL
