MODEL 1
REMARK VINA RESULT:     -11.4      0.000      0.000
REMARK SMILES O=C(C[C@@H]1CN(C(=O)CCn2cncn2)CCO1)NCCCCCCNC(=O)c1ccc(-c2c3nc(c(-c4c(F)c(F)c(F)c(F)c4F)c4ccc([nH]4)c(-c4c(F)c(F)c(F)c(F)c4F)c4nc(c(-c5c(F)c(F)c(F)c(F)c5F)c5ccc2[nH]5)C=C4)C=C3)cc1
REMARK SMILES IDX 21 1 20 2 19 3 1 4 2 5 3 7 4 8 5 9 18 10 6 11 17 12 16 13
REMARK SMILES IDX 7 14 8 15 9 16 10 17 11 18 12 19 15 20 13 21 14 22 22 23
REMARK SMILES IDX 23 24 24 25 25 26 26 27 27 28 28 30 29 31 30 32 91 33 31 34
REMARK SMILES IDX 90 35 32 36 33 37 34 38 84 39 35 40 89 41 83 42 85 43 36 44
REMARK SMILES IDX 88 45 82 46 81 47 37 49 69 50 49 51 68 52 50 53 53 54 67 55
REMARK SMILES IDX 86 56 51 57 52 58 66 60 87 61 54 62 38 63 39 64 47 65 40 66
REMARK SMILES IDX 41 67 45 68 48 69 42 70 43 71 46 72 44 73 70 74 71 75 79 76
REMARK SMILES IDX 72 77 73 78 77 79 80 80 74 81 75 82 78 83 76 84 55 85 56 86
REMARK SMILES IDX 64 87 57 88 58 89 62 90 65 91 59 92 60 93 63 94 61 95
REMARK H PARENT 19 6 26 29 85 48 53 59
REMARK Flexibility Score: inf
ROOT
ATOM      1  C   UNL A   1      39.331  22.503  26.774  1.00  0.00     0.021 C 
ENDROOT
BRANCH   1   2
ATOM      2  C   UNL A   1      38.284  21.947  25.809  1.00  0.00     0.116 C 
BRANCH   2   3
ATOM      3  N   UNL A   1      37.021  22.623  26.009  1.00  0.00    -0.356 N 
ATOM      4  O   UNL A   1      36.899  23.634  23.960  1.00  0.00    -0.275 OA
ATOM      5  C   UNL A   1      36.460  23.472  25.090  1.00  0.00     0.222 C 
ATOM      6  H   UNL A   1      36.538  22.465  26.853  1.00  0.00     0.163 HD
BRANCH   5   7
ATOM      7  C   UNL A   1      35.241  24.197  25.618  1.00  0.00     0.133 C 
BRANCH   7   8
ATOM      8  C   UNL A   1      34.061  23.240  25.787  1.00  0.00     0.147 C 
ATOM      9  C   UNL A   1      33.973  22.324  24.568  1.00  0.00     0.152 C 
ATOM     10  O   UNL A   1      32.851  24.001  25.937  1.00  0.00    -0.374 OA
ATOM     11  N   UNL A   1      32.790  21.473  24.582  1.00  0.00    -0.338 N 
ATOM     12  C   UNL A   1      31.726  23.119  26.105  1.00  0.00     0.182 C 
ATOM     13  C   UNL A   1      31.550  22.191  24.896  1.00  0.00     0.148 C 
BRANCH  11  14
ATOM     14  C   UNL A   1      32.719  20.209  24.022  1.00  0.00     0.224 C 
ATOM     15  O   UNL A   1      32.031  19.972  23.027  1.00  0.00    -0.275 OA
BRANCH  14  16
ATOM     16  C   UNL A   1      33.468  19.064  24.686  1.00  0.00     0.124 C 
BRANCH  16  17
ATOM     17  C   UNL A   1      32.555  18.105  25.443  1.00  0.00     0.156 C 
BRANCH  17  18
ATOM     18  N   UNL A   1      32.990  16.726  25.457  1.00  0.00    -0.252 N 
ATOM     19  C   UNL A   1      34.233  16.231  25.206  1.00  0.00     0.219 A 
ATOM     20  N   UNL A   1      32.123  15.732  25.729  1.00  0.00    -0.160 NA
ATOM     21  N   UNL A   1      34.202  14.920  25.278  1.00  0.00    -0.224 NA
ATOM     22  C   UNL A   1      32.906  14.656  25.610  1.00  0.00     0.246 A 
ENDBRANCH  17  18
ENDBRANCH  16  17
ENDBRANCH  14  16
ENDBRANCH  11  14
ENDBRANCH   7   8
ENDBRANCH   5   7
ENDBRANCH   2   3
ENDBRANCH   1   2
BRANCH   1  23
ATOM     23  C   UNL A   1      40.764  22.017  26.504  1.00  0.00     0.002 C 
BRANCH  23  24
ATOM     24  C   UNL A   1      41.410  21.189  27.623  1.00  0.00     0.002 C 
BRANCH  24  25
ATOM     25  C   UNL A   1      42.401  20.108  27.172  1.00  0.00     0.021 C 
BRANCH  25  26
ATOM     26  C   UNL A   1      42.349  19.815  25.681  1.00  0.00     0.116 C 
BRANCH  26  27
ATOM     27  N   UNL A   1      43.670  19.570  25.107  1.00  0.00    -0.352 N 
ATOM     28  C   UNL A   1      44.598  20.500  24.675  1.00  0.00     0.251 C 
ATOM     29  H   UNL A   1      43.933  18.625  25.017  1.00  0.00     0.163 HD
ATOM     30  O   UNL A   1      45.477  20.201  23.886  1.00  0.00    -0.269 OA
BRANCH  28  31
ATOM     31  C   UNL A   1      44.506  21.874  25.202  1.00  0.00     0.039 A 
ATOM     32  C   UNL A   1      43.635  22.813  24.642  1.00  0.00     0.014 A 
ATOM     33  C   UNL A   1      45.306  22.201  26.294  1.00  0.00     0.014 A 
ATOM     34  C   UNL A   1      43.523  24.064  25.246  1.00  0.00     0.010 A 
ATOM     35  C   UNL A   1      45.079  23.365  26.977  1.00  0.00     0.010 A 
ATOM     36  C   UNL A   1      44.237  24.324  26.425  1.00  0.00    -0.014 A 
BRANCH  36  37
ATOM     37  C   UNL A   1      44.035  25.557  27.175  1.00  0.00     0.031 A 
ATOM     38  C   UNL A   1      45.006  26.638  26.850  1.00  0.00     0.074 A 
ATOM     39  C   UNL A   1      42.917  25.778  27.903  1.00  0.00     0.049 A 
ATOM     40  N   UNL A   1      45.867  27.194  27.636  1.00  0.00    -0.248 NA
ATOM     41  C   UNL A   1      45.127  27.065  25.445  1.00  0.00     0.031 C 
ATOM     42  C   UNL A   1      41.736  24.913  28.030  1.00  0.00     0.029 A 
ATOM     43  N   UNL A   1      42.546  26.884  28.602  1.00  0.00    -0.354 N 
ATOM     44  C   UNL A   1      46.504  28.177  26.880  1.00  0.00     0.074 A 
ATOM     45  C   UNL A   1      46.145  27.925  25.510  1.00  0.00     0.031 C 
ATOM     46  C   UNL A   1      40.708  25.618  28.550  1.00  0.00     0.029 A 
ATOM     47  C   UNL A   1      41.200  26.921  28.954  1.00  0.00     0.049 A 
ATOM     48  H   UNL A   1      43.177  27.600  28.841  1.00  0.00     0.167 HD
ATOM     49  C   UNL A   1      47.062  29.265  27.482  1.00  0.00     0.037 A 
ATOM     50  C   UNL A   1      40.532  27.961  29.511  1.00  0.00     0.037 A 
ATOM     51  C   UNL A   1      47.246  29.024  28.893  1.00  0.00     0.049 A 
ATOM     52  C   UNL A   1      41.547  28.871  30.093  1.00  0.00     0.074 A 
ATOM     53  C   UNL A   1      47.973  28.123  29.642  1.00  0.00     0.029 A 
ATOM     54  N   UNL A   1      46.309  29.552  29.747  1.00  0.00    -0.354 N 
ATOM     55  N   UNL A   1      42.295  28.562  31.116  1.00  0.00    -0.248 NA
ATOM     56  C   UNL A   1      42.048  29.945  29.253  1.00  0.00     0.031 C 
ATOM     57  C   UNL A   1      47.140  27.812  30.759  1.00  0.00     0.029 A 
ATOM     58  C   UNL A   1      45.987  28.595  30.670  1.00  0.00     0.049 A 
ATOM     59  H   UNL A   1      45.934  30.461  29.703  1.00  0.00     0.167 HD
ATOM     60  C   UNL A   1      43.545  29.073  30.801  1.00  0.00     0.074 A 
ATOM     61  C   UNL A   1      43.308  29.999  29.695  1.00  0.00     0.031 C 
ATOM     62  C   UNL A   1      44.679  28.475  31.271  1.00  0.00     0.037 A 
BRANCH  49  63
ATOM     63  C   UNL A   1      47.058  30.668  26.910  1.00  0.00     0.064 A 
ATOM     64  C   UNL A   1      48.260  31.408  26.925  1.00  0.00     0.173 A 
ATOM     65  C   UNL A   1      45.893  31.422  26.652  1.00  0.00     0.173 A 
ATOM     66  F   UNL A   1      49.435  30.803  27.160  1.00  0.00    -0.203 F 
ATOM     67  C   UNL A   1      48.277  32.801  26.802  1.00  0.00     0.198 A 
ATOM     68  C   UNL A   1      45.920  32.806  26.478  1.00  0.00     0.198 A 
ATOM     69  F   UNL A   1      44.670  30.884  26.665  1.00  0.00    -0.203 F 
ATOM     70  F   UNL A   1      49.427  33.469  26.967  1.00  0.00    -0.200 F 
ATOM     71  C   UNL A   1      47.105  33.500  26.590  1.00  0.00     0.200 A 
ATOM     72  F   UNL A   1      44.769  33.466  26.287  1.00  0.00    -0.200 F 
ATOM     73  F   UNL A   1      47.106  34.838  26.544  1.00  0.00    -0.200 F 
ENDBRANCH  49  63
BRANCH  50  74
ATOM     74  C   UNL A   1      39.120  28.371  29.317  1.00  0.00     0.064 A 
ATOM     75  C   UNL A   1      38.249  28.517  30.409  1.00  0.00     0.173 A 
ATOM     76  C   UNL A   1      38.679  28.903  28.090  1.00  0.00     0.173 A 
ATOM     77  F   UNL A   1      38.612  28.080  31.624  1.00  0.00    -0.203 F 
ATOM     78  C   UNL A   1      37.022  29.179  30.287  1.00  0.00     0.198 A 
ATOM     79  C   UNL A   1      37.453  29.560  27.968  1.00  0.00     0.198 A 
ATOM     80  F   UNL A   1      39.473  28.884  27.010  1.00  0.00    -0.203 F 
ATOM     81  F   UNL A   1      36.246  29.356  31.365  1.00  0.00    -0.200 F 
ATOM     82  C   UNL A   1      36.630  29.710  29.069  1.00  0.00     0.200 A 
ATOM     83  F   UNL A   1      37.105  30.103  26.793  1.00  0.00    -0.200 F 
ATOM     84  F   UNL A   1      35.486  30.400  28.965  1.00  0.00    -0.200 F 
ENDBRANCH  50  74
BRANCH  62  85
ATOM     85  C   UNL A   1      44.526  27.450  32.362  1.00  0.00     0.064 A 
ATOM     86  C   UNL A   1      44.355  26.072  32.141  1.00  0.00     0.173 A 
ATOM     87  C   UNL A   1      44.698  27.870  33.687  1.00  0.00     0.173 A 
ATOM     88  F   UNL A   1      44.279  25.574  30.902  1.00  0.00    -0.203 F 
ATOM     89  C   UNL A   1      44.314  25.167  33.201  1.00  0.00     0.198 A 
ATOM     90  C   UNL A   1      44.697  26.961  34.741  1.00  0.00     0.198 A 
ATOM     91  F   UNL A   1      44.919  29.166  33.956  1.00  0.00    -0.203 F 
ATOM     92  F   UNL A   1      44.136  23.858  32.964  1.00  0.00    -0.200 F 
ATOM     93  C   UNL A   1      44.494  25.612  34.500  1.00  0.00     0.200 A 
ATOM     94  F   UNL A   1      44.920  27.392  35.990  1.00  0.00    -0.200 F 
ATOM     95  F   UNL A   1      44.497  24.740  35.517  1.00  0.00    -0.200 F 
ENDBRANCH  62  85
ENDBRANCH  36  37
ENDBRANCH  28  31
ENDBRANCH  26  27
ENDBRANCH  25  26
ENDBRANCH  24  25
ENDBRANCH  23  24
ENDBRANCH   1  23
TORSDOF 18
ENDMDL
MODEL 2
REMARK VINA RESULT:     -11.3      2.181      3.804
REMARK SMILES O=C(C[C@@H]1CN(C(=O)CCn2cncn2)CCO1)NCCCCCCNC(=O)c1ccc(-c2c3nc(c(-c4c(F)c(F)c(F)c(F)c4F)c4ccc([nH]4)c(-c4c(F)c(F)c(F)c(F)c4F)c4nc(c(-c5c(F)c(F)c(F)c(F)c5F)c5ccc2[nH]5)C=C4)C=C3)cc1
REMARK SMILES IDX 21 1 20 2 19 3 1 4 2 5 3 7 4 8 5 9 18 10 6 11 17 12 16 13
REMARK SMILES IDX 7 14 8 15 9 16 10 17 11 18 12 19 15 20 13 21 14 22 22 23
REMARK SMILES IDX 23 24 24 25 25 26 26 27 27 28 28 30 29 31 30 32 91 33 31 34
REMARK SMILES IDX 90 35 32 36 33 37 34 38 84 39 35 40 89 41 83 42 85 43 36 44
REMARK SMILES IDX 88 45 82 46 81 47 37 49 69 50 49 51 68 52 50 53 53 54 67 55
REMARK SMILES IDX 86 56 51 57 52 58 66 60 87 61 54 62 38 63 39 64 47 65 40 66
REMARK SMILES IDX 41 67 45 68 48 69 42 70 43 71 46 72 44 73 70 74 71 75 79 76
REMARK SMILES IDX 72 77 73 78 77 79 80 80 74 81 75 82 78 83 76 84 55 85 56 86
REMARK SMILES IDX 64 87 57 88 58 89 62 90 65 91 59 92 60 93 63 94 61 95
REMARK H PARENT 19 6 26 29 85 48 53 59
REMARK Flexibility Score: inf
ROOT
ATOM      1  C   UNL A   1      39.535  22.414  26.522  1.00  0.00     0.021 C 
ENDROOT
BRANCH   1   2
ATOM      2  C   UNL A   1      38.336  21.845  25.764  1.00  0.00     0.116 C 
BRANCH   2   3
ATOM      3  N   UNL A   1      37.139  22.578  26.114  1.00  0.00    -0.356 N 
ATOM      4  O   UNL A   1      35.758  21.657  24.538  1.00  0.00    -0.275 OA
ATOM      5  C   UNL A   1      35.957  22.476  25.426  1.00  0.00     0.222 C 
ATOM      6  H   UNL A   1      37.175  23.184  26.889  1.00  0.00     0.163 HD
BRANCH   5   7
ATOM      7  C   UNL A   1      34.921  23.485  25.870  1.00  0.00     0.133 C 
BRANCH   7   8
ATOM      8  C   UNL A   1      33.949  23.811  24.736  1.00  0.00     0.147 C 
ATOM      9  C   UNL A   1      34.172  25.251  24.274  1.00  0.00     0.152 C 
ATOM     10  O   UNL A   1      32.601  23.632  25.200  1.00  0.00    -0.374 OA
ATOM     11  N   UNL A   1      33.191  25.690  23.291  1.00  0.00    -0.338 N 
ATOM     12  C   UNL A   1      31.667  23.926  24.145  1.00  0.00     0.182 C 
ATOM     13  C   UNL A   1      31.806  25.373  23.656  1.00  0.00     0.148 C 
BRANCH  11  14
ATOM     14  C   UNL A   1      33.435  26.614  22.290  1.00  0.00     0.224 C 
ATOM     15  O   UNL A   1      33.421  26.304  21.096  1.00  0.00    -0.275 OA
BRANCH  14  16
ATOM     16  C   UNL A   1      33.785  28.044  22.673  1.00  0.00     0.124 C 
BRANCH  16  17
ATOM     17  C   UNL A   1      32.623  28.798  23.311  1.00  0.00     0.156 C 
BRANCH  17  18
ATOM     18  N   UNL A   1      32.806  29.144  24.703  1.00  0.00    -0.252 N 
ATOM     19  C   UNL A   1      33.805  28.759  25.543  1.00  0.00     0.219 A 
ATOM     20  N   UNL A   1      31.918  29.930  25.340  1.00  0.00    -0.160 NA
ATOM     21  N   UNL A   1      33.583  29.254  26.739  1.00  0.00    -0.224 NA
ATOM     22  C   UNL A   1      32.434  29.968  26.573  1.00  0.00     0.246 A 
ENDBRANCH  17  18
ENDBRANCH  16  17
ENDBRANCH  14  16
ENDBRANCH  11  14
ENDBRANCH   7   8
ENDBRANCH   5   7
ENDBRANCH   2   3
ENDBRANCH   1   2
BRANCH   1  23
ATOM     23  C   UNL A   1      40.737  21.461  26.613  1.00  0.00     0.002 C 
BRANCH  23  24
ATOM     24  C   UNL A   1      40.428  19.973  26.396  1.00  0.00     0.002 C 
BRANCH  24  25
ATOM     25  C   UNL A   1      41.626  19.084  26.038  1.00  0.00     0.021 C 
BRANCH  25  26
ATOM     26  C   UNL A   1      42.966  19.657  26.475  1.00  0.00     0.116 C 
BRANCH  26  27
ATOM     27  N   UNL A   1      43.979  19.588  25.424  1.00  0.00    -0.352 N 
ATOM     28  C   UNL A   1      44.490  20.624  24.663  1.00  0.00     0.251 C 
ATOM     29  H   UNL A   1      44.342  18.693  25.234  1.00  0.00     0.163 HD
ATOM     30  O   UNL A   1      45.029  20.417  23.590  1.00  0.00    -0.269 OA
BRANCH  28  31
ATOM     31  C   UNL A   1      44.379  21.997  25.188  1.00  0.00     0.039 A 
ATOM     32  C   UNL A   1      43.430  22.893  24.690  1.00  0.00     0.014 A 
ATOM     33  C   UNL A   1      45.243  22.366  26.216  1.00  0.00     0.014 A 
ATOM     34  C   UNL A   1      43.309  24.143  25.294  1.00  0.00     0.010 A 
ATOM     35  C   UNL A   1      45.017  23.525  26.909  1.00  0.00     0.010 A 
ATOM     36  C   UNL A   1      44.097  24.443  26.415  1.00  0.00    -0.014 A 
BRANCH  36  37
ATOM     37  C   UNL A   1      43.897  25.673  27.172  1.00  0.00     0.031 A 
ATOM     38  C   UNL A   1      44.859  26.760  26.838  1.00  0.00     0.074 A 
ATOM     39  C   UNL A   1      42.788  25.886  27.915  1.00  0.00     0.049 A 
ATOM     40  N   UNL A   1      45.727  27.317  27.615  1.00  0.00    -0.248 NA
ATOM     41  C   UNL A   1      44.959  27.192  25.433  1.00  0.00     0.031 C 
ATOM     42  C   UNL A   1      41.614  25.014  28.054  1.00  0.00     0.029 A 
ATOM     43  N   UNL A   1      42.420  26.987  28.623  1.00  0.00    -0.354 N 
ATOM     44  C   UNL A   1      46.350  28.306  26.854  1.00  0.00     0.074 A 
ATOM     45  C   UNL A   1      45.974  28.057  25.488  1.00  0.00     0.031 C 
ATOM     46  C   UNL A   1      40.589  25.712  28.590  1.00  0.00     0.029 A 
ATOM     47  C   UNL A   1      41.079  27.016  28.992  1.00  0.00     0.049 A 
ATOM     48  H   UNL A   1      43.051  27.706  28.856  1.00  0.00     0.167 HD
ATOM     49  C   UNL A   1      46.909  29.395  27.452  1.00  0.00     0.037 A 
ATOM     50  C   UNL A   1      40.413  28.051  29.561  1.00  0.00     0.037 A 
ATOM     51  C   UNL A   1      47.113  29.151  28.860  1.00  0.00     0.049 A 
ATOM     52  C   UNL A   1      41.430  28.964  30.133  1.00  0.00     0.074 A 
ATOM     53  C   UNL A   1      47.854  28.250  29.597  1.00  0.00     0.029 A 
ATOM     54  N   UNL A   1      46.185  29.671  29.728  1.00  0.00    -0.354 N 
ATOM     55  N   UNL A   1      42.193  28.656  31.145  1.00  0.00    -0.248 NA
ATOM     56  C   UNL A   1      41.916  30.044  29.290  1.00  0.00     0.031 C 
ATOM     57  C   UNL A   1      47.037  27.932  30.723  1.00  0.00     0.029 A 
ATOM     58  C   UNL A   1      45.879  28.709  30.652  1.00  0.00     0.049 A 
ATOM     59  H   UNL A   1      45.804  30.578  29.691  1.00  0.00     0.167 HD
ATOM     60  C   UNL A   1      43.436  29.175  30.816  1.00  0.00     0.074 A 
ATOM     61  C   UNL A   1      43.181  30.102  29.716  1.00  0.00     0.031 C 
ATOM     62  C   UNL A   1      44.579  28.581  31.269  1.00  0.00     0.037 A 
BRANCH  49  63
ATOM     63  C   UNL A   1      46.891  30.800  26.885  1.00  0.00     0.064 A 
ATOM     64  C   UNL A   1      48.081  31.560  26.920  1.00  0.00     0.173 A 
ATOM     65  C   UNL A   1      45.718  31.536  26.612  1.00  0.00     0.173 A 
ATOM     66  F   UNL A   1      49.261  30.973  27.171  1.00  0.00    -0.203 F 
ATOM     67  C   UNL A   1      48.076  32.953  26.802  1.00  0.00     0.198 A 
ATOM     68  C   UNL A   1      45.724  32.920  26.443  1.00  0.00     0.198 A 
ATOM     69  F   UNL A   1      44.503  30.978  26.605  1.00  0.00    -0.203 F 
ATOM     70  F   UNL A   1      49.212  33.639  26.987  1.00  0.00    -0.200 F 
ATOM     71  C   UNL A   1      46.896  33.633  26.576  1.00  0.00     0.200 A 
ATOM     72  F   UNL A   1      44.566  33.563  26.237  1.00  0.00    -0.200 F 
ATOM     73  F   UNL A   1      46.876  34.972  26.534  1.00  0.00    -0.200 F 
ENDBRANCH  49  63
BRANCH  50  74
ATOM     74  C   UNL A   1      38.996  28.455  29.387  1.00  0.00     0.064 A 
ATOM     75  C   UNL A   1      38.155  28.651  30.494  1.00  0.00     0.173 A 
ATOM     76  C   UNL A   1      38.523  28.932  28.149  1.00  0.00     0.173 A 
ATOM     77  F   UNL A   1      38.550  28.268  31.717  1.00  0.00    -0.203 F 
ATOM     78  C   UNL A   1      36.925  29.309  30.375  1.00  0.00     0.198 A 
ATOM     79  C   UNL A   1      37.294  29.585  28.031  1.00  0.00     0.198 A 
ATOM     80  F   UNL A   1      39.288  28.863  27.050  1.00  0.00    -0.203 F 
ATOM     81  F   UNL A   1      36.179  29.534  31.465  1.00  0.00    -0.200 F 
ATOM     82  C   UNL A   1      36.502  29.785  29.145  1.00  0.00     0.200 A 
ATOM     83  F   UNL A   1      36.916  30.075  26.842  1.00  0.00    -0.200 F 
ATOM     84  F   UNL A   1      35.355  30.472  29.041  1.00  0.00    -0.200 F 
ENDBRANCH  50  74
BRANCH  62  85
ATOM     85  C   UNL A   1      44.446  27.551  32.358  1.00  0.00     0.064 A 
ATOM     86  C   UNL A   1      44.296  26.171  32.136  1.00  0.00     0.173 A 
ATOM     87  C   UNL A   1      44.615  27.971  33.684  1.00  0.00     0.173 A 
ATOM     88  F   UNL A   1      44.224  25.675  30.895  1.00  0.00    -0.203 F 
ATOM     89  C   UNL A   1      44.273  25.263  33.194  1.00  0.00     0.198 A 
ATOM     90  C   UNL A   1      44.631  27.061  34.736  1.00  0.00     0.198 A 
ATOM     91  F   UNL A   1      44.816  29.271  33.955  1.00  0.00    -0.203 F 
ATOM     92  F   UNL A   1      44.114  23.953  32.954  1.00  0.00    -0.200 F 
ATOM     93  C   UNL A   1      44.449  25.709  34.493  1.00  0.00     0.200 A 
ATOM     94  F   UNL A   1      44.852  27.493  35.985  1.00  0.00    -0.200 F 
ATOM     95  F   UNL A   1      44.469  24.835  35.508  1.00  0.00    -0.200 F 
ENDBRANCH  62  85
ENDBRANCH  36  37
ENDBRANCH  28  31
ENDBRANCH  26  27
ENDBRANCH  25  26
ENDBRANCH  24  25
ENDBRANCH  23  24
ENDBRANCH   1  23
TORSDOF 18
ENDMDL
MODEL 3
REMARK VINA RESULT:     -11.0      3.039      8.387
REMARK SMILES O=C(C[C@@H]1CN(C(=O)CCn2cncn2)CCO1)NCCCCCCNC(=O)c1ccc(-c2c3nc(c(-c4c(F)c(F)c(F)c(F)c4F)c4ccc([nH]4)c(-c4c(F)c(F)c(F)c(F)c4F)c4nc(c(-c5c(F)c(F)c(F)c(F)c5F)c5ccc2[nH]5)C=C4)C=C3)cc1
REMARK SMILES IDX 21 1 20 2 19 3 1 4 2 5 3 7 4 8 5 9 18 10 6 11 17 12 16 13
REMARK SMILES IDX 7 14 8 15 9 16 10 17 11 18 12 19 15 20 13 21 14 22 22 23
REMARK SMILES IDX 23 24 24 25 25 26 26 27 27 28 28 30 29 31 30 32 91 33 31 34
REMARK SMILES IDX 90 35 32 36 33 37 34 38 84 39 35 40 89 41 83 42 85 43 36 44
REMARK SMILES IDX 88 45 82 46 81 47 37 49 69 50 49 51 68 52 50 53 53 54 67 55
REMARK SMILES IDX 86 56 51 57 52 58 66 60 87 61 54 62 38 63 39 64 47 65 40 66
REMARK SMILES IDX 41 67 45 68 48 69 42 70 43 71 46 72 44 73 70 74 71 75 79 76
REMARK SMILES IDX 72 77 73 78 77 79 80 80 74 81 75 82 78 83 76 84 55 85 56 86
REMARK SMILES IDX 64 87 57 88 58 89 62 90 65 91 59 92 60 93 63 94 61 95
REMARK H PARENT 19 6 26 29 85 48 53 59
REMARK Flexibility Score: inf
ROOT
ATOM      1  C   UNL A   1      32.768  29.315  23.973  1.00  0.00     0.021 C 
ENDROOT
BRANCH   1   2
ATOM      2  C   UNL A   1      33.798  28.191  23.871  1.00  0.00     0.116 C 
BRANCH   2   3
ATOM      3  N   UNL A   1      33.129  26.925  23.665  1.00  0.00    -0.356 N 
ATOM      4  O   UNL A   1      33.825  26.571  21.513  1.00  0.00    -0.275 OA
ATOM      5  C   UNL A   1      33.139  26.246  22.474  1.00  0.00     0.222 C 
ATOM      6  H   UNL A   1      32.638  26.530  24.421  1.00  0.00     0.163 HD
BRANCH   5   7
ATOM      7  C   UNL A   1      32.208  25.053  22.462  1.00  0.00     0.133 C 
BRANCH   7   8
ATOM      8  C   UNL A   1      32.704  23.959  23.407  1.00  0.00     0.147 C 
ATOM      9  C   UNL A   1      32.007  22.642  23.069  1.00  0.00     0.152 C 
ATOM     10  O   UNL A   1      32.428  24.344  24.764  1.00  0.00    -0.374 OA
ATOM     11  N   UNL A   1      32.317  21.577  24.014  1.00  0.00    -0.338 N 
ATOM     12  C   UNL A   1      32.894  23.330  25.674  1.00  0.00     0.182 C 
ATOM     13  C   UNL A   1      32.206  21.983  25.419  1.00  0.00     0.148 C 
BRANCH  11  14
ATOM     14  C   UNL A   1      32.365  20.230  23.698  1.00  0.00     0.224 C 
ATOM     15  O   UNL A   1      32.161  19.820  22.554  1.00  0.00    -0.275 OA
BRANCH  14  16
ATOM     16  C   UNL A   1      32.623  19.219  24.806  1.00  0.00     0.124 C 
BRANCH  16  17
ATOM     17  C   UNL A   1      33.884  18.390  24.583  1.00  0.00     0.156 C 
BRANCH  17  18
ATOM     18  N   UNL A   1      33.767  16.991  24.927  1.00  0.00    -0.252 N 
ATOM     19  C   UNL A   1      34.756  16.061  25.026  1.00  0.00     0.219 A 
ATOM     20  N   UNL A   1      32.565  16.443  25.185  1.00  0.00    -0.160 NA
ATOM     21  N   UNL A   1      34.229  14.895  25.318  1.00  0.00    -0.224 NA
ATOM     22  C   UNL A   1      32.898  15.170  25.418  1.00  0.00     0.246 A 
ENDBRANCH  17  18
ENDBRANCH  16  17
ENDBRANCH  14  16
ENDBRANCH  11  14
ENDBRANCH   7   8
ENDBRANCH   5   7
ENDBRANCH   2   3
ENDBRANCH   1   2
BRANCH   1  23
ATOM     23  C   UNL A   1      31.740  29.133  25.101  1.00  0.00     0.002 C 
BRANCH  23  24
ATOM     24  C   UNL A   1      31.881  30.092  26.292  1.00  0.00     0.002 C 
BRANCH  24  25
ATOM     25  C   UNL A   1      33.027  29.789  27.265  1.00  0.00     0.021 C 
BRANCH  25  26
ATOM     26  C   UNL A   1      34.124  30.843  27.266  1.00  0.00     0.116 C 
BRANCH  26  27
ATOM     27  N   UNL A   1      34.028  31.755  28.404  1.00  0.00    -0.352 N 
ATOM     28  C   UNL A   1      34.850  31.822  29.514  1.00  0.00     0.251 C 
ATOM     29  H   UNL A   1      33.287  32.403  28.376  1.00  0.00     0.163 HD
ATOM     30  O   UNL A   1      34.474  32.339  30.552  1.00  0.00    -0.269 OA
BRANCH  28  31
ATOM     31  C   UNL A   1      36.208  31.258  29.413  1.00  0.00     0.039 A 
ATOM     32  C   UNL A   1      37.338  32.079  29.377  1.00  0.00     0.014 A 
ATOM     33  C   UNL A   1      36.329  29.872  29.374  1.00  0.00     0.014 A 
ATOM     34  C   UNL A   1      38.598  31.484  29.380  1.00  0.00     0.010 A 
ATOM     35  C   UNL A   1      37.559  29.293  29.538  1.00  0.00     0.010 A 
ATOM     36  C   UNL A   1      38.698  30.088  29.478  1.00  0.00    -0.014 A 
BRANCH  36  37
ATOM     37  C   UNL A   1      39.989  29.432  29.640  1.00  0.00     0.031 A 
ATOM     38  C   UNL A   1      40.436  29.302  31.054  1.00  0.00     0.074 A 
ATOM     39  C   UNL A   1      40.594  28.779  28.622  1.00  0.00     0.049 A 
ATOM     40  N   UNL A   1      41.483  29.820  31.606  1.00  0.00    -0.248 NA
ATOM     41  C   UNL A   1      39.543  28.619  32.006  1.00  0.00     0.031 C 
ATOM     42  C   UNL A   1      40.085  28.558  27.262  1.00  0.00     0.029 A 
ATOM     43  N   UNL A   1      41.754  28.069  28.619  1.00  0.00    -0.354 N 
ATOM     44  C   UNL A   1      41.488  29.370  32.926  1.00  0.00     0.074 A 
ATOM     45  C   UNL A   1      40.189  28.799  33.160  1.00  0.00     0.031 C 
ATOM     46  C   UNL A   1      40.804  27.587  26.658  1.00  0.00     0.029 A 
ATOM     47  C   UNL A   1      41.923  27.243  27.512  1.00  0.00     0.049 A 
ATOM     48  H   UNL A   1      42.420  28.135  29.340  1.00  0.00     0.167 HD
ATOM     49  C   UNL A   1      42.654  29.277  33.624  1.00  0.00     0.037 A 
ATOM     50  C   UNL A   1      42.899  26.320  27.327  1.00  0.00     0.037 A 
ATOM     51  C   UNL A   1      43.690  30.054  32.986  1.00  0.00     0.049 A 
ATOM     52  C   UNL A   1      43.996  26.648  28.268  1.00  0.00     0.074 A 
ATOM     53  C   UNL A   1      43.866  31.390  32.691  1.00  0.00     0.029 A 
ATOM     54  N   UNL A   1      44.591  29.375  32.203  1.00  0.00    -0.354 N 
ATOM     55  N   UNL A   1      44.734  27.720  28.177  1.00  0.00    -0.248 NA
ATOM     56  C   UNL A   1      43.970  26.017  29.577  1.00  0.00     0.031 C 
ATOM     57  C   UNL A   1      44.517  31.407  31.421  1.00  0.00     0.029 A 
ATOM     58  C   UNL A   1      44.769  30.085  31.046  1.00  0.00     0.049 A 
ATOM     59  H   UNL A   1      45.031  28.526  32.432  1.00  0.00     0.167 HD
ATOM     60  C   UNL A   1      44.896  28.146  29.486  1.00  0.00     0.074 A 
ATOM     61  C   UNL A   1      44.492  27.007  30.308  1.00  0.00     0.031 C 
ATOM     62  C   UNL A   1      45.058  29.471  29.771  1.00  0.00     0.037 A 
BRANCH  49  63
ATOM     63  C   UNL A   1      42.983  28.184  34.621  1.00  0.00     0.064 A 
ATOM     64  C   UNL A   1      43.369  28.554  35.928  1.00  0.00     0.173 A 
ATOM     65  C   UNL A   1      43.245  26.841  34.276  1.00  0.00     0.173 A 
ATOM     66  F   UNL A   1      43.173  29.805  36.373  1.00  0.00    -0.203 F 
ATOM     67  C   UNL A   1      44.059  27.680  36.774  1.00  0.00     0.198 A 
ATOM     68  C   UNL A   1      43.887  25.956  35.142  1.00  0.00     0.198 A 
ATOM     69  F   UNL A   1      42.997  26.349  33.058  1.00  0.00    -0.203 F 
ATOM     70  F   UNL A   1      44.530  28.124  37.947  1.00  0.00    -0.200 F 
ATOM     71  C   UNL A   1      44.328  26.385  36.375  1.00  0.00     0.200 A 
ATOM     72  F   UNL A   1      44.150  24.708  34.730  1.00  0.00    -0.200 F 
ATOM     73  F   UNL A   1      45.051  25.567  37.151  1.00  0.00    -0.200 F 
ENDBRANCH  49  63
BRANCH  50  74
ATOM     74  C   UNL A   1      42.828  25.019  26.618  1.00  0.00     0.064 A 
ATOM     75  C   UNL A   1      43.577  24.784  25.454  1.00  0.00     0.173 A 
ATOM     76  C   UNL A   1      42.248  23.890  27.228  1.00  0.00     0.173 A 
ATOM     77  F   UNL A   1      44.202  25.798  24.837  1.00  0.00    -0.203 F 
ATOM     78  C   UNL A   1      43.757  23.493  24.944  1.00  0.00     0.198 A 
ATOM     79  C   UNL A   1      42.424  22.603  26.716  1.00  0.00     0.198 A 
ATOM     80  F   UNL A   1      41.582  24.003  28.386  1.00  0.00    -0.203 F 
ATOM     81  F   UNL A   1      44.531  23.300  23.867  1.00  0.00    -0.200 F 
ATOM     82  C   UNL A   1      43.189  22.403  25.582  1.00  0.00     0.200 A 
ATOM     83  F   UNL A   1      41.902  21.553  27.367  1.00  0.00    -0.200 F 
ATOM     84  F   UNL A   1      43.414  21.160  25.133  1.00  0.00    -0.200 F 
ENDBRANCH  50  74
BRANCH  62  85
ATOM     85  C   UNL A   1      45.352  30.400  28.624  1.00  0.00     0.064 A 
ATOM     86  C   UNL A   1      44.371  31.050  27.853  1.00  0.00     0.173 A 
ATOM     87  C   UNL A   1      46.688  30.750  28.387  1.00  0.00     0.173 A 
ATOM     88  F   UNL A   1      43.068  30.846  28.078  1.00  0.00    -0.203 F 
ATOM     89  C   UNL A   1      44.717  31.971  26.865  1.00  0.00     0.198 A 
ATOM     90  C   UNL A   1      47.030  31.699  27.428  1.00  0.00     0.198 A 
ATOM     91  F   UNL A   1      47.665  30.204  29.128  1.00  0.00    -0.203 F 
ATOM     92  F   UNL A   1      43.762  32.566  26.135  1.00  0.00    -0.200 F 
ATOM     93  C   UNL A   1      46.046  32.301  26.660  1.00  0.00     0.200 A 
ATOM     94  F   UNL A   1      48.313  32.050  27.269  1.00  0.00    -0.200 F 
ATOM     95  F   UNL A   1      46.379  33.216  25.740  1.00  0.00    -0.200 F 
ENDBRANCH  62  85
ENDBRANCH  36  37
ENDBRANCH  28  31
ENDBRANCH  26  27
ENDBRANCH  25  26
ENDBRANCH  24  25
ENDBRANCH  23  24
ENDBRANCH   1  23
TORSDOF 18
ENDMDL
