MODEL 1
REMARK VINA RESULT:     -13.1      0.000      0.000
REMARK SMILES Cc1cc2nc(NC3=[NH+][C@H](CC(=O)NCCCCCCNC(=O)c4ccc(-c5c6nc(c(-c7c(F)c(F)c(F)c(F)c7F)c7ccc([nH]7)c(-c7c(F)c(F)c(F)c(F)c7F)c7nc(c(-c8c(F)c(F)c(F)c(F)c8F)c8ccc5[nH]8)C=C7)C=C6)cc4)C(=O)N3)nc(C)c2cc1C
REMARK SMILES IDX 17 1 16 2 15 3 14 4 12 5 13 6 11 8 10 9 7 10 8 11 9 13 89 14
REMARK SMILES IDX 87 16 88 18 6 19 1 20 2 21 3 22 95 23 4 24 94 25 96 26 5 27
REMARK SMILES IDX 93 28 91 29 90 30 92 31 18 32 19 33 20 34 21 35 22 36 23 38
REMARK SMILES IDX 24 39 25 40 86 41 26 42 85 43 27 44 28 45 29 46 79 47 30 48
REMARK SMILES IDX 84 49 78 50 80 51 31 52 83 53 77 54 76 55 32 57 64 58 44 59
REMARK SMILES IDX 63 60 45 61 48 62 62 63 81 64 46 65 47 66 61 68 82 69 49 70
REMARK SMILES IDX 33 71 34 72 42 73 35 74 36 75 40 76 43 77 37 78 38 79 41 80
REMARK SMILES IDX 39 81 65 82 66 83 74 84 67 85 68 86 72 87 75 88 69 89 70 90
REMARK SMILES IDX 73 91 71 92 50 93 51 94 59 95 52 96 53 97 57 98 60 99 54 100
REMARK SMILES IDX 55 101 58 102 56 103
REMARK H PARENT 14 7 7 12 9 15 89 17 21 37 80 56 48 67
REMARK Flexibility Score: inf
ROOT
ATOM      1  C   UNL A   1      31.891  27.107  26.720  1.00  0.00     0.002 C 
ENDROOT
BRANCH   1   2
ATOM      2  C   UNL A   1      33.247  26.687  26.146  1.00  0.00     0.021 C 
BRANCH   2   3
ATOM      3  C   UNL A   1      33.543  27.293  24.771  1.00  0.00     0.116 C 
BRANCH   3   4
ATOM      4  N   UNL A   1      33.994  26.280  23.839  1.00  0.00    -0.356 N 
ATOM      5  C   UNL A   1      33.386  25.846  22.697  1.00  0.00     0.224 C 
ATOM      6  O   UNL A   1      33.871  24.878  22.108  1.00  0.00    -0.275 OA
ATOM      7  H   UNL A   1      34.853  25.849  24.057  1.00  0.00     0.163 HD
BRANCH   5   8
ATOM      8  C   UNL A   1      32.177  26.568  22.143  1.00  0.00     0.153 C 
BRANCH   8   9
ATOM      9  C   UNL A   1      30.883  25.771  22.278  1.00  0.00     0.260 C 
ATOM     10  N   UNL A   1      31.033  23.064  24.582  1.00  0.00    -0.212 N 
ATOM     11  C   UNL A   1      30.814  24.174  23.839  1.00  0.00     0.358 C 
ATOM     12  H   UNL A   1      30.259  22.622  25.002  1.00  0.00     0.270 HD
ATOM     13  N   UNL A   1      31.193  24.354  22.614  1.00  0.00    -0.263 N 
ATOM     14  N   UNL A   1      30.141  25.207  24.376  1.00  0.00    -0.211 N 
ATOM     15  H   UNL A   1      31.605  23.686  22.021  1.00  0.00     0.261 HD
ATOM     16  C   UNL A   1      30.111  26.242  23.495  1.00  0.00     0.320 C 
ATOM     17  H   UNL A   1      29.731  25.213  25.271  1.00  0.00     0.270 HD
ATOM     18  O   UNL A   1      29.607  27.330  23.689  1.00  0.00    -0.252 OA
BRANCH  10  19
ATOM     19  C   UNL A   1      32.296  22.518  24.779  1.00  0.00     0.291 A 
ATOM     20  C   UNL A   1      38.001  24.168  25.940  1.00  0.00     0.044 C 
ATOM     21  C   UNL A   1      36.904  23.155  25.753  1.00  0.00    -0.046 A 
ATOM     22  C   UNL A   1      35.577  23.607  25.657  1.00  0.00     0.033 A 
ATOM     23  C   UNL A   1      37.168  21.789  25.578  1.00  0.00    -0.047 A 
ATOM     24  C   UNL A   1      34.516  22.765  25.345  1.00  0.00     0.078 A 
ATOM     25  C   UNL A   1      36.099  20.926  25.287  1.00  0.00     0.016 A 
ATOM     26  C   UNL A   1      38.564  21.237  25.669  1.00  0.00     0.044 C 
ATOM     27  N   UNL A   1      33.301  23.298  25.200  1.00  0.00    -0.198 NA
ATOM     28  C   UNL A   1      34.774  21.412  25.138  1.00  0.00     0.022 A 
ATOM     29  C   UNL A   1      33.657  20.660  24.748  1.00  0.00     0.052 A 
ATOM     30  N   UNL A   1      32.430  21.205  24.560  1.00  0.00    -0.203 NA
ATOM     31  C   UNL A   1      33.765  19.190  24.456  1.00  0.00     0.067 C 
ENDBRANCH  10  19
ENDBRANCH   8   9
ENDBRANCH   5   8
ENDBRANCH   3   4
ENDBRANCH   2   3
ENDBRANCH   1   2
BRANCH   1  32
ATOM     32  C   UNL A   1      31.930  28.342  27.630  1.00  0.00     0.002 C 
BRANCH  32  33
ATOM     33  C   UNL A   1      31.567  29.663  26.951  1.00  0.00     0.021 C 
BRANCH  33  34
ATOM     34  C   UNL A   1      32.749  30.457  26.412  1.00  0.00     0.116 C 
BRANCH  34  35
ATOM     35  N   UNL A   1      32.673  31.868  26.765  1.00  0.00    -0.352 N 
ATOM     36  C   UNL A   1      33.485  32.614  27.584  1.00  0.00     0.251 C 
ATOM     37  H   UNL A   1      31.926  32.361  26.355  1.00  0.00     0.163 HD
ATOM     38  O   UNL A   1      33.158  33.749  27.915  1.00  0.00    -0.269 OA
BRANCH  36  39
ATOM     39  C   UNL A   1      34.746  32.034  28.094  1.00  0.00     0.039 A 
ATOM     40  C   UNL A   1      34.792  30.714  28.545  1.00  0.00     0.014 A 
ATOM     41  C   UNL A   1      35.896  32.827  28.128  1.00  0.00     0.014 A 
ATOM     42  C   UNL A   1      35.931  30.247  29.191  1.00  0.00     0.010 A 
ATOM     43  C   UNL A   1      37.070  32.324  28.695  1.00  0.00     0.010 A 
ATOM     44  C   UNL A   1      37.080  31.048  29.279  1.00  0.00    -0.014 A 
BRANCH  44  45
ATOM     45  C   UNL A   1      38.277  30.529  29.990  1.00  0.00     0.031 A 
ATOM     46  C   UNL A   1      38.555  30.919  31.415  1.00  0.00     0.074 A 
ATOM     47  C   UNL A   1      39.089  29.659  29.361  1.00  0.00     0.049 A 
ATOM     48  N   UNL A   1      39.523  30.526  32.205  1.00  0.00    -0.248 NA
ATOM     49  C   UNL A   1      37.631  31.879  32.039  1.00  0.00     0.031 C 
ATOM     50  C   UNL A   1      38.924  29.208  27.978  1.00  0.00     0.029 A 
ATOM     51  N   UNL A   1      40.200  28.984  29.800  1.00  0.00    -0.354 N 
ATOM     52  C   UNL A   1      39.337  31.200  33.404  1.00  0.00     0.074 A 
ATOM     53  C   UNL A   1      38.178  32.049  33.235  1.00  0.00     0.031 C 
ATOM     54  C   UNL A   1      39.866  28.297  27.697  1.00  0.00     0.029 A 
ATOM     55  C   UNL A   1      40.740  28.146  28.856  1.00  0.00     0.049 A 
ATOM     56  H   UNL A   1      40.574  29.091  30.705  1.00  0.00     0.167 HD
ATOM     57  C   UNL A   1      40.062  31.109  34.545  1.00  0.00     0.037 A 
ATOM     58  C   UNL A   1      41.825  27.351  28.910  1.00  0.00     0.037 A 
ATOM     59  C   UNL A   1      41.205  30.251  34.713  1.00  0.00     0.049 A 
ATOM     60  C   UNL A   1      42.632  27.295  30.176  1.00  0.00     0.074 A 
ATOM     61  C   UNL A   1      41.972  30.052  35.848  1.00  0.00     0.029 A 
ATOM     62  N   UNL A   1      41.754  29.457  33.716  1.00  0.00    -0.354 N 
ATOM     63  N   UNL A   1      42.419  27.905  31.316  1.00  0.00    -0.248 NA
ATOM     64  C   UNL A   1      43.832  26.448  30.161  1.00  0.00     0.031 C 
ATOM     65  C   UNL A   1      43.018  29.182  35.524  1.00  0.00     0.029 A 
ATOM     66  C   UNL A   1      42.871  28.793  34.202  1.00  0.00     0.049 A 
ATOM     67  H   UNL A   1      41.403  29.376  32.800  1.00  0.00     0.167 HD
ATOM     68  C   UNL A   1      43.452  27.515  32.156  1.00  0.00     0.074 A 
ATOM     69  C   UNL A   1      44.279  26.595  31.402  1.00  0.00     0.031 C 
ATOM     70  C   UNL A   1      43.694  27.890  33.435  1.00  0.00     0.037 A 
BRANCH  57  71
ATOM     71  C   UNL A   1      39.654  31.971  35.706  1.00  0.00     0.064 A 
ATOM     72  C   UNL A   1      40.239  33.224  35.936  1.00  0.00     0.173 A 
ATOM     73  C   UNL A   1      38.620  31.563  36.561  1.00  0.00     0.173 A 
ATOM     74  F   UNL A   1      41.244  33.654  35.158  1.00  0.00    -0.203 F 
ATOM     75  C   UNL A   1      39.816  34.029  36.991  1.00  0.00     0.198 A 
ATOM     76  C   UNL A   1      38.180  32.382  37.598  1.00  0.00     0.198 A 
ATOM     77  F   UNL A   1      38.023  30.374  36.384  1.00  0.00    -0.203 F 
ATOM     78  F   UNL A   1      40.418  35.205  37.216  1.00  0.00    -0.200 F 
ATOM     79  C   UNL A   1      38.781  33.612  37.815  1.00  0.00     0.200 A 
ATOM     80  F   UNL A   1      37.173  31.980  38.388  1.00  0.00    -0.200 F 
ATOM     81  F   UNL A   1      38.368  34.393  38.823  1.00  0.00    -0.200 F 
ENDBRANCH  57  71
BRANCH  58  82
ATOM     82  C   UNL A   1      42.196  26.552  27.715  1.00  0.00     0.064 A 
ATOM     83  C   UNL A   1      43.180  26.999  26.824  1.00  0.00     0.173 A 
ATOM     84  C   UNL A   1      41.618  25.295  27.475  1.00  0.00     0.173 A 
ATOM     85  F   UNL A   1      43.747  28.202  27.003  1.00  0.00    -0.203 F 
ATOM     86  C   UNL A   1      43.576  26.218  25.740  1.00  0.00     0.198 A 
ATOM     87  C   UNL A   1      42.035  24.504  26.408  1.00  0.00     0.198 A 
ATOM     88  F   UNL A   1      40.676  24.821  28.302  1.00  0.00    -0.203 F 
ATOM     89  F   UNL A   1      44.506  26.677  24.893  1.00  0.00    -0.200 F 
ATOM     90  C   UNL A   1      43.012  24.967  25.540  1.00  0.00     0.200 A 
ATOM     91  F   UNL A   1      41.502  23.288  26.230  1.00  0.00    -0.200 F 
ATOM     92  F   UNL A   1      43.412  24.206  24.512  1.00  0.00    -0.200 F 
ENDBRANCH  58  82
BRANCH  70  93
ATOM     93  C   UNL A   1      44.904  27.315  34.110  1.00  0.00     0.064 A 
ATOM     94  C   UNL A   1      46.130  27.997  34.115  1.00  0.00     0.173 A 
ATOM     95  C   UNL A   1      44.820  26.108  34.820  1.00  0.00     0.173 A 
ATOM     96  F   UNL A   1      46.264  29.148  33.438  1.00  0.00    -0.203 F 
ATOM     97  C   UNL A   1      47.230  27.486  34.798  1.00  0.00     0.198 A 
ATOM     98  C   UNL A   1      45.913  25.614  35.526  1.00  0.00     0.198 A 
ATOM     99  F   UNL A   1      43.668  25.421  34.852  1.00  0.00    -0.203 F 
ATOM    100  F   UNL A   1      48.400  28.138  34.763  1.00  0.00    -0.200 F 
ATOM    101  C   UNL A   1      47.118  26.302  35.511  1.00  0.00     0.200 A 
ATOM    102  F   UNL A   1      45.799  24.478  36.227  1.00  0.00    -0.200 F 
ATOM    103  F   UNL A   1      48.173  25.820  36.183  1.00  0.00    -0.200 F 
ENDBRANCH  70  93
ENDBRANCH  44  45
ENDBRANCH  36  39
ENDBRANCH  34  35
ENDBRANCH  33  34
ENDBRANCH  32  33
ENDBRANCH   1  32
TORSDOF 15
ENDMDL
MODEL 2
REMARK VINA RESULT:     -13.0      1.997      7.663
REMARK SMILES Cc1cc2nc(NC3=[NH+][C@H](CC(=O)NCCCCCCNC(=O)c4ccc(-c5c6nc(c(-c7c(F)c(F)c(F)c(F)c7F)c7ccc([nH]7)c(-c7c(F)c(F)c(F)c(F)c7F)c7nc(c(-c8c(F)c(F)c(F)c(F)c8F)c8ccc5[nH]8)C=C7)C=C6)cc4)C(=O)N3)nc(C)c2cc1C
REMARK SMILES IDX 17 1 16 2 15 3 14 4 12 5 13 6 11 8 10 9 7 10 8 11 9 13 89 14
REMARK SMILES IDX 87 16 88 18 6 19 1 20 2 21 3 22 95 23 4 24 94 25 96 26 5 27
REMARK SMILES IDX 93 28 91 29 90 30 92 31 18 32 19 33 20 34 21 35 22 36 23 38
REMARK SMILES IDX 24 39 25 40 86 41 26 42 85 43 27 44 28 45 29 46 79 47 30 48
REMARK SMILES IDX 84 49 78 50 80 51 31 52 83 53 77 54 76 55 32 57 64 58 44 59
REMARK SMILES IDX 63 60 45 61 48 62 62 63 81 64 46 65 47 66 61 68 82 69 49 70
REMARK SMILES IDX 33 71 34 72 42 73 35 74 36 75 40 76 43 77 37 78 38 79 41 80
REMARK SMILES IDX 39 81 65 82 66 83 74 84 67 85 68 86 72 87 75 88 69 89 70 90
REMARK SMILES IDX 73 91 71 92 50 93 51 94 59 95 52 96 53 97 57 98 60 99 54 100
REMARK SMILES IDX 55 101 58 102 56 103
REMARK H PARENT 14 7 7 12 9 15 89 17 21 37 80 56 48 67
REMARK Flexibility Score: inf
ROOT
ATOM      1  C   UNL A   1      33.041  30.109  26.562  1.00  0.00     0.002 C 
ENDROOT
BRANCH   1   2
ATOM      2  C   UNL A   1      33.029  28.743  27.255  1.00  0.00     0.021 C 
BRANCH   2   3
ATOM      3  C   UNL A   1      31.620  28.217  27.544  1.00  0.00     0.116 C 
BRANCH   3   4
ATOM      4  N   UNL A   1      31.439  26.884  27.006  1.00  0.00    -0.356 N 
ATOM      5  C   UNL A   1      30.815  26.513  25.851  1.00  0.00     0.224 C 
ATOM      6  O   UNL A   1      30.651  25.310  25.636  1.00  0.00    -0.275 OA
ATOM      7  H   UNL A   1      31.815  26.150  27.544  1.00  0.00     0.163 HD
BRANCH   5   8
ATOM      8  C   UNL A   1      30.379  27.550  24.839  1.00  0.00     0.153 C 
BRANCH   8   9
ATOM      9  C   UNL A   1      31.467  27.906  23.831  1.00  0.00     0.260 C 
ATOM     10  N   UNL A   1      33.146  25.113  22.403  1.00  0.00    -0.212 N 
ATOM     11  C   UNL A   1      32.446  26.223  22.735  1.00  0.00     0.358 C 
ATOM     12  H   UNL A   1      33.662  25.118  21.564  1.00  0.00     0.270 HD
ATOM     13  N   UNL A   1      32.536  26.870  23.852  1.00  0.00    -0.263 N 
ATOM     14  N   UNL A   1      31.572  26.741  21.855  1.00  0.00    -0.211 N 
ATOM     15  H   UNL A   1      33.185  26.710  24.575  1.00  0.00     0.261 HD
ATOM     16  C   UNL A   1      30.921  27.792  22.421  1.00  0.00     0.320 C 
ATOM     17  H   UNL A   1      31.425  26.410  20.940  1.00  0.00     0.270 HD
ATOM     18  O   UNL A   1      30.047  28.455  21.899  1.00  0.00    -0.252 OA
BRANCH  10  19
ATOM     19  C   UNL A   1      33.171  23.967  23.189  1.00  0.00     0.291 A 
ATOM     20  C   UNL A   1      32.045  18.029  22.882  1.00  0.00     0.044 C 
ATOM     21  C   UNL A   1      32.545  19.271  23.570  1.00  0.00    -0.046 A 
ATOM     22  C   UNL A   1      32.661  20.455  22.824  1.00  0.00     0.033 A 
ATOM     23  C   UNL A   1      32.808  19.310  24.947  1.00  0.00    -0.047 A 
ATOM     24  C   UNL A   1      32.977  21.680  23.400  1.00  0.00     0.078 A 
ATOM     25  C   UNL A   1      33.152  20.538  25.534  1.00  0.00     0.016 A 
ATOM     26  C   UNL A   1      32.703  18.079  25.805  1.00  0.00     0.044 C 
ATOM     27  N   UNL A   1      32.989  22.766  22.623  1.00  0.00    -0.198 NA
ATOM     28  C   UNL A   1      33.209  21.734  24.772  1.00  0.00     0.022 A 
ATOM     29  C   UNL A   1      33.438  23.023  25.273  1.00  0.00     0.052 A 
ATOM     30  N   UNL A   1      33.411  24.132  24.495  1.00  0.00    -0.203 NA
ATOM     31  C   UNL A   1      33.678  23.263  26.736  1.00  0.00     0.067 C 
ENDBRANCH  10  19
ENDBRANCH   8   9
ENDBRANCH   5   8
ENDBRANCH   3   4
ENDBRANCH   2   3
ENDBRANCH   1   2
BRANCH   1  32
ATOM     32  C   UNL A   1      31.655  30.710  26.296  1.00  0.00     0.002 C 
BRANCH  32  33
ATOM     33  C   UNL A   1      31.467  32.151  26.768  1.00  0.00     0.021 C 
BRANCH  33  34
ATOM     34  C   UNL A   1      32.728  32.828  27.289  1.00  0.00     0.116 C 
BRANCH  34  35
ATOM     35  N   UNL A   1      32.502  34.225  27.635  1.00  0.00    -0.352 N 
ATOM     36  C   UNL A   1      33.059  34.984  28.634  1.00  0.00     0.251 C 
ATOM     37  H   UNL A   1      31.851  34.695  27.065  1.00  0.00     0.163 HD
ATOM     38  O   UNL A   1      32.608  36.094  28.896  1.00  0.00    -0.269 OA
BRANCH  36  39
ATOM     39  C   UNL A   1      34.189  34.446  29.422  1.00  0.00     0.039 A 
ATOM     40  C   UNL A   1      35.504  34.596  28.977  1.00  0.00     0.014 A 
ATOM     41  C   UNL A   1      33.927  33.776  30.620  1.00  0.00     0.014 A 
ATOM     42  C   UNL A   1      36.531  33.927  29.630  1.00  0.00     0.010 A 
ATOM     43  C   UNL A   1      34.975  33.180  31.326  1.00  0.00     0.010 A 
ATOM     44  C   UNL A   1      36.279  33.206  30.807  1.00  0.00    -0.014 A 
BRANCH  44  45
ATOM     45  C   UNL A   1      37.394  32.485  31.474  1.00  0.00     0.031 A 
ATOM     46  C   UNL A   1      38.124  31.375  30.770  1.00  0.00     0.074 A 
ATOM     47  C   UNL A   1      37.783  32.871  32.704  1.00  0.00     0.049 A 
ATOM     48  N   UNL A   1      39.149  30.670  31.180  1.00  0.00    -0.248 NA
ATOM     49  C   UNL A   1      37.641  31.000  29.432  1.00  0.00     0.031 C 
ATOM     50  C   UNL A   1      37.151  33.933  33.488  1.00  0.00     0.029 A 
ATOM     51  N   UNL A   1      38.810  32.434  33.502  1.00  0.00    -0.354 N 
ATOM     52  C   UNL A   1      39.420  29.763  30.166  1.00  0.00     0.074 A 
ATOM     53  C   UNL A   1      38.437  29.984  29.127  1.00  0.00     0.031 C 
ATOM     54  C   UNL A   1      37.830  34.098  34.632  1.00  0.00     0.029 A 
ATOM     55  C   UNL A   1      38.906  33.113  34.691  1.00  0.00     0.049 A 
ATOM     56  H   UNL A   1      39.419  31.703  33.247  1.00  0.00     0.167 HD
ATOM     57  C   UNL A   1      40.406  28.836  30.103  1.00  0.00     0.037 A 
ATOM     58  C   UNL A   1      39.757  32.956  35.723  1.00  0.00     0.037 A 
ATOM     59  C   UNL A   1      41.391  28.630  31.132  1.00  0.00     0.049 A 
ATOM     60  C   UNL A   1      40.820  31.899  35.643  1.00  0.00     0.074 A 
ATOM     61  C   UNL A   1      42.461  27.751  31.135  1.00  0.00     0.029 A 
ATOM     62  N   UNL A   1      41.423  29.302  32.345  1.00  0.00    -0.354 N 
ATOM     63  N   UNL A   1      41.092  31.077  34.659  1.00  0.00    -0.248 NA
ATOM     64  C   UNL A   1      41.689  31.741  36.817  1.00  0.00     0.031 C 
ATOM     65  C   UNL A   1      43.106  27.850  32.372  1.00  0.00     0.029 A 
ATOM     66  C   UNL A   1      42.473  28.831  33.119  1.00  0.00     0.049 A 
ATOM     67  H   UNL A   1      40.794  30.008  32.617  1.00  0.00     0.167 HD
ATOM     68  C   UNL A   1      42.163  30.307  35.089  1.00  0.00     0.074 A 
ATOM     69  C   UNL A   1      42.508  30.777  36.416  1.00  0.00     0.031 C 
ATOM     70  C   UNL A   1      42.798  29.299  34.444  1.00  0.00     0.037 A 
BRANCH  57  71
ATOM     71  C   UNL A   1      40.467  27.957  28.886  1.00  0.00     0.064 A 
ATOM     72  C   UNL A   1      39.754  26.753  28.809  1.00  0.00     0.173 A 
ATOM     73  C   UNL A   1      41.201  28.358  27.759  1.00  0.00     0.173 A 
ATOM     74  F   UNL A   1      39.051  26.315  29.864  1.00  0.00    -0.203 F 
ATOM     75  C   UNL A   1      39.786  25.974  27.654  1.00  0.00     0.198 A 
ATOM     76  C   UNL A   1      41.209  27.591  26.597  1.00  0.00     0.198 A 
ATOM     77  F   UNL A   1      41.900  29.504  27.779  1.00  0.00    -0.203 F 
ATOM     78  F   UNL A   1      39.128  24.807  27.619  1.00  0.00    -0.200 F 
ATOM     79  C   UNL A   1      40.505  26.398  26.547  1.00  0.00     0.200 A 
ATOM     80  F   UNL A   1      41.898  28.007  25.525  1.00  0.00    -0.200 F 
ATOM     81  F   UNL A   1      40.527  25.651  25.434  1.00  0.00    -0.200 F 
ENDBRANCH  57  71
BRANCH  58  82
ATOM     82  C   UNL A   1      39.620  33.833  36.913  1.00  0.00     0.064 A 
ATOM     83  C   UNL A   1      40.219  35.099  36.949  1.00  0.00     0.173 A 
ATOM     84  C   UNL A   1      38.837  33.448  38.012  1.00  0.00     0.173 A 
ATOM     85  F   UNL A   1      40.992  35.503  35.929  1.00  0.00    -0.203 F 
ATOM     86  C   UNL A   1      40.036  35.950  38.037  1.00  0.00     0.198 A 
ATOM     87  C   UNL A   1      38.632  34.310  39.087  1.00  0.00     0.198 A 
ATOM     88  F   UNL A   1      38.240  32.248  38.023  1.00  0.00    -0.203 F 
ATOM     89  F   UNL A   1      40.634  37.148  38.056  1.00  0.00    -0.200 F 
ATOM     90  C   UNL A   1      39.233  35.560  39.099  1.00  0.00     0.200 A 
ATOM     91  F   UNL A   1      37.840  33.937  40.100  1.00  0.00    -0.200 F 
ATOM     92  F   UNL A   1      39.037  36.388  40.133  1.00  0.00    -0.200 F 
ENDBRANCH  58  82
BRANCH  70  93
ATOM     93  C   UNL A   1      43.932  28.624  35.158  1.00  0.00     0.064 A 
ATOM     94  C   UNL A   1      43.723  27.482  35.944  1.00  0.00     0.173 A 
ATOM     95  C   UNL A   1      45.249  29.079  34.996  1.00  0.00     0.173 A 
ATOM     96  F   UNL A   1      42.479  27.017  36.141  1.00  0.00    -0.203 F 
ATOM     97  C   UNL A   1      44.790  26.825  36.551  1.00  0.00     0.198 A 
ATOM     98  C   UNL A   1      46.317  28.404  35.579  1.00  0.00     0.198 A 
ATOM     99  F   UNL A   1      45.503  30.163  34.247  1.00  0.00    -0.203 F 
ATOM    100  F   UNL A   1      44.564  25.754  37.323  1.00  0.00    -0.200 F 
ATOM    101  C   UNL A   1      46.086  27.280  36.359  1.00  0.00     0.200 A 
ATOM    102  F   UNL A   1      47.570  28.835  35.380  1.00  0.00    -0.200 F 
ATOM    103  F   UNL A   1      47.115  26.636  36.928  1.00  0.00    -0.200 F 
ENDBRANCH  70  93
ENDBRANCH  44  45
ENDBRANCH  36  39
ENDBRANCH  34  35
ENDBRANCH  33  34
ENDBRANCH  32  33
ENDBRANCH   1  32
TORSDOF 15
ENDMDL
MODEL 3
REMARK VINA RESULT:     -12.9      1.899      2.986
REMARK SMILES Cc1cc2nc(NC3=[NH+][C@H](CC(=O)NCCCCCCNC(=O)c4ccc(-c5c6nc(c(-c7c(F)c(F)c(F)c(F)c7F)c7ccc([nH]7)c(-c7c(F)c(F)c(F)c(F)c7F)c7nc(c(-c8c(F)c(F)c(F)c(F)c8F)c8ccc5[nH]8)C=C7)C=C6)cc4)C(=O)N3)nc(C)c2cc1C
REMARK SMILES IDX 17 1 16 2 15 3 14 4 12 5 13 6 11 8 10 9 7 10 8 11 9 13 89 14
REMARK SMILES IDX 87 16 88 18 6 19 1 20 2 21 3 22 95 23 4 24 94 25 96 26 5 27
REMARK SMILES IDX 93 28 91 29 90 30 92 31 18 32 19 33 20 34 21 35 22 36 23 38
REMARK SMILES IDX 24 39 25 40 86 41 26 42 85 43 27 44 28 45 29 46 79 47 30 48
REMARK SMILES IDX 84 49 78 50 80 51 31 52 83 53 77 54 76 55 32 57 64 58 44 59
REMARK SMILES IDX 63 60 45 61 48 62 62 63 81 64 46 65 47 66 61 68 82 69 49 70
REMARK SMILES IDX 33 71 34 72 42 73 35 74 36 75 40 76 43 77 37 78 38 79 41 80
REMARK SMILES IDX 39 81 65 82 66 83 74 84 67 85 68 86 72 87 75 88 69 89 70 90
REMARK SMILES IDX 73 91 71 92 50 93 51 94 59 95 52 96 53 97 57 98 60 99 54 100
REMARK SMILES IDX 55 101 58 102 56 103
REMARK H PARENT 14 7 7 12 9 15 89 17 21 37 80 56 48 67
REMARK Flexibility Score: inf
ROOT
ATOM      1  C   UNL A   1      32.485  29.760  27.119  1.00  0.00     0.002 C 
ENDROOT
BRANCH   1   2
ATOM      2  C   UNL A   1      31.984  28.376  27.544  1.00  0.00     0.021 C 
BRANCH   2   3
ATOM      3  C   UNL A   1      31.630  27.466  26.366  1.00  0.00     0.116 C 
BRANCH   3   4
ATOM      4  N   UNL A   1      32.698  26.527  26.090  1.00  0.00    -0.356 N 
ATOM      5  C   UNL A   1      33.654  26.590  25.118  1.00  0.00     0.224 C 
ATOM      6  O   UNL A   1      34.399  25.619  24.966  1.00  0.00    -0.275 OA
ATOM      7  H   UNL A   1      32.741  25.740  26.681  1.00  0.00     0.163 HD
BRANCH   5   8
ATOM      8  C   UNL A   1      33.826  27.840  24.283  1.00  0.00     0.153 C 
BRANCH   8   9
ATOM      9  C   UNL A   1      33.254  27.711  22.876  1.00  0.00     0.260 C 
ATOM     10  N   UNL A   1      31.309  24.784  22.320  1.00  0.00    -0.212 N 
ATOM     11  C   UNL A   1      31.861  26.009  22.482  1.00  0.00     0.358 C 
ATOM     12  H   UNL A   1      30.651  24.658  21.598  1.00  0.00     0.270 HD
ATOM     13  N   UNL A   1      33.128  26.273  22.509  1.00  0.00    -0.263 N 
ATOM     14  N   UNL A   1      31.061  27.081  22.622  1.00  0.00    -0.211 N 
ATOM     15  H   UNL A   1      33.864  25.647  22.325  1.00  0.00     0.261 HD
ATOM     16  C   UNL A   1      31.815  28.188  22.857  1.00  0.00     0.320 C 
ATOM     17  H   UNL A   1      30.078  27.067  22.563  1.00  0.00     0.270 HD
ATOM     18  O   UNL A   1      31.393  29.308  23.059  1.00  0.00    -0.252 OA
BRANCH  10  19
ATOM     19  C   UNL A   1      31.627  23.696  23.124  1.00  0.00     0.291 A 
ATOM     20  C   UNL A   1      32.700  17.750  22.778  1.00  0.00     0.044 C 
ATOM     21  C   UNL A   1      32.636  19.067  23.504  1.00  0.00    -0.046 A 
ATOM     22  C   UNL A   1      32.430  20.239  22.758  1.00  0.00     0.033 A 
ATOM     23  C   UNL A   1      32.682  19.154  24.903  1.00  0.00    -0.047 A 
ATOM     24  C   UNL A   1      32.218  21.479  23.349  1.00  0.00     0.078 A 
ATOM     25  C   UNL A   1      32.492  20.406  25.508  1.00  0.00     0.016 A 
ATOM     26  C   UNL A   1      32.899  17.938  25.762  1.00  0.00     0.044 C 
ATOM     27  N   UNL A   1      31.954  22.524  22.561  1.00  0.00    -0.198 NA
ATOM     28  C   UNL A   1      32.230  21.569  24.739  1.00  0.00     0.022 A 
ATOM     29  C   UNL A   1      31.924  22.841  25.242  1.00  0.00     0.052 A 
ATOM     30  N   UNL A   1      31.616  23.895  24.447  1.00  0.00    -0.203 NA
ATOM     31  C   UNL A   1      31.866  23.106  26.720  1.00  0.00     0.067 C 
ENDBRANCH  10  19
ENDBRANCH   8   9
ENDBRANCH   5   8
ENDBRANCH   3   4
ENDBRANCH   2   3
ENDBRANCH   1   2
BRANCH   1  32
ATOM     32  C   UNL A   1      31.531  30.537  26.201  1.00  0.00     0.002 C 
BRANCH  32  33
ATOM     33  C   UNL A   1      31.394  32.026  26.515  1.00  0.00     0.021 C 
BRANCH  33  34
ATOM     34  C   UNL A   1      32.579  32.643  27.245  1.00  0.00     0.116 C 
BRANCH  34  35
ATOM     35  N   UNL A   1      32.363  34.049  27.558  1.00  0.00    -0.352 N 
ATOM     36  C   UNL A   1      32.972  34.844  28.499  1.00  0.00     0.251 C 
ATOM     37  H   UNL A   1      31.676  34.497  27.014  1.00  0.00     0.163 HD
ATOM     38  O   UNL A   1      32.528  35.959  28.751  1.00  0.00    -0.269 OA
BRANCH  36  39
ATOM     39  C   UNL A   1      34.150  34.338  29.235  1.00  0.00     0.039 A 
ATOM     40  C   UNL A   1      35.442  34.559  28.752  1.00  0.00     0.014 A 
ATOM     41  C   UNL A   1      33.958  33.627  30.422  1.00  0.00     0.014 A 
ATOM     42  C   UNL A   1      36.519  33.921  29.354  1.00  0.00     0.010 A 
ATOM     43  C   UNL A   1      35.055  33.061  31.079  1.00  0.00     0.010 A 
ATOM     44  C   UNL A   1      36.338  33.160  30.519  1.00  0.00    -0.014 A 
BRANCH  44  45
ATOM     45  C   UNL A   1      37.506  32.475  31.130  1.00  0.00     0.031 A 
ATOM     46  C   UNL A   1      37.953  32.811  32.526  1.00  0.00     0.074 A 
ATOM     47  C   UNL A   1      38.136  31.506  30.438  1.00  0.00     0.049 A 
ATOM     48  N   UNL A   1      38.919  32.282  33.234  1.00  0.00    -0.248 NA
ATOM     49  C   UNL A   1      37.225  33.884  33.221  1.00  0.00     0.031 C 
ATOM     50  C   UNL A   1      37.796  31.094  29.075  1.00  0.00     0.029 A 
ATOM     51  N   UNL A   1      39.175  30.681  30.786  1.00  0.00    -0.354 N 
ATOM     52  C   UNL A   1      38.928  32.964  34.442  1.00  0.00     0.074 A 
ATOM     53  C   UNL A   1      37.887  33.967  34.368  1.00  0.00     0.031 C 
ATOM     54  C   UNL A   1      38.577  30.064  28.720  1.00  0.00     0.029 A 
ATOM     55  C   UNL A   1      39.514  29.784  29.804  1.00  0.00     0.049 A 
ATOM     56  H   UNL A   1      39.634  30.728  31.657  1.00  0.00     0.167 HD
ATOM     57  C   UNL A   1      39.725  32.765  35.519  1.00  0.00     0.037 A 
ATOM     58  C   UNL A   1      40.480  28.847  29.770  1.00  0.00     0.037 A 
ATOM     59  C   UNL A   1      40.749  31.756  35.595  1.00  0.00     0.049 A 
ATOM     60  C   UNL A   1      41.373  28.669  30.964  1.00  0.00     0.074 A 
ATOM     61  C   UNL A   1      41.571  31.444  36.663  1.00  0.00     0.029 A 
ATOM     62  N   UNL A   1      41.098  30.902  34.558  1.00  0.00    -0.354 N 
ATOM     63  N   UNL A   1      41.342  29.293  32.116  1.00  0.00    -0.248 NA
ATOM     64  C   UNL A   1      42.439  27.664  30.852  1.00  0.00     0.031 C 
ATOM     65  C   UNL A   1      42.457  30.441  36.256  1.00  0.00     0.029 A 
ATOM     66  C   UNL A   1      42.149  30.087  34.952  1.00  0.00     0.049 A 
ATOM     67  H   UNL A   1      40.665  30.878  33.675  1.00  0.00     0.167 HD
ATOM     68  C   UNL A   1      42.376  28.757  32.869  1.00  0.00     0.074 A 
ATOM     69  C   UNL A   1      43.003  27.738  32.052  1.00  0.00     0.031 C 
ATOM     70  C   UNL A   1      42.773  29.085  34.123  1.00  0.00     0.037 A 
BRANCH  57  71
ATOM     71  C   UNL A   1      39.537  33.666  36.707  1.00  0.00     0.064 A 
ATOM     72  C   UNL A   1      38.723  33.300  37.788  1.00  0.00     0.173 A 
ATOM     73  C   UNL A   1      40.231  34.882  36.790  1.00  0.00     0.173 A 
ATOM     74  F   UNL A   1      38.024  32.156  37.752  1.00  0.00    -0.203 F 
ATOM     75  C   UNL A   1      38.597  34.128  38.902  1.00  0.00     0.198 A 
ATOM     76  C   UNL A   1      40.124  35.694  37.917  1.00  0.00     0.198 A 
ATOM     77  F   UNL A   1      41.025  35.279  35.784  1.00  0.00    -0.203 F 
ATOM     78  F   UNL A   1      37.781  33.776  39.906  1.00  0.00    -0.200 F 
ATOM     79  C   UNL A   1      39.305  35.318  38.969  1.00  0.00     0.200 A 
ATOM     80  F   UNL A   1      40.816  36.841  37.983  1.00  0.00    -0.200 F 
ATOM     81  F   UNL A   1      39.190  36.108  40.047  1.00  0.00    -0.200 F 
ENDBRANCH  57  71
BRANCH  58  82
ATOM     82  C   UNL A   1      40.637  28.014  28.551  1.00  0.00     0.064 A 
ATOM     83  C   UNL A   1      41.450  28.433  27.490  1.00  0.00     0.173 A 
ATOM     84  C   UNL A   1      40.026  26.754  28.450  1.00  0.00     0.173 A 
ATOM     85  F   UNL A   1      42.039  29.637  27.533  1.00  0.00    -0.203 F 
ATOM     86  C   UNL A   1      41.650  27.621  26.375  1.00  0.00     0.198 A 
ATOM     87  C   UNL A   1      40.250  25.932  27.348  1.00  0.00     0.198 A 
ATOM     88  F   UNL A   1      39.243  26.306  29.442  1.00  0.00    -0.203 F 
ATOM     89  F   UNL A   1      42.418  28.052  25.366  1.00  0.00    -0.200 F 
ATOM     90  C   UNL A   1      41.061  26.367  26.311  1.00  0.00     0.200 A 
ATOM     91  F   UNL A   1      39.695  24.714  27.300  1.00  0.00    -0.200 F 
ATOM     92  F   UNL A   1      41.275  25.577  25.251  1.00  0.00    -0.200 F 
ENDBRANCH  58  82
BRANCH  70  93
ATOM     93  C   UNL A   1      43.943  28.343  34.696  1.00  0.00     0.064 A 
ATOM     94  C   UNL A   1      45.245  28.860  34.618  1.00  0.00     0.173 A 
ATOM     95  C   UNL A   1      43.754  27.141  35.395  1.00  0.00     0.173 A 
ATOM     96  F   UNL A   1      45.478  30.000  33.948  1.00  0.00    -0.203 F 
ATOM     97  C   UNL A   1      46.316  28.196  35.209  1.00  0.00     0.198 A 
ATOM     98  C   UNL A   1      44.822  26.494  36.009  1.00  0.00     0.198 A 
ATOM     99  F   UNL A   1      42.528  26.609  35.504  1.00  0.00    -0.203 F 
ATOM    100  F   UNL A   1      47.555  28.692  35.095  1.00  0.00    -0.200 F 
ATOM    101  C   UNL A   1      46.102  27.020  35.913  1.00  0.00     0.200 A 
ATOM    102  F   UNL A   1      44.612  25.366  36.702  1.00  0.00    -0.200 F 
ATOM    103  F   UNL A   1      47.131  26.391  36.497  1.00  0.00    -0.200 F 
ENDBRANCH  70  93
ENDBRANCH  44  45
ENDBRANCH  36  39
ENDBRANCH  34  35
ENDBRANCH  33  34
ENDBRANCH  32  33
ENDBRANCH   1  32
TORSDOF 15
ENDMDL
