MODEL 1
REMARK VINA RESULT:     -12.6      0.000      0.000
REMARK SMILES COc1ccc2c(c1)c(CC(=O)NCCCCCCNC(=O)c1ccc(-c3c4nc(c(-c5c(F)c(F)c(F)c(F)c5F)c5ccc([nH]5)c(-c5c(F)c(F)c(F)c(F)c5F)c5nc(c(-c6c(F)c(F)c(F)c(F)c6F)c6ccc3[nH]6)C=C5)C=C4)cc1)c(C)n2Cc1ccc(Br)cc1
REMARK SMILES IDX 16 1 15 2 14 3 13 4 11 5 12 6 10 8 9 9 3 10 4 11 8 12 5 13
REMARK SMILES IDX 7 14 6 15 88 16 86 17 87 18 2 19 1 20 89 21 90 22 91 23
REMARK SMILES IDX 96 24 92 25 95 26 93 27 94 28 17 29 18 30 19 31 20 32 21 33
REMARK SMILES IDX 22 35 23 36 24 37 85 38 25 39 84 40 26 41 27 42 28 43 78 44
REMARK SMILES IDX 29 45 83 46 77 47 79 48 30 49 82 50 76 51 75 52 31 54 63 55
REMARK SMILES IDX 43 56 62 57 44 58 47 59 61 60 80 61 45 62 46 63 60 65 81 66
REMARK SMILES IDX 48 67 32 68 33 69 41 70 34 71 35 72 39 73 42 74 36 75 37 76
REMARK SMILES IDX 40 77 38 78 64 79 65 80 73 81 66 82 67 83 71 84 74 85 68 86
REMARK SMILES IDX 69 87 72 88 70 89 49 90 50 91 58 92 51 93 52 94 56 95 59 96
REMARK SMILES IDX 53 97 54 98 57 99 55 100
REMARK H PARENT 13 7 20 34 79 53 47 64
REMARK Flexibility Score: inf
ROOT
ATOM      1  C   UNL A   1      40.010  21.864  27.053  1.00  0.00     0.002 C 
ENDROOT
BRANCH   1   2
ATOM      2  C   UNL A   1      39.319  21.769  25.687  1.00  0.00     0.021 C 
BRANCH   2   3
ATOM      3  C   UNL A   1      37.792  21.731  25.771  1.00  0.00     0.116 C 
BRANCH   3   4
ATOM      4  N   UNL A   1      37.181  22.246  24.559  1.00  0.00    -0.356 N 
ATOM      5  C   UNL A   1      36.271  23.253  24.401  1.00  0.00     0.224 C 
ATOM      6  O   UNL A   1      35.840  23.470  23.266  1.00  0.00    -0.275 OA
ATOM      7  H   UNL A   1      37.466  21.805  23.726  1.00  0.00     0.163 HD
BRANCH   5   8
ATOM      8  C   UNL A   1      35.876  24.140  25.574  1.00  0.00     0.138 C 
BRANCH   8   9
ATOM      9  C   UNL A   1      34.404  24.402  25.662  1.00  0.00    -0.010 A 
ATOM     10  C   UNL A   1      32.131  21.361  25.364  1.00  0.00     0.119 A 
ATOM     11  C   UNL A   1      30.940  22.032  25.610  1.00  0.00     0.048 A 
ATOM     12  C   UNL A   1      33.350  22.037  25.418  1.00  0.00     0.057 A 
ATOM     13  C   UNL A   1      30.932  23.409  25.875  1.00  0.00     0.031 A 
ATOM     14  C   UNL A   1      33.363  23.432  25.630  1.00  0.00     0.007 A 
ATOM     15  C   UNL A   1      32.156  24.102  25.859  1.00  0.00     0.049 A 
ATOM     16  N   UNL A   1      32.468  25.444  26.047  1.00  0.00    -0.340 N 
ATOM     17  C   UNL A   1      33.792  25.648  25.691  1.00  0.00     0.020 A 
ATOM     18  C   UNL A   1      34.427  26.974  25.438  1.00  0.00     0.065 C 
BRANCH  10  19
ATOM     19  O   UNL A   1      32.179  20.013  25.121  1.00  0.00    -0.497 OA
ATOM     20  C   UNL A   1      33.518  19.540  24.978  1.00  0.00     0.278 C 
ENDBRANCH  10  19
BRANCH  16  21
ATOM     21  C   UNL A   1      31.504  26.486  26.416  1.00  0.00     0.157 C 
BRANCH  21  22
ATOM     22  C   UNL A   1      31.019  27.331  25.250  1.00  0.00    -0.028 A 
ATOM     23  C   UNL A   1      30.136  26.817  24.286  1.00  0.00     0.007 A 
ATOM     24  C   UNL A   1      31.369  28.688  25.154  1.00  0.00     0.007 A 
ATOM     25  C   UNL A   1      29.618  27.615  23.264  1.00  0.00     0.016 A 
ATOM     26  C   UNL A   1      30.833  29.501  24.145  1.00  0.00     0.016 A 
ATOM     27  C   UNL A   1      29.952  28.962  23.209  1.00  0.00     0.017 A 
ATOM     28  Br  UNL A   1      29.163  30.063  21.892  1.00  0.00    -0.051 Br
ENDBRANCH  21  22
ENDBRANCH  16  21
ENDBRANCH   8   9
ENDBRANCH   5   8
ENDBRANCH   3   4
ENDBRANCH   2   3
ENDBRANCH   1   2
BRANCH   1  29
ATOM     29  C   UNL A   1      41.065  20.782  27.320  1.00  0.00     0.002 C 
BRANCH  29  30
ATOM     30  C   UNL A   1      41.311  19.809  26.162  1.00  0.00     0.021 C 
BRANCH  30  31
ATOM     31  C   UNL A   1      42.677  19.122  26.204  1.00  0.00     0.116 C 
BRANCH  31  32
ATOM     32  N   UNL A   1      43.481  19.363  25.023  1.00  0.00    -0.352 N 
ATOM     33  C   UNL A   1      44.218  20.416  24.563  1.00  0.00     0.251 C 
ATOM     34  H   UNL A   1      43.499  18.591  24.412  1.00  0.00     0.163 HD
ATOM     35  O   UNL A   1      44.883  20.210  23.542  1.00  0.00    -0.269 OA
BRANCH  33  36
ATOM     36  C   UNL A   1      44.228  21.784  25.152  1.00  0.00     0.039 A 
ATOM     37  C   UNL A   1      45.074  22.229  26.168  1.00  0.00     0.014 A 
ATOM     38  C   UNL A   1      43.241  22.667  24.672  1.00  0.00     0.014 A 
ATOM     39  C   UNL A   1      44.870  23.468  26.765  1.00  0.00     0.010 A 
ATOM     40  C   UNL A   1      43.046  23.917  25.249  1.00  0.00     0.010 A 
ATOM     41  C   UNL A   1      43.826  24.290  26.338  1.00  0.00    -0.014 A 
BRANCH  41  42
ATOM     42  C   UNL A   1      43.619  25.545  27.054  1.00  0.00     0.031 A 
ATOM     43  C   UNL A   1      44.622  26.618  26.793  1.00  0.00     0.074 A 
ATOM     44  C   UNL A   1      42.560  25.763  27.859  1.00  0.00     0.049 A 
ATOM     45  N   UNL A   1      45.388  27.222  27.645  1.00  0.00    -0.248 NA
ATOM     46  C   UNL A   1      44.856  27.012  25.396  1.00  0.00     0.031 C 
ATOM     47  C   UNL A   1      41.365  24.936  28.037  1.00  0.00     0.029 A 
ATOM     48  N   UNL A   1      42.296  26.853  28.635  1.00  0.00    -0.354 N 
ATOM     49  C   UNL A   1      46.109  28.171  26.920  1.00  0.00     0.074 A 
ATOM     50  C   UNL A   1      45.813  27.931  25.531  1.00  0.00     0.031 C 
ATOM     51  C   UNL A   1      40.417  25.656  28.676  1.00  0.00     0.029 A 
ATOM     52  C   UNL A   1      40.982  26.936  29.065  1.00  0.00     0.049 A 
ATOM     53  H   UNL A   1      42.980  27.522  28.868  1.00  0.00     0.167 HD
ATOM     54  C   UNL A   1      46.772  29.193  27.529  1.00  0.00     0.037 A 
ATOM     55  C   UNL A   1      40.384  28.014  29.629  1.00  0.00     0.037 A 
ATOM     56  C   UNL A   1      47.024  28.909  28.916  1.00  0.00     0.049 A 
ATOM     57  C   UNL A   1      41.452  28.884  30.183  1.00  0.00     0.074 A 
ATOM     58  C   UNL A   1      47.744  27.941  29.589  1.00  0.00     0.029 A 
ATOM     59  N   UNL A   1      46.233  29.503  29.867  1.00  0.00    -0.354 N 
ATOM     60  N   UNL A   1      42.193  28.564  31.208  1.00  0.00    -0.248 NA
ATOM     61  C   UNL A   1      41.993  29.923  29.320  1.00  0.00     0.031 C 
ATOM     62  C   UNL A   1      46.985  27.669  30.763  1.00  0.00     0.029 A 
ATOM     63  C   UNL A   1      45.879  28.519  30.751  1.00  0.00     0.049 A 
ATOM     64  H   UNL A   1      45.970  30.452  29.905  1.00  0.00     0.167 HD
ATOM     65  C   UNL A   1      43.458  29.034  30.886  1.00  0.00     0.074 A 
ATOM     66  C   UNL A   1      43.255  29.938  29.758  1.00  0.00     0.031 C 
ATOM     67  C   UNL A   1      44.582  28.435  31.376  1.00  0.00     0.037 A 
BRANCH  54  68
ATOM     68  C   UNL A   1      46.926  30.581  26.958  1.00  0.00     0.064 A 
ATOM     69  C   UNL A   1      48.190  31.207  26.989  1.00  0.00     0.173 A 
ATOM     70  C   UNL A   1      45.835  31.429  26.677  1.00  0.00     0.173 A 
ATOM     71  F   UNL A   1      49.299  30.500  27.256  1.00  0.00    -0.203 F 
ATOM     72  C   UNL A   1      48.334  32.590  26.842  1.00  0.00     0.198 A 
ATOM     73  C   UNL A   1      45.989  32.800  26.480  1.00  0.00     0.198 A 
ATOM     74  F   UNL A   1      44.571  30.988  26.692  1.00  0.00    -0.203 F 
ATOM     75  F   UNL A   1      49.537  33.154  27.011  1.00  0.00    -0.200 F 
ATOM     76  C   UNL A   1      47.232  33.386  26.598  1.00  0.00     0.200 A 
ATOM     77  F   UNL A   1      44.906  33.559  26.258  1.00  0.00    -0.200 F 
ATOM     78  F   UNL A   1      47.357  34.717  26.525  1.00  0.00    -0.200 F 
ENDBRANCH  54  68
BRANCH  55  79
ATOM     79  C   UNL A   1      38.993  28.478  29.413  1.00  0.00     0.064 A 
ATOM     80  C   UNL A   1      38.115  28.687  30.487  1.00  0.00     0.173 A 
ATOM     81  C   UNL A   1      38.575  28.972  28.160  1.00  0.00     0.173 A 
ATOM     82  F   UNL A   1      38.457  28.299  31.724  1.00  0.00    -0.203 F 
ATOM     83  C   UNL A   1      36.898  29.360  30.319  1.00  0.00     0.198 A 
ATOM     84  C   UNL A   1      37.358  29.632  27.991  1.00  0.00     0.198 A 
ATOM     85  F   UNL A   1      39.381  28.911  27.090  1.00  0.00    -0.203 F 
ATOM     86  F   UNL A   1      36.111  29.593  31.378  1.00  0.00    -0.200 F 
ATOM     87  C   UNL A   1      36.523  29.836  29.072  1.00  0.00     0.200 A 
ATOM     88  F   UNL A   1      37.029  30.121  26.787  1.00  0.00    -0.200 F 
ATOM     89  F   UNL A   1      35.385  30.526  28.921  1.00  0.00    -0.200 F 
ENDBRANCH  55  79
BRANCH  67  90
ATOM     90  C   UNL A   1      44.428  27.405  32.457  1.00  0.00     0.064 A 
ATOM     91  C   UNL A   1      44.234  26.036  32.203  1.00  0.00     0.173 A 
ATOM     92  C   UNL A   1      44.680  27.785  33.783  1.00  0.00     0.173 A 
ATOM     93  F   UNL A   1      44.094  25.580  30.953  1.00  0.00    -0.203 F 
ATOM     94  C   UNL A   1      44.258  25.099  33.234  1.00  0.00     0.198 A 
ATOM     95  C   UNL A   1      44.740  26.842  34.806  1.00  0.00     0.198 A 
ATOM     96  F   UNL A   1      44.934  29.070  34.077  1.00  0.00    -0.203 F 
ATOM     97  F   UNL A   1      44.074  23.798  32.964  1.00  0.00    -0.200 F 
ATOM     98  C   UNL A   1      44.522  25.502  34.532  1.00  0.00     0.200 A 
ATOM     99  F   UNL A   1      45.051  27.229  36.051  1.00  0.00    -0.200 F 
ATOM    100  F   UNL A   1      44.603  24.593  35.515  1.00  0.00    -0.200 F 
ENDBRANCH  67  90
ENDBRANCH  41  42
ENDBRANCH  33  36
ENDBRANCH  31  32
ENDBRANCH  30  31
ENDBRANCH  29  30
ENDBRANCH   1  29
TORSDOF 17
ENDMDL
MODEL 2
REMARK VINA RESULT:     -12.5      1.187      2.002
REMARK SMILES COc1ccc2c(c1)c(CC(=O)NCCCCCCNC(=O)c1ccc(-c3c4nc(c(-c5c(F)c(F)c(F)c(F)c5F)c5ccc([nH]5)c(-c5c(F)c(F)c(F)c(F)c5F)c5nc(c(-c6c(F)c(F)c(F)c(F)c6F)c6ccc3[nH]6)C=C5)C=C4)cc1)c(C)n2Cc1ccc(Br)cc1
REMARK SMILES IDX 16 1 15 2 14 3 13 4 11 5 12 6 10 8 9 9 3 10 4 11 8 12 5 13
REMARK SMILES IDX 7 14 6 15 88 16 86 17 87 18 2 19 1 20 89 21 90 22 91 23
REMARK SMILES IDX 96 24 92 25 95 26 93 27 94 28 17 29 18 30 19 31 20 32 21 33
REMARK SMILES IDX 22 35 23 36 24 37 85 38 25 39 84 40 26 41 27 42 28 43 78 44
REMARK SMILES IDX 29 45 83 46 77 47 79 48 30 49 82 50 76 51 75 52 31 54 63 55
REMARK SMILES IDX 43 56 62 57 44 58 47 59 61 60 80 61 45 62 46 63 60 65 81 66
REMARK SMILES IDX 48 67 32 68 33 69 41 70 34 71 35 72 39 73 42 74 36 75 37 76
REMARK SMILES IDX 40 77 38 78 64 79 65 80 73 81 66 82 67 83 71 84 74 85 68 86
REMARK SMILES IDX 69 87 72 88 70 89 49 90 50 91 58 92 51 93 52 94 56 95 59 96
REMARK SMILES IDX 53 97 54 98 57 99 55 100
REMARK H PARENT 13 7 20 34 79 53 47 64
REMARK Flexibility Score: inf
ROOT
ATOM      1  C   UNL A   1      41.476  21.072  27.360  1.00  0.00     0.002 C 
ENDROOT
BRANCH   1   2
ATOM      2  C   UNL A   1      40.583  21.337  26.141  1.00  0.00     0.021 C 
BRANCH   2   3
ATOM      3  C   UNL A   1      39.299  22.100  26.472  1.00  0.00     0.116 C 
BRANCH   3   4
ATOM      4  N   UNL A   1      38.560  22.441  25.271  1.00  0.00    -0.356 N 
ATOM      5  C   UNL A   1      37.215  22.593  25.088  1.00  0.00     0.224 C 
ATOM      6  O   UNL A   1      36.808  22.821  23.946  1.00  0.00    -0.275 OA
ATOM      7  H   UNL A   1      39.110  22.584  24.466  1.00  0.00     0.163 HD
BRANCH   5   8
ATOM      8  C   UNL A   1      36.259  22.580  26.273  1.00  0.00     0.138 C 
BRANCH   8   9
ATOM      9  C   UNL A   1      34.840  22.277  25.900  1.00  0.00    -0.010 A 
ATOM     10  C   UNL A   1      34.178  18.811  24.469  1.00  0.00     0.119 A 
ATOM     11  C   UNL A   1      32.796  18.936  24.391  1.00  0.00     0.048 A 
ATOM     12  C   UNL A   1      34.953  19.835  25.013  1.00  0.00     0.057 A 
ATOM     13  C   UNL A   1      32.156  20.109  24.814  1.00  0.00     0.031 A 
ATOM     14  C   UNL A   1      34.336  21.044  25.398  1.00  0.00     0.007 A 
ATOM     15  C   UNL A   1      32.946  21.169  25.297  1.00  0.00     0.049 A 
ATOM     16  N   UNL A   1      32.619  22.441  25.751  1.00  0.00    -0.340 N 
ATOM     17  C   UNL A   1      33.785  23.180  25.886  1.00  0.00     0.020 A 
ATOM     18  C   UNL A   1      33.859  24.661  26.033  1.00  0.00     0.065 C 
BRANCH  10  19
ATOM     19  O   UNL A   1      34.836  17.672  24.083  1.00  0.00    -0.497 OA
ATOM     20  C   UNL A   1      34.054  16.875  23.195  1.00  0.00     0.278 C 
ENDBRANCH  10  19
BRANCH  16  21
ATOM     21  C   UNL A   1      31.253  22.950  25.911  1.00  0.00     0.157 C 
BRANCH  21  22
ATOM     22  C   UNL A   1      30.932  24.162  25.053  1.00  0.00    -0.028 A 
ATOM     23  C   UNL A   1      30.448  25.354  25.616  1.00  0.00     0.007 A 
ATOM     24  C   UNL A   1      31.201  24.155  23.674  1.00  0.00     0.007 A 
ATOM     25  C   UNL A   1      30.237  26.499  24.843  1.00  0.00     0.016 A 
ATOM     26  C   UNL A   1      31.014  25.308  22.897  1.00  0.00     0.016 A 
ATOM     27  C   UNL A   1      30.541  26.477  23.488  1.00  0.00     0.017 A 
ATOM     28  Br  UNL A   1      30.359  28.059  22.469  1.00  0.00    -0.051 Br
ENDBRANCH  21  22
ENDBRANCH  16  21
ENDBRANCH   8   9
ENDBRANCH   5   8
ENDBRANCH   3   4
ENDBRANCH   2   3
ENDBRANCH   1   2
BRANCH   1  29
ATOM     29  C   UNL A   1      41.945  19.620  27.515  1.00  0.00     0.002 C 
BRANCH  29  30
ATOM     30  C   UNL A   1      42.186  18.868  26.201  1.00  0.00     0.021 C 
BRANCH  30  31
ATOM     31  C   UNL A   1      43.658  18.562  25.918  1.00  0.00     0.116 C 
BRANCH  31  32
ATOM     32  N   UNL A   1      44.081  18.947  24.587  1.00  0.00    -0.352 N 
ATOM     33  C   UNL A   1      44.570  20.093  24.030  1.00  0.00     0.251 C 
ATOM     34  H   UNL A   1      43.997  18.214  23.936  1.00  0.00     0.163 HD
ATOM     35  O   UNL A   1      44.944  20.011  22.855  1.00  0.00    -0.269 OA
BRANCH  33  36
ATOM     36  C   UNL A   1      44.626  21.423  24.701  1.00  0.00     0.039 A 
ATOM     37  C   UNL A   1      45.478  21.775  25.746  1.00  0.00     0.014 A 
ATOM     38  C   UNL A   1      43.675  22.368  24.268  1.00  0.00     0.014 A 
ATOM     39  C   UNL A   1      45.314  22.983  26.416  1.00  0.00     0.010 A 
ATOM     40  C   UNL A   1      43.520  23.589  24.918  1.00  0.00     0.010 A 
ATOM     41  C   UNL A   1      44.304  23.867  26.032  1.00  0.00    -0.014 A 
BRANCH  41  42
ATOM     42  C   UNL A   1      44.137  25.083  26.821  1.00  0.00     0.031 A 
ATOM     43  C   UNL A   1      45.185  26.129  26.638  1.00  0.00     0.074 A 
ATOM     44  C   UNL A   1      43.076  25.295  27.626  1.00  0.00     0.049 A 
ATOM     45  N   UNL A   1      45.962  26.649  27.533  1.00  0.00    -0.248 NA
ATOM     46  C   UNL A   1      45.454  26.597  25.270  1.00  0.00     0.031 C 
ATOM     47  C   UNL A   1      41.847  24.507  27.739  1.00  0.00     0.029 A 
ATOM     48  N   UNL A   1      42.845  26.346  28.463  1.00  0.00    -0.354 N 
ATOM     49  C   UNL A   1      46.730  27.610  26.876  1.00  0.00     0.074 A 
ATOM     50  C   UNL A   1      46.445  27.467  25.472  1.00  0.00     0.031 C 
ATOM     51  C   UNL A   1      40.919  25.225  28.408  1.00  0.00     0.029 A 
ATOM     52  C   UNL A   1      41.529  26.455  28.882  1.00  0.00     0.049 A 
ATOM     53  H   UNL A   1      43.551  26.971  28.744  1.00  0.00     0.167 HD
ATOM     54  C   UNL A   1      47.425  28.566  27.554  1.00  0.00     0.037 A 
ATOM     55  C   UNL A   1      40.966  27.520  29.504  1.00  0.00     0.037 A 
ATOM     56  C   UNL A   1      47.646  28.189  28.924  1.00  0.00     0.049 A 
ATOM     57  C   UNL A   1      42.059  28.312  30.122  1.00  0.00     0.074 A 
ATOM     58  C   UNL A   1      48.317  27.154  29.545  1.00  0.00     0.029 A 
ATOM     59  N   UNL A   1      46.865  28.755  29.900  1.00  0.00    -0.354 N 
ATOM     60  N   UNL A   1      42.773  27.901  31.134  1.00  0.00    -0.248 NA
ATOM     61  C   UNL A   1      42.654  29.378  29.330  1.00  0.00     0.031 C 
ATOM     62  C   UNL A   1      47.531  26.841  30.692  1.00  0.00     0.029 A 
ATOM     63  C   UNL A   1      46.460  27.735  30.718  1.00  0.00     0.049 A 
ATOM     64  H   UNL A   1      46.640  29.710  29.993  1.00  0.00     0.167 HD
ATOM     65  C   UNL A   1      44.059  28.338  30.856  1.00  0.00     0.074 A 
ATOM     66  C   UNL A   1      43.909  29.316  29.783  1.00  0.00     0.031 C 
ATOM     67  C   UNL A   1      45.152  27.666  31.322  1.00  0.00     0.037 A 
BRANCH  54  68
ATOM     68  C   UNL A   1      47.641  29.978  27.070  1.00  0.00     0.064 A 
ATOM     69  C   UNL A   1      48.935  30.539  27.125  1.00  0.00     0.173 A 
ATOM     70  C   UNL A   1      46.591  30.895  26.858  1.00  0.00     0.173 A 
ATOM     71  F   UNL A   1      50.011  29.763  27.332  1.00  0.00    -0.203 F 
ATOM     72  C   UNL A   1      49.146  31.920  27.064  1.00  0.00     0.198 A 
ATOM     73  C   UNL A   1      46.811  32.267  26.747  1.00  0.00     0.198 A 
ATOM     74  F   UNL A   1      45.307  30.516  26.862  1.00  0.00    -0.203 F 
ATOM     75  F   UNL A   1      50.377  32.413  27.253  1.00  0.00    -0.200 F 
ATOM     76  C   UNL A   1      48.082  32.783  26.885  1.00  0.00     0.200 A 
ATOM     77  F   UNL A   1      45.764  33.090  26.588  1.00  0.00    -0.200 F 
ATOM     78  F   UNL A   1      48.272  34.108  26.896  1.00  0.00    -0.200 F 
ENDBRANCH  54  68
BRANCH  55  79
ATOM     79  C   UNL A   1      39.597  28.052  29.300  1.00  0.00     0.064 A 
ATOM     80  C   UNL A   1      38.692  28.173  30.364  1.00  0.00     0.173 A 
ATOM     81  C   UNL A   1      39.236  28.694  28.097  1.00  0.00     0.173 A 
ATOM     82  F   UNL A   1      38.982  27.641  31.561  1.00  0.00    -0.203 F 
ATOM     83  C   UNL A   1      37.502  28.901  30.236  1.00  0.00     0.198 A 
ATOM     84  C   UNL A   1      38.045  29.409  27.967  1.00  0.00     0.198 A 
ATOM     85  F   UNL A   1      40.073  28.722  27.050  1.00  0.00    -0.203 F 
ATOM     86  F   UNL A   1      36.689  29.043  31.292  1.00  0.00    -0.200 F 
ATOM     87  C   UNL A   1      37.183  29.522  29.040  1.00  0.00     0.200 A 
ATOM     88  F   UNL A   1      37.771  30.037  26.815  1.00  0.00    -0.200 F 
ATOM     89  F   UNL A   1      36.072  30.263  28.933  1.00  0.00    -0.200 F 
ENDBRANCH  55  79
BRANCH  67  90
ATOM     90  C   UNL A   1      44.943  26.579  32.336  1.00  0.00     0.064 A 
ATOM     91  C   UNL A   1      44.828  26.818  33.717  1.00  0.00     0.173 A 
ATOM     92  C   UNL A   1      44.655  25.285  31.880  1.00  0.00     0.173 A 
ATOM     93  F   UNL A   1      44.982  28.049  34.219  1.00  0.00    -0.203 F 
ATOM     94  C   UNL A   1      44.475  25.800  34.600  1.00  0.00     0.198 A 
ATOM     95  C   UNL A   1      44.267  24.279  32.761  1.00  0.00     0.198 A 
ATOM     96  F   UNL A   1      44.688  25.013  30.566  1.00  0.00    -0.203 F 
ATOM     97  F   UNL A   1      44.368  26.056  35.912  1.00  0.00    -0.200 F 
ATOM     98  C   UNL A   1      44.184  24.535  34.119  1.00  0.00     0.200 A 
ATOM     99  F   UNL A   1      43.932  23.071  32.285  1.00  0.00    -0.200 F 
ATOM    100  F   UNL A   1      43.787  23.569  34.962  1.00  0.00    -0.200 F 
ENDBRANCH  67  90
ENDBRANCH  41  42
ENDBRANCH  33  36
ENDBRANCH  31  32
ENDBRANCH  30  31
ENDBRANCH  29  30
ENDBRANCH   1  29
TORSDOF 17
ENDMDL
MODEL 3
REMARK VINA RESULT:     -12.1      3.281      8.780
REMARK SMILES COc1ccc2c(c1)c(CC(=O)NCCCCCCNC(=O)c1ccc(-c3c4nc(c(-c5c(F)c(F)c(F)c(F)c5F)c5ccc([nH]5)c(-c5c(F)c(F)c(F)c(F)c5F)c5nc(c(-c6c(F)c(F)c(F)c(F)c6F)c6ccc3[nH]6)C=C5)C=C4)cc1)c(C)n2Cc1ccc(Br)cc1
REMARK SMILES IDX 16 1 15 2 14 3 13 4 11 5 12 6 10 8 9 9 3 10 4 11 8 12 5 13
REMARK SMILES IDX 7 14 6 15 88 16 86 17 87 18 2 19 1 20 89 21 90 22 91 23
REMARK SMILES IDX 96 24 92 25 95 26 93 27 94 28 17 29 18 30 19 31 20 32 21 33
REMARK SMILES IDX 22 35 23 36 24 37 85 38 25 39 84 40 26 41 27 42 28 43 78 44
REMARK SMILES IDX 29 45 83 46 77 47 79 48 30 49 82 50 76 51 75 52 31 54 63 55
REMARK SMILES IDX 43 56 62 57 44 58 47 59 61 60 80 61 45 62 46 63 60 65 81 66
REMARK SMILES IDX 48 67 32 68 33 69 41 70 34 71 35 72 39 73 42 74 36 75 37 76
REMARK SMILES IDX 40 77 38 78 64 79 65 80 73 81 66 82 67 83 71 84 74 85 68 86
REMARK SMILES IDX 69 87 72 88 70 89 49 90 50 91 58 92 51 93 52 94 56 95 59 96
REMARK SMILES IDX 53 97 54 98 57 99 55 100
REMARK H PARENT 13 7 20 34 79 53 47 64
REMARK Flexibility Score: inf
ROOT
ATOM      1  C   UNL A   1      31.093  28.384  26.358  1.00  0.00     0.002 C 
ENDROOT
BRANCH   1   2
ATOM      2  C   UNL A   1      31.147  27.297  25.277  1.00  0.00     0.021 C 
BRANCH   2   3
ATOM      3  C   UNL A   1      30.258  26.089  25.575  1.00  0.00     0.116 C 
BRANCH   3   4
ATOM      4  N   UNL A   1      30.260  25.145  24.472  1.00  0.00    -0.356 N 
ATOM      5  C   UNL A   1      30.866  23.925  24.369  1.00  0.00     0.224 C 
ATOM      6  O   UNL A   1      30.782  23.325  23.294  1.00  0.00    -0.275 OA
ATOM      7  H   UNL A   1      29.748  25.426  23.679  1.00  0.00     0.163 HD
BRANCH   5   8
ATOM      8  C   UNL A   1      31.539  23.283  25.574  1.00  0.00     0.138 C 
BRANCH   8   9
ATOM      9  C   UNL A   1      32.871  22.669  25.265  1.00  0.00    -0.010 A 
ATOM     10  C   UNL A   1      33.003  18.864  25.232  1.00  0.00     0.119 A 
ATOM     11  C   UNL A   1      34.321  18.757  24.806  1.00  0.00     0.048 A 
ATOM     12  C   UNL A   1      32.398  20.114  25.359  1.00  0.00     0.057 A 
ATOM     13  C   UNL A   1      35.084  19.902  24.536  1.00  0.00     0.031 A 
ATOM     14  C   UNL A   1      33.161  21.281  25.144  1.00  0.00     0.007 A 
ATOM     15  C   UNL A   1      34.493  21.164  24.733  1.00  0.00     0.049 A 
ATOM     16  N   UNL A   1      34.987  22.456  24.588  1.00  0.00    -0.340 N 
ATOM     17  C   UNL A   1      34.077  23.346  25.138  1.00  0.00     0.020 A 
ATOM     18  C   UNL A   1      34.356  24.770  25.477  1.00  0.00     0.065 C 
BRANCH  10  19
ATOM     19  O   UNL A   1      32.222  17.767  25.486  1.00  0.00    -0.497 OA
ATOM     20  C   UNL A   1      32.990  16.567  25.566  1.00  0.00     0.278 C 
ENDBRANCH  10  19
BRANCH  16  21
ATOM     21  C   UNL A   1      36.318  22.792  24.073  1.00  0.00     0.157 C 
BRANCH  21  22
ATOM     22  C   UNL A   1      37.429  22.701  25.104  1.00  0.00    -0.028 A 
ATOM     23  C   UNL A   1      38.196  21.534  25.258  1.00  0.00     0.007 A 
ATOM     24  C   UNL A   1      37.786  23.820  25.875  1.00  0.00     0.007 A 
ATOM     25  C   UNL A   1      39.276  21.475  26.143  1.00  0.00     0.016 A 
ATOM     26  C   UNL A   1      38.884  23.775  26.747  1.00  0.00     0.016 A 
ATOM     27  C   UNL A   1      39.629  22.605  26.869  1.00  0.00     0.017 A 
ATOM     28  Br  UNL A   1      41.157  22.555  27.980  1.00  0.00    -0.051 Br
ENDBRANCH  21  22
ENDBRANCH  16  21
ENDBRANCH   8   9
ENDBRANCH   5   8
ENDBRANCH   3   4
ENDBRANCH   2   3
ENDBRANCH   1   2
BRANCH   1  29
ATOM     29  C   UNL A   1      32.279  28.389  27.331  1.00  0.00     0.002 C 
BRANCH  29  30
ATOM     30  C   UNL A   1      33.651  28.158  26.688  1.00  0.00     0.021 C 
BRANCH  30  31
ATOM     31  C   UNL A   1      34.251  29.404  26.033  1.00  0.00     0.116 C 
BRANCH  31  32
ATOM     32  N   UNL A   1      34.114  30.602  26.837  1.00  0.00    -0.352 N 
ATOM     33  C   UNL A   1      34.931  31.279  27.696  1.00  0.00     0.251 C 
ATOM     34  H   UNL A   1      33.229  31.023  26.743  1.00  0.00     0.163 HD
ATOM     35  O   UNL A   1      34.501  32.357  28.119  1.00  0.00    -0.269 OA
BRANCH  33  36
ATOM     36  C   UNL A   1      36.246  30.792  28.199  1.00  0.00     0.039 A 
ATOM     37  C   UNL A   1      37.279  31.591  28.688  1.00  0.00     0.014 A 
ATOM     38  C   UNL A   1      36.467  29.404  28.097  1.00  0.00     0.014 A 
ATOM     39  C   UNL A   1      38.529  31.044  28.957  1.00  0.00     0.010 A 
ATOM     40  C   UNL A   1      37.708  28.847  28.387  1.00  0.00     0.010 A 
ATOM     41  C   UNL A   1      38.756  29.681  28.760  1.00  0.00    -0.014 A 
BRANCH  41  42
ATOM     42  C   UNL A   1      40.108  29.183  28.990  1.00  0.00     0.031 A 
ATOM     43  C   UNL A   1      40.470  28.911  30.411  1.00  0.00     0.074 A 
ATOM     44  C   UNL A   1      40.972  28.919  27.990  1.00  0.00     0.049 A 
ATOM     45  N   UNL A   1      41.436  29.425  31.104  1.00  0.00    -0.248 NA
ATOM     46  C   UNL A   1      39.598  28.011  31.181  1.00  0.00     0.031 C 
ATOM     47  C   UNL A   1      40.714  28.886  26.548  1.00  0.00     0.029 A 
ATOM     48  N   UNL A   1      42.275  28.525  28.077  1.00  0.00    -0.354 N 
ATOM     49  C   UNL A   1      41.385  28.818  32.358  1.00  0.00     0.074 A 
ATOM     50  C   UNL A   1      40.179  28.032  32.381  1.00  0.00     0.031 C 
ATOM     51  C   UNL A   1      41.747  28.275  25.926  1.00  0.00     0.029 A 
ATOM     52  C   UNL A   1      42.786  27.999  26.902  1.00  0.00     0.049 A 
ATOM     53  H   UNL A   1      42.805  28.608  28.902  1.00  0.00     0.167 HD
ATOM     54  C   UNL A   1      42.429  28.879  33.233  1.00  0.00     0.037 A 
ATOM     55  C   UNL A   1      43.947  27.312  26.763  1.00  0.00     0.037 A 
ATOM     56  C   UNL A   1      43.315  29.968  32.924  1.00  0.00     0.049 A 
ATOM     57  C   UNL A   1      44.816  27.658  27.917  1.00  0.00     0.074 A 
ATOM     58  C   UNL A   1      43.178  31.341  32.876  1.00  0.00     0.029 A 
ATOM     59  N   UNL A   1      44.499  29.696  32.286  1.00  0.00    -0.354 N 
ATOM     60  N   UNL A   1      45.351  28.834  28.099  1.00  0.00    -0.248 NA
ATOM     61  C   UNL A   1      44.729  26.820  29.103  1.00  0.00     0.031 C 
ATOM     62  C   UNL A   1      44.001  31.754  31.788  1.00  0.00     0.029 A 
ATOM     63  C   UNL A   1      44.619  30.613  31.276  1.00  0.00     0.049 A 
ATOM     64  H   UNL A   1      45.138  28.980  32.510  1.00  0.00     0.167 HD
ATOM     65  C   UNL A   1      45.269  29.048  29.466  1.00  0.00     0.074 A 
ATOM     66  C   UNL A   1      44.962  27.742  30.042  1.00  0.00     0.031 C 
ATOM     67  C   UNL A   1      45.178  30.308  29.982  1.00  0.00     0.037 A 
BRANCH  54  68
ATOM     68  C   UNL A   1      42.821  27.774  34.182  1.00  0.00     0.064 A 
ATOM     69  C   UNL A   1      43.384  26.586  33.669  1.00  0.00     0.173 A 
ATOM     70  C   UNL A   1      42.380  27.708  35.520  1.00  0.00     0.173 A 
ATOM     71  F   UNL A   1      43.829  26.529  32.404  1.00  0.00    -0.203 F 
ATOM     72  C   UNL A   1      43.415  25.402  34.411  1.00  0.00     0.198 A 
ATOM     73  C   UNL A   1      42.460  26.539  36.274  1.00  0.00     0.198 A 
ATOM     74  F   UNL A   1      41.756  28.734  36.112  1.00  0.00    -0.203 F 
ATOM     75  F   UNL A   1      43.837  24.268  33.836  1.00  0.00    -0.200 F 
ATOM     76  C   UNL A   1      42.944  25.377  35.709  1.00  0.00     0.200 A 
ATOM     77  F   UNL A   1      41.985  26.530  37.527  1.00  0.00    -0.200 F 
ATOM     78  F   UNL A   1      42.909  24.230  36.399  1.00  0.00    -0.200 F 
ENDBRANCH  54  68
BRANCH  55  79
ATOM     79  C   UNL A   1      44.194  26.144  25.885  1.00  0.00     0.064 A 
ATOM     80  C   UNL A   1      45.475  25.859  25.389  1.00  0.00     0.173 A 
ATOM     81  C   UNL A   1      43.223  25.135  25.723  1.00  0.00     0.173 A 
ATOM     82  F   UNL A   1      46.473  26.739  25.550  1.00  0.00    -0.203 F 
ATOM     83  C   UNL A   1      45.768  24.634  24.777  1.00  0.00     0.198 A 
ATOM     84  C   UNL A   1      43.512  23.919  25.103  1.00  0.00     0.198 A 
ATOM     85  F   UNL A   1      41.995  25.267  26.246  1.00  0.00    -0.203 F 
ATOM     86  F   UNL A   1      47.017  24.373  24.367  1.00  0.00    -0.200 F 
ATOM     87  C   UNL A   1      44.788  23.663  24.640  1.00  0.00     0.200 A 
ATOM     88  F   UNL A   1      42.563  22.977  25.014  1.00  0.00    -0.200 F 
ATOM     89  F   UNL A   1      45.080  22.471  24.103  1.00  0.00    -0.200 F 
ENDBRANCH  55  79
BRANCH  67  90
ATOM     90  C   UNL A   1      45.405  31.474  29.063  1.00  0.00     0.064 A 
ATOM     91  C   UNL A   1      46.669  32.037  28.822  1.00  0.00     0.173 A 
ATOM     92  C   UNL A   1      44.342  31.904  28.255  1.00  0.00     0.173 A 
ATOM     93  F   UNL A   1      47.754  31.604  29.476  1.00  0.00    -0.203 F 
ATOM     94  C   UNL A   1      46.852  33.010  27.841  1.00  0.00     0.198 A 
ATOM     95  C   UNL A   1      44.536  32.849  27.251  1.00  0.00     0.198 A 
ATOM     96  F   UNL A   1      43.125  31.357  28.397  1.00  0.00    -0.203 F 
ATOM     97  F   UNL A   1      48.071  33.529  27.628  1.00  0.00    -0.200 F 
ATOM     98  C   UNL A   1      45.788  33.406  27.050  1.00  0.00     0.200 A 
ATOM     99  F   UNL A   1      43.515  33.189  26.452  1.00  0.00    -0.200 F 
ATOM    100  F   UNL A   1      45.975  34.300  26.067  1.00  0.00    -0.200 F 
ENDBRANCH  67  90
ENDBRANCH  41  42
ENDBRANCH  33  36
ENDBRANCH  31  32
ENDBRANCH  30  31
ENDBRANCH  29  30
ENDBRANCH   1  29
TORSDOF 17
ENDMDL
