MODEL 1
REMARK VINA RESULT:     -14.1      0.000      0.000
REMARK SMILES O=C1C[C@H](c2cn[nH]c2C(=O)NCCCCCCNC(=O)c2ccc(-c3c4nc(c(-c5c(F)c(F)c(F)c(F)c5F)c5ccc([nH]5)c(-c5c(F)c(F)c(F)c(F)c5F)c5nc(c(-c6c(F)c(F)c(F)c(F)c6F)c6ccc3[nH]6)C=C5)C=C4)cc2)c2c(-c3cccs3)n[nH]c2N1
REMARK SMILES IDX 15 1 14 2 13 3 12 4 10 5 11 6 9 8 5 9 6 10 7 11 8 12 4 14
REMARK SMILES IDX 1 15 2 16 3 17 95 18 94 19 85 21 93 22 86 23 92 24 87 26
REMARK SMILES IDX 88 27 91 28 89 29 90 30 16 31 17 32 18 33 19 34 20 35 21 37
REMARK SMILES IDX 22 38 23 39 84 40 24 41 83 42 25 43 26 44 27 45 77 46 28 47
REMARK SMILES IDX 82 48 76 49 78 50 29 51 81 52 75 53 74 54 30 56 62 57 42 58
REMARK SMILES IDX 61 59 43 60 46 61 60 62 79 63 44 64 45 65 59 67 80 68 47 69
REMARK SMILES IDX 31 70 32 71 40 72 33 73 34 74 38 75 41 76 35 77 36 78 39 79
REMARK SMILES IDX 37 80 63 81 64 82 72 83 65 84 66 85 70 86 73 87 67 88 68 89
REMARK SMILES IDX 71 90 69 91 48 92 49 93 57 94 50 95 51 96 55 97 58 98 52 99
REMARK SMILES IDX 53 100 56 101 54 102
REMARK H PARENT 12 7 8 13 95 20 93 25 19 36 78 55 46 66
REMARK Flexibility Score: inf
ROOT
ATOM      1  C   UNL A   1      40.096  21.461  26.598  1.00  0.00     0.002 C 
ENDROOT
BRANCH   1   2
ATOM      2  C   UNL A   1      39.822  22.962  26.478  1.00  0.00     0.021 C 
BRANCH   2   3
ATOM      3  C   UNL A   1      38.128  23.359  26.309  1.00  0.00     0.116 C 
BRANCH   3   4
ATOM      4  N   UNL A   1      36.467  22.025  25.954  1.00  0.00    -0.351 N 
ATOM      5  C   UNL A   1      35.123  21.570  25.960  1.00  0.00     0.269 C 
ATOM      6  O   UNL A   1      34.929  20.469  25.439  1.00  0.00    -0.268 OA
ATOM      7  H   UNL A   1      36.922  21.265  25.525  1.00  0.00     0.163 HD
BRANCH   5   8
ATOM      8  C   UNL A   1      34.012  22.350  26.449  1.00  0.00     0.126 A 
ATOM      9  C   UNL A   1      33.269  23.373  25.881  1.00  0.00     0.011 A 
ATOM     10  C   UNL A   1      32.254  23.643  26.817  1.00  0.00     0.140 A 
ATOM     11  N   UNL A   1      32.355  22.881  27.908  1.00  0.00    -0.183 NA
ATOM     12  N   UNL A   1      33.426  22.107  27.658  1.00  0.00    -0.273 N 
ATOM     13  H   UNL A   1      33.757  21.428  28.289  1.00  0.00     0.190 HD
BRANCH   9  14
ATOM     14  C   UNL A   1      33.519  23.961  24.538  1.00  0.00     0.069 C 
ATOM     15  O   UNL A   1      32.412  21.515  21.816  1.00  0.00    -0.275 OA
ATOM     16  C   UNL A   1      32.291  22.358  22.714  1.00  0.00     0.226 C 
ATOM     17  C   UNL A   1      33.572  22.899  23.415  1.00  0.00     0.114 C 
ATOM     18  N   UNL A   1      31.029  22.831  22.983  1.00  0.00    -0.311 N 
ATOM     19  C   UNL A   1      30.929  24.013  23.651  1.00  0.00     0.132 A 
ATOM     20  H   UNL A   1      30.227  22.335  22.703  1.00  0.00     0.171 HD
ATOM     21  C   UNL A   1      32.358  24.818  24.302  1.00  0.00     0.031 A 
ATOM     22  N   UNL A   1      29.481  25.142  23.887  1.00  0.00    -0.262 N 
ATOM     23  C   UNL A   1      31.806  26.559  24.971  1.00  0.00     0.108 A 
ATOM     24  N   UNL A   1      30.068  26.744  24.689  1.00  0.00    -0.173 NA
ATOM     25  H   UNL A   1      28.553  24.939  23.633  1.00  0.00     0.192 HD
BRANCH  23  26
ATOM     26  C   UNL A   1      32.654  27.382  25.867  1.00  0.00     0.055 A 
ATOM     27  C   UNL A   1      33.936  27.761  25.550  1.00  0.00     0.022 A 
ATOM     28  S   UNL A   1      32.091  28.081  27.309  1.00  0.00    -0.142 S 
ATOM     29  C   UNL A   1      34.436  28.719  26.483  1.00  0.00     0.012 A 
ATOM     30  C   UNL A   1      33.559  28.934  27.526  1.00  0.00     0.065 A 
ENDBRANCH  23  26
ENDBRANCH   9  14
ENDBRANCH   5   8
ENDBRANCH   3   4
ENDBRANCH   2   3
ENDBRANCH   1   2
BRANCH   1  31
ATOM     31  C   UNL A   1      41.130  21.053  27.654  1.00  0.00     0.002 C 
BRANCH  31  32
ATOM     32  C   UNL A   1      41.993  19.828  27.303  1.00  0.00     0.021 C 
BRANCH  32  33
ATOM     33  C   UNL A   1      42.274  19.719  25.817  1.00  0.00     0.116 C 
BRANCH  33  34
ATOM     34  N   UNL A   1      43.713  19.745  25.540  1.00  0.00    -0.352 N 
ATOM     35  C   UNL A   1      44.523  20.808  25.213  1.00  0.00     0.251 C 
ATOM     36  H   UNL A   1      44.166  18.873  25.595  1.00  0.00     0.163 HD
ATOM     37  O   UNL A   1      45.619  20.650  24.694  1.00  0.00    -0.269 OA
BRANCH  35  38
ATOM     38  C   UNL A   1      44.081  22.138  25.621  1.00  0.00     0.039 A 
ATOM     39  C   UNL A   1      43.276  22.988  24.863  1.00  0.00     0.014 A 
ATOM     40  C   UNL A   1      44.623  22.598  26.805  1.00  0.00     0.014 A 
ATOM     41  C   UNL A   1      43.097  24.288  25.341  1.00  0.00     0.010 A 
ATOM     42  C   UNL A   1      43.939  23.555  27.454  1.00  0.00     0.010 A 
ATOM     43  C   UNL A   1      43.566  24.582  26.630  1.00  0.00    -0.014 A 
BRANCH  43  44
ATOM     44  C   UNL A   1      43.363  25.808  27.365  1.00  0.00     0.031 A 
ATOM     45  C   UNL A   1      44.361  26.823  26.941  1.00  0.00     0.074 A 
ATOM     46  C   UNL A   1      42.255  26.006  28.123  1.00  0.00     0.049 A 
ATOM     47  N   UNL A   1      45.462  27.084  27.561  1.00  0.00    -0.248 NA
ATOM     48  C   UNL A   1      44.340  27.355  25.561  1.00  0.00     0.031 C 
ATOM     49  C   UNL A   1      41.094  25.136  28.371  1.00  0.00     0.029 A 
ATOM     50  N   UNL A   1      41.941  27.107  28.868  1.00  0.00    -0.354 N 
ATOM     51  C   UNL A   1      46.108  28.039  26.790  1.00  0.00     0.074 A 
ATOM     52  C   UNL A   1      45.546  27.926  25.477  1.00  0.00     0.031 C 
ATOM     53  C   UNL A   1      40.113  25.830  29.006  1.00  0.00     0.029 A 
ATOM     54  C   UNL A   1      40.617  27.146  29.343  1.00  0.00     0.049 A 
ATOM     55  H   UNL A   1      42.592  27.821  29.059  1.00  0.00     0.167 HD
ATOM     56  C   UNL A   1      46.785  29.050  27.399  1.00  0.00     0.037 A 
ATOM     57  C   UNL A   1      40.045  28.220  29.966  1.00  0.00     0.037 A 
ATOM     58  C   UNL A   1      46.965  28.732  28.799  1.00  0.00     0.049 A 
ATOM     59  C   UNL A   1      41.187  29.043  30.477  1.00  0.00     0.074 A 
ATOM     60  C   UNL A   1      47.638  27.732  29.473  1.00  0.00     0.029 A 
ATOM     61  N   UNL A   1      45.991  29.189  29.658  1.00  0.00    -0.354 N 
ATOM     62  N   UNL A   1      42.016  28.596  31.387  1.00  0.00    -0.248 NA
ATOM     63  C   UNL A   1      41.736  30.027  29.546  1.00  0.00     0.031 C 
ATOM     64  C   UNL A   1      46.741  27.315  30.503  1.00  0.00     0.029 A 
ATOM     65  C   UNL A   1      45.642  28.174  30.515  1.00  0.00     0.049 A 
ATOM     66  H   UNL A   1      45.608  30.096  29.659  1.00  0.00     0.167 HD
ATOM     67  C   UNL A   1      43.278  28.883  30.881  1.00  0.00     0.074 A 
ATOM     68  C   UNL A   1      43.034  29.765  29.733  1.00  0.00     0.031 C 
ATOM     69  C   UNL A   1      44.366  28.120  31.198  1.00  0.00     0.037 A 
BRANCH  56  70
ATOM     70  C   UNL A   1      46.885  30.467  26.886  1.00  0.00     0.064 A 
ATOM     71  C   UNL A   1      48.138  31.109  26.942  1.00  0.00     0.173 A 
ATOM     72  C   UNL A   1      45.786  31.312  26.614  1.00  0.00     0.173 A 
ATOM     73  F   UNL A   1      49.255  30.406  27.188  1.00  0.00    -0.203 F 
ATOM     74  C   UNL A   1      48.268  32.495  26.832  1.00  0.00     0.198 A 
ATOM     75  C   UNL A   1      45.925  32.691  26.459  1.00  0.00     0.198 A 
ATOM     76  F   UNL A   1      44.525  30.873  26.586  1.00  0.00    -0.203 F 
ATOM     77  F   UNL A   1      49.465  33.067  27.015  1.00  0.00    -0.200 F 
ATOM     78  C   UNL A   1      47.158  33.287  26.600  1.00  0.00     0.200 A 
ATOM     79  F   UNL A   1      44.834  33.441  26.249  1.00  0.00    -0.200 F 
ATOM     80  F   UNL A   1      47.269  34.619  26.552  1.00  0.00    -0.200 F 
ENDBRANCH  56  70
BRANCH  57  81
ATOM     81  C   UNL A   1      38.687  28.800  29.743  1.00  0.00     0.064 A 
ATOM     82  C   UNL A   1      37.796  29.083  30.800  1.00  0.00     0.173 A 
ATOM     83  C   UNL A   1      38.350  29.360  28.496  1.00  0.00     0.173 A 
ATOM     84  F   UNL A   1      38.050  28.634  32.038  1.00  0.00    -0.203 F 
ATOM     85  C   UNL A   1      36.659  29.891  30.618  1.00  0.00     0.198 A 
ATOM     86  C   UNL A   1      37.223  30.169  28.318  1.00  0.00     0.198 A 
ATOM     87  F   UNL A   1      39.158  29.202  27.440  1.00  0.00    -0.203 F 
ATOM     88  F   UNL A   1      35.857  30.174  31.656  1.00  0.00    -0.200 F 
ATOM     89  C   UNL A   1      36.384  30.445  29.379  1.00  0.00     0.200 A 
ATOM     90  F   UNL A   1      36.988  30.721  27.121  1.00  0.00    -0.200 F 
ATOM     91  F   UNL A   1      35.336  31.265  29.215  1.00  0.00    -0.200 F 
ENDBRANCH  57  81
BRANCH  69  92
ATOM     92  C   UNL A   1      44.209  27.046  32.249  1.00  0.00     0.064 A 
ATOM     93  C   UNL A   1      44.119  25.665  31.993  1.00  0.00     0.173 A 
ATOM     94  C   UNL A   1      44.329  27.433  33.589  1.00  0.00     0.173 A 
ATOM     95  F   UNL A   1      44.111  25.194  30.743  1.00  0.00    -0.203 F 
ATOM     96  C   UNL A   1      44.103  24.727  33.029  1.00  0.00     0.198 A 
ATOM     97  C   UNL A   1      44.349  26.496  34.619  1.00  0.00     0.198 A 
ATOM     98  F   UNL A   1      44.490  28.728  33.896  1.00  0.00    -0.203 F 
ATOM     99  F   UNL A   1      44.014  23.416  32.754  1.00  0.00    -0.200 F 
ATOM    100  C   UNL A   1      44.222  25.145  34.342  1.00  0.00     0.200 A 
ATOM    101  F   UNL A   1      44.528  26.907  35.881  1.00  0.00    -0.200 F 
ATOM    102  F   UNL A   1      44.240  24.249  35.339  1.00  0.00    -0.200 F 
ENDBRANCH  69  92
ENDBRANCH  43  44
ENDBRANCH  35  38
ENDBRANCH  33  34
ENDBRANCH  32  33
ENDBRANCH  31  32
ENDBRANCH   1  31
TORSDOF 15
ENDMDL
MODEL 2
REMARK VINA RESULT:     -13.7      2.563      3.731
REMARK SMILES O=C1C[C@H](c2cn[nH]c2C(=O)NCCCCCCNC(=O)c2ccc(-c3c4nc(c(-c5c(F)c(F)c(F)c(F)c5F)c5ccc([nH]5)c(-c5c(F)c(F)c(F)c(F)c5F)c5nc(c(-c6c(F)c(F)c(F)c(F)c6F)c6ccc3[nH]6)C=C5)C=C4)cc2)c2c(-c3cccs3)n[nH]c2N1
REMARK SMILES IDX 15 1 14 2 13 3 12 4 10 5 11 6 9 8 5 9 6 10 7 11 8 12 4 14
REMARK SMILES IDX 1 15 2 16 3 17 95 18 94 19 85 21 93 22 86 23 92 24 87 26
REMARK SMILES IDX 88 27 91 28 89 29 90 30 16 31 17 32 18 33 19 34 20 35 21 37
REMARK SMILES IDX 22 38 23 39 84 40 24 41 83 42 25 43 26 44 27 45 77 46 28 47
REMARK SMILES IDX 82 48 76 49 78 50 29 51 81 52 75 53 74 54 30 56 62 57 42 58
REMARK SMILES IDX 61 59 43 60 46 61 60 62 79 63 44 64 45 65 59 67 80 68 47 69
REMARK SMILES IDX 31 70 32 71 40 72 33 73 34 74 38 75 41 76 35 77 36 78 39 79
REMARK SMILES IDX 37 80 63 81 64 82 72 83 65 84 66 85 70 86 73 87 67 88 68 89
REMARK SMILES IDX 71 90 69 91 48 92 49 93 57 94 50 95 51 96 55 97 58 98 52 99
REMARK SMILES IDX 53 100 56 101 54 102
REMARK H PARENT 12 7 8 13 95 20 93 25 19 36 78 55 46 66
REMARK Flexibility Score: inf
ROOT
ATOM      1  C   UNL A   1      36.280  22.638  25.708  1.00  0.00     0.002 C 
ENDROOT
BRANCH   1   2
ATOM      2  C   UNL A   1      35.068  22.003  26.392  1.00  0.00     0.021 C 
BRANCH   2   3
ATOM      3  C   UNL A   1      34.060  23.147  27.247  1.00  0.00     0.116 C 
BRANCH   3   4
ATOM      4  N   UNL A   1      31.909  23.337  27.199  1.00  0.00    -0.351 N 
ATOM      5  C   UNL A   1      30.644  23.851  26.812  1.00  0.00     0.269 C 
ATOM      6  O   UNL A   1      29.665  23.296  27.316  1.00  0.00    -0.268 OA
ATOM      7  H   UNL A   1      31.642  22.636  27.837  1.00  0.00     0.163 HD
BRANCH   5   8
ATOM      8  C   UNL A   1      30.466  24.892  25.829  1.00  0.00     0.126 A 
ATOM      9  C   UNL A   1      31.321  25.441  24.887  1.00  0.00     0.011 A 
ATOM     10  C   UNL A   1      30.522  26.339  24.156  1.00  0.00     0.140 A 
ATOM     11  N   UNL A   1      29.268  26.386  24.610  1.00  0.00    -0.183 NA
ATOM     12  N   UNL A   1      29.261  25.500  25.621  1.00  0.00    -0.273 N 
ATOM     13  H   UNL A   1      28.461  25.308  26.161  1.00  0.00     0.190 HD
BRANCH   9  14
ATOM     14  C   UNL A   1      32.748  25.062  24.711  1.00  0.00     0.069 C 
ATOM     15  O   UNL A   1      33.081  22.487  21.906  1.00  0.00    -0.275 OA
ATOM     16  C   UNL A   1      32.920  23.599  22.423  1.00  0.00     0.226 C 
ATOM     17  C   UNL A   1      32.929  23.714  23.977  1.00  0.00     0.114 C 
ATOM     18  N   UNL A   1      32.827  24.687  21.589  1.00  0.00    -0.311 N 
ATOM     19  C   UNL A   1      33.060  25.915  22.128  1.00  0.00     0.132 A 
ATOM     20  H   UNL A   1      32.601  24.583  20.638  1.00  0.00     0.171 HD
ATOM     21  C   UNL A   1      33.297  26.121  23.865  1.00  0.00     0.031 A 
ATOM     22  N   UNL A   1      33.381  27.545  21.312  1.00  0.00    -0.262 N 
ATOM     23  C   UNL A   1      33.816  27.969  24.179  1.00  0.00     0.108 A 
ATOM     24  N   UNL A   1      33.883  28.806  22.621  1.00  0.00    -0.173 NA
ATOM     25  H   UNL A   1      33.303  27.726  20.348  1.00  0.00     0.192 HD
BRANCH  23  26
ATOM     26  C   UNL A   1      33.791  28.593  25.524  1.00  0.00     0.055 A 
ATOM     27  C   UNL A   1      34.761  28.375  26.473  1.00  0.00     0.022 A 
ATOM     28  S   UNL A   1      32.657  29.768  25.990  1.00  0.00    -0.142 S 
ATOM     29  C   UNL A   1      34.606  29.261  27.581  1.00  0.00     0.012 A 
ATOM     30  C   UNL A   1      33.464  30.028  27.477  1.00  0.00     0.065 A 
ENDBRANCH  23  26
ENDBRANCH   9  14
ENDBRANCH   5   8
ENDBRANCH   3   4
ENDBRANCH   2   3
ENDBRANCH   1   2
BRANCH   1  31
ATOM     31  C   UNL A   1      37.114  21.704  24.823  1.00  0.00     0.002 C 
BRANCH  31  32
ATOM     32  C   UNL A   1      38.505  21.337  25.367  1.00  0.00     0.021 C 
BRANCH  32  33
ATOM     33  C   UNL A   1      38.968  22.272  26.468  1.00  0.00     0.116 C 
BRANCH  33  34
ATOM     34  N   UNL A   1      40.371  22.036  26.818  1.00  0.00    -0.352 N 
ATOM     35  C   UNL A   1      41.391  22.939  27.008  1.00  0.00     0.251 C 
ATOM     36  H   UNL A   1      40.621  21.090  26.934  1.00  0.00     0.163 HD
ATOM     37  O   UNL A   1      42.566  22.605  26.973  1.00  0.00    -0.269 OA
BRANCH  35  38
ATOM     38  C   UNL A   1      41.019  24.302  27.378  1.00  0.00     0.039 A 
ATOM     39  C   UNL A   1      39.874  24.971  26.946  1.00  0.00     0.014 A 
ATOM     40  C   UNL A   1      41.964  24.985  28.117  1.00  0.00     0.014 A 
ATOM     41  C   UNL A   1      39.772  26.326  27.266  1.00  0.00     0.010 A 
ATOM     42  C   UNL A   1      41.523  26.014  28.861  1.00  0.00     0.010 A 
ATOM     43  C   UNL A   1      40.715  26.863  28.154  1.00  0.00    -0.014 A 
BRANCH  43  44
ATOM     44  C   UNL A   1      40.710  28.191  28.721  1.00  0.00     0.031 A 
ATOM     45  C   UNL A   1      41.819  28.991  28.142  1.00  0.00     0.074 A 
ATOM     46  C   UNL A   1      39.671  28.640  29.470  1.00  0.00     0.049 A 
ATOM     47  N   UNL A   1      42.969  29.174  28.697  1.00  0.00    -0.248 NA
ATOM     48  C   UNL A   1      41.815  29.336  26.704  1.00  0.00     0.031 C 
ATOM     49  C   UNL A   1      38.413  27.980  29.859  1.00  0.00     0.029 A 
ATOM     50  N   UNL A   1      39.540  29.862  30.066  1.00  0.00    -0.354 N 
ATOM     51  C   UNL A   1      43.708  29.920  27.789  1.00  0.00     0.074 A 
ATOM     52  C   UNL A   1      43.082  29.717  26.517  1.00  0.00     0.031 C 
ATOM     53  C   UNL A   1      37.563  28.883  30.416  1.00  0.00     0.029 A 
ATOM     54  C   UNL A   1      38.254  30.148  30.560  1.00  0.00     0.049 A 
ATOM     55  H   UNL A   1      40.290  30.495  30.145  1.00  0.00     0.167 HD
ATOM     56  C   UNL A   1      44.540  30.898  28.242  1.00  0.00     0.037 A 
ATOM     57  C   UNL A   1      37.860  31.363  31.046  1.00  0.00     0.037 A 
ATOM     58  C   UNL A   1      44.731  30.742  29.668  1.00  0.00     0.049 A 
ATOM     59  C   UNL A   1      39.123  32.078  31.415  1.00  0.00     0.074 A 
ATOM     60  C   UNL A   1      45.289  29.755  30.455  1.00  0.00     0.029 A 
ATOM     61  N   UNL A   1      43.865  31.440  30.479  1.00  0.00    -0.354 N 
ATOM     62  N   UNL A   1      39.919  31.641  32.358  1.00  0.00    -0.248 NA
ATOM     63  C   UNL A   1      39.762  32.844  30.348  1.00  0.00     0.031 C 
ATOM     64  C   UNL A   1      44.386  29.606  31.551  1.00  0.00     0.029 A 
ATOM     65  C   UNL A   1      43.415  30.604  31.472  1.00  0.00     0.049 A 
ATOM     66  H   UNL A   1      43.609  32.384  30.365  1.00  0.00     0.167 HD
ATOM     67  C   UNL A   1      41.186  31.680  31.791  1.00  0.00     0.074 A 
ATOM     68  C   UNL A   1      41.019  32.429  30.540  1.00  0.00     0.031 C 
ATOM     69  C   UNL A   1      42.173  30.820  32.184  1.00  0.00     0.037 A 
BRANCH  56  70
ATOM     70  C   UNL A   1      44.811  32.207  27.540  1.00  0.00     0.064 A 
ATOM     71  C   UNL A   1      46.033  32.354  26.853  1.00  0.00     0.173 A 
ATOM     72  C   UNL A   1      44.083  33.401  27.738  1.00  0.00     0.173 A 
ATOM     73  F   UNL A   1      46.807  31.287  26.602  1.00  0.00    -0.203 F 
ATOM     74  C   UNL A   1      46.529  33.605  26.483  1.00  0.00     0.198 A 
ATOM     75  C   UNL A   1      44.561  34.644  27.327  1.00  0.00     0.198 A 
ATOM     76  F   UNL A   1      42.936  33.444  28.422  1.00  0.00    -0.203 F 
ATOM     77  F   UNL A   1      47.751  33.702  25.943  1.00  0.00    -0.200 F 
ATOM     78  C   UNL A   1      45.797  34.752  26.729  1.00  0.00     0.200 A 
ATOM     79  F   UNL A   1      43.841  35.744  27.588  1.00  0.00    -0.200 F 
ATOM     80  F   UNL A   1      46.295  35.957  26.429  1.00  0.00    -0.200 F 
ENDBRANCH  56  70
BRANCH  57  81
ATOM     81  C   UNL A   1      36.584  32.093  30.776  1.00  0.00     0.064 A 
ATOM     82  C   UNL A   1      35.768  32.607  31.806  1.00  0.00     0.173 A 
ATOM     83  C   UNL A   1      36.292  32.556  29.479  1.00  0.00     0.173 A 
ATOM     84  F   UNL A   1      35.993  32.264  33.083  1.00  0.00    -0.203 F 
ATOM     85  C   UNL A   1      34.744  33.537  31.550  1.00  0.00     0.198 A 
ATOM     86  C   UNL A   1      35.279  33.486  29.227  1.00  0.00     0.198 A 
ATOM     87  F   UNL A   1      37.043  32.177  28.437  1.00  0.00    -0.203 F 
ATOM     88  F   UNL A   1      34.016  34.036  32.559  1.00  0.00    -0.200 F 
ATOM     89  C   UNL A   1      34.512  33.985  30.261  1.00  0.00     0.200 A 
ATOM     90  F   UNL A   1      35.087  33.932  27.978  1.00  0.00    -0.200 F 
ATOM     91  F   UNL A   1      33.579  34.917  30.019  1.00  0.00    -0.200 F 
ENDBRANCH  57  81
BRANCH  69  92
ATOM     92  C   UNL A   1      41.914  29.925  33.374  1.00  0.00     0.064 A 
ATOM     93  C   UNL A   1      41.519  28.576  33.305  1.00  0.00     0.173 A 
ATOM     94  C   UNL A   1      42.252  30.420  34.638  1.00  0.00     0.173 A 
ATOM     95  F   UNL A   1      41.282  27.985  32.131  1.00  0.00    -0.203 F 
ATOM     96  C   UNL A   1      41.423  27.781  34.451  1.00  0.00     0.198 A 
ATOM     97  C   UNL A   1      42.191  29.618  35.775  1.00  0.00     0.198 A 
ATOM     98  F   UNL A   1      42.705  31.676  34.762  1.00  0.00    -0.203 F 
ATOM     99  F   UNL A   1      41.041  26.498  34.355  1.00  0.00    -0.200 F 
ATOM    100  C   UNL A   1      41.763  28.304  35.686  1.00  0.00     0.200 A 
ATOM    101  F   UNL A   1      42.583  30.116  36.955  1.00  0.00    -0.200 F 
ATOM    102  F   UNL A   1      41.706  27.539  36.785  1.00  0.00    -0.200 F 
ENDBRANCH  69  92
ENDBRANCH  43  44
ENDBRANCH  35  38
ENDBRANCH  33  34
ENDBRANCH  32  33
ENDBRANCH  31  32
ENDBRANCH   1  31
TORSDOF 15
ENDMDL
MODEL 3
REMARK VINA RESULT:     -13.6      2.587      3.884
REMARK SMILES O=C1C[C@H](c2cn[nH]c2C(=O)NCCCCCCNC(=O)c2ccc(-c3c4nc(c(-c5c(F)c(F)c(F)c(F)c5F)c5ccc([nH]5)c(-c5c(F)c(F)c(F)c(F)c5F)c5nc(c(-c6c(F)c(F)c(F)c(F)c6F)c6ccc3[nH]6)C=C5)C=C4)cc2)c2c(-c3cccs3)n[nH]c2N1
REMARK SMILES IDX 15 1 14 2 13 3 12 4 10 5 11 6 9 8 5 9 6 10 7 11 8 12 4 14
REMARK SMILES IDX 1 15 2 16 3 17 95 18 94 19 85 21 93 22 86 23 92 24 87 26
REMARK SMILES IDX 88 27 91 28 89 29 90 30 16 31 17 32 18 33 19 34 20 35 21 37
REMARK SMILES IDX 22 38 23 39 84 40 24 41 83 42 25 43 26 44 27 45 77 46 28 47
REMARK SMILES IDX 82 48 76 49 78 50 29 51 81 52 75 53 74 54 30 56 62 57 42 58
REMARK SMILES IDX 61 59 43 60 46 61 60 62 79 63 44 64 45 65 59 67 80 68 47 69
REMARK SMILES IDX 31 70 32 71 40 72 33 73 34 74 38 75 41 76 35 77 36 78 39 79
REMARK SMILES IDX 37 80 63 81 64 82 72 83 65 84 66 85 70 86 73 87 67 88 68 89
REMARK SMILES IDX 71 90 69 91 48 92 49 93 57 94 50 95 51 96 55 97 58 98 52 99
REMARK SMILES IDX 53 100 56 101 54 102
REMARK H PARENT 12 7 8 13 95 20 93 25 19 36 78 55 46 66
REMARK Flexibility Score: inf
ROOT
ATOM      1  C   UNL A   1      38.768  22.212  26.165  1.00  0.00     0.002 C 
ENDROOT
BRANCH   1   2
ATOM      2  C   UNL A   1      38.457  23.683  26.450  1.00  0.00     0.021 C 
BRANCH   2   3
ATOM      3  C   UNL A   1      36.829  24.156  26.022  1.00  0.00     0.116 C 
BRANCH   3   4
ATOM      4  N   UNL A   1      35.730  23.698  24.220  1.00  0.00    -0.351 N 
ATOM      5  C   UNL A   1      34.744  23.843  23.211  1.00  0.00     0.269 C 
ATOM      6  O   UNL A   1      34.787  23.015  22.297  1.00  0.00    -0.268 OA
ATOM      7  H   UNL A   1      36.205  22.894  23.907  1.00  0.00     0.163 HD
BRANCH   5   8
ATOM      8  C   UNL A   1      33.791  24.926  23.167  1.00  0.00     0.126 A 
ATOM      9  C   UNL A   1      33.266  25.746  24.154  1.00  0.00     0.011 A 
ATOM     10  C   UNL A   1      32.472  26.678  23.461  1.00  0.00     0.140 A 
ATOM     11  N   UNL A   1      32.462  26.457  22.146  1.00  0.00    -0.183 NA
ATOM     12  N   UNL A   1      33.270  25.393  21.995  1.00  0.00    -0.273 N 
ATOM     13  H   UNL A   1      33.466  24.988  21.120  1.00  0.00     0.190 HD
BRANCH   9  14
ATOM     14  C   UNL A   1      33.574  25.635  25.604  1.00  0.00     0.069 C 
ATOM     15  O   UNL A   1      32.482  28.818  27.418  1.00  0.00    -0.275 OA
ATOM     16  C   UNL A   1      32.357  27.726  26.850  1.00  0.00     0.226 C 
ATOM     17  C   UNL A   1      33.631  27.007  26.315  1.00  0.00     0.114 C 
ATOM     18  N   UNL A   1      31.102  27.169  26.800  1.00  0.00    -0.311 N 
ATOM     19  C   UNL A   1      31.016  25.832  26.560  1.00  0.00     0.132 A 
ATOM     20  H   UNL A   1      30.295  27.715  26.933  1.00  0.00     0.171 HD
ATOM     21  C   UNL A   1      32.447  24.883  26.153  1.00  0.00     0.031 A 
ATOM     22  N   UNL A   1      29.595  24.662  26.762  1.00  0.00    -0.262 N 
ATOM     23  C   UNL A   1      31.926  23.009  26.112  1.00  0.00     0.108 A 
ATOM     24  N   UNL A   1      30.204  22.896  26.506  1.00  0.00    -0.173 NA
ATOM     25  H   UNL A   1      28.669  24.921  26.972  1.00  0.00     0.192 HD
BRANCH  23  26
ATOM     26  C   UNL A   1      32.769  21.953  25.502  1.00  0.00     0.055 A 
ATOM     27  C   UNL A   1      33.939  21.505  26.066  1.00  0.00     0.022 A 
ATOM     28  S   UNL A   1      32.312  21.067  24.127  1.00  0.00    -0.142 S 
ATOM     29  C   UNL A   1      34.427  20.347  25.390  1.00  0.00     0.012 A 
ATOM     30  C   UNL A   1      33.673  20.039  24.277  1.00  0.00     0.065 A 
ENDBRANCH  23  26
ENDBRANCH   9  14
ENDBRANCH   5   8
ENDBRANCH   3   4
ENDBRANCH   2   3
ENDBRANCH   1   2
BRANCH   1  31
ATOM     31  C   UNL A   1      40.254  21.834  26.144  1.00  0.00     0.002 C 
BRANCH  31  32
ATOM     32  C   UNL A   1      40.750  21.015  27.347  1.00  0.00     0.021 C 
BRANCH  32  33
ATOM     33  C   UNL A   1      41.617  21.828  28.290  1.00  0.00     0.116 C 
BRANCH  33  34
ATOM     34  N   UNL A   1      42.967  22.013  27.752  1.00  0.00    -0.352 N 
ATOM     35  C   UNL A   1      43.527  23.117  27.151  1.00  0.00     0.251 C 
ATOM     36  H   UNL A   1      43.561  21.232  27.833  1.00  0.00     0.163 HD
ATOM     37  O   UNL A   1      44.535  23.037  26.464  1.00  0.00    -0.269 OA
BRANCH  35  38
ATOM     38  C   UNL A   1      42.944  24.418  27.462  1.00  0.00     0.039 A 
ATOM     39  C   UNL A   1      41.909  25.028  26.754  1.00  0.00     0.014 A 
ATOM     40  C   UNL A   1      43.576  25.117  28.471  1.00  0.00     0.014 A 
ATOM     41  C   UNL A   1      41.598  26.346  27.092  1.00  0.00     0.010 A 
ATOM     42  C   UNL A   1      42.853  26.055  29.105  1.00  0.00     0.010 A 
ATOM     43  C   UNL A   1      42.201  26.889  28.236  1.00  0.00    -0.014 A 
BRANCH  43  44
ATOM     44  C   UNL A   1      41.916  28.170  28.839  1.00  0.00     0.031 A 
ATOM     45  C   UNL A   1      42.922  29.170  28.400  1.00  0.00     0.074 A 
ATOM     46  C   UNL A   1      40.749  28.403  29.492  1.00  0.00     0.049 A 
ATOM     47  N   UNL A   1      43.966  29.516  29.073  1.00  0.00    -0.248 NA
ATOM     48  C   UNL A   1      42.995  29.575  26.979  1.00  0.00     0.031 C 
ATOM     49  C   UNL A   1      39.591  27.526  29.732  1.00  0.00     0.029 A 
ATOM     50  N   UNL A   1      40.355  29.557  30.108  1.00  0.00    -0.354 N 
ATOM     51  C   UNL A   1      44.649  30.416  28.268  1.00  0.00     0.074 A 
ATOM     52  C   UNL A   1      44.190  30.171  26.933  1.00  0.00     0.031 C 
ATOM     53  C   UNL A   1      38.551  28.247  30.227  1.00  0.00     0.029 A 
ATOM     54  C   UNL A   1      38.999  29.601  30.477  1.00  0.00     0.049 A 
ATOM     55  H   UNL A   1      40.975  30.303  30.281  1.00  0.00     0.167 HD
ATOM     56  C   UNL A   1      45.255  31.497  28.831  1.00  0.00     0.037 A 
ATOM     57  C   UNL A   1      38.358  30.709  30.957  1.00  0.00     0.037 A 
ATOM     58  C   UNL A   1      45.334  31.310  30.264  1.00  0.00     0.049 A 
ATOM     59  C   UNL A   1      39.440  31.607  31.473  1.00  0.00     0.074 A 
ATOM     60  C   UNL A   1      45.975  30.394  31.074  1.00  0.00     0.029 A 
ATOM     61  N   UNL A   1      44.288  31.815  31.003  1.00  0.00    -0.354 N 
ATOM     62  N   UNL A   1      40.206  31.267  32.479  1.00  0.00    -0.248 NA
ATOM     63  C   UNL A   1      40.037  32.518  30.499  1.00  0.00     0.031 C 
ATOM     64  C   UNL A   1      45.011  30.046  32.068  1.00  0.00     0.029 A 
ATOM     65  C   UNL A   1      43.896  30.870  31.920  1.00  0.00     0.049 A 
ATOM     66  H   UNL A   1      43.887  32.707  30.893  1.00  0.00     0.167 HD
ATOM     67  C   UNL A   1      41.496  31.543  32.044  1.00  0.00     0.074 A 
ATOM     68  C   UNL A   1      41.323  32.311  30.805  1.00  0.00     0.031 C 
ATOM     69  C   UNL A   1      42.574  30.842  32.509  1.00  0.00     0.037 A 
BRANCH  56  70
ATOM     70  C   UNL A   1      45.363  32.864  28.199  1.00  0.00     0.064 A 
ATOM     71  C   UNL A   1      46.650  33.366  27.915  1.00  0.00     0.173 A 
ATOM     72  C   UNL A   1      44.317  33.809  28.122  1.00  0.00     0.173 A 
ATOM     73  F   UNL A   1      47.721  32.559  27.952  1.00  0.00    -0.203 F 
ATOM     74  C   UNL A   1      46.879  34.722  27.670  1.00  0.00     0.198 A 
ATOM     75  C   UNL A   1      44.544  35.154  27.832  1.00  0.00     0.198 A 
ATOM     76  F   UNL A   1      43.049  33.510  28.419  1.00  0.00    -0.203 F 
ATOM     77  F   UNL A   1      48.134  35.168  27.528  1.00  0.00    -0.200 F 
ATOM     78  C   UNL A   1      45.826  35.617  27.639  1.00  0.00     0.200 A 
ATOM     79  F   UNL A   1      43.510  36.007  27.821  1.00  0.00    -0.200 F 
ATOM     80  F   UNL A   1      46.048  36.925  27.463  1.00  0.00    -0.200 F 
ENDBRANCH  56  70
BRANCH  57  81
ATOM     81  C   UNL A   1      37.008  31.228  30.581  1.00  0.00     0.064 A 
ATOM     82  C   UNL A   1      36.055  31.635  31.539  1.00  0.00     0.173 A 
ATOM     83  C   UNL A   1      36.739  31.610  29.253  1.00  0.00     0.173 A 
ATOM     84  F   UNL A   1      36.241  31.360  32.838  1.00  0.00    -0.203 F 
ATOM     85  C   UNL A   1      34.922  32.389  31.186  1.00  0.00     0.198 A 
ATOM     86  C   UNL A   1      35.616  32.367  28.905  1.00  0.00     0.198 A 
ATOM     87  F   UNL A   1      37.609  31.327  28.275  1.00  0.00    -0.203 F 
ATOM     88  F   UNL A   1      34.058  32.794  32.129  1.00  0.00    -0.200 F 
ATOM     89  C   UNL A   1      34.713  32.766  29.870  1.00  0.00     0.200 A 
ATOM     90  F   UNL A   1      35.444  32.749  27.632  1.00  0.00    -0.200 F 
ATOM     91  F   UNL A   1      33.668  33.538  29.538  1.00  0.00    -0.200 F 
ENDBRANCH  57  81
BRANCH  69  92
ATOM     92  C   UNL A   1      42.360  29.863  33.640  1.00  0.00     0.064 A 
ATOM     93  C   UNL A   1      42.156  28.478  33.487  1.00  0.00     0.173 A 
ATOM     94  C   UNL A   1      42.543  30.334  34.944  1.00  0.00     0.173 A 
ATOM     95  F   UNL A   1      42.079  27.921  32.276  1.00  0.00    -0.203 F 
ATOM     96  C   UNL A   1      42.093  27.621  34.590  1.00  0.00     0.198 A 
ATOM     97  C   UNL A   1      42.516  29.475  36.040  1.00  0.00     0.198 A 
ATOM     98  F   UNL A   1      42.812  31.631  35.152  1.00  0.00    -0.203 F 
ATOM     99  F   UNL A   1      41.894  26.305  34.414  1.00  0.00    -0.200 F 
ATOM    100  C   UNL A   1      42.277  28.122  35.866  1.00  0.00     0.200 A 
ATOM    101  F   UNL A   1      42.758  29.960  37.264  1.00  0.00    -0.200 F 
ATOM    102  F   UNL A   1      42.250  27.301  36.926  1.00  0.00    -0.200 F 
ENDBRANCH  69  92
ENDBRANCH  43  44
ENDBRANCH  35  38
ENDBRANCH  33  34
ENDBRANCH  32  33
ENDBRANCH  31  32
ENDBRANCH   1  31
TORSDOF 15
ENDMDL
