MODEL 1
REMARK VINA RESULT:     -13.2      0.000      0.000
REMARK SMILES Cc1c(Cl)cccc1NC(=O)C[C@](C)(C(=O)NCCCCCCNC(=O)c1ccc(-c2c3nc(c(-c4c(F)c(F)c(F)c(F)c4F)c4ccc([nH]4)c(-c4c(F)c(F)c(F)c(F)c4F)c4nc(c(-c5c(F)c(F)c(F)c(F)c5F)c5ccc2[nH]5)C=C4)C=C3)cc1)c1ccccc1
REMARK SMILES IDX 20 1 19 2 18 3 17 4 15 5 16 6 13 8 14 9 12 10 10 11 9 12
REMARK SMILES IDX 11 14 8 15 1 16 2 17 3 18 4 19 5 20 7 21 6 22 90 23 91 24
REMARK SMILES IDX 95 25 92 26 94 27 93 28 21 29 22 30 23 31 24 32 25 33 26 35
REMARK SMILES IDX 27 36 28 37 89 38 29 39 88 40 30 41 31 42 32 43 82 44 33 45
REMARK SMILES IDX 87 46 81 47 83 48 34 49 86 50 80 51 79 52 35 54 67 55 47 56
REMARK SMILES IDX 66 57 48 58 51 59 65 60 84 61 49 62 50 63 64 65 85 66 52 67
REMARK SMILES IDX 36 68 37 69 45 70 38 71 39 72 43 73 46 74 40 75 41 76 44 77
REMARK SMILES IDX 42 78 68 79 69 80 77 81 70 82 71 83 75 84 78 85 72 86 73 87
REMARK SMILES IDX 76 88 74 89 53 90 54 91 62 92 55 93 56 94 60 95 63 96 57 97
REMARK SMILES IDX 58 98 61 99 59 100
REMARK H PARENT 17 7 9 13 24 34 83 53 51 64
REMARK Flexibility Score: inf
ROOT
ATOM      1  C   UNL A   1      39.243  21.711  26.120  1.00  0.00     0.002 C 
ENDROOT
BRANCH   1   2
ATOM      2  C   UNL A   1      38.865  23.187  26.278  1.00  0.00     0.021 C 
BRANCH   2   3
ATOM      3  C   UNL A   1      37.387  23.583  25.538  1.00  0.00     0.116 C 
BRANCH   3   4
ATOM      4  N   UNL A   1      35.618  22.501  25.282  1.00  0.00    -0.355 N 
ATOM      5  C   UNL A   1      34.218  22.364  25.064  1.00  0.00     0.230 C 
ATOM      6  O   UNL A   1      33.951  21.148  25.015  1.00  0.00    -0.274 OA
ATOM      7  H   UNL A   1      35.921  21.567  25.348  1.00  0.00     0.163 HD
BRANCH   5   8
ATOM      8  C   UNL A   1      33.031  23.455  24.956  1.00  0.00     0.080 C 
ATOM      9  C   UNL A   1      31.810  22.758  24.244  1.00  0.00     0.027 C 
BRANCH   8  10
ATOM     10  C   UNL A   1      32.610  24.164  26.293  1.00  0.00     0.121 C 
BRANCH  10  11
ATOM     11  C   UNL A   1      31.150  24.215  26.695  1.00  0.00     0.225 C 
ATOM     12  N   UNL A   1      30.411  25.344  26.501  1.00  0.00    -0.326 N 
ATOM     13  H   UNL A   1      29.631  25.501  27.083  1.00  0.00     0.169 HD
ATOM     14  O   UNL A   1      30.607  23.257  27.251  1.00  0.00    -0.275 OA
BRANCH  12  15
ATOM     15  C   UNL A   1      30.707  26.286  25.520  1.00  0.00     0.045 A 
ATOM     16  C   UNL A   1      32.333  27.800  27.351  1.00  0.00     0.048 C 
ATOM     17  C   UNL A   1      31.384  27.832  26.185  1.00  0.00    -0.009 A 
ATOM     18  C   UNL A   1      31.250  29.343  25.218  1.00  0.00     0.046 A 
ATOM     19  Cl  UNL A   1      31.869  30.828  25.834  1.00  0.00    -0.084 Cl
ATOM     20  C   UNL A   1      30.344  29.358  23.659  1.00  0.00     0.021 A 
ATOM     21  C   UNL A   1      29.893  26.249  23.879  1.00  0.00     0.026 A 
ATOM     22  C   UNL A   1      29.709  27.808  22.956  1.00  0.00     0.004 A 
ENDBRANCH  12  15
ENDBRANCH  10  11
ENDBRANCH   8  10
BRANCH   8  23
ATOM     23  C   UNL A   1      33.305  24.659  23.965  1.00  0.00    -0.032 A 
ATOM     24  C   UNL A   1      33.910  25.836  24.489  1.00  0.00     0.005 A 
ATOM     25  C   UNL A   1      32.973  24.679  22.608  1.00  0.00     0.005 A 
ATOM     26  C   UNL A   1      34.026  27.009  23.750  1.00  0.00     0.000 A 
ATOM     27  C   UNL A   1      33.101  25.856  21.858  1.00  0.00     0.000 A 
ATOM     28  C   UNL A   1      33.598  27.024  22.433  1.00  0.00     0.000 A 
ENDBRANCH   8  23
ENDBRANCH   5   8
ENDBRANCH   3   4
ENDBRANCH   2   3
ENDBRANCH   1   2
BRANCH   1  29
ATOM     29  C   UNL A   1      40.736  21.422  26.361  1.00  0.00     0.002 C 
BRANCH  29  30
ATOM     30  C   UNL A   1      41.100  19.967  26.068  1.00  0.00     0.021 C 
BRANCH  30  31
ATOM     31  C   UNL A   1      42.494  19.649  26.576  1.00  0.00     0.116 C 
BRANCH  31  32
ATOM     32  N   UNL A   1      43.316  19.093  25.495  1.00  0.00    -0.352 N 
ATOM     33  C   UNL A   1      44.101  19.755  24.606  1.00  0.00     0.251 C 
ATOM     34  H   UNL A   1      43.297  18.114  25.403  1.00  0.00     0.163 HD
ATOM     35  O   UNL A   1      44.548  19.231  23.599  1.00  0.00    -0.269 OA
BRANCH  33  36
ATOM     36  C   UNL A   1      44.386  21.135  24.960  1.00  0.00     0.039 A 
ATOM     37  C   UNL A   1      43.742  22.154  24.271  1.00  0.00     0.014 A 
ATOM     38  C   UNL A   1      45.128  21.352  26.127  1.00  0.00     0.014 A 
ATOM     39  C   UNL A   1      43.862  23.439  24.768  1.00  0.00     0.010 A 
ATOM     40  C   UNL A   1      45.114  22.602  26.695  1.00  0.00     0.010 A 
ATOM     41  C   UNL A   1      44.536  23.660  25.983  1.00  0.00    -0.014 A 
BRANCH  41  42
ATOM     42  C   UNL A   1      44.741  25.027  26.480  1.00  0.00     0.031 A 
ATOM     43  C   UNL A   1      46.094  25.653  26.317  1.00  0.00     0.074 A 
ATOM     44  C   UNL A   1      43.717  25.672  27.061  1.00  0.00     0.049 A 
ATOM     45  N   UNL A   1      46.494  26.846  26.659  1.00  0.00    -0.248 NA
ATOM     46  C   UNL A   1      47.154  24.813  25.728  1.00  0.00     0.031 C 
ATOM     47  C   UNL A   1      42.386  25.110  27.304  1.00  0.00     0.029 A 
ATOM     48  N   UNL A   1      43.633  26.951  27.534  1.00  0.00    -0.354 N 
ATOM     49  C   UNL A   1      47.842  26.890  26.333  1.00  0.00     0.074 A 
ATOM     50  C   UNL A   1      48.220  25.580  25.868  1.00  0.00     0.031 C 
ATOM     51  C   UNL A   1      41.598  26.063  27.825  1.00  0.00     0.029 A 
ATOM     52  C   UNL A   1      42.384  27.280  27.995  1.00  0.00     0.049 A 
ATOM     53  H   UNL A   1      44.394  27.575  27.544  1.00  0.00     0.167 HD
ATOM     54  C   UNL A   1      48.677  27.951  26.373  1.00  0.00     0.037 A 
ATOM     55  C   UNL A   1      41.936  28.447  28.489  1.00  0.00     0.037 A 
ATOM     56  C   UNL A   1      48.266  29.252  26.821  1.00  0.00     0.049 A 
ATOM     57  C   UNL A   1      42.894  29.605  28.549  1.00  0.00     0.074 A 
ATOM     58  C   UNL A   1      49.004  30.417  26.876  1.00  0.00     0.029 A 
ATOM     59  N   UNL A   1      46.996  29.552  27.297  1.00  0.00    -0.354 N 
ATOM     60  N   UNL A   1      44.151  29.664  28.175  1.00  0.00    -0.248 NA
ATOM     61  C   UNL A   1      42.367  30.863  29.090  1.00  0.00     0.031 C 
ATOM     62  C   UNL A   1      48.203  31.405  27.455  1.00  0.00     0.029 A 
ATOM     63  C   UNL A   1      46.939  30.880  27.680  1.00  0.00     0.049 A 
ATOM     64  H   UNL A   1      46.248  28.914  27.353  1.00  0.00     0.167 HD
ATOM     65  C   UNL A   1      44.556  30.972  28.402  1.00  0.00     0.074 A 
ATOM     66  C   UNL A   1      43.402  31.673  28.929  1.00  0.00     0.031 C 
ATOM     67  C   UNL A   1      45.768  31.546  28.196  1.00  0.00     0.037 A 
BRANCH  54  68
ATOM     68  C   UNL A   1      50.095  27.731  25.934  1.00  0.00     0.064 A 
ATOM     69  C   UNL A   1      50.454  27.680  24.576  1.00  0.00     0.173 A 
ATOM     70  C   UNL A   1      51.110  27.557  26.884  1.00  0.00     0.173 A 
ATOM     71  F   UNL A   1      49.519  27.816  23.623  1.00  0.00    -0.203 F 
ATOM     72  C   UNL A   1      51.767  27.424  24.189  1.00  0.00     0.198 A 
ATOM     73  C   UNL A   1      52.430  27.344  26.494  1.00  0.00     0.198 A 
ATOM     74  F   UNL A   1      50.824  27.588  28.195  1.00  0.00    -0.203 F 
ATOM     75  F   UNL A   1      52.070  27.306  22.889  1.00  0.00    -0.200 F 
ATOM     76  C   UNL A   1      52.755  27.265  25.148  1.00  0.00     0.200 A 
ATOM     77  F   UNL A   1      53.385  27.202  27.422  1.00  0.00    -0.200 F 
ATOM     78  F   UNL A   1      54.019  27.024  24.776  1.00  0.00    -0.200 F 
ENDBRANCH  54  68
BRANCH  55  79
ATOM     79  C   UNL A   1      40.523  28.577  28.927  1.00  0.00     0.064 A 
ATOM     80  C   UNL A   1      39.528  29.012  28.042  1.00  0.00     0.173 A 
ATOM     81  C   UNL A   1      40.136  28.266  30.239  1.00  0.00     0.173 A 
ATOM     82  F   UNL A   1      39.846  29.328  26.778  1.00  0.00    -0.203 F 
ATOM     83  C   UNL A   1      38.208  29.166  28.461  1.00  0.00     0.198 A 
ATOM     84  C   UNL A   1      38.811  28.386  30.648  1.00  0.00     0.198 A 
ATOM     85  F   UNL A   1      41.046  27.829  31.122  1.00  0.00    -0.203 F 
ATOM     86  F   UNL A   1      37.288  29.638  27.610  1.00  0.00    -0.200 F 
ATOM     87  C   UNL A   1      37.850  28.848  29.762  1.00  0.00     0.200 A 
ATOM     88  F   UNL A   1      38.466  28.054  31.899  1.00  0.00    -0.200 F 
ATOM     89  F   UNL A   1      36.580  28.994  30.164  1.00  0.00    -0.200 F 
ENDBRANCH  55  79
BRANCH  67  90
ATOM     90  C   UNL A   1      45.888  33.013  28.493  1.00  0.00     0.064 A 
ATOM     91  C   UNL A   1      45.600  33.992  27.532  1.00  0.00     0.173 A 
ATOM     92  C   UNL A   1      46.266  33.441  29.775  1.00  0.00     0.173 A 
ATOM     93  F   UNL A   1      45.243  33.634  26.288  1.00  0.00    -0.203 F 
ATOM     94  C   UNL A   1      45.728  35.344  27.830  1.00  0.00     0.198 A 
ATOM     95  C   UNL A   1      46.349  34.794  30.083  1.00  0.00     0.198 A 
ATOM     96  F   UNL A   1      46.540  32.545  30.736  1.00  0.00    -0.203 F 
ATOM     97  F   UNL A   1      45.517  36.261  26.875  1.00  0.00    -0.200 F 
ATOM     98  C   UNL A   1      46.094  35.745  29.106  1.00  0.00     0.200 A 
ATOM     99  F   UNL A   1      46.679  35.179  31.324  1.00  0.00    -0.200 F 
ATOM    100  F   UNL A   1      46.210  37.048  29.393  1.00  0.00    -0.200 F 
ENDBRANCH  67  90
ENDBRANCH  41  42
ENDBRANCH  33  36
ENDBRANCH  31  32
ENDBRANCH  30  31
ENDBRANCH  29  30
ENDBRANCH   1  29
TORSDOF 17
ENDMDL
MODEL 2
REMARK VINA RESULT:     -12.8      0.627      7.065
REMARK SMILES Cc1c(Cl)cccc1NC(=O)C[C@](C)(C(=O)NCCCCCCNC(=O)c1ccc(-c2c3nc(c(-c4c(F)c(F)c(F)c(F)c4F)c4ccc([nH]4)c(-c4c(F)c(F)c(F)c(F)c4F)c4nc(c(-c5c(F)c(F)c(F)c(F)c5F)c5ccc2[nH]5)C=C4)C=C3)cc1)c1ccccc1
REMARK SMILES IDX 20 1 19 2 18 3 17 4 15 5 16 6 13 8 14 9 12 10 10 11 9 12
REMARK SMILES IDX 11 14 8 15 1 16 2 17 3 18 4 19 5 20 7 21 6 22 90 23 91 24
REMARK SMILES IDX 95 25 92 26 94 27 93 28 21 29 22 30 23 31 24 32 25 33 26 35
REMARK SMILES IDX 27 36 28 37 89 38 29 39 88 40 30 41 31 42 32 43 82 44 33 45
REMARK SMILES IDX 87 46 81 47 83 48 34 49 86 50 80 51 79 52 35 54 67 55 47 56
REMARK SMILES IDX 66 57 48 58 51 59 65 60 84 61 49 62 50 63 64 65 85 66 52 67
REMARK SMILES IDX 36 68 37 69 45 70 38 71 39 72 43 73 46 74 40 75 41 76 44 77
REMARK SMILES IDX 42 78 68 79 69 80 77 81 70 82 71 83 75 84 78 85 72 86 73 87
REMARK SMILES IDX 76 88 74 89 53 90 54 91 62 92 55 93 56 94 60 95 63 96 57 97
REMARK SMILES IDX 58 98 61 99 59 100
REMARK H PARENT 17 7 9 13 24 34 83 53 51 64
REMARK Flexibility Score: inf
ROOT
ATOM      1  C   UNL A   1      39.621  22.315  26.678  1.00  0.00     0.002 C 
ENDROOT
BRANCH   1   2
ATOM      2  C   UNL A   1      39.107  23.746  26.874  1.00  0.00     0.021 C 
BRANCH   2   3
ATOM      3  C   UNL A   1      37.623  24.036  26.099  1.00  0.00     0.116 C 
BRANCH   3   4
ATOM      4  N   UNL A   1      36.030  22.775  25.612  1.00  0.00    -0.355 N 
ATOM      5  C   UNL A   1      34.680  22.490  25.264  1.00  0.00     0.230 C 
ATOM      6  O   UNL A   1      34.572  21.259  25.105  1.00  0.00    -0.274 OA
ATOM      7  H   UNL A   1      36.442  21.882  25.638  1.00  0.00     0.163 HD
BRANCH   5   8
ATOM      8  C   UNL A   1      33.376  23.437  25.131  1.00  0.00     0.080 C 
ATOM      9  C   UNL A   1      32.212  22.559  24.535  1.00  0.00     0.027 C 
BRANCH   8  10
ATOM     10  C   UNL A   1      32.935  24.203  26.429  1.00  0.00     0.121 C 
BRANCH  10  11
ATOM     11  C   UNL A   1      31.485  24.172  26.869  1.00  0.00     0.225 C 
ATOM     12  N   UNL A   1      30.668  25.244  26.656  1.00  0.00    -0.326 N 
ATOM     13  H   UNL A   1      29.895  25.370  27.253  1.00  0.00     0.169 HD
ATOM     14  O   UNL A   1      31.021  23.202  27.472  1.00  0.00    -0.275 OA
BRANCH  12  15
ATOM     15  C   UNL A   1      30.877  26.167  25.636  1.00  0.00     0.045 A 
ATOM     16  C   UNL A   1      32.471  27.832  27.360  1.00  0.00     0.048 C 
ATOM     17  C   UNL A   1      31.485  27.771  26.227  1.00  0.00    -0.009 A 
ATOM     18  C   UNL A   1      31.231  29.237  25.218  1.00  0.00     0.046 A 
ATOM     19  Cl  UNL A   1      31.783  30.776  25.763  1.00  0.00    -0.084 Cl
ATOM     20  C   UNL A   1      30.275  29.148  23.691  1.00  0.00     0.021 A 
ATOM     21  C   UNL A   1      30.013  26.028  24.026  1.00  0.00     0.026 A 
ATOM     22  C   UNL A   1      29.708  27.542  23.060  1.00  0.00     0.004 A 
ENDBRANCH  12  15
ENDBRANCH  10  11
ENDBRANCH   8  10
BRANCH   8  23
ATOM     23  C   UNL A   1      33.477  24.579  24.039  1.00  0.00    -0.032 A 
ATOM     24  C   UNL A   1      34.019  25.835  24.429  1.00  0.00     0.005 A 
ATOM     25  C   UNL A   1      33.046  24.468  22.715  1.00  0.00     0.005 A 
ATOM     26  C   UNL A   1      33.984  26.953  23.602  1.00  0.00     0.000 A 
ATOM     27  C   UNL A   1      33.020  25.591  21.876  1.00  0.00     0.000 A 
ATOM     28  C   UNL A   1      33.460  26.834  22.326  1.00  0.00     0.000 A 
ENDBRANCH   8  23
ENDBRANCH   5   8
ENDBRANCH   3   4
ENDBRANCH   2   3
ENDBRANCH   1   2
BRANCH   1  29
ATOM     29  C   UNL A   1      40.743  21.919  27.655  1.00  0.00     0.002 C 
BRANCH  29  30
ATOM     30  C   UNL A   1      41.358  20.562  27.313  1.00  0.00     0.021 C 
BRANCH  30  31
ATOM     31  C   UNL A   1      41.397  20.355  25.810  1.00  0.00     0.116 C 
BRANCH  31  32
ATOM     32  N   UNL A   1      42.464  19.412  25.452  1.00  0.00    -0.352 N 
ATOM     33  C   UNL A   1      43.723  19.686  25.024  1.00  0.00     0.251 C 
ATOM     34  H   UNL A   1      42.237  18.458  25.534  1.00  0.00     0.163 HD
ATOM     35  O   UNL A   1      44.449  18.845  24.520  1.00  0.00    -0.269 OA
BRANCH  33  36
ATOM     36  C   UNL A   1      44.148  21.060  25.232  1.00  0.00     0.039 A 
ATOM     37  C   UNL A   1      43.843  22.013  24.270  1.00  0.00     0.014 A 
ATOM     38  C   UNL A   1      44.649  21.385  26.498  1.00  0.00     0.014 A 
ATOM     39  C   UNL A   1      44.064  23.340  24.589  1.00  0.00     0.010 A 
ATOM     40  C   UNL A   1      44.718  22.708  26.859  1.00  0.00     0.010 A 
ATOM     41  C   UNL A   1      44.488  23.686  25.885  1.00  0.00    -0.014 A 
BRANCH  41  42
ATOM     42  C   UNL A   1      44.804  25.084  26.213  1.00  0.00     0.031 A 
ATOM     43  C   UNL A   1      43.728  25.939  26.812  1.00  0.00     0.074 A 
ATOM     44  C   UNL A   1      46.038  25.549  25.967  1.00  0.00     0.049 A 
ATOM     45  N   UNL A   1      43.787  27.184  27.196  1.00  0.00    -0.248 NA
ATOM     46  C   UNL A   1      42.393  25.330  26.964  1.00  0.00     0.031 C 
ATOM     47  C   UNL A   1      47.123  24.792  25.337  1.00  0.00     0.029 A 
ATOM     48  N   UNL A   1      46.593  26.768  26.240  1.00  0.00    -0.354 N 
ATOM     49  C   UNL A   1      42.505  27.499  27.622  1.00  0.00     0.074 A 
ATOM     50  C   UNL A   1      41.665  26.359  27.355  1.00  0.00     0.031 C 
ATOM     51  C   UNL A   1      48.233  25.546  25.329  1.00  0.00     0.029 A 
ATOM     52  C   UNL A   1      47.921  26.848  25.907  1.00  0.00     0.049 A 
ATOM     53  H   UNL A   1      46.089  27.515  26.635  1.00  0.00     0.167 HD
ATOM     54  C   UNL A   1      42.081  28.627  28.232  1.00  0.00     0.037 A 
ATOM     55  C   UNL A   1      48.781  27.868  26.067  1.00  0.00     0.037 A 
ATOM     56  C   UNL A   1      42.946  29.740  28.506  1.00  0.00     0.049 A 
ATOM     57  C   UNL A   1      48.277  29.125  26.723  1.00  0.00     0.074 A 
ATOM     58  C   UNL A   1      42.649  30.925  29.148  1.00  0.00     0.029 A 
ATOM     59  N   UNL A   1      44.285  29.799  28.142  1.00  0.00    -0.354 N 
ATOM     60  N   UNL A   1      47.080  29.395  27.190  1.00  0.00    -0.248 NA
ATOM     61  C   UNL A   1      49.246  30.213  26.884  1.00  0.00     0.031 C 
ATOM     62  C   UNL A   1      43.790  31.732  29.108  1.00  0.00     0.029 A 
ATOM     63  C   UNL A   1      44.822  31.017  28.519  1.00  0.00     0.049 A 
ATOM     64  H   UNL A   1      44.779  29.080  27.685  1.00  0.00     0.167 HD
ATOM     65  C   UNL A   1      47.160  30.671  27.732  1.00  0.00     0.074 A 
ATOM     66  C   UNL A   1      48.531  31.107  27.550  1.00  0.00     0.031 C 
ATOM     67  C   UNL A   1      46.195  31.416  28.326  1.00  0.00     0.037 A 
BRANCH  54  68
ATOM     68  C   UNL A   1      40.633  28.701  28.621  1.00  0.00     0.064 A 
ATOM     69  C   UNL A   1      39.639  29.111  27.718  1.00  0.00     0.173 A 
ATOM     70  C   UNL A   1      40.234  28.367  29.923  1.00  0.00     0.173 A 
ATOM     71  F   UNL A   1      39.967  29.466  26.466  1.00  0.00    -0.203 F 
ATOM     72  C   UNL A   1      38.308  29.223  28.114  1.00  0.00     0.198 A 
ATOM     73  C   UNL A   1      38.896  28.437  30.304  1.00  0.00     0.198 A 
ATOM     74  F   UNL A   1      41.141  27.976  30.830  1.00  0.00    -0.203 F 
ATOM     75  F   UNL A   1      37.392  29.688  27.255  1.00  0.00    -0.200 F 
ATOM     76  C   UNL A   1      37.937  28.877  29.403  1.00  0.00     0.200 A 
ATOM     77  F   UNL A   1      38.538  28.092  31.548  1.00  0.00    -0.200 F 
ATOM     78  F   UNL A   1      36.657  28.978  29.784  1.00  0.00    -0.200 F 
ENDBRANCH  54  68
BRANCH  55  79
ATOM     79  C   UNL A   1      50.194  27.727  25.632  1.00  0.00     0.064 A 
ATOM     80  C   UNL A   1      50.550  27.842  24.282  1.00  0.00     0.173 A 
ATOM     81  C   UNL A   1      51.219  27.476  26.556  1.00  0.00     0.173 A 
ATOM     82  F   UNL A   1      49.608  28.076  23.357  1.00  0.00    -0.203 F 
ATOM     83  C   UNL A   1      51.871  27.677  23.868  1.00  0.00     0.198 A 
ATOM     84  C   UNL A   1      52.543  27.347  26.147  1.00  0.00     0.198 A 
ATOM     85  F   UNL A   1      50.935  27.373  27.863  1.00  0.00    -0.203 F 
ATOM     86  F   UNL A   1      52.175  27.737  22.565  1.00  0.00    -0.200 F 
ATOM     87  C   UNL A   1      52.867  27.435  24.802  1.00  0.00     0.200 A 
ATOM     88  F   UNL A   1      53.505  27.136  27.056  1.00  0.00    -0.200 F 
ATOM     89  F   UNL A   1      54.137  27.279  24.405  1.00  0.00    -0.200 F 
ENDBRANCH  55  79
BRANCH  67  90
ATOM     90  C   UNL A   1      46.602  32.756  28.866  1.00  0.00     0.064 A 
ATOM     91  C   UNL A   1      46.505  33.926  28.099  1.00  0.00     0.173 A 
ATOM     92  C   UNL A   1      47.065  32.871  30.185  1.00  0.00     0.173 A 
ATOM     93  F   UNL A   1      46.077  33.868  26.828  1.00  0.00    -0.203 F 
ATOM     94  C   UNL A   1      46.899  35.154  28.619  1.00  0.00     0.198 A 
ATOM     95  C   UNL A   1      47.415  34.107  30.717  1.00  0.00     0.198 A 
ATOM     96  F   UNL A   1      47.164  31.784  30.967  1.00  0.00    -0.203 F 
ATOM     97  F   UNL A   1      46.866  36.248  27.845  1.00  0.00    -0.200 F 
ATOM     98  C   UNL A   1      47.345  35.246  29.929  1.00  0.00     0.200 A 
ATOM     99  F   UNL A   1      47.822  34.196  31.991  1.00  0.00    -0.200 F 
ATOM    100  F   UNL A   1      47.717  36.432  30.430  1.00  0.00    -0.200 F 
ENDBRANCH  67  90
ENDBRANCH  41  42
ENDBRANCH  33  36
ENDBRANCH  31  32
ENDBRANCH  30  31
ENDBRANCH  29  30
ENDBRANCH   1  29
TORSDOF 17
ENDMDL
MODEL 3
REMARK VINA RESULT:     -12.8      6.075     11.464
REMARK SMILES Cc1c(Cl)cccc1NC(=O)C[C@](C)(C(=O)NCCCCCCNC(=O)c1ccc(-c2c3nc(c(-c4c(F)c(F)c(F)c(F)c4F)c4ccc([nH]4)c(-c4c(F)c(F)c(F)c(F)c4F)c4nc(c(-c5c(F)c(F)c(F)c(F)c5F)c5ccc2[nH]5)C=C4)C=C3)cc1)c1ccccc1
REMARK SMILES IDX 20 1 19 2 18 3 17 4 15 5 16 6 13 8 14 9 12 10 10 11 9 12
REMARK SMILES IDX 11 14 8 15 1 16 2 17 3 18 4 19 5 20 7 21 6 22 90 23 91 24
REMARK SMILES IDX 95 25 92 26 94 27 93 28 21 29 22 30 23 31 24 32 25 33 26 35
REMARK SMILES IDX 27 36 28 37 89 38 29 39 88 40 30 41 31 42 32 43 82 44 33 45
REMARK SMILES IDX 87 46 81 47 83 48 34 49 86 50 80 51 79 52 35 54 67 55 47 56
REMARK SMILES IDX 66 57 48 58 51 59 65 60 84 61 49 62 50 63 64 65 85 66 52 67
REMARK SMILES IDX 36 68 37 69 45 70 38 71 39 72 43 73 46 74 40 75 41 76 44 77
REMARK SMILES IDX 42 78 68 79 69 80 77 81 70 82 71 83 75 84 78 85 72 86 73 87
REMARK SMILES IDX 76 88 74 89 53 90 54 91 62 92 55 93 56 94 60 95 63 96 57 97
REMARK SMILES IDX 58 98 61 99 59 100
REMARK H PARENT 17 7 9 13 24 34 83 53 51 64
REMARK Flexibility Score: inf
ROOT
ATOM      1  C   UNL A   1      34.693  31.590  28.018  1.00  0.00     0.002 C 
ENDROOT
BRANCH   1   2
ATOM      2  C   UNL A   1      35.442  30.377  27.456  1.00  0.00     0.021 C 
BRANCH   2   3
ATOM      3  C   UNL A   1      34.441  29.026  27.212  1.00  0.00     0.116 C 
BRANCH   3   4
ATOM      4  N   UNL A   1      32.806  28.707  25.950  1.00  0.00    -0.355 N 
ATOM      5  C   UNL A   1      31.999  27.936  25.067  1.00  0.00     0.230 C 
ATOM      6  O   UNL A   1      31.022  28.632  24.727  1.00  0.00    -0.274 OA
ATOM      7  H   UNL A   1      32.331  29.568  25.985  1.00  0.00     0.163 HD
BRANCH   5   8
ATOM      8  C   UNL A   1      32.189  26.456  24.445  1.00  0.00     0.080 C 
ATOM      9  C   UNL A   1      30.939  26.163  23.530  1.00  0.00     0.027 C 
BRANCH   8  10
ATOM     10  C   UNL A   1      33.544  26.180  23.702  1.00  0.00     0.121 C 
BRANCH  10  11
ATOM     11  C   UNL A   1      33.535  25.564  22.317  1.00  0.00     0.225 C 
ATOM     12  N   UNL A   1      33.819  24.242  22.139  1.00  0.00    -0.326 N 
ATOM     13  H   UNL A   1      34.179  23.952  21.269  1.00  0.00     0.169 HD
ATOM     14  O   UNL A   1      33.321  26.249  21.315  1.00  0.00    -0.275 OA
BRANCH  12  15
ATOM     15  C   UNL A   1      33.625  23.284  23.130  1.00  0.00     0.045 A 
ATOM     16  C   UNL A   1      36.328  23.594  24.071  1.00  0.00     0.048 C 
ATOM     17  C   UNL A   1      35.173  22.660  23.843  1.00  0.00    -0.009 A 
ATOM     18  C   UNL A   1      35.190  21.048  24.640  1.00  0.00     0.046 A 
ATOM     19  Cl  UNL A   1      36.649  20.424  25.311  1.00  0.00    -0.084 Cl
ATOM     20  C   UNL A   1      33.722  20.000  24.627  1.00  0.00     0.021 A 
ATOM     21  C   UNL A   1      32.087  22.292  23.216  1.00  0.00     0.026 A 
ATOM     22  C   UNL A   1      32.153  20.634  23.966  1.00  0.00     0.004 A 
ENDBRANCH  12  15
ENDBRANCH  10  11
ENDBRANCH   8  10
BRANCH   8  23
ATOM     23  C   UNL A   1      32.082  25.266  25.484  1.00  0.00    -0.032 A 
ATOM     24  C   UNL A   1      33.278  24.811  26.108  1.00  0.00     0.005 A 
ATOM     25  C   UNL A   1      30.905  24.594  25.824  1.00  0.00     0.005 A 
ATOM     26  C   UNL A   1      33.320  23.662  26.891  1.00  0.00     0.000 A 
ATOM     27  C   UNL A   1      30.945  23.443  26.622  1.00  0.00     0.000 A 
ATOM     28  C   UNL A   1      32.150  22.962  27.130  1.00  0.00     0.000 A 
ENDBRANCH   8  23
ENDBRANCH   5   8
ENDBRANCH   3   4
ENDBRANCH   2   3
ENDBRANCH   1   2
BRANCH   1  29
ATOM     29  C   UNL A   1      35.517  32.891  28.001  1.00  0.00     0.002 C 
BRANCH  29  30
ATOM     30  C   UNL A   1      34.635  34.137  28.085  1.00  0.00     0.021 C 
BRANCH  30  31
ATOM     31  C   UNL A   1      33.325  33.821  28.783  1.00  0.00     0.116 C 
BRANCH  31  32
ATOM     32  N   UNL A   1      32.875  34.975  29.570  1.00  0.00    -0.352 N 
ATOM     33  C   UNL A   1      33.195  35.300  30.849  1.00  0.00     0.251 C 
ATOM     34  H   UNL A   1      32.262  35.593  29.112  1.00  0.00     0.163 HD
ATOM     35  O   UNL A   1      32.583  36.136  31.493  1.00  0.00    -0.269 OA
BRANCH  33  36
ATOM     36  C   UNL A   1      34.341  34.586  31.387  1.00  0.00     0.039 A 
ATOM     37  C   UNL A   1      34.178  33.276  31.815  1.00  0.00     0.014 A 
ATOM     38  C   UNL A   1      35.594  35.191  31.235  1.00  0.00     0.014 A 
ATOM     39  C   UNL A   1      35.318  32.553  32.115  1.00  0.00     0.010 A 
ATOM     40  C   UNL A   1      36.720  34.420  31.387  1.00  0.00     0.010 A 
ATOM     41  C   UNL A   1      36.586  33.120  31.889  1.00  0.00    -0.014 A 
BRANCH  41  42
ATOM     42  C   UNL A   1      37.802  32.395  32.280  1.00  0.00     0.031 A 
ATOM     43  C   UNL A   1      38.438  32.721  33.598  1.00  0.00     0.074 A 
ATOM     44  C   UNL A   1      38.306  31.469  31.449  1.00  0.00     0.049 A 
ATOM     45  N   UNL A   1      39.496  32.196  34.152  1.00  0.00    -0.248 NA
ATOM     46  C   UNL A   1      37.829  33.810  34.385  1.00  0.00     0.031 C 
ATOM     47  C   UNL A   1      37.774  31.134  30.126  1.00  0.00     0.029 A 
ATOM     48  N   UNL A   1      39.368  30.624  31.608  1.00  0.00    -0.354 N 
ATOM     49  C   UNL A   1      39.676  32.895  35.337  1.00  0.00     0.074 A 
ATOM     50  C   UNL A   1      38.691  33.946  35.376  1.00  0.00     0.031 C 
ATOM     51  C   UNL A   1      38.477  30.109  29.620  1.00  0.00     0.029 A 
ATOM     52  C   UNL A   1      39.532  29.753  30.561  1.00  0.00     0.049 A 
ATOM     53  H   UNL A   1      39.957  30.639  32.396  1.00  0.00     0.167 HD
ATOM     54  C   UNL A   1      40.558  32.645  36.328  1.00  0.00     0.037 A 
ATOM     55  C   UNL A   1      40.437  28.773  30.399  1.00  0.00     0.037 A 
ATOM     56  C   UNL A   1      41.515  31.576  36.272  1.00  0.00     0.049 A 
ATOM     57  C   UNL A   1      41.427  28.533  31.507  1.00  0.00     0.074 A 
ATOM     58  C   UNL A   1      42.439  31.195  37.224  1.00  0.00     0.029 A 
ATOM     59  N   UNL A   1      41.668  30.719  35.190  1.00  0.00    -0.354 N 
ATOM     60  N   UNL A   1      41.551  29.150  32.658  1.00  0.00    -0.248 NA
ATOM     61  C   UNL A   1      42.396  27.452  31.296  1.00  0.00     0.031 C 
ATOM     62  C   UNL A   1      43.202  30.153  36.688  1.00  0.00     0.029 A 
ATOM     63  C   UNL A   1      42.697  29.827  35.438  1.00  0.00     0.049 A 
ATOM     64  H   UNL A   1      41.126  30.742  34.369  1.00  0.00     0.167 HD
ATOM     65  C   UNL A   1      42.588  28.512  33.325  1.00  0.00     0.074 A 
ATOM     66  C   UNL A   1      43.042  27.447  32.452  1.00  0.00     0.031 C 
ATOM     67  C   UNL A   1      43.118  28.775  34.546  1.00  0.00     0.037 A 
BRANCH  54  68
ATOM     68  C   UNL A   1      40.523  33.545  37.529  1.00  0.00     0.064 A 
ATOM     69  C   UNL A   1      39.601  33.359  38.573  1.00  0.00     0.173 A 
ATOM     70  C   UNL A   1      41.417  34.620  37.633  1.00  0.00     0.173 A 
ATOM     71  F   UNL A   1      38.706  32.361  38.514  1.00  0.00    -0.203 F 
ATOM     72  C   UNL A   1      39.550  34.236  39.653  1.00  0.00     0.198 A 
ATOM     73  C   UNL A   1      41.392  35.471  38.735  1.00  0.00     0.198 A 
ATOM     74  F   UNL A   1      42.314  34.851  36.662  1.00  0.00    -0.203 F 
ATOM     75  F   UNL A   1      38.613  34.080  40.598  1.00  0.00    -0.200 F 
ATOM     76  C   UNL A   1      40.451  35.285  39.738  1.00  0.00     0.200 A 
ATOM     77  F   UNL A   1      42.272  36.477  38.821  1.00  0.00    -0.200 F 
ATOM     78  F   UNL A   1      40.407  36.126  40.779  1.00  0.00    -0.200 F 
ENDBRANCH  54  68
BRANCH  55  79
ATOM     79  C   UNL A   1      40.423  27.941  29.170  1.00  0.00     0.064 A 
ATOM     80  C   UNL A   1      39.645  26.778  29.092  1.00  0.00     0.173 A 
ATOM     81  C   UNL A   1      41.184  28.291  28.045  1.00  0.00     0.173 A 
ATOM     82  F   UNL A   1      38.904  26.396  30.142  1.00  0.00    -0.203 F 
ATOM     83  C   UNL A   1      39.656  25.979  27.950  1.00  0.00     0.198 A 
ATOM     84  C   UNL A   1      41.167  27.511  26.891  1.00  0.00     0.198 A 
ATOM     85  F   UNL A   1      41.933  29.404  28.060  1.00  0.00    -0.203 F 
ATOM     86  F   UNL A   1      38.947  24.842  27.924  1.00  0.00    -0.200 F 
ATOM     87  C   UNL A   1      40.413  26.349  26.850  1.00  0.00     0.200 A 
ATOM     88  F   UNL A   1      41.881  27.886  25.822  1.00  0.00    -0.200 F 
ATOM     89  F   UNL A   1      40.422  25.581  25.751  1.00  0.00    -0.200 F 
ENDBRANCH  55  79
BRANCH  67  90
ATOM     90  C   UNL A   1      44.213  27.866  35.025  1.00  0.00     0.064 A 
ATOM     91  C   UNL A   1      43.941  26.673  35.710  1.00  0.00     0.173 A 
ATOM     92  C   UNL A   1      45.554  28.183  34.761  1.00  0.00     0.173 A 
ATOM     93  F   UNL A   1      42.675  26.330  35.995  1.00  0.00    -0.203 F 
ATOM     94  C   UNL A   1      44.974  25.853  36.152  1.00  0.00     0.198 A 
ATOM     95  C   UNL A   1      46.582  27.337  35.164  1.00  0.00     0.198 A 
ATOM     96  F   UNL A   1      45.868  29.305  34.096  1.00  0.00    -0.203 F 
ATOM     97  F   UNL A   1      44.695  24.755  36.867  1.00  0.00    -0.200 F 
ATOM     98  C   UNL A   1      46.293  26.181  35.871  1.00  0.00     0.200 A 
ATOM     99  F   UNL A   1      47.854  27.643  34.870  1.00  0.00    -0.200 F 
ATOM    100  F   UNL A   1      47.285  25.385  36.292  1.00  0.00    -0.200 F 
ENDBRANCH  67  90
ENDBRANCH  41  42
ENDBRANCH  33  36
ENDBRANCH  31  32
ENDBRANCH  30  31
ENDBRANCH  29  30
ENDBRANCH   1  29
TORSDOF 17
ENDMDL
