MODEL 1
REMARK VINA RESULT:     -11.1      0.000      0.000
REMARK SMILES C[C@@H]1[C@@H](C(=O)NCCCCCCNC(=O)c2ccc(-c3c4nc(c(-c5c(F)c(F)c(F)c(F)c5F)c5ccc([nH]5)c(-c5c(F)c(F)c(F)c(F)c5F)c5nc(c(-c6c(F)c(F)c(F)c(F)c6F)c6ccc3[nH]6)C=C5)C=C4)cc2)CCN1C(=O)[C@@H]1CCCN1C(=O)C1CC1
REMARK SMILES IDX 8 1 7 2 6 3 4 4 5 5 3 7 1 8 2 9 81 10 79 11 80 12 82 13
REMARK SMILES IDX 83 14 84 15 85 16 88 17 86 18 87 19 89 20 90 21 91 22 92 23
REMARK SMILES IDX 93 24 9 25 10 26 11 27 12 28 13 29 14 30 15 32 16 33 17 34
REMARK SMILES IDX 78 35 18 36 77 37 19 38 20 39 21 40 71 41 22 42 76 43 70 44
REMARK SMILES IDX 72 45 23 46 75 47 69 48 68 49 24 51 56 52 36 53 55 54 37 55
REMARK SMILES IDX 40 56 54 57 73 58 38 59 39 60 53 62 74 63 41 64 25 65 26 66
REMARK SMILES IDX 34 67 27 68 28 69 32 70 35 71 29 72 30 73 33 74 31 75 57 76
REMARK SMILES IDX 58 77 66 78 59 79 60 80 64 81 67 82 61 83 62 84 65 85 63 86
REMARK SMILES IDX 42 87 43 88 51 89 44 90 45 91 49 92 52 93 46 94 47 95 50 96
REMARK SMILES IDX 48 97
REMARK H PARENT 6 6 13 31 72 50 40 61
REMARK Flexibility Score: inf
ROOT
ATOM      1  C   UNL A   1      39.177  22.562  26.496  1.00  0.00     0.021 C 
ENDROOT
BRANCH   1   2
ATOM      2  C   UNL A   1      38.162  21.718  25.738  1.00  0.00     0.116 C 
BRANCH   2   3
ATOM      3  N   UNL A   1      37.842  22.254  24.433  1.00  0.00    -0.356 N 
ATOM      4  C   UNL A   1      36.624  22.565  23.904  1.00  0.00     0.225 C 
ATOM      5  O   UNL A   1      36.596  22.981  22.746  1.00  0.00    -0.275 OA
ATOM      6  H   UNL A   1      38.613  22.418  23.842  1.00  0.00     0.163 HD
BRANCH   4   7
ATOM      7  C   UNL A   1      35.357  22.315  24.725  1.00  0.00     0.102 C 
ATOM      8  C   UNL A   1      32.916  21.798  24.281  1.00  0.00     0.032 C 
ATOM      9  C   UNL A   1      34.081  22.729  23.942  1.00  0.00     0.094 C 
ATOM     10  N   UNL A   1      33.824  24.113  24.375  1.00  0.00    -0.337 N 
ATOM     11  C   UNL A   1      35.256  23.200  25.971  1.00  0.00     0.037 C 
ATOM     12  C   UNL A   1      34.777  24.509  25.390  1.00  0.00     0.121 C 
BRANCH  10  13
ATOM     13  C   UNL A   1      33.364  25.096  23.506  1.00  0.00     0.245 C 
ATOM     14  O   UNL A   1      33.974  25.376  22.472  1.00  0.00    -0.272 OA
BRANCH  13  15
ATOM     15  C   UNL A   1      32.147  25.906  24.007  1.00  0.00     0.174 C 
ATOM     16  C   UNL A   1      30.902  25.672  23.149  1.00  0.00     0.037 C 
ATOM     17  N   UNL A   1      32.403  27.344  23.868  1.00  0.00    -0.330 N 
ATOM     18  C   UNL A   1      31.038  26.703  22.041  1.00  0.00     0.024 C 
ATOM     19  C   UNL A   1      31.652  27.894  22.751  1.00  0.00     0.120 C 
BRANCH  17  20
ATOM     20  C   UNL A   1      33.216  28.193  24.596  1.00  0.00     0.226 C 
ATOM     21  O   UNL A   1      33.591  29.261  24.114  1.00  0.00    -0.275 OA
BRANCH  20  22
ATOM     22  C   UNL A   1      33.652  27.932  26.000  1.00  0.00     0.079 C 
ATOM     23  C   UNL A   1      34.103  28.837  27.105  1.00  0.00     0.014 C 
ATOM     24  C   UNL A   1      32.707  28.292  27.129  1.00  0.00     0.014 C 
ENDBRANCH  20  22
ENDBRANCH  17  20
ENDBRANCH  13  15
ENDBRANCH  10  13
ENDBRANCH   4   7
ENDBRANCH   2   3
ENDBRANCH   1   2
BRANCH   1  25
ATOM     25  C   UNL A   1      40.639  22.139  26.322  1.00  0.00     0.002 C 
BRANCH  25  26
ATOM     26  C   UNL A   1      41.062  20.858  27.047  1.00  0.00     0.002 C 
BRANCH  26  27
ATOM     27  C   UNL A   1      41.315  19.636  26.161  1.00  0.00     0.021 C 
BRANCH  27  28
ATOM     28  C   UNL A   1      42.575  18.841  26.481  1.00  0.00     0.116 C 
BRANCH  28  29
ATOM     29  N   UNL A   1      43.413  18.619  25.317  1.00  0.00    -0.352 N 
ATOM     30  C   UNL A   1      44.149  19.514  24.582  1.00  0.00     0.251 C 
ATOM     31  H   UNL A   1      43.460  17.686  25.008  1.00  0.00     0.163 HD
ATOM     32  O   UNL A   1      44.691  19.149  23.543  1.00  0.00    -0.269 OA
BRANCH  30  33
ATOM     33  C   UNL A   1      44.273  20.923  25.016  1.00  0.00     0.039 A 
ATOM     34  C   UNL A   1      44.847  21.184  26.264  1.00  0.00     0.014 A 
ATOM     35  C   UNL A   1      43.807  21.979  24.228  1.00  0.00     0.014 A 
ATOM     36  C   UNL A   1      44.994  22.502  26.699  1.00  0.00     0.010 A 
ATOM     37  C   UNL A   1      44.024  23.296  24.630  1.00  0.00     0.010 A 
ATOM     38  C   UNL A   1      44.610  23.572  25.875  1.00  0.00    -0.014 A 
BRANCH  38  39
ATOM     39  C   UNL A   1      44.803  24.978  26.315  1.00  0.00     0.031 A 
ATOM     40  C   UNL A   1      46.156  25.628  26.216  1.00  0.00     0.074 A 
ATOM     41  C   UNL A   1      43.764  25.661  26.834  1.00  0.00     0.049 A 
ATOM     42  N   UNL A   1      46.521  26.837  26.561  1.00  0.00    -0.248 NA
ATOM     43  C   UNL A   1      47.250  24.803  25.681  1.00  0.00     0.031 C 
ATOM     44  C   UNL A   1      42.415  25.127  27.026  1.00  0.00     0.029 A 
ATOM     45  N   UNL A   1      43.680  26.951  27.296  1.00  0.00    -0.354 N 
ATOM     46  C   UNL A   1      47.881  26.915  26.291  1.00  0.00     0.074 A 
ATOM     47  C   UNL A   1      48.291  25.613  25.812  1.00  0.00     0.031 C 
ATOM     48  C   UNL A   1      41.630  26.089  27.536  1.00  0.00     0.029 A 
ATOM     49  C   UNL A   1      42.426  27.295  27.742  1.00  0.00     0.049 A 
ATOM     50  H   UNL A   1      44.444  27.571  27.308  1.00  0.00     0.167 HD
ATOM     51  C   UNL A   1      48.708  27.981  26.406  1.00  0.00     0.037 A 
ATOM     52  C   UNL A   1      41.972  28.451  28.261  1.00  0.00     0.037 A 
ATOM     53  C   UNL A   1      48.293  29.282  26.864  1.00  0.00     0.049 A 
ATOM     54  C   UNL A   1      42.917  29.617  28.392  1.00  0.00     0.074 A 
ATOM     55  C   UNL A   1      49.041  30.442  26.963  1.00  0.00     0.029 A 
ATOM     56  N   UNL A   1      47.014  29.593  27.307  1.00  0.00    -0.354 N 
ATOM     57  N   UNL A   1      44.182  29.700  28.062  1.00  0.00    -0.248 NA
ATOM     58  C   UNL A   1      42.364  30.855  28.961  1.00  0.00     0.031 C 
ATOM     59  C   UNL A   1      48.231  31.440  27.515  1.00  0.00     0.029 A 
ATOM     60  C   UNL A   1      46.962  30.919  27.706  1.00  0.00     0.049 A 
ATOM     61  H   UNL A   1      46.258  28.964  27.334  1.00  0.00     0.167 HD
ATOM     62  C   UNL A   1      44.570  31.000  28.357  1.00  0.00     0.074 A 
ATOM     63  C   UNL A   1      43.398  31.678  28.873  1.00  0.00     0.031 C 
ATOM     64  C   UNL A   1      45.787  31.581  28.216  1.00  0.00     0.037 A 
BRANCH  51  65
ATOM     65  C   UNL A   1      50.149  27.790  26.027  1.00  0.00     0.064 A 
ATOM     66  C   UNL A   1      51.141  27.562  26.994  1.00  0.00     0.173 A 
ATOM     67  C   UNL A   1      50.539  27.795  24.679  1.00  0.00     0.173 A 
ATOM     68  F   UNL A   1      50.825  27.558  28.298  1.00  0.00    -0.203 F 
ATOM     69  C   UNL A   1      52.471  27.377  26.628  1.00  0.00     0.198 A 
ATOM     70  C   UNL A   1      51.865  27.577  24.315  1.00  0.00     0.198 A 
ATOM     71  F   UNL A   1      49.632  28.002  23.713  1.00  0.00    -0.203 F 
ATOM     72  F   UNL A   1      53.409  27.214  27.572  1.00  0.00    -0.200 F 
ATOM     73  C   UNL A   1      52.832  27.377  25.289  1.00  0.00     0.200 A 
ATOM     74  F   UNL A   1      52.209  27.563  23.019  1.00  0.00    -0.200 F 
ATOM     75  F   UNL A   1      54.111  27.191  24.937  1.00  0.00    -0.200 F 
ENDBRANCH  51  65
BRANCH  52  76
ATOM     76  C   UNL A   1      40.550  28.575  28.676  1.00  0.00     0.064 A 
ATOM     77  C   UNL A   1      39.571  29.018  27.775  1.00  0.00     0.173 A 
ATOM     78  C   UNL A   1      40.141  28.265  29.982  1.00  0.00     0.173 A 
ATOM     79  F   UNL A   1      39.916  29.346  26.521  1.00  0.00    -0.203 F 
ATOM     80  C   UNL A   1      38.244  29.172  28.170  1.00  0.00     0.198 A 
ATOM     81  C   UNL A   1      38.808  28.389  30.366  1.00  0.00     0.198 A 
ATOM     82  F   UNL A   1      41.036  27.831  30.881  1.00  0.00    -0.203 F 
ATOM     83  F   UNL A   1      37.340  29.648  27.304  1.00  0.00    -0.200 F 
ATOM     84  C   UNL A   1      37.863  28.851  29.465  1.00  0.00     0.200 A 
ATOM     85  F   UNL A   1      38.441  28.063  31.613  1.00  0.00    -0.200 F 
ATOM     86  F   UNL A   1      36.586  28.996  29.844  1.00  0.00    -0.200 F 
ENDBRANCH  52  76
BRANCH  64  87
ATOM     87  C   UNL A   1      45.907  33.030  28.596  1.00  0.00     0.064 A 
ATOM     88  C   UNL A   1      46.280  33.423  29.890  1.00  0.00     0.173 A 
ATOM     89  C   UNL A   1      45.676  34.035  27.645  1.00  0.00     0.173 A 
ATOM     90  F   UNL A   1      46.497  32.500  30.840  1.00  0.00    -0.203 F 
ATOM     91  C   UNL A   1      46.388  34.770  30.226  1.00  0.00     0.198 A 
ATOM     92  C   UNL A   1      45.819  35.380  27.976  1.00  0.00     0.198 A 
ATOM     93  F   UNL A   1      45.324  33.714  26.392  1.00  0.00    -0.203 F 
ATOM     94  F   UNL A   1      46.691  35.122  31.483  1.00  0.00    -0.200 F 
ATOM     95  C   UNL A   1      46.164  35.746  29.267  1.00  0.00     0.200 A 
ATOM     96  F   UNL A   1      45.618  36.322  27.043  1.00  0.00    -0.200 F 
ATOM     97  F   UNL A   1      46.275  37.042  29.590  1.00  0.00    -0.200 F 
ENDBRANCH  64  87
ENDBRANCH  38  39
ENDBRANCH  30  33
ENDBRANCH  28  29
ENDBRANCH  27  28
ENDBRANCH  26  27
ENDBRANCH  25  26
ENDBRANCH   1  25
TORSDOF 17
ENDMDL
MODEL 2
REMARK VINA RESULT:     -11.0      1.510      2.732
REMARK SMILES C[C@@H]1[C@@H](C(=O)NCCCCCCNC(=O)c2ccc(-c3c4nc(c(-c5c(F)c(F)c(F)c(F)c5F)c5ccc([nH]5)c(-c5c(F)c(F)c(F)c(F)c5F)c5nc(c(-c6c(F)c(F)c(F)c(F)c6F)c6ccc3[nH]6)C=C5)C=C4)cc2)CCN1C(=O)[C@@H]1CCCN1C(=O)C1CC1
REMARK SMILES IDX 8 1 7 2 6 3 4 4 5 5 3 7 1 8 2 9 81 10 79 11 80 12 82 13
REMARK SMILES IDX 83 14 84 15 85 16 88 17 86 18 87 19 89 20 90 21 91 22 92 23
REMARK SMILES IDX 93 24 9 25 10 26 11 27 12 28 13 29 14 30 15 32 16 33 17 34
REMARK SMILES IDX 78 35 18 36 77 37 19 38 20 39 21 40 71 41 22 42 76 43 70 44
REMARK SMILES IDX 72 45 23 46 75 47 69 48 68 49 24 51 56 52 36 53 55 54 37 55
REMARK SMILES IDX 40 56 54 57 73 58 38 59 39 60 53 62 74 63 41 64 25 65 26 66
REMARK SMILES IDX 34 67 27 68 28 69 32 70 35 71 29 72 30 73 33 74 31 75 57 76
REMARK SMILES IDX 58 77 66 78 59 79 60 80 64 81 67 82 61 83 62 84 65 85 63 86
REMARK SMILES IDX 42 87 43 88 51 89 44 90 45 91 49 92 52 93 46 94 47 95 50 96
REMARK SMILES IDX 48 97
REMARK H PARENT 6 6 13 31 72 50 40 61
REMARK Flexibility Score: inf
ROOT
ATOM      1  C   UNL A   1      41.464  22.019  26.461  1.00  0.00     0.021 C 
ENDROOT
BRANCH   1   2
ATOM      2  C   UNL A   1      39.973  21.743  26.334  1.00  0.00     0.116 C 
BRANCH   2   3
ATOM      3  N   UNL A   1      39.155  22.889  26.668  1.00  0.00    -0.356 N 
ATOM      4  C   UNL A   1      37.970  23.289  26.124  1.00  0.00     0.225 C 
ATOM      5  O   UNL A   1      37.470  24.329  26.553  1.00  0.00    -0.275 OA
ATOM      6  H   UNL A   1      39.503  23.461  27.390  1.00  0.00     0.163 HD
BRANCH   4   7
ATOM      7  C   UNL A   1      37.360  22.492  24.970  1.00  0.00     0.102 C 
ATOM      8  C   UNL A   1      35.932  22.957  22.928  1.00  0.00     0.032 C 
ATOM      9  C   UNL A   1      36.064  23.163  24.438  1.00  0.00     0.094 C 
ATOM     10  N   UNL A   1      34.981  22.497  25.181  1.00  0.00    -0.337 N 
ATOM     11  C   UNL A   1      36.844  21.113  25.390  1.00  0.00     0.037 C 
ATOM     12  C   UNL A   1      35.518  21.453  26.028  1.00  0.00     0.121 C 
BRANCH  10  13
ATOM     13  C   UNL A   1      33.855  23.177  25.633  1.00  0.00     0.245 C 
ATOM     14  O   UNL A   1      33.953  24.207  26.302  1.00  0.00    -0.272 OA
BRANCH  13  15
ATOM     15  C   UNL A   1      32.506  22.466  25.379  1.00  0.00     0.174 C 
ATOM     16  C   UNL A   1      32.516  21.652  24.083  1.00  0.00     0.037 C 
ATOM     17  N   UNL A   1      31.445  23.454  25.164  1.00  0.00    -0.330 N 
ATOM     18  C   UNL A   1      32.097  22.664  23.028  1.00  0.00     0.024 C 
ATOM     19  C   UNL A   1      31.081  23.522  23.758  1.00  0.00     0.120 C 
BRANCH  17  20
ATOM     20  C   UNL A   1      30.790  24.288  26.053  1.00  0.00     0.226 C 
ATOM     21  O   UNL A   1      30.384  23.853  27.130  1.00  0.00    -0.275 OA
BRANCH  20  22
ATOM     22  C   UNL A   1      30.572  25.746  25.824  1.00  0.00     0.079 C 
ATOM     23  C   UNL A   1      31.112  26.970  26.500  1.00  0.00     0.014 C 
ATOM     24  C   UNL A   1      31.682  26.551  25.178  1.00  0.00     0.014 C 
ENDBRANCH  20  22
ENDBRANCH  17  20
ENDBRANCH  13  15
ENDBRANCH  10  13
ENDBRANCH   4   7
ENDBRANCH   2   3
ENDBRANCH   1   2
BRANCH   1  25
ATOM     25  C   UNL A   1      42.187  21.217  27.547  1.00  0.00     0.002 C 
BRANCH  25  26
ATOM     26  C   UNL A   1      41.850  19.725  27.623  1.00  0.00     0.002 C 
BRANCH  26  27
ATOM     27  C   UNL A   1      42.694  18.799  26.744  1.00  0.00     0.021 C 
BRANCH  27  28
ATOM     28  C   UNL A   1      42.749  19.164  25.266  1.00  0.00     0.116 C 
BRANCH  28  29
ATOM     29  N   UNL A   1      43.996  18.773  24.634  1.00  0.00    -0.352 N 
ATOM     30  C   UNL A   1      45.096  19.530  24.322  1.00  0.00     0.251 C 
ATOM     31  H   UNL A   1      44.061  17.821  24.393  1.00  0.00     0.163 HD
ATOM     32  O   UNL A   1      46.008  19.038  23.663  1.00  0.00    -0.269 OA
BRANCH  30  33
ATOM     33  C   UNL A   1      45.184  20.944  24.749  1.00  0.00     0.039 A 
ATOM     34  C   UNL A   1      45.544  21.217  26.072  1.00  0.00     0.014 A 
ATOM     35  C   UNL A   1      44.887  21.996  23.877  1.00  0.00     0.014 A 
ATOM     36  C   UNL A   1      45.651  22.539  26.505  1.00  0.00     0.010 A 
ATOM     37  C   UNL A   1      45.068  23.315  24.289  1.00  0.00     0.010 A 
ATOM     38  C   UNL A   1      45.441  23.601  25.611  1.00  0.00    -0.014 A 
BRANCH  38  39
ATOM     39  C   UNL A   1      45.596  25.010  26.056  1.00  0.00     0.031 A 
ATOM     40  C   UNL A   1      46.931  25.696  25.965  1.00  0.00     0.074 A 
ATOM     41  C   UNL A   1      44.537  25.664  26.573  1.00  0.00     0.049 A 
ATOM     42  N   UNL A   1      47.263  26.914  26.315  1.00  0.00    -0.248 NA
ATOM     43  C   UNL A   1      48.049  24.903  25.433  1.00  0.00     0.031 C 
ATOM     44  C   UNL A   1      43.201  25.094  26.757  1.00  0.00     0.029 A 
ATOM     45  N   UNL A   1      44.416  26.950  27.038  1.00  0.00    -0.354 N 
ATOM     46  C   UNL A   1      48.621  27.029  26.051  1.00  0.00     0.074 A 
ATOM     47  C   UNL A   1      49.068  25.739  25.570  1.00  0.00     0.031 C 
ATOM     48  C   UNL A   1      42.389  26.033  27.266  1.00  0.00     0.029 A 
ATOM     49  C   UNL A   1      43.152  27.259  27.479  1.00  0.00     0.049 A 
ATOM     50  H   UNL A   1      45.164  27.590  27.054  1.00  0.00     0.167 HD
ATOM     51  C   UNL A   1      49.419  28.116  26.172  1.00  0.00     0.037 A 
ATOM     52  C   UNL A   1      42.665  28.402  27.999  1.00  0.00     0.037 A 
ATOM     53  C   UNL A   1      48.967  29.404  26.633  1.00  0.00     0.049 A 
ATOM     54  C   UNL A   1      43.577  29.592  28.138  1.00  0.00     0.074 A 
ATOM     55  C   UNL A   1      49.684  30.584  26.738  1.00  0.00     0.029 A 
ATOM     56  N   UNL A   1      47.679  29.680  27.070  1.00  0.00    -0.354 N 
ATOM     57  N   UNL A   1      44.841  29.709  27.813  1.00  0.00    -0.248 NA
ATOM     58  C   UNL A   1      42.989  30.812  28.707  1.00  0.00     0.031 C 
ATOM     59  C   UNL A   1      48.845  31.557  27.289  1.00  0.00     0.029 A 
ATOM     60  C   UNL A   1      47.590  31.003  27.473  1.00  0.00     0.049 A 
ATOM     61  H   UNL A   1      46.939  29.031  27.092  1.00  0.00     0.167 HD
ATOM     62  C   UNL A   1      45.194  31.019  28.114  1.00  0.00     0.074 A 
ATOM     63  C   UNL A   1      44.002  31.663  28.626  1.00  0.00     0.031 C 
ATOM     64  C   UNL A   1      46.395  31.632  27.979  1.00  0.00     0.037 A 
BRANCH  51  65
ATOM     65  C   UNL A   1      50.866  27.964  25.799  1.00  0.00     0.064 A 
ATOM     66  C   UNL A   1      51.298  28.072  24.468  1.00  0.00     0.173 A 
ATOM     67  C   UNL A   1      51.839  27.747  26.786  1.00  0.00     0.173 A 
ATOM     68  F   UNL A   1      50.409  28.269  23.482  1.00  0.00    -0.203 F 
ATOM     69  C   UNL A   1      52.644  27.938  24.137  1.00  0.00     0.198 A 
ATOM     70  C   UNL A   1      53.187  27.646  26.456  1.00  0.00     0.198 A 
ATOM     71  F   UNL A   1      51.483  27.641  28.075  1.00  0.00    -0.203 F 
ATOM     72  F   UNL A   1      53.026  27.993  22.853  1.00  0.00    -0.200 F 
ATOM     73  C   UNL A   1      53.589  27.733  25.131  1.00  0.00     0.200 A 
ATOM     74  F   UNL A   1      54.100  27.462  27.420  1.00  0.00    -0.200 F 
ATOM     75  F   UNL A   1      54.884  27.612  24.812  1.00  0.00    -0.200 F 
ENDBRANCH  51  65
BRANCH  52  76
ATOM     76  C   UNL A   1      41.238  28.486  28.407  1.00  0.00     0.064 A 
ATOM     77  C   UNL A   1      40.831  28.098  29.692  1.00  0.00     0.173 A 
ATOM     78  C   UNL A   1      40.251  28.943  27.521  1.00  0.00     0.173 A 
ATOM     79  F   UNL A   1      41.733  27.634  30.568  1.00  0.00    -0.203 F 
ATOM     80  C   UNL A   1      39.489  28.139  30.066  1.00  0.00     0.198 A 
ATOM     81  C   UNL A   1      38.914  29.015  27.908  1.00  0.00     0.198 A 
ATOM     82  F   UNL A   1      40.588  29.332  26.283  1.00  0.00    -0.203 F 
ATOM     83  F   UNL A   1      39.121  27.713  31.281  1.00  0.00    -0.200 F 
ATOM     84  C   UNL A   1      38.533  28.604  29.175  1.00  0.00     0.200 A 
ATOM     85  F   UNL A   1      37.996  29.479  27.049  1.00  0.00    -0.200 F 
ATOM     86  F   UNL A   1      37.243  28.646  29.535  1.00  0.00    -0.200 F 
ENDBRANCH  52  76
BRANCH  64  87
ATOM     87  C   UNL A   1      46.475  33.082  28.364  1.00  0.00     0.064 A 
ATOM     88  C   UNL A   1      46.221  34.104  27.439  1.00  0.00     0.173 A 
ATOM     89  C   UNL A   1      46.777  33.451  29.684  1.00  0.00     0.173 A 
ATOM     90  F   UNL A   1      45.943  33.805  26.160  1.00  0.00    -0.203 F 
ATOM     91  C   UNL A   1      46.298  35.444  27.812  1.00  0.00     0.198 A 
ATOM     92  C   UNL A   1      46.818  34.790  30.062  1.00  0.00     0.198 A 
ATOM     93  F   UNL A   1      47.020  32.513  30.611  1.00  0.00    -0.203 F 
ATOM     94  F   UNL A   1      46.107  36.404  26.897  1.00  0.00    -0.200 F 
ATOM     95  C   UNL A   1      46.589  35.785  29.124  1.00  0.00     0.200 A 
ATOM     96  F   UNL A   1      47.084  35.117  31.334  1.00  0.00    -0.200 F 
ATOM     97  F   UNL A   1      46.656  37.074  29.484  1.00  0.00    -0.200 F 
ENDBRANCH  64  87
ENDBRANCH  38  39
ENDBRANCH  30  33
ENDBRANCH  28  29
ENDBRANCH  27  28
ENDBRANCH  26  27
ENDBRANCH  25  26
ENDBRANCH   1  25
TORSDOF 17
ENDMDL
MODEL 3
REMARK VINA RESULT:     -10.9      1.649      7.732
REMARK SMILES C[C@@H]1[C@@H](C(=O)NCCCCCCNC(=O)c2ccc(-c3c4nc(c(-c5c(F)c(F)c(F)c(F)c5F)c5ccc([nH]5)c(-c5c(F)c(F)c(F)c(F)c5F)c5nc(c(-c6c(F)c(F)c(F)c(F)c6F)c6ccc3[nH]6)C=C5)C=C4)cc2)CCN1C(=O)[C@@H]1CCCN1C(=O)C1CC1
REMARK SMILES IDX 8 1 7 2 6 3 4 4 5 5 3 7 1 8 2 9 81 10 79 11 80 12 82 13
REMARK SMILES IDX 83 14 84 15 85 16 88 17 86 18 87 19 89 20 90 21 91 22 92 23
REMARK SMILES IDX 93 24 9 25 10 26 11 27 12 28 13 29 14 30 15 32 16 33 17 34
REMARK SMILES IDX 78 35 18 36 77 37 19 38 20 39 21 40 71 41 22 42 76 43 70 44
REMARK SMILES IDX 72 45 23 46 75 47 69 48 68 49 24 51 56 52 36 53 55 54 37 55
REMARK SMILES IDX 40 56 54 57 73 58 38 59 39 60 53 62 74 63 41 64 25 65 26 66
REMARK SMILES IDX 34 67 27 68 28 69 32 70 35 71 29 72 30 73 33 74 31 75 57 76
REMARK SMILES IDX 58 77 66 78 59 79 60 80 64 81 67 82 61 83 62 84 65 85 63 86
REMARK SMILES IDX 42 87 43 88 51 89 44 90 45 91 49 92 52 93 46 94 47 95 50 96
REMARK SMILES IDX 48 97
REMARK H PARENT 6 6 13 31 72 50 40 61
REMARK Flexibility Score: inf
ROOT
ATOM      1  C   UNL A   1      35.684  21.436  25.737  1.00  0.00     0.021 C 
ENDROOT
BRANCH   1   2
ATOM      2  C   UNL A   1      35.376  22.738  26.462  1.00  0.00     0.116 C 
BRANCH   2   3
ATOM      3  N   UNL A   1      34.200  22.654  27.301  1.00  0.00    -0.356 N 
ATOM      4  C   UNL A   1      32.901  22.935  26.994  1.00  0.00     0.225 C 
ATOM      5  O   UNL A   1      32.067  22.821  27.892  1.00  0.00    -0.275 OA
ATOM      6  H   UNL A   1      34.360  22.352  28.224  1.00  0.00     0.163 HD
BRANCH   4   7
ATOM      7  C   UNL A   1      32.549  23.449  25.596  1.00  0.00     0.102 C 
ATOM      8  C   UNL A   1      33.457  25.142  23.944  1.00  0.00     0.032 C 
ATOM      9  C   UNL A   1      33.022  24.914  25.392  1.00  0.00     0.094 C 
ATOM     10  N   UNL A   1      31.846  25.727  25.748  1.00  0.00    -0.337 N 
ATOM     11  C   UNL A   1      31.041  23.575  25.358  1.00  0.00     0.037 C 
ATOM     12  C   UNL A   1      30.719  24.873  26.058  1.00  0.00     0.121 C 
BRANCH  10  13
ATOM     13  C   UNL A   1      31.949  26.931  26.435  1.00  0.00     0.245 C 
ATOM     14  O   UNL A   1      31.137  27.244  27.307  1.00  0.00    -0.272 OA
BRANCH  13  15
ATOM     15  C   UNL A   1      33.037  27.898  25.915  1.00  0.00     0.174 C 
ATOM     16  C   UNL A   1      33.758  28.623  27.054  1.00  0.00     0.037 C 
ATOM     17  N   UNL A   1      32.425  28.983  25.142  1.00  0.00    -0.330 N 
ATOM     18  C   UNL A   1      32.891  29.848  27.298  1.00  0.00     0.024 C 
ATOM     19  C   UNL A   1      32.423  30.222  25.904  1.00  0.00     0.120 C 
BRANCH  17  20
ATOM     20  C   UNL A   1      31.873  28.991  23.874  1.00  0.00     0.226 C 
ATOM     21  O   UNL A   1      32.573  28.763  22.888  1.00  0.00    -0.275 OA
BRANCH  20  22
ATOM     22  C   UNL A   1      30.423  29.213  23.595  1.00  0.00     0.079 C 
ATOM     23  C   UNL A   1      29.622  29.206  22.329  1.00  0.00     0.014 C 
ATOM     24  C   UNL A   1      29.564  28.016  23.238  1.00  0.00     0.014 C 
ENDBRANCH  20  22
ENDBRANCH  17  20
ENDBRANCH  13  15
ENDBRANCH  10  13
ENDBRANCH   4   7
ENDBRANCH   2   3
ENDBRANCH   1   2
BRANCH   1  25
ATOM     25  C   UNL A   1      37.114  21.307  25.204  1.00  0.00     0.002 C 
BRANCH  25  26
ATOM     26  C   UNL A   1      37.469  19.974  24.537  1.00  0.00     0.002 C 
BRANCH  26  27
ATOM     27  C   UNL A   1      38.424  19.066  25.315  1.00  0.00     0.021 C 
BRANCH  27  28
ATOM     28  C   UNL A   1      39.686  19.736  25.842  1.00  0.00     0.116 C 
BRANCH  28  29
ATOM     29  N   UNL A   1      40.818  18.830  25.915  1.00  0.00    -0.352 N 
ATOM     30  C   UNL A   1      42.150  19.102  26.102  1.00  0.00     0.251 C 
ATOM     31  H   UNL A   1      40.596  17.877  25.816  1.00  0.00     0.163 HD
ATOM     32  O   UNL A   1      42.976  18.201  26.001  1.00  0.00    -0.269 OA
BRANCH  30  33
ATOM     33  C   UNL A   1      42.603  20.480  26.398  1.00  0.00     0.039 A 
ATOM     34  C   UNL A   1      43.177  21.226  25.364  1.00  0.00     0.014 A 
ATOM     35  C   UNL A   1      42.497  21.030  27.679  1.00  0.00     0.014 A 
ATOM     36  C   UNL A   1      43.601  22.534  25.604  1.00  0.00     0.010 A 
ATOM     37  C   UNL A   1      42.851  22.360  27.898  1.00  0.00     0.010 A 
ATOM     38  C   UNL A   1      43.418  23.123  26.865  1.00  0.00    -0.014 A 
BRANCH  38  39
ATOM     39  C   UNL A   1      43.829  24.529  27.114  1.00  0.00     0.031 A 
ATOM     40  C   UNL A   1      42.814  25.557  27.533  1.00  0.00     0.074 A 
ATOM     41  C   UNL A   1      45.115  24.887  26.931  1.00  0.00     0.049 A 
ATOM     42  N   UNL A   1      42.981  26.832  27.782  1.00  0.00    -0.248 NA
ATOM     43  C   UNL A   1      41.423  25.099  27.667  1.00  0.00     0.031 C 
ATOM     44  C   UNL A   1      46.184  23.994  26.482  1.00  0.00     0.029 A 
ATOM     45  N   UNL A   1      45.741  26.097  27.100  1.00  0.00    -0.354 N 
ATOM     46  C   UNL A   1      41.721  27.326  28.095  1.00  0.00     0.074 A 
ATOM     47  C   UNL A   1      40.789  26.229  27.945  1.00  0.00     0.031 C 
ATOM     48  C   UNL A   1      47.339  24.678  26.440  1.00  0.00     0.029 A 
ATOM     49  C   UNL A   1      47.087  26.063  26.824  1.00  0.00     0.049 A 
ATOM     50  H   UNL A   1      45.272  26.912  27.391  1.00  0.00     0.167 HD
ATOM     51  C   UNL A   1      41.376  28.572  28.498  1.00  0.00     0.037 A 
ATOM     52  C   UNL A   1      48.012  27.040  26.872  1.00  0.00     0.037 A 
ATOM     53  C   UNL A   1      42.309  29.656  28.666  1.00  0.00     0.049 A 
ATOM     54  C   UNL A   1      47.598  28.421  27.308  1.00  0.00     0.074 A 
ATOM     55  C   UNL A   1      42.067  30.940  29.124  1.00  0.00     0.029 A 
ATOM     56  N   UNL A   1      43.665  29.584  28.377  1.00  0.00    -0.354 N 
ATOM     57  N   UNL A   1      46.418  28.855  27.674  1.00  0.00    -0.248 NA
ATOM     58  C   UNL A   1      48.652  29.446  27.346  1.00  0.00     0.031 C 
ATOM     59  C   UNL A   1      43.265  31.659  29.060  1.00  0.00     0.029 A 
ATOM     60  C   UNL A   1      44.265  30.809  28.619  1.00  0.00     0.049 A 
ATOM     61  H   UNL A   1      44.130  28.781  28.048  1.00  0.00     0.167 HD
ATOM     62  C   UNL A   1      46.589  30.192  28.010  1.00  0.00     0.074 A 
ATOM     63  C   UNL A   1      47.994  30.491  27.825  1.00  0.00     0.031 C 
ATOM     64  C   UNL A   1      45.667  31.092  28.432  1.00  0.00     0.037 A 
BRANCH  51  65
ATOM     65  C   UNL A   1      39.926  28.833  28.789  1.00  0.00     0.064 A 
ATOM     66  C   UNL A   1      39.040  29.268  27.789  1.00  0.00     0.173 A 
ATOM     67  C   UNL A   1      39.403  28.609  30.072  1.00  0.00     0.173 A 
ATOM     68  F   UNL A   1      39.489  29.508  26.548  1.00  0.00    -0.203 F 
ATOM     69  C   UNL A   1      37.696  29.498  28.071  1.00  0.00     0.198 A 
ATOM     70  C   UNL A   1      38.052  28.808  30.341  1.00  0.00     0.198 A 
ATOM     71  F   UNL A   1      40.202  28.187  31.064  1.00  0.00    -0.203 F 
ATOM     72  F   UNL A   1      36.882  29.964  27.113  1.00  0.00    -0.200 F 
ATOM     73  C   UNL A   1      37.201  29.261  29.344  1.00  0.00     0.200 A 
ATOM     74  F   UNL A   1      37.572  28.564  31.569  1.00  0.00    -0.200 F 
ATOM     75  F   UNL A   1      35.906  29.474  29.612  1.00  0.00    -0.200 F 
ENDBRANCH  51  65
BRANCH  52  76
ATOM     76  C   UNL A   1      49.426  26.746  26.519  1.00  0.00     0.064 A 
ATOM     77  C   UNL A   1      50.352  26.371  27.503  1.00  0.00     0.173 A 
ATOM     78  C   UNL A   1      49.884  26.847  25.197  1.00  0.00     0.173 A 
ATOM     79  F   UNL A   1      49.969  26.282  28.784  1.00  0.00    -0.203 F 
ATOM     80  C   UNL A   1      51.687  26.132  27.182  1.00  0.00     0.198 A 
ATOM     81  C   UNL A   1      51.212  26.576  24.873  1.00  0.00     0.198 A 
ATOM     82  F   UNL A   1      49.038  27.196  24.217  1.00  0.00    -0.203 F 
ATOM     83  F   UNL A   1      52.562  25.826  28.149  1.00  0.00    -0.200 F 
ATOM     84  C   UNL A   1      52.114  26.229  25.866  1.00  0.00     0.200 A 
ATOM     85  F   UNL A   1      51.616  26.655  23.598  1.00  0.00    -0.200 F 
ATOM     86  F   UNL A   1      53.397  25.996  25.557  1.00  0.00    -0.200 F 
ENDBRANCH  52  76
BRANCH  64  87
ATOM     87  C   UNL A   1      46.152  32.477  28.751  1.00  0.00     0.064 A 
ATOM     88  C   UNL A   1      46.165  33.494  27.785  1.00  0.00     0.173 A 
ATOM     89  C   UNL A   1      46.579  32.799  30.049  1.00  0.00     0.173 A 
ATOM     90  F   UNL A   1      45.780  33.234  26.526  1.00  0.00    -0.203 F 
ATOM     91  C   UNL A   1      46.617  34.774  28.098  1.00  0.00     0.198 A 
ATOM     92  C   UNL A   1      46.997  34.088  30.366  1.00  0.00     0.198 A 
ATOM     93  F   UNL A   1      46.579  31.867  31.012  1.00  0.00    -0.203 F 
ATOM     94  F   UNL A   1      46.672  35.713  27.144  1.00  0.00    -0.200 F 
ATOM     95  C   UNL A   1      47.025  35.071  29.389  1.00  0.00     0.200 A 
ATOM     96  F   UNL A   1      47.376  34.378  31.619  1.00  0.00    -0.200 F 
ATOM     97  F   UNL A   1      47.454  36.305  29.690  1.00  0.00    -0.200 F 
ENDBRANCH  64  87
ENDBRANCH  38  39
ENDBRANCH  30  33
ENDBRANCH  28  29
ENDBRANCH  27  28
ENDBRANCH  26  27
ENDBRANCH  25  26
ENDBRANCH   1  25
TORSDOF 17
ENDMDL
