MODEL 1
REMARK VINA RESULT:     -13.5      0.000      0.000
REMARK SMILES CCN1C(=O)C[C@H](C(=O)Nc2cccc(C(=O)NCCCCCCNC(=O)c3ccc(-c4c5nc(c(-c6c(F)c(F)c(F)c(F)c6F)c6ccc([nH]6)c(-c6c(F)c(F)c(F)c(F)c6F)c6nc(c(-c7c(F)c(F)c(F)c(F)c7F)c7ccc4[nH]7)C=C6)C=C5)cc3)c2)S/C1=[NH+]/c1cccc(C(F)(F)F)c1
REMARK SMILES IDX 20 1 19 2 18 3 16 4 17 5 15 7 11 8 12 9 91 10 13 11 14 12
REMARK SMILES IDX 10 13 8 14 9 15 7 17 3 18 4 19 93 20 5 21 6 22 92 23 94 24
REMARK SMILES IDX 2 26 1 27 95 28 96 29 104 30 97 31 99 32 98 33 100 34 101 35
REMARK SMILES IDX 102 36 103 37 21 38 22 39 23 40 24 41 25 42 26 43 27 45
REMARK SMILES IDX 28 46 29 47 90 48 30 49 89 50 31 51 32 52 33 53 83 54 34 55
REMARK SMILES IDX 88 56 82 57 84 58 35 59 87 60 81 61 80 62 36 64 68 65 48 66
REMARK SMILES IDX 67 67 49 68 52 69 66 70 85 71 50 72 51 73 65 75 86 76 53 77
REMARK SMILES IDX 37 78 38 79 46 80 39 81 40 82 44 83 47 84 41 85 42 86 45 87
REMARK SMILES IDX 43 88 69 89 70 90 78 91 71 92 72 93 76 94 79 95 73 96 74 97
REMARK SMILES IDX 77 98 75 99 54 100 55 101 63 102 56 103 57 104 61 105 64 106
REMARK SMILES IDX 58 107 59 108 62 109 60 110
REMARK H PARENT 18 6 10 16 94 25 25 44 84 63 52 74
REMARK Flexibility Score: inf
ROOT
ATOM      1  C   UNL A   1      33.060  29.145  27.057  1.00  0.00     0.021 C 
ENDROOT
BRANCH   1   2
ATOM      2  C   UNL A   1      31.849  29.810  26.305  1.00  0.00     0.116 C 
BRANCH   2   3
ATOM      3  N   UNL A   1      31.399  29.812  24.792  1.00  0.00    -0.352 N 
ATOM      4  C   UNL A   1      30.465  29.077  23.881  1.00  0.00     0.251 C 
ATOM      5  O   UNL A   1      29.656  29.822  23.307  1.00  0.00    -0.269 OA
ATOM      6  H   UNL A   1      31.881  30.511  24.295  1.00  0.00     0.163 HD
BRANCH   4   7
ATOM      7  C   UNL A   1      30.526  27.598  23.220  1.00  0.00     0.041 A 
ATOM      8  C   UNL A   1      30.326  25.155  23.680  1.00  0.00     0.041 A 
ATOM      9  C   UNL A   1      31.280  24.895  22.707  1.00  0.00     0.026 A 
ATOM     10  C   UNL A   1      29.794  26.469  23.615  1.00  0.00     0.040 A 
ATOM     11  C   UNL A   1      31.694  25.938  21.855  1.00  0.00     0.003 A 
ATOM     12  C   UNL A   1      31.337  27.290  22.124  1.00  0.00     0.014 A 
BRANCH   8  13
ATOM     13  N   UNL A   1      30.226  24.181  24.774  1.00  0.00    -0.325 N 
ATOM     14  C   UNL A   1      31.036  23.602  25.756  1.00  0.00     0.238 C 
ATOM     15  O   UNL A   1      30.674  22.478  26.151  1.00  0.00    -0.273 OA
ATOM     16  H   UNL A   1      29.309  23.829  24.837  1.00  0.00     0.169 HD
BRANCH  14  17
ATOM     17  C   UNL A   1      32.236  24.221  26.505  1.00  0.00     0.160 C 
ATOM     18  N   UNL A   1      34.797  22.701  26.092  1.00  0.00    -0.191 N 
ATOM     19  C   UNL A   1      34.035  22.366  27.177  1.00  0.00     0.311 C 
ATOM     20  C   UNL A   1      33.856  22.867  25.150  1.00  0.00     0.319 C 
ATOM     21  O   UNL A   1      33.996  21.231  27.638  1.00  0.00    -0.247 OA
ATOM     22  C   UNL A   1      32.980  23.425  27.623  1.00  0.00     0.153 C 
ATOM     23  S   UNL A   1      33.507  24.651  25.407  1.00  0.00    -0.024 SA
ATOM     24  N   UNL A   1      33.004  22.018  24.579  1.00  0.00    -0.235 N 
ATOM     25  H   UNL A   1      32.137  22.453  24.413  1.00  0.00     0.313 HD
BRANCH  18  26
ATOM     26  C   UNL A   1      36.148  23.412  26.148  1.00  0.00     0.243 C 
ATOM     27  C   UNL A   1      37.088  23.629  24.940  1.00  0.00     0.054 C 
ENDBRANCH  18  26
BRANCH  24  28
ATOM     28  C   UNL A   1      32.981  20.620  24.124  1.00  0.00     0.126 A 
ATOM     29  C   UNL A   1      32.238  20.286  22.963  1.00  0.00     0.052 A 
ATOM     30  C   UNL A   1      33.515  19.477  24.710  1.00  0.00     0.064 A 
ATOM     31  C   UNL A   1      32.149  19.078  22.270  1.00  0.00     0.005 A 
ATOM     32  C   UNL A   1      33.428  18.184  24.050  1.00  0.00     0.060 A 
ATOM     33  C   UNL A   1      32.782  18.011  22.811  1.00  0.00     0.013 A 
BRANCH  32  34
ATOM     34  C   UNL A   1      34.074  16.928  24.568  1.00  0.00     0.416 C 
ATOM     35  F   UNL A   1      33.579  16.560  25.787  1.00  0.00    -0.166 F 
ATOM     36  F   UNL A   1      33.827  15.868  23.745  1.00  0.00    -0.166 F 
ATOM     37  F   UNL A   1      35.419  17.005  24.708  1.00  0.00    -0.166 F 
ENDBRANCH  32  34
ENDBRANCH  24  28
ENDBRANCH  14  17
ENDBRANCH   8  13
ENDBRANCH   4   7
ENDBRANCH   2   3
ENDBRANCH   1   2
BRANCH   1  38
ATOM     38  C   UNL A   1      34.332  30.068  27.388  1.00  0.00     0.002 C 
BRANCH  38  39
ATOM     39  C   UNL A   1      34.325  31.504  27.994  1.00  0.00     0.002 C 
BRANCH  39  40
ATOM     40  C   UNL A   1      33.799  32.770  27.299  1.00  0.00     0.021 C 
BRANCH  40  41
ATOM     41  C   UNL A   1      32.423  33.304  27.647  1.00  0.00     0.116 C 
BRANCH  41  42
ATOM     42  N   UNL A   1      32.480  34.713  28.016  1.00  0.00    -0.352 N 
ATOM     43  C   UNL A   1      33.196  35.327  29.003  1.00  0.00     0.251 C 
ATOM     44  H   UNL A   1      31.918  35.312  27.472  1.00  0.00     0.163 HD
ATOM     45  O   UNL A   1      32.862  36.479  29.364  1.00  0.00    -0.269 OA
BRANCH  43  46
ATOM     46  C   UNL A   1      34.359  34.686  29.657  1.00  0.00     0.039 A 
ATOM     47  C   UNL A   1      35.635  34.818  29.093  1.00  0.00     0.014 A 
ATOM     48  C   UNL A   1      34.195  33.887  30.791  1.00  0.00     0.014 A 
ATOM     49  C   UNL A   1      36.731  34.166  29.670  1.00  0.00     0.010 A 
ATOM     50  C   UNL A   1      35.302  33.337  31.432  1.00  0.00     0.010 A 
ATOM     51  C   UNL A   1      36.574  33.425  30.852  1.00  0.00    -0.014 A 
BRANCH  51  52
ATOM     52  C   UNL A   1      37.701  32.652  31.441  1.00  0.00     0.031 A 
ATOM     53  C   UNL A   1      38.203  33.006  32.820  1.00  0.00     0.074 A 
ATOM     54  C   UNL A   1      38.286  31.663  30.739  1.00  0.00     0.049 A 
ATOM     55  N   UNL A   1      39.201  32.498  33.499  1.00  0.00    -0.248 NA
ATOM     56  C   UNL A   1      37.512  34.105  33.517  1.00  0.00     0.031 C 
ATOM     57  C   UNL A   1      37.926  31.262  29.378  1.00  0.00     0.029 A 
ATOM     58  N   UNL A   1      39.312  30.815  31.074  1.00  0.00    -0.354 N 
ATOM     59  C   UNL A   1      39.255  33.220  34.687  1.00  0.00     0.074 A 
ATOM     60  C   UNL A   1      38.258  34.258  34.600  1.00  0.00     0.031 C 
ATOM     61  C   UNL A   1      38.694  30.223  29.008  1.00  0.00     0.029 A 
ATOM     62  C   UNL A   1      39.623  29.909  30.088  1.00  0.00     0.049 A 
ATOM     63  H   UNL A   1      39.780  30.850  31.938  1.00  0.00     0.167 HD
ATOM     64  C   UNL A   1      40.034  33.008  35.776  1.00  0.00     0.037 A 
ATOM     65  C   UNL A   1      40.552  28.936  30.067  1.00  0.00     0.037 A 
ATOM     66  C   UNL A   1      41.010  31.955  35.869  1.00  0.00     0.049 A 
ATOM     67  C   UNL A   1      41.411  28.726  31.288  1.00  0.00     0.074 A 
ATOM     68  C   UNL A   1      41.844  31.639  36.925  1.00  0.00     0.029 A 
ATOM     69  N   UNL A   1      41.270  31.039  34.861  1.00  0.00    -0.354 N 
ATOM     70  N   UNL A   1      41.414  29.381  32.425  1.00  0.00    -0.248 NA
ATOM     71  C   UNL A   1      42.382  27.627  31.230  1.00  0.00     0.031 C 
ATOM     72  C   UNL A   1      42.636  30.551  36.542  1.00  0.00     0.029 A 
ATOM     73  C   UNL A   1      42.254  30.154  35.272  1.00  0.00     0.049 A 
ATOM     74  H   UNL A   1      40.823  31.020  33.984  1.00  0.00     0.167 HD
ATOM     75  C   UNL A   1      42.350  28.745  33.230  1.00  0.00     0.074 A 
ATOM     76  C   UNL A   1      42.879  27.641  32.457  1.00  0.00     0.031 C 
ATOM     77  C   UNL A   1      42.741  29.045  34.494  1.00  0.00     0.037 A 
BRANCH  64  78
ATOM     78  C   UNL A   1      39.834  33.912  36.959  1.00  0.00     0.064 A 
ATOM     79  C   UNL A   1      40.452  35.172  37.029  1.00  0.00     0.173 A 
ATOM     80  C   UNL A   1      38.999  33.535  38.022  1.00  0.00     0.173 A 
ATOM     81  F   UNL A   1      41.273  35.577  36.048  1.00  0.00    -0.203 F 
ATOM     82  C   UNL A   1      40.265  36.005  38.129  1.00  0.00     0.198 A 
ATOM     83  C   UNL A   1      38.787  34.386  39.104  1.00  0.00     0.198 A 
ATOM     84  F   UNL A   1      38.380  32.345  38.007  1.00  0.00    -0.203 F 
ATOM     85  F   UNL A   1      40.910  37.177  38.196  1.00  0.00    -0.200 F 
ATOM     86  C   UNL A   1      39.426  35.615  39.161  1.00  0.00     0.200 A 
ATOM     87  F   UNL A   1      37.964  34.015  40.095  1.00  0.00    -0.200 F 
ATOM     88  F   UNL A   1      39.238  36.423  40.214  1.00  0.00    -0.200 F 
ENDBRANCH  64  78
BRANCH  65  89
ATOM     89  C   UNL A   1      40.708  28.060  28.872  1.00  0.00     0.064 A 
ATOM     90  C   UNL A   1      41.567  28.417  27.820  1.00  0.00     0.173 A 
ATOM     91  C   UNL A   1      39.969  26.876  28.732  1.00  0.00     0.173 A 
ATOM     92  F   UNL A   1      42.285  29.546  27.897  1.00  0.00    -0.203 F 
ATOM     93  C   UNL A   1      41.641  27.651  26.658  1.00  0.00     0.198 A 
ATOM     94  C   UNL A   1      40.073  26.092  27.584  1.00  0.00     0.198 A 
ATOM     95  F   UNL A   1      39.141  26.480  29.710  1.00  0.00    -0.203 F 
ATOM     96  F   UNL A   1      42.412  28.059  25.639  1.00  0.00    -0.200 F 
ATOM     97  C   UNL A   1      40.897  26.489  26.541  1.00  0.00     0.200 A 
ATOM     98  F   UNL A   1      39.366  24.959  27.483  1.00  0.00    -0.200 F 
ATOM     99  F   UNL A   1      40.961  25.758  25.420  1.00  0.00    -0.200 F 
ENDBRANCH  65  89
BRANCH  77 100
ATOM    100  C   UNL A   1      43.733  28.121  35.140  1.00  0.00     0.064 A 
ATOM    101  C   UNL A   1      43.334  27.002  35.886  1.00  0.00     0.173 A 
ATOM    102  C   UNL A   1      45.110  28.360  35.001  1.00  0.00     0.173 A 
ATOM    103  F   UNL A   1      42.030  26.735  36.058  1.00  0.00    -0.203 F 
ATOM    104  C   UNL A   1      44.274  26.186  36.510  1.00  0.00     0.198 A 
ATOM    105  C   UNL A   1      46.047  27.519  35.592  1.00  0.00     0.198 A 
ATOM    106  F   UNL A   1      45.546  29.409  34.287  1.00  0.00    -0.203 F 
ATOM    107  F   UNL A   1      43.866  25.168  37.279  1.00  0.00    -0.200 F 
ATOM    108  C   UNL A   1      45.629  26.443  36.358  1.00  0.00     0.200 A 
ATOM    109  F   UNL A   1      47.355  27.757  35.428  1.00  0.00    -0.200 F 
ATOM    110  F   UNL A   1      46.531  25.656  36.960  1.00  0.00    -0.200 F 
ENDBRANCH  77 100
ENDBRANCH  51  52
ENDBRANCH  43  46
ENDBRANCH  41  42
ENDBRANCH  40  41
ENDBRANCH  39  40
ENDBRANCH  38  39
ENDBRANCH   1  38
TORSDOF 18
ENDMDL
MODEL 2
REMARK VINA RESULT:     -13.4      0.481      6.873
REMARK SMILES CCN1C(=O)C[C@H](C(=O)Nc2cccc(C(=O)NCCCCCCNC(=O)c3ccc(-c4c5nc(c(-c6c(F)c(F)c(F)c(F)c6F)c6ccc([nH]6)c(-c6c(F)c(F)c(F)c(F)c6F)c6nc(c(-c7c(F)c(F)c(F)c(F)c7F)c7ccc4[nH]7)C=C6)C=C5)cc3)c2)S/C1=[NH+]/c1cccc(C(F)(F)F)c1
REMARK SMILES IDX 20 1 19 2 18 3 16 4 17 5 15 7 11 8 12 9 91 10 13 11 14 12
REMARK SMILES IDX 10 13 8 14 9 15 7 17 3 18 4 19 93 20 5 21 6 22 92 23 94 24
REMARK SMILES IDX 2 26 1 27 95 28 96 29 104 30 97 31 99 32 98 33 100 34 101 35
REMARK SMILES IDX 102 36 103 37 21 38 22 39 23 40 24 41 25 42 26 43 27 45
REMARK SMILES IDX 28 46 29 47 90 48 30 49 89 50 31 51 32 52 33 53 83 54 34 55
REMARK SMILES IDX 88 56 82 57 84 58 35 59 87 60 81 61 80 62 36 64 68 65 48 66
REMARK SMILES IDX 67 67 49 68 52 69 66 70 85 71 50 72 51 73 65 75 86 76 53 77
REMARK SMILES IDX 37 78 38 79 46 80 39 81 40 82 44 83 47 84 41 85 42 86 45 87
REMARK SMILES IDX 43 88 69 89 70 90 78 91 71 92 72 93 76 94 79 95 73 96 74 97
REMARK SMILES IDX 77 98 75 99 54 100 55 101 63 102 56 103 57 104 61 105 64 106
REMARK SMILES IDX 58 107 59 108 62 109 60 110
REMARK H PARENT 18 6 10 16 94 25 25 44 84 63 52 74
REMARK Flexibility Score: inf
ROOT
ATOM      1  C   UNL A   1      32.878  29.088  26.761  1.00  0.00     0.021 C 
ENDROOT
BRANCH   1   2
ATOM      2  C   UNL A   1      31.899  30.004  25.938  1.00  0.00     0.116 C 
BRANCH   2   3
ATOM      3  N   UNL A   1      31.270  29.874  24.496  1.00  0.00    -0.352 N 
ATOM      4  C   UNL A   1      30.329  28.988  23.739  1.00  0.00     0.251 C 
ATOM      5  O   UNL A   1      29.371  29.601  23.246  1.00  0.00    -0.269 OA
ATOM      6  H   UNL A   1      31.598  30.599  23.915  1.00  0.00     0.163 HD
BRANCH   4   7
ATOM      7  C   UNL A   1      30.491  27.494  23.131  1.00  0.00     0.041 A 
ATOM      8  C   UNL A   1      30.366  25.059  23.656  1.00  0.00     0.041 A 
ATOM      9  C   UNL A   1      31.387  24.812  22.750  1.00  0.00     0.026 A 
ATOM     10  C   UNL A   1      29.785  26.347  23.518  1.00  0.00     0.040 A 
ATOM     11  C   UNL A   1      31.808  25.847  21.891  1.00  0.00     0.003 A 
ATOM     12  C   UNL A   1      31.379  27.189  22.095  1.00  0.00     0.014 A 
BRANCH   8  13
ATOM     13  N   UNL A   1      30.241  24.115  24.772  1.00  0.00    -0.325 N 
ATOM     14  C   UNL A   1      31.032  23.549  25.777  1.00  0.00     0.238 C 
ATOM     15  O   UNL A   1      30.651  22.441  26.197  1.00  0.00    -0.273 OA
ATOM     16  H   UNL A   1      29.318  23.777  24.834  1.00  0.00     0.169 HD
BRANCH  14  17
ATOM     17  C   UNL A   1      32.232  24.171  26.524  1.00  0.00     0.160 C 
ATOM     18  N   UNL A   1      34.801  22.670  26.084  1.00  0.00    -0.191 N 
ATOM     19  C   UNL A   1      34.047  22.323  27.172  1.00  0.00     0.311 C 
ATOM     20  C   UNL A   1      33.853  22.837  25.149  1.00  0.00     0.319 C 
ATOM     21  O   UNL A   1      34.019  21.184  27.624  1.00  0.00    -0.247 OA
ATOM     22  C   UNL A   1      32.989  23.371  27.632  1.00  0.00     0.153 C 
ATOM     23  S   UNL A   1      33.494  24.618  25.422  1.00  0.00    -0.024 SA
ATOM     24  N   UNL A   1      33.004  21.987  24.577  1.00  0.00    -0.235 N 
ATOM     25  H   UNL A   1      32.133  22.418  24.419  1.00  0.00     0.313 HD
BRANCH  18  26
ATOM     26  C   UNL A   1      36.147  23.390  26.138  1.00  0.00     0.243 C 
ATOM     27  C   UNL A   1      37.415  22.961  25.365  1.00  0.00     0.054 C 
ENDBRANCH  18  26
BRANCH  24  28
ATOM     28  C   UNL A   1      32.987  20.593  24.112  1.00  0.00     0.126 A 
ATOM     29  C   UNL A   1      32.241  20.263  22.952  1.00  0.00     0.052 A 
ATOM     30  C   UNL A   1      33.531  19.449  24.687  1.00  0.00     0.064 A 
ATOM     31  C   UNL A   1      32.157  19.060  22.249  1.00  0.00     0.005 A 
ATOM     32  C   UNL A   1      33.449  18.161  24.017  1.00  0.00     0.060 A 
ATOM     33  C   UNL A   1      32.798  17.993  22.780  1.00  0.00     0.013 A 
BRANCH  32  34
ATOM     34  C   UNL A   1      34.105  16.905  24.523  1.00  0.00     0.416 C 
ATOM     35  F   UNL A   1      33.643  16.543  25.756  1.00  0.00    -0.166 F 
ATOM     36  F   UNL A   1      33.832  15.842  23.712  1.00  0.00    -0.166 F 
ATOM     37  F   UNL A   1      35.453  16.977  24.624  1.00  0.00    -0.166 F 
ENDBRANCH  32  34
ENDBRANCH  24  28
ENDBRANCH  14  17
ENDBRANCH   8  13
ENDBRANCH   4   7
ENDBRANCH   2   3
ENDBRANCH   1   2
BRANCH   1  38
ATOM     38  C   UNL A   1      34.212  29.762  27.350  1.00  0.00     0.002 C 
BRANCH  38  39
ATOM     39  C   UNL A   1      34.346  31.159  28.028  1.00  0.00     0.002 C 
BRANCH  39  40
ATOM     40  C   UNL A   1      33.937  32.503  27.403  1.00  0.00     0.021 C 
BRANCH  40  41
ATOM     41  C   UNL A   1      32.534  33.037  27.620  1.00  0.00     0.116 C 
BRANCH  41  42
ATOM     42  N   UNL A   1      32.553  34.464  27.921  1.00  0.00    -0.352 N 
ATOM     43  C   UNL A   1      33.200  35.136  28.918  1.00  0.00     0.251 C 
ATOM     44  H   UNL A   1      32.019  35.027  27.314  1.00  0.00     0.163 HD
ATOM     45  O   UNL A   1      32.831  36.299  29.200  1.00  0.00    -0.269 OA
BRANCH  43  46
ATOM     46  C   UNL A   1      34.327  34.544  29.672  1.00  0.00     0.039 A 
ATOM     47  C   UNL A   1      35.636  34.683  29.192  1.00  0.00     0.014 A 
ATOM     48  C   UNL A   1      34.101  33.783  30.822  1.00  0.00     0.014 A 
ATOM     49  C   UNL A   1      36.702  34.076  29.866  1.00  0.00     0.010 A 
ATOM     50  C   UNL A   1      35.172  33.281  31.557  1.00  0.00     0.010 A 
ATOM     51  C   UNL A   1      36.479  33.376  31.062  1.00  0.00    -0.014 A 
BRANCH  51  52
ATOM     52  C   UNL A   1      37.577  32.649  31.755  1.00  0.00     0.031 A 
ATOM     53  C   UNL A   1      38.232  31.471  31.075  1.00  0.00     0.074 A 
ATOM     54  C   UNL A   1      37.965  33.021  32.989  1.00  0.00     0.049 A 
ATOM     55  N   UNL A   1      39.167  30.668  31.517  1.00  0.00    -0.248 NA
ATOM     56  C   UNL A   1      37.743  31.125  29.728  1.00  0.00     0.031 C 
ATOM     57  C   UNL A   1      37.374  34.108  33.772  1.00  0.00     0.029 A 
ATOM     58  N   UNL A   1      38.949  32.522  33.806  1.00  0.00    -0.354 N 
ATOM     59  C   UNL A   1      39.366  29.729  30.510  1.00  0.00     0.074 A 
ATOM     60  C   UNL A   1      38.395  30.000  29.477  1.00  0.00     0.031 C 
ATOM     61  C   UNL A   1      38.031  34.218  34.939  1.00  0.00     0.029 A 
ATOM     62  C   UNL A   1      39.061  33.187  35.004  1.00  0.00     0.049 A 
ATOM     63  H   UNL A   1      39.520  31.761  33.559  1.00  0.00     0.167 HD
ATOM     64  C   UNL A   1      40.305  28.757  30.427  1.00  0.00     0.037 A 
ATOM     65  C   UNL A   1      39.906  32.984  36.032  1.00  0.00     0.037 A 
ATOM     66  C   UNL A   1      41.289  28.505  31.447  1.00  0.00     0.049 A 
ATOM     67  C   UNL A   1      40.936  31.889  35.919  1.00  0.00     0.074 A 
ATOM     68  C   UNL A   1      42.295  27.557  31.466  1.00  0.00     0.029 A 
ATOM     69  N   UNL A   1      41.390  29.223  32.630  1.00  0.00    -0.354 N 
ATOM     70  N   UNL A   1      41.149  31.045  34.937  1.00  0.00    -0.248 NA
ATOM     71  C   UNL A   1      41.860  31.735  37.049  1.00  0.00     0.031 C 
ATOM     72  C   UNL A   1      42.984  27.677  32.677  1.00  0.00     0.029 A 
ATOM     73  C   UNL A   1      42.444  28.739  33.386  1.00  0.00     0.049 A 
ATOM     74  H   UNL A   1      40.800  29.966  32.893  1.00  0.00     0.167 HD
ATOM     75  C   UNL A   1      42.254  30.294  35.312  1.00  0.00     0.074 A 
ATOM     76  C   UNL A   1      42.680  30.796  36.601  1.00  0.00     0.031 C 
ATOM     77  C   UNL A   1      42.865  29.277  34.653  1.00  0.00     0.037 A 
BRANCH  64  78
ATOM     78  C   UNL A   1      40.331  27.919  29.180  1.00  0.00     0.064 A 
ATOM     79  C   UNL A   1      41.103  28.290  28.066  1.00  0.00     0.173 A 
ATOM     80  C   UNL A   1      39.603  26.723  29.100  1.00  0.00     0.173 A 
ATOM     81  F   UNL A   1      41.806  29.433  28.082  1.00  0.00    -0.203 F 
ATOM     82  C   UNL A   1      41.121  27.513  26.912  1.00  0.00     0.198 A 
ATOM     83  C   UNL A   1      39.651  25.929  27.956  1.00  0.00     0.198 A 
ATOM     84  F   UNL A   1      38.851  26.317  30.134  1.00  0.00    -0.203 F 
ATOM     85  F   UNL A   1      41.821  27.918  25.844  1.00  0.00    -0.200 F 
ATOM     86  C   UNL A   1      40.402  26.328  26.860  1.00  0.00     0.200 A 
ATOM     87  F   UNL A   1      38.968  24.776  27.912  1.00  0.00    -0.200 F 
ATOM     88  F   UNL A   1      40.430  25.575  25.752  1.00  0.00    -0.200 F 
ENDBRANCH  64  78
BRANCH  65  89
ATOM     89  C   UNL A   1      39.846  33.845  37.246  1.00  0.00     0.064 A 
ATOM     90  C   UNL A   1      38.988  33.534  38.312  1.00  0.00     0.173 A 
ATOM     91  C   UNL A   1      40.605  35.021  37.347  1.00  0.00     0.173 A 
ATOM     92  F   UNL A   1      38.229  32.430  38.260  1.00  0.00    -0.203 F 
ATOM     93  C   UNL A   1      38.855  34.389  39.405  1.00  0.00     0.198 A 
ATOM     94  C   UNL A   1      40.499  35.855  38.458  1.00  0.00     0.198 A 
ATOM     95  F   UNL A   1      41.450  35.362  36.363  1.00  0.00    -0.203 F 
ATOM     96  F   UNL A   1      37.971  34.103  40.371  1.00  0.00    -0.200 F 
ATOM     97  C   UNL A   1      39.612  35.547  39.479  1.00  0.00     0.200 A 
ATOM     98  F   UNL A   1      41.247  36.964  38.535  1.00  0.00    -0.200 F 
ATOM     99  F   UNL A   1      39.478  36.373  40.525  1.00  0.00    -0.200 F 
ENDBRANCH  65  89
BRANCH  77 100
ATOM    100  C   UNL A   1      44.099  28.697  35.283  1.00  0.00     0.064 A 
ATOM    101  C   UNL A   1      45.381  29.191  35.003  1.00  0.00     0.173 A 
ATOM    102  C   UNL A   1      43.990  27.631  36.191  1.00  0.00     0.173 A 
ATOM    103  F   UNL A   1      45.541  30.202  34.134  1.00  0.00    -0.203 F 
ATOM    104  C   UNL A   1      46.512  28.607  35.568  1.00  0.00     0.198 A 
ATOM    105  C   UNL A   1      45.119  27.077  36.785  1.00  0.00     0.198 A 
ATOM    106  F   UNL A   1      42.786  27.130  36.504  1.00  0.00    -0.203 F 
ATOM    107  F   UNL A   1      47.730  29.047  35.227  1.00  0.00    -0.200 F 
ATOM    108  C   UNL A   1      46.379  27.555  36.463  1.00  0.00     0.200 A 
ATOM    109  F   UNL A   1      44.987  26.074  37.663  1.00  0.00    -0.200 F 
ATOM    110  F   UNL A   1      47.468  26.994  37.005  1.00  0.00    -0.200 F 
ENDBRANCH  77 100
ENDBRANCH  51  52
ENDBRANCH  43  46
ENDBRANCH  41  42
ENDBRANCH  40  41
ENDBRANCH  39  40
ENDBRANCH  38  39
ENDBRANCH   1  38
TORSDOF 18
ENDMDL
MODEL 3
REMARK VINA RESULT:     -12.9      0.812      6.860
REMARK SMILES CCN1C(=O)C[C@H](C(=O)Nc2cccc(C(=O)NCCCCCCNC(=O)c3ccc(-c4c5nc(c(-c6c(F)c(F)c(F)c(F)c6F)c6ccc([nH]6)c(-c6c(F)c(F)c(F)c(F)c6F)c6nc(c(-c7c(F)c(F)c(F)c(F)c7F)c7ccc4[nH]7)C=C6)C=C5)cc3)c2)S/C1=[NH+]/c1cccc(C(F)(F)F)c1
REMARK SMILES IDX 20 1 19 2 18 3 16 4 17 5 15 7 11 8 12 9 91 10 13 11 14 12
REMARK SMILES IDX 10 13 8 14 9 15 7 17 3 18 4 19 93 20 5 21 6 22 92 23 94 24
REMARK SMILES IDX 2 26 1 27 95 28 96 29 104 30 97 31 99 32 98 33 100 34 101 35
REMARK SMILES IDX 102 36 103 37 21 38 22 39 23 40 24 41 25 42 26 43 27 45
REMARK SMILES IDX 28 46 29 47 90 48 30 49 89 50 31 51 32 52 33 53 83 54 34 55
REMARK SMILES IDX 88 56 82 57 84 58 35 59 87 60 81 61 80 62 36 64 68 65 48 66
REMARK SMILES IDX 67 67 49 68 52 69 66 70 85 71 50 72 51 73 65 75 86 76 53 77
REMARK SMILES IDX 37 78 38 79 46 80 39 81 40 82 44 83 47 84 41 85 42 86 45 87
REMARK SMILES IDX 43 88 69 89 70 90 78 91 71 92 72 93 76 94 79 95 73 96 74 97
REMARK SMILES IDX 77 98 75 99 54 100 55 101 63 102 56 103 57 104 61 105 64 106
REMARK SMILES IDX 58 107 59 108 62 109 60 110
REMARK H PARENT 18 6 10 16 94 25 25 44 84 63 52 74
REMARK Flexibility Score: inf
ROOT
ATOM      1  C   UNL A   1      35.323  29.337  27.475  1.00  0.00     0.021 C 
ENDROOT
BRANCH   1   2
ATOM      2  C   UNL A   1      34.239  28.640  26.574  1.00  0.00     0.116 C 
BRANCH   2   3
ATOM      3  N   UNL A   1      33.330  29.163  25.395  1.00  0.00    -0.352 N 
ATOM      4  C   UNL A   1      31.953  28.961  24.842  1.00  0.00     0.251 C 
ATOM      5  O   UNL A   1      31.297  30.011  24.767  1.00  0.00    -0.269 OA
ATOM      6  H   UNL A   1      33.819  29.827  24.857  1.00  0.00     0.163 HD
BRANCH   4   7
ATOM      7  C   UNL A   1      31.285  27.750  23.996  1.00  0.00     0.041 A 
ATOM      8  C   UNL A   1      30.352  25.441  24.140  1.00  0.00     0.041 A 
ATOM      9  C   UNL A   1      30.832  25.169  22.868  1.00  0.00     0.026 A 
ATOM     10  C   UNL A   1      30.338  26.824  24.457  1.00  0.00     0.040 A 
ATOM     11  C   UNL A   1      31.338  26.225  22.084  1.00  0.00     0.003 A 
ATOM     12  C   UNL A   1      31.586  27.506  22.653  1.00  0.00     0.014 A 
BRANCH   8  13
ATOM     13  N   UNL A   1      30.219  24.295  25.048  1.00  0.00    -0.325 N 
ATOM     14  C   UNL A   1      31.008  23.526  25.909  1.00  0.00     0.238 C 
ATOM     15  O   UNL A   1      30.609  22.363  26.103  1.00  0.00    -0.273 OA
ATOM     16  H   UNL A   1      29.291  23.967  25.052  1.00  0.00     0.169 HD
BRANCH  14  17
ATOM     17  C   UNL A   1      32.226  23.965  26.750  1.00  0.00     0.160 C 
ATOM     18  N   UNL A   1      34.710  22.383  26.145  1.00  0.00    -0.191 N 
ATOM     19  C   UNL A   1      33.914  21.938  27.164  1.00  0.00     0.311 C 
ATOM     20  C   UNL A   1      33.795  22.733  25.228  1.00  0.00     0.319 C 
ATOM     21  O   UNL A   1      33.808  20.752  27.456  1.00  0.00    -0.247 OA
ATOM     22  C   UNL A   1      32.909  22.977  27.749  1.00  0.00     0.153 C 
ATOM     23  S   UNL A   1      33.536  24.479  25.737  1.00  0.00    -0.024 SA
ATOM     24  N   UNL A   1      32.909  22.022  24.533  1.00  0.00    -0.235 N 
ATOM     25  H   UNL A   1      32.069  22.523  24.425  1.00  0.00     0.313 HD
BRANCH  18  26
ATOM     26  C   UNL A   1      36.095  23.005  26.315  1.00  0.00     0.243 C 
ATOM     27  C   UNL A   1      37.302  22.752  25.382  1.00  0.00     0.054 C 
ENDBRANCH  18  26
BRANCH  24  28
ATOM     28  C   UNL A   1      32.820  20.708  23.882  1.00  0.00     0.126 A 
ATOM     29  C   UNL A   1      32.107  20.591  22.662  1.00  0.00     0.052 A 
ATOM     30  C   UNL A   1      33.260  19.461  24.315  1.00  0.00     0.064 A 
ATOM     31  C   UNL A   1      31.974  19.502  21.799  1.00  0.00     0.005 A 
ATOM     32  C   UNL A   1      33.121  18.283  23.472  1.00  0.00     0.060 A 
ATOM     33  C   UNL A   1      32.518  18.330  22.201  1.00  0.00     0.013 A 
BRANCH  32  34
ATOM     34  C   UNL A   1      33.668  16.927  23.825  1.00  0.00     0.416 C 
ATOM     35  F   UNL A   1      34.256  16.314  22.755  1.00  0.00    -0.166 F 
ATOM     36  F   UNL A   1      34.648  17.018  24.770  1.00  0.00    -0.166 F 
ATOM     37  F   UNL A   1      32.747  16.058  24.306  1.00  0.00    -0.166 F 
ENDBRANCH  32  34
ENDBRANCH  24  28
ENDBRANCH  14  17
ENDBRANCH   8  13
ENDBRANCH   4   7
ENDBRANCH   2   3
ENDBRANCH   1   2
BRANCH   1  38
ATOM     38  C   UNL A   1      35.281  30.939  27.589  1.00  0.00     0.002 C 
BRANCH  38  39
ATOM     39  C   UNL A   1      34.080  31.824  28.037  1.00  0.00     0.002 C 
BRANCH  39  40
ATOM     40  C   UNL A   1      33.814  33.272  27.591  1.00  0.00     0.021 C 
BRANCH  40  41
ATOM     41  C   UNL A   1      32.450  33.893  27.824  1.00  0.00     0.116 C 
BRANCH  41  42
ATOM     42  N   UNL A   1      32.567  35.210  28.437  1.00  0.00    -0.352 N 
ATOM     43  C   UNL A   1      33.261  35.595  29.549  1.00  0.00     0.251 C 
ATOM     44  H   UNL A   1      32.073  35.930  27.983  1.00  0.00     0.163 HD
ATOM     45  O   UNL A   1      32.973  36.687  30.092  1.00  0.00    -0.269 OA
BRANCH  43  46
ATOM     46  C   UNL A   1      34.345  34.775  30.132  1.00  0.00     0.039 A 
ATOM     47  C   UNL A   1      34.079  33.946  31.230  1.00  0.00     0.014 A 
ATOM     48  C   UNL A   1      35.654  34.866  29.651  1.00  0.00     0.014 A 
ATOM     49  C   UNL A   1      35.111  33.213  31.826  1.00  0.00     0.010 A 
ATOM     50  C   UNL A   1      36.654  34.047  30.167  1.00  0.00     0.010 A 
ATOM     51  C   UNL A   1      36.409  33.250  31.292  1.00  0.00    -0.014 A 
BRANCH  51  52
ATOM     52  C   UNL A   1      37.543  32.550  31.953  1.00  0.00     0.031 A 
ATOM     53  C   UNL A   1      38.207  31.389  31.253  1.00  0.00     0.074 A 
ATOM     54  C   UNL A   1      37.956  32.931  33.177  1.00  0.00     0.049 A 
ATOM     55  N   UNL A   1      39.174  30.609  31.668  1.00  0.00    -0.248 NA
ATOM     56  C   UNL A   1      37.690  31.032  29.921  1.00  0.00     0.031 C 
ATOM     57  C   UNL A   1      37.361  34.003  33.977  1.00  0.00     0.029 A 
ATOM     58  N   UNL A   1      38.974  32.456  33.965  1.00  0.00    -0.354 N 
ATOM     59  C   UNL A   1      39.368  29.676  30.655  1.00  0.00     0.074 A 
ATOM     60  C   UNL A   1      38.362  29.924  29.650  1.00  0.00     0.031 C 
ATOM     61  C   UNL A   1      38.047  34.127  35.126  1.00  0.00     0.029 A 
ATOM     62  C   UNL A   1      39.104  33.122  35.160  1.00  0.00     0.049 A 
ATOM     63  H   UNL A   1      39.557  31.709  33.701  1.00  0.00     0.167 HD
ATOM     64  C   UNL A   1      40.328  28.727  30.545  1.00  0.00     0.037 A 
ATOM     65  C   UNL A   1      39.981  32.939  36.164  1.00  0.00     0.037 A 
ATOM     66  C   UNL A   1      41.345  28.499  31.536  1.00  0.00     0.049 A 
ATOM     67  C   UNL A   1      41.035  31.870  36.021  1.00  0.00     0.074 A 
ATOM     68  C   UNL A   1      42.374  27.576  31.525  1.00  0.00     0.029 A 
ATOM     69  N   UNL A   1      41.461  29.218  32.717  1.00  0.00    -0.354 N 
ATOM     70  N   UNL A   1      41.240  31.032  35.032  1.00  0.00    -0.248 NA
ATOM     71  C   UNL A   1      41.993  31.737  37.125  1.00  0.00     0.031 C 
ATOM     72  C   UNL A   1      43.093  27.712  32.717  1.00  0.00     0.029 A 
ATOM     73  C   UNL A   1      42.548  28.759  33.442  1.00  0.00     0.049 A 
ATOM     74  H   UNL A   1      40.861  29.946  32.997  1.00  0.00     0.167 HD
ATOM     75  C   UNL A   1      42.374  30.308  35.375  1.00  0.00     0.074 A 
ATOM     76  C   UNL A   1      42.823  30.819  36.653  1.00  0.00     0.031 C 
ATOM     77  C   UNL A   1      42.991  29.306  34.698  1.00  0.00     0.037 A 
BRANCH  64  78
ATOM     78  C   UNL A   1      40.339  27.891  29.296  1.00  0.00     0.064 A 
ATOM     79  C   UNL A   1      39.576  26.716  29.195  1.00  0.00     0.173 A 
ATOM     80  C   UNL A   1      41.095  28.276  28.178  1.00  0.00     0.173 A 
ATOM     81  F   UNL A   1      38.847  26.293  30.240  1.00  0.00    -0.203 F 
ATOM     82  C   UNL A   1      39.592  25.944  28.037  1.00  0.00     0.198 A 
ATOM     83  C   UNL A   1      41.081  27.520  27.008  1.00  0.00     0.198 A 
ATOM     84  F   UNL A   1      41.840  29.391  28.216  1.00  0.00    -0.203 F 
ATOM     85  F   UNL A   1      38.898  24.799  27.987  1.00  0.00    -0.200 F 
ATOM     86  C   UNL A   1      40.337  26.351  26.941  1.00  0.00     0.200 A 
ATOM     87  F   UNL A   1      41.790  27.921  25.944  1.00  0.00    -0.200 F 
ATOM     88  F   UNL A   1      40.342  25.613  25.822  1.00  0.00    -0.200 F 
ENDBRANCH  64  78
BRANCH  65  89
ATOM     89  C   UNL A   1      39.934  33.798  37.380  1.00  0.00     0.064 A 
ATOM     90  C   UNL A   1      40.712  34.962  37.475  1.00  0.00     0.173 A 
ATOM     91  C   UNL A   1      39.152  33.449  38.491  1.00  0.00     0.173 A 
ATOM     92  F   UNL A   1      41.489  35.333  36.447  1.00  0.00    -0.203 F 
ATOM     93  C   UNL A   1      40.747  35.714  38.648  1.00  0.00     0.198 A 
ATOM     94  C   UNL A   1      39.159  34.223  39.651  1.00  0.00     0.198 A 
ATOM     95  F   UNL A   1      38.380  32.353  38.454  1.00  0.00    -0.203 F 
ATOM     96  F   UNL A   1      41.558  36.778  38.734  1.00  0.00    -0.200 F 
ATOM     97  C   UNL A   1      39.969  35.347  39.734  1.00  0.00     0.200 A 
ATOM     98  F   UNL A   1      38.391  33.875  40.692  1.00  0.00    -0.200 F 
ATOM     99  F   UNL A   1      40.009  36.064  40.865  1.00  0.00    -0.200 F 
ENDBRANCH  65  89
BRANCH  77 100
ATOM    100  C   UNL A   1      44.256  28.757  35.293  1.00  0.00     0.064 A 
ATOM    101  C   UNL A   1      44.251  27.672  36.182  1.00  0.00     0.173 A 
ATOM    102  C   UNL A   1      45.495  29.325  34.956  1.00  0.00     0.173 A 
ATOM    103  F   UNL A   1      43.093  27.100  36.544  1.00  0.00    -0.203 F 
ATOM    104  C   UNL A   1      45.435  27.211  36.752  1.00  0.00     0.198 A 
ATOM    105  C   UNL A   1      46.679  28.834  35.497  1.00  0.00     0.198 A 
ATOM    106  F   UNL A   1      45.557  30.356  34.099  1.00  0.00    -0.203 F 
ATOM    107  F   UNL A   1      45.398  26.223  37.657  1.00  0.00    -0.200 F 
ATOM    108  C   UNL A   1      46.648  27.789  36.405  1.00  0.00     0.200 A 
ATOM    109  F   UNL A   1      47.851  29.381  35.144  1.00  0.00    -0.200 F 
ATOM    110  F   UNL A   1      47.785  27.343  36.955  1.00  0.00    -0.200 F 
ENDBRANCH  77 100
ENDBRANCH  51  52
ENDBRANCH  43  46
ENDBRANCH  41  42
ENDBRANCH  40  41
ENDBRANCH  39  40
ENDBRANCH  38  39
ENDBRANCH   1  38
TORSDOF 18
ENDMDL
