MODEL 1
REMARK VINA RESULT:     -11.9      0.000      0.000
REMARK SMILES CCC[NH2+][C@@]1(C(=O)NCCCCCCNC(=O)c2ccc(-c3c4nc(c(-c5c(F)c(F)c(F)c(F)c5F)c5ccc([nH]5)c(-c5c(F)c(F)c(F)c(F)c5F)c5nc(c(-c6c(F)c(F)c(F)c(F)c6F)c6ccc3[nH]6)C=C5)C=C4)cc2)CCC[C@H](n2nc(C)c(C)c2C)C1
REMARK SMILES IDX 11 1 10 2 9 3 8 4 6 5 7 6 5 8 81 9 93 10 82 11 84 12 83 13
REMARK SMILES IDX 4 14 3 17 2 18 1 19 85 20 86 21 91 22 87 23 89 24 92 25
REMARK SMILES IDX 88 26 90 27 12 28 13 29 14 30 15 31 16 32 17 34 18 35 19 36
REMARK SMILES IDX 80 37 20 38 79 39 21 40 22 41 23 42 73 43 24 44 78 45 72 46
REMARK SMILES IDX 74 47 25 48 77 49 71 50 70 51 26 53 58 54 38 55 57 56 39 57
REMARK SMILES IDX 42 58 56 59 75 60 40 61 41 62 55 64 76 65 43 66 27 67 28 68
REMARK SMILES IDX 36 69 29 70 30 71 34 72 37 73 31 74 32 75 35 76 33 77 59 78
REMARK SMILES IDX 60 79 68 80 61 81 62 82 66 83 69 84 63 85 64 86 67 87 65 88
REMARK SMILES IDX 44 89 45 90 53 91 46 92 47 93 51 94 54 95 48 96 49 97 52 98
REMARK SMILES IDX 50 99
REMARK H PARENT 8 7 4 15 4 16 15 33 74 52 42 63
REMARK Flexibility Score: inf
ROOT
ATOM      1  C   UNL A   1      32.118  29.788  27.003  1.00  0.00     0.002 C 
ENDROOT
BRANCH   1   2
ATOM      2  C   UNL A   1      33.392  29.095  26.532  1.00  0.00     0.021 C 
BRANCH   2   3
ATOM      3  C   UNL A   1      33.382  27.574  26.617  1.00  0.00     0.116 C 
BRANCH   3   4
ATOM      4  N   UNL A   1      33.659  26.917  25.349  1.00  0.00    -0.351 N 
ATOM      5  C   UNL A   1      33.004  26.629  24.191  1.00  0.00     0.281 C 
ATOM      6  O   UNL A   1      33.811  26.444  23.268  1.00  0.00    -0.268 OA
ATOM      7  H   UNL A   1      34.586  26.587  25.319  1.00  0.00     0.163 HD
BRANCH   5   8
ATOM      8  C   UNL A   1      31.421  26.467  23.978  1.00  0.00     0.177 C 
ATOM      9  C   UNL A   1      30.622  27.064  25.136  1.00  0.00     0.079 C 
ATOM     10  C   UNL A   1      30.857  25.035  23.772  1.00  0.00     0.106 C 
ATOM     11  C   UNL A   1      30.263  26.048  26.248  1.00  0.00     0.009 C 
ATOM     12  C   UNL A   1      31.297  24.022  24.798  1.00  0.00     0.114 C 
ATOM     13  C   UNL A   1      30.748  24.564  26.159  1.00  0.00     0.028 C 
BRANCH   8  14
ATOM     14  N   UNL A   1      30.953  27.032  22.672  1.00  0.00    -0.334 N 
ATOM     15  H   UNL A   1      31.539  26.605  21.956  1.00  0.00     0.347 HD
ATOM     16  H   UNL A   1      29.955  26.822  22.706  1.00  0.00     0.347 HD
BRANCH  14  17
ATOM     17  C   UNL A   1      30.941  28.450  22.387  1.00  0.00     0.261 C 
BRANCH  17  18
ATOM     18  C   UNL A   1      29.490  28.962  22.349  1.00  0.00     0.058 C 
ATOM     19  C   UNL A   1      29.221  30.144  23.267  1.00  0.00     0.010 C 
ENDBRANCH  17  18
ENDBRANCH  14  17
ENDBRANCH   8  14
BRANCH  12  20
ATOM     20  N   UNL A   1      32.694  23.583  24.656  1.00  0.00    -0.266 N 
ATOM     21  N   UNL A   1      33.526  23.634  25.737  1.00  0.00    -0.178 NA
ATOM     22  C   UNL A   1      33.339  22.934  23.605  1.00  0.00     0.039 A 
ATOM     23  C   UNL A   1      34.743  23.386  25.224  1.00  0.00     0.063 A 
ATOM     24  C   UNL A   1      34.686  23.150  23.834  1.00  0.00    -0.007 A 
ATOM     25  C   UNL A   1      32.774  22.192  22.443  1.00  0.00     0.066 C 
ATOM     26  C   UNL A   1      35.968  23.321  26.061  1.00  0.00     0.069 C 
ATOM     27  C   UNL A   1      35.807  23.000  22.874  1.00  0.00     0.048 C 
ENDBRANCH  12  20
ENDBRANCH   5   8
ENDBRANCH   3   4
ENDBRANCH   2   3
ENDBRANCH   1   2
BRANCH   1  28
ATOM     28  C   UNL A   1      31.570  30.815  26.017  1.00  0.00     0.002 C 
BRANCH  28  29
ATOM     29  C   UNL A   1      31.378  32.224  26.595  1.00  0.00     0.021 C 
BRANCH  29  30
ATOM     30  C   UNL A   1      32.605  32.814  27.291  1.00  0.00     0.116 C 
BRANCH  30  31
ATOM     31  N   UNL A   1      32.402  34.213  27.643  1.00  0.00    -0.352 N 
ATOM     32  C   UNL A   1      32.979  34.939  28.654  1.00  0.00     0.251 C 
ATOM     33  H   UNL A   1      31.764  34.705  27.077  1.00  0.00     0.163 HD
ATOM     34  O   UNL A   1      32.509  36.012  29.008  1.00  0.00    -0.269 OA
BRANCH  32  35
ATOM     35  C   UNL A   1      34.176  34.396  29.325  1.00  0.00     0.039 A 
ATOM     36  C   UNL A   1      34.024  33.636  30.484  1.00  0.00     0.014 A 
ATOM     37  C   UNL A   1      35.445  34.625  28.784  1.00  0.00     0.014 A 
ATOM     38  C   UNL A   1      35.148  33.053  31.068  1.00  0.00     0.010 A 
ATOM     39  C   UNL A   1      36.551  33.972  29.318  1.00  0.00     0.010 A 
ATOM     40  C   UNL A   1      36.415  33.185  30.470  1.00  0.00    -0.014 A 
BRANCH  40  41
ATOM     41  C   UNL A   1      37.595  32.496  31.048  1.00  0.00     0.031 A 
ATOM     42  C   UNL A   1      38.104  32.865  32.412  1.00  0.00     0.074 A 
ATOM     43  C   UNL A   1      38.222  31.547  30.324  1.00  0.00     0.049 A 
ATOM     44  N   UNL A   1      39.085  32.335  33.100  1.00  0.00    -0.248 NA
ATOM     45  C   UNL A   1      37.444  33.994  33.086  1.00  0.00     0.031 C 
ATOM     46  C   UNL A   1      37.868  31.157  28.957  1.00  0.00     0.029 A 
ATOM     47  N   UNL A   1      39.281  30.733  30.636  1.00  0.00    -0.354 N 
ATOM     48  C   UNL A   1      39.156  33.064  34.280  1.00  0.00     0.074 A 
ATOM     49  C   UNL A   1      38.170  34.118  34.188  1.00  0.00     0.031 C 
ATOM     50  C   UNL A   1      38.660  30.146  28.570  1.00  0.00     0.029 A 
ATOM     51  C   UNL A   1      39.598  29.839  29.643  1.00  0.00     0.049 A 
ATOM     52  H   UNL A   1      39.766  30.784  31.492  1.00  0.00     0.167 HD
ATOM     53  C   UNL A   1      39.949  32.853  35.357  1.00  0.00     0.037 A 
ATOM     54  C   UNL A   1      40.536  28.874  29.609  1.00  0.00     0.037 A 
ATOM     55  C   UNL A   1      40.920  31.794  35.446  1.00  0.00     0.049 A 
ATOM     56  C   UNL A   1      41.401  28.656  30.822  1.00  0.00     0.074 A 
ATOM     57  C   UNL A   1      41.732  31.453  36.514  1.00  0.00     0.029 A 
ATOM     58  N   UNL A   1      41.216  30.906  34.421  1.00  0.00    -0.354 N 
ATOM     59  N   UNL A   1      41.394  29.289  31.970  1.00  0.00    -0.248 NA
ATOM     60  C   UNL A   1      42.397  27.580  30.736  1.00  0.00     0.031 C 
ATOM     61  C   UNL A   1      42.559  30.397  36.115  1.00  0.00     0.029 A 
ATOM     62  C   UNL A   1      42.219  30.038  34.821  1.00  0.00     0.049 A 
ATOM     63  H   UNL A   1      40.776  30.894  33.540  1.00  0.00     0.167 HD
ATOM     64  C   UNL A   1      42.365  28.677  32.750  1.00  0.00     0.074 A 
ATOM     65  C   UNL A   1      42.920  27.602  31.954  1.00  0.00     0.031 C 
ATOM     66  C   UNL A   1      42.766  28.979  34.010  1.00  0.00     0.037 A 
BRANCH  53  67
ATOM     67  C   UNL A   1      39.796  33.783  36.527  1.00  0.00     0.064 A 
ATOM     68  C   UNL A   1      40.461  35.019  36.578  1.00  0.00     0.173 A 
ATOM     69  C   UNL A   1      38.949  33.453  37.596  1.00  0.00     0.173 A 
ATOM     70  F   UNL A   1      41.292  35.380  35.589  1.00  0.00    -0.203 F 
ATOM     71  C   UNL A   1      40.309  35.873  37.667  1.00  0.00     0.198 A 
ATOM     72  C   UNL A   1      38.772  34.325  38.667  1.00  0.00     0.198 A 
ATOM     73  F   UNL A   1      38.284  32.288  37.597  1.00  0.00    -0.203 F 
ATOM     74  F   UNL A   1      40.996  37.022  37.717  1.00  0.00    -0.200 F 
ATOM     75  C   UNL A   1      39.458  35.529  38.707  1.00  0.00     0.200 A 
ATOM     76  F   UNL A   1      37.939  33.998  39.665  1.00  0.00    -0.200 F 
ATOM     77  F   UNL A   1      39.305  36.357  39.751  1.00  0.00    -0.200 F 
ENDBRANCH  53  67
BRANCH  54  78
ATOM     78  C   UNL A   1      40.680  28.016  28.403  1.00  0.00     0.064 A 
ATOM     79  C   UNL A   1      40.041  26.770  28.321  1.00  0.00     0.173 A 
ATOM     80  C   UNL A   1      41.461  28.419  27.310  1.00  0.00     0.173 A 
ATOM     81  F   UNL A   1      39.297  26.330  29.347  1.00  0.00    -0.203 F 
ATOM     82  C   UNL A   1      40.200  25.951  27.205  1.00  0.00     0.198 A 
ATOM     83  C   UNL A   1      41.593  27.613  26.181  1.00  0.00     0.198 A 
ATOM     84  F   UNL A   1      42.088  29.604  27.333  1.00  0.00    -0.203 F 
ATOM     85  F   UNL A   1      39.620  24.742  27.176  1.00  0.00    -0.200 F 
ATOM     86  C   UNL A   1      40.971  26.375  26.133  1.00  0.00     0.200 A 
ATOM     87  F   UNL A   1      42.324  28.035  25.141  1.00  0.00    -0.200 F 
ATOM     88  F   UNL A   1      41.119  25.588  25.059  1.00  0.00    -0.200 F 
ENDBRANCH  54  78
BRANCH  66  89
ATOM     89  C   UNL A   1      43.845  28.120  34.606  1.00  0.00     0.064 A 
ATOM     90  C   UNL A   1      45.199  28.485  34.537  1.00  0.00     0.173 A 
ATOM     91  C   UNL A   1      43.522  26.924  35.266  1.00  0.00     0.173 A 
ATOM     92  F   UNL A   1      45.563  29.612  33.905  1.00  0.00    -0.203 F 
ATOM     93  C   UNL A   1      46.190  27.665  35.069  1.00  0.00     0.198 A 
ATOM     94  C   UNL A   1      44.513  26.126  35.830  1.00  0.00     0.198 A 
ATOM     95  F   UNL A   1      42.244  26.533  35.369  1.00  0.00    -0.203 F 
ATOM     96  F   UNL A   1      47.480  28.002  34.931  1.00  0.00    -0.200 F 
ATOM     97  C   UNL A   1      45.847  26.491  35.719  1.00  0.00     0.200 A 
ATOM     98  F   UNL A   1      44.178  24.999  36.472  1.00  0.00    -0.200 F 
ATOM     99  F   UNL A   1      46.802  25.703  36.230  1.00  0.00    -0.200 F 
ENDBRANCH  66  89
ENDBRANCH  40  41
ENDBRANCH  32  35
ENDBRANCH  30  31
ENDBRANCH  29  30
ENDBRANCH  28  29
ENDBRANCH   1  28
TORSDOF 17
ENDMDL
MODEL 2
REMARK VINA RESULT:     -11.6      5.147     10.571
REMARK SMILES CCC[NH2+][C@@]1(C(=O)NCCCCCCNC(=O)c2ccc(-c3c4nc(c(-c5c(F)c(F)c(F)c(F)c5F)c5ccc([nH]5)c(-c5c(F)c(F)c(F)c(F)c5F)c5nc(c(-c6c(F)c(F)c(F)c(F)c6F)c6ccc3[nH]6)C=C5)C=C4)cc2)CCC[C@H](n2nc(C)c(C)c2C)C1
REMARK SMILES IDX 11 1 10 2 9 3 8 4 6 5 7 6 5 8 81 9 93 10 82 11 84 12 83 13
REMARK SMILES IDX 4 14 3 17 2 18 1 19 85 20 86 21 91 22 87 23 89 24 92 25
REMARK SMILES IDX 88 26 90 27 12 28 13 29 14 30 15 31 16 32 17 34 18 35 19 36
REMARK SMILES IDX 80 37 20 38 79 39 21 40 22 41 23 42 73 43 24 44 78 45 72 46
REMARK SMILES IDX 74 47 25 48 77 49 71 50 70 51 26 53 58 54 38 55 57 56 39 57
REMARK SMILES IDX 42 58 56 59 75 60 40 61 41 62 55 64 76 65 43 66 27 67 28 68
REMARK SMILES IDX 36 69 29 70 30 71 34 72 37 73 31 74 32 75 35 76 33 77 59 78
REMARK SMILES IDX 60 79 68 80 61 81 62 82 66 83 69 84 63 85 64 86 67 87 65 88
REMARK SMILES IDX 44 89 45 90 53 91 46 92 47 93 51 94 54 95 48 96 49 97 52 98
REMARK SMILES IDX 50 99
REMARK H PARENT 8 7 4 15 4 16 15 33 74 52 42 63
REMARK Flexibility Score: inf
ROOT
ATOM      1  C   UNL A   1      37.111  21.810  24.239  1.00  0.00     0.002 C 
ENDROOT
BRANCH   1   2
ATOM      2  C   UNL A   1      36.945  23.085  25.060  1.00  0.00     0.021 C 
BRANCH   2   3
ATOM      3  C   UNL A   1      35.961  24.103  24.500  1.00  0.00     0.116 C 
BRANCH   3   4
ATOM      4  N   UNL A   1      34.776  24.285  25.325  1.00  0.00    -0.351 N 
ATOM      5  C   UNL A   1      33.562  23.696  25.498  1.00  0.00     0.281 C 
ATOM      6  O   UNL A   1      33.103  23.965  26.619  1.00  0.00    -0.268 OA
ATOM      7  H   UNL A   1      34.885  25.052  25.932  1.00  0.00     0.163 HD
BRANCH   5   8
ATOM      8  C   UNL A   1      32.738  22.820  24.434  1.00  0.00     0.177 C 
ATOM      9  C   UNL A   1      33.624  22.321  23.294  1.00  0.00     0.079 C 
ATOM     10  C   UNL A   1      31.505  23.473  23.754  1.00  0.00     0.106 C 
ATOM     11  C   UNL A   1      33.642  23.247  22.053  1.00  0.00     0.009 C 
ATOM     12  C   UNL A   1      31.753  24.832  23.148  1.00  0.00     0.114 C 
ATOM     13  C   UNL A   1      32.838  24.589  22.048  1.00  0.00     0.028 C 
BRANCH   8  14
ATOM     14  N   UNL A   1      32.007  21.677  25.068  1.00  0.00    -0.334 N 
ATOM     15  H   UNL A   1      32.294  21.669  26.046  1.00  0.00     0.347 HD
ATOM     16  H   UNL A   1      31.040  21.892  24.822  1.00  0.00     0.347 HD
BRANCH  14  17
ATOM     17  C   UNL A   1      32.127  20.312  24.606  1.00  0.00     0.261 C 
BRANCH  17  18
ATOM     18  C   UNL A   1      33.230  19.588  25.398  1.00  0.00     0.058 C 
ATOM     19  C   UNL A   1      33.945  18.495  24.619  1.00  0.00     0.010 C 
ENDBRANCH  17  18
ENDBRANCH  14  17
ENDBRANCH   8  14
BRANCH  12  20
ATOM     20  N   UNL A   1      31.890  25.917  24.132  1.00  0.00    -0.266 N 
ATOM     21  N   UNL A   1      32.989  26.725  24.090  1.00  0.00    -0.178 NA
ATOM     22  C   UNL A   1      30.982  26.417  25.064  1.00  0.00     0.039 A 
ATOM     23  C   UNL A   1      32.912  27.439  25.227  1.00  0.00     0.063 A 
ATOM     24  C   UNL A   1      31.760  27.112  25.972  1.00  0.00    -0.007 A 
ATOM     25  C   UNL A   1      29.504  26.249  25.149  1.00  0.00     0.066 C 
ATOM     26  C   UNL A   1      33.909  28.478  25.590  1.00  0.00     0.069 C 
ATOM     27  C   UNL A   1      31.389  27.548  27.341  1.00  0.00     0.048 C 
ENDBRANCH  12  20
ENDBRANCH   5   8
ENDBRANCH   3   4
ENDBRANCH   2   3
ENDBRANCH   1   2
BRANCH   1  28
ATOM     28  C   UNL A   1      36.948  20.527  25.046  1.00  0.00     0.002 C 
BRANCH  28  29
ATOM     29  C   UNL A   1      38.168  19.596  25.029  1.00  0.00     0.021 C 
BRANCH  29  30
ATOM     30  C   UNL A   1      39.388  20.109  25.793  1.00  0.00     0.116 C 
BRANCH  30  31
ATOM     31  N   UNL A   1      40.424  19.091  25.897  1.00  0.00    -0.352 N 
ATOM     32  C   UNL A   1      41.778  19.252  26.057  1.00  0.00     0.251 C 
ATOM     33  H   UNL A   1      40.110  18.159  25.848  1.00  0.00     0.163 HD
ATOM     34  O   UNL A   1      42.553  18.329  25.844  1.00  0.00    -0.269 OA
BRANCH  32  35
ATOM     35  C   UNL A   1      42.291  20.570  26.477  1.00  0.00     0.039 A 
ATOM     36  C   UNL A   1      42.741  21.469  25.510  1.00  0.00     0.014 A 
ATOM     37  C   UNL A   1      42.301  20.917  27.832  1.00  0.00     0.014 A 
ATOM     38  C   UNL A   1      43.145  22.744  25.901  1.00  0.00     0.010 A 
ATOM     39  C   UNL A   1      42.622  22.217  28.209  1.00  0.00     0.010 A 
ATOM     40  C   UNL A   1      43.056  23.141  27.248  1.00  0.00    -0.014 A 
BRANCH  40  41
ATOM     41  C   UNL A   1      43.408  24.526  27.649  1.00  0.00     0.031 A 
ATOM     42  C   UNL A   1      44.842  24.975  27.666  1.00  0.00     0.074 A 
ATOM     43  C   UNL A   1      42.428  25.373  28.022  1.00  0.00     0.049 A 
ATOM     44  N   UNL A   1      45.335  26.158  27.934  1.00  0.00    -0.248 NA
ATOM     45  C   UNL A   1      45.862  23.957  27.367  1.00  0.00     0.031 C 
ATOM     46  C   UNL A   1      41.008  25.029  28.120  1.00  0.00     0.029 A 
ATOM     47  N   UNL A   1      42.473  26.697  28.378  1.00  0.00    -0.354 N 
ATOM     48  C   UNL A   1      46.714  26.024  27.836  1.00  0.00     0.074 A 
ATOM     49  C   UNL A   1      46.986  24.633  27.555  1.00  0.00     0.031 C 
ATOM     50  C   UNL A   1      40.314  26.125  28.461  1.00  0.00     0.029 A 
ATOM     51  C   UNL A   1      41.239  27.238  28.638  1.00  0.00     0.049 A 
ATOM     52  H   UNL A   1      43.312  27.210  28.442  1.00  0.00     0.167 HD
ATOM     53  C   UNL A   1      47.665  26.983  27.939  1.00  0.00     0.037 A 
ATOM     54  C   UNL A   1      40.893  28.496  28.971  1.00  0.00     0.037 A 
ATOM     55  C   UNL A   1      47.385  28.369  28.206  1.00  0.00     0.049 A 
ATOM     56  C   UNL A   1      41.969  29.543  29.073  1.00  0.00     0.074 A 
ATOM     57  C   UNL A   1      48.268  29.433  28.270  1.00  0.00     0.029 A 
ATOM     58  N   UNL A   1      46.122  28.884  28.464  1.00  0.00    -0.354 N 
ATOM     59  N   UNL A   1      43.260  29.427  28.882  1.00  0.00    -0.248 NA
ATOM     60  C   UNL A   1      41.534  30.902  29.424  1.00  0.00     0.031 C 
ATOM     61  C   UNL A   1      47.547  30.579  28.622  1.00  0.00     0.029 A 
ATOM     62  C   UNL A   1      46.206  30.244  28.717  1.00  0.00     0.049 A 
ATOM     63  H   UNL A   1      45.288  28.359  28.466  1.00  0.00     0.167 HD
ATOM     64  C   UNL A   1      43.791  30.696  29.068  1.00  0.00     0.074 A 
ATOM     65  C   UNL A   1      42.675  31.573  29.357  1.00  0.00     0.031 C 
ATOM     66  C   UNL A   1      45.084  31.100  29.012  1.00  0.00     0.037 A 
BRANCH  53  67
ATOM     67  C   UNL A   1      49.096  26.565  27.754  1.00  0.00     0.064 A 
ATOM     68  C   UNL A   1      49.946  26.345  28.850  1.00  0.00     0.173 A 
ATOM     69  C   UNL A   1      49.618  26.349  26.470  1.00  0.00     0.173 A 
ATOM     70  F   UNL A   1      49.504  26.548  30.101  1.00  0.00    -0.203 F 
ATOM     71  C   UNL A   1      51.270  25.956  28.667  1.00  0.00     0.198 A 
ATOM     72  C   UNL A   1      50.933  25.927  26.292  1.00  0.00     0.198 A 
ATOM     73  F   UNL A   1      48.850  26.539  25.387  1.00  0.00    -0.203 F 
ATOM     74  F   UNL A   1      52.077  25.805  29.726  1.00  0.00    -0.200 F 
ATOM     75  C   UNL A   1      51.761  25.739  27.388  1.00  0.00     0.200 A 
ATOM     76  F   UNL A   1      51.401  25.703  25.056  1.00  0.00    -0.200 F 
ATOM     77  F   UNL A   1      53.033  25.355  27.212  1.00  0.00    -0.200 F 
ENDBRANCH  53  67
BRANCH  54  78
ATOM     78  C   UNL A   1      39.464  28.843  29.194  1.00  0.00     0.064 A 
ATOM     79  C   UNL A   1      38.659  29.304  28.142  1.00  0.00     0.173 A 
ATOM     80  C   UNL A   1      38.874  28.726  30.461  1.00  0.00     0.173 A 
ATOM     81  F   UNL A   1      39.179  29.452  26.916  1.00  0.00    -0.203 F 
ATOM     82  C   UNL A   1      37.328  29.659  28.356  1.00  0.00     0.198 A 
ATOM     83  C   UNL A   1      37.535  29.050  30.666  1.00  0.00     0.198 A 
ATOM     84  F   UNL A   1      39.597  28.282  31.500  1.00  0.00    -0.203 F 
ATOM     85  F   UNL A   1      36.597  30.148  27.344  1.00  0.00    -0.200 F 
ATOM     86  C   UNL A   1      36.765  29.527  29.616  1.00  0.00     0.200 A 
ATOM     87  F   UNL A   1      36.991  28.903  31.882  1.00  0.00    -0.200 F 
ATOM     88  F   UNL A   1      35.485  29.865  29.819  1.00  0.00    -0.200 F 
ENDBRANCH  54  78
BRANCH  66  89
ATOM     89  C   UNL A   1      45.355  32.559  29.250  1.00  0.00     0.064 A 
ATOM     90  C   UNL A   1      45.330  33.493  28.202  1.00  0.00     0.173 A 
ATOM     91  C   UNL A   1      45.629  33.031  30.543  1.00  0.00     0.173 A 
ATOM     92  F   UNL A   1      45.086  33.090  26.945  1.00  0.00    -0.203 F 
ATOM     93  C   UNL A   1      45.611  34.836  28.434  1.00  0.00     0.198 A 
ATOM     94  C   UNL A   1      45.873  34.382  30.776  1.00  0.00     0.198 A 
ATOM     95  F   UNL A   1      45.656  32.184  31.581  1.00  0.00    -0.203 F 
ATOM     96  F   UNL A   1      45.647  35.697  27.407  1.00  0.00    -0.200 F 
ATOM     97  C   UNL A   1      45.876  35.280  29.719  1.00  0.00     0.200 A 
ATOM     98  F   UNL A   1      46.113  34.812  32.022  1.00  0.00    -0.200 F 
ATOM     99  F   UNL A   1      46.146  36.574  29.940  1.00  0.00    -0.200 F 
ENDBRANCH  66  89
ENDBRANCH  40  41
ENDBRANCH  32  35
ENDBRANCH  30  31
ENDBRANCH  29  30
ENDBRANCH  28  29
ENDBRANCH   1  28
TORSDOF 17
ENDMDL
MODEL 3
REMARK VINA RESULT:     -11.5      5.165     10.863
REMARK SMILES CCC[NH2+][C@@]1(C(=O)NCCCCCCNC(=O)c2ccc(-c3c4nc(c(-c5c(F)c(F)c(F)c(F)c5F)c5ccc([nH]5)c(-c5c(F)c(F)c(F)c(F)c5F)c5nc(c(-c6c(F)c(F)c(F)c(F)c6F)c6ccc3[nH]6)C=C5)C=C4)cc2)CCC[C@H](n2nc(C)c(C)c2C)C1
REMARK SMILES IDX 11 1 10 2 9 3 8 4 6 5 7 6 5 8 81 9 93 10 82 11 84 12 83 13
REMARK SMILES IDX 4 14 3 17 2 18 1 19 85 20 86 21 91 22 87 23 89 24 92 25
REMARK SMILES IDX 88 26 90 27 12 28 13 29 14 30 15 31 16 32 17 34 18 35 19 36
REMARK SMILES IDX 80 37 20 38 79 39 21 40 22 41 23 42 73 43 24 44 78 45 72 46
REMARK SMILES IDX 74 47 25 48 77 49 71 50 70 51 26 53 58 54 38 55 57 56 39 57
REMARK SMILES IDX 42 58 56 59 75 60 40 61 41 62 55 64 76 65 43 66 27 67 28 68
REMARK SMILES IDX 36 69 29 70 30 71 34 72 37 73 31 74 32 75 35 76 33 77 59 78
REMARK SMILES IDX 60 79 68 80 61 81 62 82 66 83 69 84 63 85 64 86 67 87 65 88
REMARK SMILES IDX 44 89 45 90 53 91 46 92 47 93 51 94 54 95 48 96 49 97 52 98
REMARK SMILES IDX 50 99
REMARK H PARENT 8 7 4 15 4 16 15 33 74 52 42 63
REMARK Flexibility Score: inf
ROOT
ATOM      1  C   UNL A   1      37.197  21.918  24.271  1.00  0.00     0.002 C 
ENDROOT
BRANCH   1   2
ATOM      2  C   UNL A   1      36.874  23.128  25.143  1.00  0.00     0.021 C 
BRANCH   2   3
ATOM      3  C   UNL A   1      35.885  24.121  24.548  1.00  0.00     0.116 C 
BRANCH   3   4
ATOM      4  N   UNL A   1      34.685  24.302  25.350  1.00  0.00    -0.351 N 
ATOM      5  C   UNL A   1      33.461  23.723  25.489  1.00  0.00     0.281 C 
ATOM      6  O   UNL A   1      32.982  23.980  26.603  1.00  0.00    -0.268 OA
ATOM      7  H   UNL A   1      34.788  25.059  25.970  1.00  0.00     0.163 HD
BRANCH   5   8
ATOM      8  C   UNL A   1      32.652  22.872  24.394  1.00  0.00     0.177 C 
ATOM      9  C   UNL A   1      33.566  22.342  23.290  1.00  0.00     0.079 C 
ATOM     10  C   UNL A   1      31.468  23.561  23.666  1.00  0.00     0.106 C 
ATOM     11  C   UNL A   1      33.660  23.264  22.049  1.00  0.00     0.009 C 
ATOM     12  C   UNL A   1      31.782  24.910  23.069  1.00  0.00     0.114 C 
ATOM     13  C   UNL A   1      32.901  24.631  22.012  1.00  0.00     0.028 C 
BRANCH   8  14
ATOM     14  N   UNL A   1      31.862  21.754  25.001  1.00  0.00    -0.334 N 
ATOM     15  H   UNL A   1      31.186  22.194  25.624  1.00  0.00     0.347 HD
ATOM     16  H   UNL A   1      31.541  21.257  24.169  1.00  0.00     0.347 HD
BRANCH  14  17
ATOM     17  C   UNL A   1      32.467  20.683  25.762  1.00  0.00     0.261 C 
BRANCH  17  18
ATOM     18  C   UNL A   1      32.484  19.392  24.923  1.00  0.00     0.058 C 
ATOM     19  C   UNL A   1      33.876  18.859  24.624  1.00  0.00     0.010 C 
ENDBRANCH  17  18
ENDBRANCH  14  17
ENDBRANCH   8  14
BRANCH  12  20
ATOM     20  N   UNL A   1      31.915  25.993  24.056  1.00  0.00    -0.266 N 
ATOM     21  N   UNL A   1      33.014  26.801  24.021  1.00  0.00    -0.178 NA
ATOM     22  C   UNL A   1      31.003  26.490  24.986  1.00  0.00     0.039 A 
ATOM     23  C   UNL A   1      32.932  27.512  25.159  1.00  0.00     0.063 A 
ATOM     24  C   UNL A   1      31.778  27.183  25.899  1.00  0.00    -0.007 A 
ATOM     25  C   UNL A   1      29.525  26.321  25.066  1.00  0.00     0.066 C 
ATOM     26  C   UNL A   1      33.928  28.550  25.529  1.00  0.00     0.069 C 
ATOM     27  C   UNL A   1      31.402  27.614  27.268  1.00  0.00     0.048 C 
ENDBRANCH  12  20
ENDBRANCH   5   8
ENDBRANCH   3   4
ENDBRANCH   2   3
ENDBRANCH   1   2
BRANCH   1  28
ATOM     28  C   UNL A   1      36.898  20.578  24.936  1.00  0.00     0.002 C 
BRANCH  28  29
ATOM     29  C   UNL A   1      38.090  19.613  25.002  1.00  0.00     0.021 C 
BRANCH  29  30
ATOM     30  C   UNL A   1      39.296  20.122  25.791  1.00  0.00     0.116 C 
BRANCH  30  31
ATOM     31  N   UNL A   1      40.328  19.101  25.913  1.00  0.00    -0.352 N 
ATOM     32  C   UNL A   1      41.687  19.258  26.019  1.00  0.00     0.251 C 
ATOM     33  H   UNL A   1      40.006  18.171  25.922  1.00  0.00     0.163 HD
ATOM     34  O   UNL A   1      42.448  18.319  25.828  1.00  0.00    -0.269 OA
BRANCH  32  35
ATOM     35  C   UNL A   1      42.224  20.591  26.354  1.00  0.00     0.039 A 
ATOM     36  C   UNL A   1      42.578  21.464  25.326  1.00  0.00     0.014 A 
ATOM     37  C   UNL A   1      42.350  20.979  27.692  1.00  0.00     0.014 A 
ATOM     38  C   UNL A   1      43.004  22.753  25.643  1.00  0.00     0.010 A 
ATOM     39  C   UNL A   1      42.691  22.291  28.002  1.00  0.00     0.010 A 
ATOM     40  C   UNL A   1      43.030  23.189  26.980  1.00  0.00    -0.014 A 
BRANCH  40  41
ATOM     41  C   UNL A   1      43.404  24.587  27.308  1.00  0.00     0.031 A 
ATOM     42  C   UNL A   1      44.792  25.091  27.033  1.00  0.00     0.074 A 
ATOM     43  C   UNL A   1      42.489  25.396  27.879  1.00  0.00     0.049 A 
ATOM     44  N   UNL A   1      45.284  26.294  27.202  1.00  0.00    -0.248 NA
ATOM     45  C   UNL A   1      45.767  24.113  26.525  1.00  0.00     0.031 C 
ATOM     46  C   UNL A   1      41.134  24.998  28.265  1.00  0.00     0.029 A 
ATOM     47  N   UNL A   1      42.556  26.722  28.226  1.00  0.00    -0.354 N 
ATOM     48  C   UNL A   1      46.617  26.213  26.822  1.00  0.00     0.074 A 
ATOM     49  C   UNL A   1      46.880  24.833  26.483  1.00  0.00     0.031 C 
ATOM     50  C   UNL A   1      40.483  26.067  28.747  1.00  0.00     0.029 A 
ATOM     51  C   UNL A   1      41.381  27.216  28.737  1.00  0.00     0.049 A 
ATOM     52  H   UNL A   1      43.369  27.267  28.119  1.00  0.00     0.167 HD
ATOM     53  C   UNL A   1      47.532  27.208  26.732  1.00  0.00     0.037 A 
ATOM     54  C   UNL A   1      41.063  28.460  29.141  1.00  0.00     0.037 A 
ATOM     55  C   UNL A   1      47.260  28.583  27.060  1.00  0.00     0.049 A 
ATOM     56  C   UNL A   1      42.096  29.549  29.026  1.00  0.00     0.074 A 
ATOM     57  C   UNL A   1      48.095  29.680  26.947  1.00  0.00     0.029 A 
ATOM     58  N   UNL A   1      46.057  29.049  27.574  1.00  0.00    -0.354 N 
ATOM     59  N   UNL A   1      43.324  29.482  28.574  1.00  0.00    -0.248 NA
ATOM     60  C   UNL A   1      41.691  30.890  29.467  1.00  0.00     0.031 C 
ATOM     61  C   UNL A   1      47.419  30.799  27.446  1.00  0.00     0.029 A 
ATOM     62  C   UNL A   1      46.140  30.412  27.812  1.00  0.00     0.049 A 
ATOM     63  H   UNL A   1      45.263  28.493  27.744  1.00  0.00     0.167 HD
ATOM     64  C   UNL A   1      43.833  30.771  28.655  1.00  0.00     0.074 A 
ATOM     65  C   UNL A   1      42.767  31.605  29.171  1.00  0.00     0.031 C 
ATOM     66  C   UNL A   1      45.070  31.224  28.336  1.00  0.00     0.037 A 
BRANCH  53  67
ATOM     67  C   UNL A   1      48.910  26.846  26.256  1.00  0.00     0.064 A 
ATOM     68  C   UNL A   1      49.279  26.968  24.906  1.00  0.00     0.173 A 
ATOM     69  C   UNL A   1      49.885  26.401  27.161  1.00  0.00     0.173 A 
ATOM     70  F   UNL A   1      48.382  27.377  23.995  1.00  0.00    -0.203 F 
ATOM     71  C   UNL A   1      50.559  26.630  24.477  1.00  0.00     0.198 A 
ATOM     72  C   UNL A   1      51.175  26.097  26.734  1.00  0.00     0.198 A 
ATOM     73  F   UNL A   1      49.590  26.270  28.463  1.00  0.00    -0.203 F 
ATOM     74  F   UNL A   1      50.871  26.705  23.176  1.00  0.00    -0.200 F 
ATOM     75  C   UNL A   1      51.510  26.203  25.393  1.00  0.00     0.200 A 
ATOM     76  F   UNL A   1      52.096  25.697  27.622  1.00  0.00    -0.200 F 
ATOM     77  F   UNL A   1      52.745  25.887  24.980  1.00  0.00    -0.200 F 
ENDBRANCH  53  67
BRANCH  54  78
ATOM     78  C   UNL A   1      39.698  28.751  29.655  1.00  0.00     0.064 A 
ATOM     79  C   UNL A   1      38.682  29.197  28.797  1.00  0.00     0.173 A 
ATOM     80  C   UNL A   1      39.381  28.597  31.012  1.00  0.00     0.173 A 
ATOM     81  F   UNL A   1      38.939  29.380  27.493  1.00  0.00    -0.203 F 
ATOM     82  C   UNL A   1      37.411  29.501  29.281  1.00  0.00     0.198 A 
ATOM     83  C   UNL A   1      38.101  28.869  31.490  1.00  0.00     0.198 A 
ATOM     84  F   UNL A   1      40.313  28.166  31.875  1.00  0.00    -0.203 F 
ATOM     85  F   UNL A   1      36.475  29.976  28.447  1.00  0.00    -0.200 F 
ATOM     86  C   UNL A   1      37.120  29.331  30.626  1.00  0.00     0.200 A 
ATOM     87  F   UNL A   1      37.819  28.687  32.787  1.00  0.00    -0.200 F 
ATOM     88  F   UNL A   1      35.896  29.620  31.090  1.00  0.00    -0.200 F 
ENDBRANCH  54  78
BRANCH  66  89
ATOM     89  C   UNL A   1      45.328  32.693  28.522  1.00  0.00     0.064 A 
ATOM     90  C   UNL A   1      45.882  33.199  29.709  1.00  0.00     0.173 A 
ATOM     91  C   UNL A   1      45.029  33.604  27.498  1.00  0.00     0.173 A 
ATOM     92  F   UNL A   1      46.172  32.371  30.724  1.00  0.00    -0.203 F 
ATOM     93  C   UNL A   1      46.088  34.565  29.877  1.00  0.00     0.198 A 
ATOM     94  C   UNL A   1      45.272  34.966  27.656  1.00  0.00     0.198 A 
ATOM     95  F   UNL A   1      44.507  33.174  26.340  1.00  0.00    -0.203 F 
ATOM     96  F   UNL A   1      46.555  35.031  31.044  1.00  0.00    -0.200 F 
ATOM     97  C   UNL A   1      45.788  35.446  28.850  1.00  0.00     0.200 A 
ATOM     98  F   UNL A   1      44.996  35.814  26.656  1.00  0.00    -0.200 F 
ATOM     99  F   UNL A   1      45.987  36.761  29.014  1.00  0.00    -0.200 F 
ENDBRANCH  66  89
ENDBRANCH  40  41
ENDBRANCH  32  35
ENDBRANCH  30  31
ENDBRANCH  29  30
ENDBRANCH  28  29
ENDBRANCH   1  28
TORSDOF 17
ENDMDL
