MODEL 1
REMARK VINA RESULT:     -13.1      0.000      0.000
REMARK SMILES O=C(Cn1nc(C(=O)NCCCCCCNC(=O)c2ccc(-c3c4nc(c(-c5c(F)c(F)c(F)c(F)c5F)c5ccc([nH]5)c(-c5c(F)c(F)c(F)c(F)c5F)c5nc(c(-c6c(F)c(F)c(F)c(F)c6F)c6ccc3[nH]6)C=C5)C=C4)cc2)c2ccccc2c1=O)NCc1ccc(F)cc1
REMARK SMILES IDX 11 1 10 2 9 3 7 4 8 5 6 7 4 8 5 9 88 10 87 11 89 12 82 13
REMARK SMILES IDX 86 14 83 15 85 16 84 17 3 18 2 19 1 20 90 21 91 23 92 24
REMARK SMILES IDX 93 25 98 26 94 27 97 28 95 29 96 30 12 31 13 32 14 33 15 34
REMARK SMILES IDX 16 35 17 36 18 38 19 39 20 40 81 41 21 42 80 43 22 44 23 45
REMARK SMILES IDX 24 46 74 47 25 48 79 49 73 50 75 51 26 52 78 53 72 54 71 55
REMARK SMILES IDX 27 57 59 58 39 59 58 60 40 61 43 62 57 63 76 64 41 65 42 66
REMARK SMILES IDX 56 68 77 69 44 70 28 71 29 72 37 73 30 74 31 75 35 76 38 77
REMARK SMILES IDX 32 78 33 79 36 80 34 81 60 82 61 83 69 84 62 85 63 86 67 87
REMARK SMILES IDX 70 88 64 89 65 90 68 91 66 92 45 93 46 94 54 95 47 96 48 97
REMARK SMILES IDX 52 98 55 99 49 100 50 101 53 102 51 103
REMARK H PARENT 9 6 90 22 16 37 75 56 43 67
REMARK Flexibility Score: inf
ROOT
ATOM      1  C   UNL A   1      32.694  29.353  24.553  1.00  0.00     0.021 C 
ENDROOT
BRANCH   1   2
ATOM      2  C   UNL A   1      34.060  28.673  24.515  1.00  0.00     0.116 C 
BRANCH   2   3
ATOM      3  N   UNL A   1      34.208  27.792  23.370  1.00  0.00    -0.351 N 
ATOM      4  C   UNL A   1      33.694  26.545  23.094  1.00  0.00     0.272 C 
ATOM      5  O   UNL A   1      33.866  26.095  21.967  1.00  0.00    -0.267 OA
ATOM      6  H   UNL A   1      34.783  28.153  22.659  1.00  0.00     0.163 HD
BRANCH   4   7
ATOM      7  C   UNL A   1      32.923  25.727  24.149  1.00  0.00     0.156 A 
ATOM      8  N   UNL A   1      30.871  25.255  25.143  1.00  0.00    -0.219 N 
ATOM      9  N   UNL A   1      31.629  25.861  24.169  1.00  0.00    -0.163 NA
ATOM     10  C   UNL A   1      31.429  24.480  26.154  1.00  0.00     0.275 A 
ATOM     11  C   UNL A   1      32.847  24.127  26.002  1.00  0.00     0.051 A 
ATOM     12  O   UNL A   1      30.817  24.076  27.138  1.00  0.00    -0.267 OA
ATOM     13  C   UNL A   1      33.634  24.807  25.075  1.00  0.00     0.020 A 
ATOM     14  C   UNL A   1      33.395  23.136  26.832  1.00  0.00     0.014 A 
ATOM     15  C   UNL A   1      35.010  24.537  25.049  1.00  0.00     0.011 A 
ATOM     16  C   UNL A   1      34.751  22.841  26.761  1.00  0.00     0.001 A 
ATOM     17  C   UNL A   1      35.562  23.558  25.885  1.00  0.00     0.001 A 
BRANCH   8  18
ATOM     18  C   UNL A   1      29.542  25.849  25.339  1.00  0.00     0.248 C 
BRANCH  18  19
ATOM     19  C   UNL A   1      28.931  26.611  24.164  1.00  0.00     0.242 C 
ATOM     20  O   UNL A   1      27.831  26.294  23.708  1.00  0.00    -0.273 OA
ATOM     21  N   UNL A   1      29.603  27.739  23.756  1.00  0.00    -0.350 N 
ATOM     22  H   UNL A   1      30.283  28.139  24.346  1.00  0.00     0.163 HD
BRANCH  21  23
ATOM     23  C   UNL A   1      29.327  28.344  22.476  1.00  0.00     0.151 C 
BRANCH  23  24
ATOM     24  C   UNL A   1      29.133  29.832  22.571  1.00  0.00    -0.029 A 
ATOM     25  C   UNL A   1      28.694  30.565  21.457  1.00  0.00     0.008 A 
ATOM     26  C   UNL A   1      29.336  30.497  23.791  1.00  0.00     0.008 A 
ATOM     27  C   UNL A   1      28.472  31.938  21.560  1.00  0.00     0.039 A 
ATOM     28  C   UNL A   1      29.118  31.871  23.891  1.00  0.00     0.039 A 
ATOM     29  C   UNL A   1      28.688  32.579  22.776  1.00  0.00     0.123 A 
ATOM     30  F   UNL A   1      28.474  33.897  22.872  1.00  0.00    -0.207 F 
ENDBRANCH  23  24
ENDBRANCH  21  23
ENDBRANCH  18  19
ENDBRANCH   8  18
ENDBRANCH   4   7
ENDBRANCH   2   3
ENDBRANCH   1   2
BRANCH   1  31
ATOM     31  C   UNL A   1      31.845  29.049  25.792  1.00  0.00     0.002 C 
BRANCH  31  32
ATOM     32  C   UNL A   1      32.102  29.938  27.013  1.00  0.00     0.002 C 
BRANCH  32  33
ATOM     33  C   UNL A   1      31.834  31.429  26.813  1.00  0.00     0.021 C 
BRANCH  33  34
ATOM     34  C   UNL A   1      32.998  32.344  27.165  1.00  0.00     0.116 C 
BRANCH  34  35
ATOM     35  N   UNL A   1      32.579  33.698  27.499  1.00  0.00    -0.352 N 
ATOM     36  C   UNL A   1      33.070  34.540  28.469  1.00  0.00     0.251 C 
ATOM     37  H   UNL A   1      31.844  34.060  26.955  1.00  0.00     0.163 HD
ATOM     38  O   UNL A   1      32.508  35.603  28.715  1.00  0.00    -0.269 OA
BRANCH  36  39
ATOM     39  C   UNL A   1      34.262  34.135  29.249  1.00  0.00     0.039 A 
ATOM     40  C   UNL A   1      35.539  34.518  28.838  1.00  0.00     0.014 A 
ATOM     41  C   UNL A   1      34.101  33.320  30.373  1.00  0.00     0.014 A 
ATOM     42  C   UNL A   1      36.652  33.932  29.424  1.00  0.00     0.010 A 
ATOM     43  C   UNL A   1      35.227  32.812  31.027  1.00  0.00     0.010 A 
ATOM     44  C   UNL A   1      36.513  33.066  30.522  1.00  0.00    -0.014 A 
BRANCH  44  45
ATOM     45  C   UNL A   1      37.726  32.427  31.101  1.00  0.00     0.031 A 
ATOM     46  C   UNL A   1      38.203  32.784  32.484  1.00  0.00     0.074 A 
ATOM     47  C   UNL A   1      38.355  31.461  30.402  1.00  0.00     0.049 A 
ATOM     48  N   UNL A   1      39.212  32.293  33.161  1.00  0.00    -0.248 NA
ATOM     49  C   UNL A   1      37.456  33.828  33.203  1.00  0.00     0.031 C 
ATOM     50  C   UNL A   1      37.980  31.017  29.059  1.00  0.00     0.029 A 
ATOM     51  N   UNL A   1      39.415  30.655  30.733  1.00  0.00    -0.354 N 
ATOM     52  C   UNL A   1      39.226  32.975  34.373  1.00  0.00     0.074 A 
ATOM     53  C   UNL A   1      38.153  33.942  34.326  1.00  0.00     0.031 C 
ATOM     54  C   UNL A   1      38.752  29.980  28.706  1.00  0.00     0.029 A 
ATOM     55  C   UNL A   1      39.724  29.729  29.765  1.00  0.00     0.049 A 
ATOM     56  H   UNL A   1      39.908  30.733  31.582  1.00  0.00     0.167 HD
ATOM     57  C   UNL A   1      40.048  32.792  35.434  1.00  0.00     0.037 A 
ATOM     58  C   UNL A   1      40.686  28.789  29.729  1.00  0.00     0.037 A 
ATOM     59  C   UNL A   1      41.099  31.810  35.489  1.00  0.00     0.049 A 
ATOM     60  C   UNL A   1      41.621  28.650  30.898  1.00  0.00     0.074 A 
ATOM     61  C   UNL A   1      41.968  31.537  36.531  1.00  0.00     0.029 A 
ATOM     62  N   UNL A   1      41.423  30.939  34.460  1.00  0.00    -0.354 N 
ATOM     63  N   UNL A   1      41.611  29.289  32.042  1.00  0.00    -0.248 NA
ATOM     64  C   UNL A   1      42.706  27.669  30.766  1.00  0.00     0.031 C 
ATOM     65  C   UNL A   1      42.850  30.537  36.114  1.00  0.00     0.029 A 
ATOM     66  C   UNL A   1      42.498  30.148  34.833  1.00  0.00     0.049 A 
ATOM     67  H   UNL A   1      40.958  30.889  33.593  1.00  0.00     0.167 HD
ATOM     68  C   UNL A   1      42.676  28.781  32.771  1.00  0.00     0.074 A 
ATOM     69  C   UNL A   1      43.298  27.763  31.950  1.00  0.00     0.031 C 
ATOM     70  C   UNL A   1      43.104  29.134  34.007  1.00  0.00     0.037 A 
BRANCH  57  71
ATOM     71  C   UNL A   1      39.850  33.669  36.638  1.00  0.00     0.064 A 
ATOM     72  C   UNL A   1      40.472  34.922  36.744  1.00  0.00     0.173 A 
ATOM     73  C   UNL A   1      38.962  33.291  37.657  1.00  0.00     0.173 A 
ATOM     74  F   UNL A   1      41.339  35.328  35.803  1.00  0.00    -0.203 F 
ATOM     75  C   UNL A   1      40.224  35.757  37.832  1.00  0.00     0.198 A 
ATOM     76  C   UNL A   1      38.693  34.141  38.728  1.00  0.00     0.198 A 
ATOM     77  F   UNL A   1      38.332  32.107  37.601  1.00  0.00    -0.203 F 
ATOM     78  F   UNL A   1      40.855  36.935  37.928  1.00  0.00    -0.200 F 
ATOM     79  C   UNL A   1      39.326  35.370  38.816  1.00  0.00     0.200 A 
ATOM     80  F   UNL A   1      37.813  33.772  39.669  1.00  0.00    -0.200 F 
ATOM     81  F   UNL A   1      39.073  36.184  39.851  1.00  0.00    -0.200 F 
ENDBRANCH  57  71
BRANCH  58  82
ATOM     82  C   UNL A   1      40.807  27.906  28.539  1.00  0.00     0.064 A 
ATOM     83  C   UNL A   1      40.114  26.690  28.471  1.00  0.00     0.173 A 
ATOM     84  C   UNL A   1      41.596  28.269  27.437  1.00  0.00     0.173 A 
ATOM     85  F   UNL A   1      39.364  26.288  29.507  1.00  0.00    -0.203 F 
ATOM     86  C   UNL A   1      40.211  25.869  27.349  1.00  0.00     0.198 A 
ATOM     87  C   UNL A   1      41.665  27.464  26.304  1.00  0.00     0.198 A 
ATOM     88  F   UNL A   1      42.277  29.424  27.450  1.00  0.00    -0.203 F 
ATOM     89  F   UNL A   1      39.566  24.694  27.324  1.00  0.00    -0.200 F 
ATOM     90  C   UNL A   1      40.978  26.260  26.262  1.00  0.00     0.200 A 
ATOM     91  F   UNL A   1      42.393  27.856  25.249  1.00  0.00    -0.200 F 
ATOM     92  F   UNL A   1      41.058  25.478  25.177  1.00  0.00    -0.200 F 
ENDBRANCH  58  82
BRANCH  70  93
ATOM     93  C   UNL A   1      44.299  28.414  34.562  1.00  0.00     0.064 A 
ATOM     94  C   UNL A   1      45.593  28.932  34.421  1.00  0.00     0.173 A 
ATOM     95  C   UNL A   1      44.137  27.242  35.317  1.00  0.00     0.173 A 
ATOM     96  F   UNL A   1      45.802  30.042  33.697  1.00  0.00    -0.203 F 
ATOM     97  C   UNL A   1      46.685  28.298  35.006  1.00  0.00     0.198 A 
ATOM     98  C   UNL A   1      45.227  26.627  35.926  1.00  0.00     0.198 A 
ATOM     99  F   UNL A   1      42.918  26.711  35.489  1.00  0.00    -0.203 F 
ATOM    100  F   UNL A   1      47.918  28.793  34.832  1.00  0.00    -0.200 F 
ATOM    101  C   UNL A   1      46.501  27.154  35.768  1.00  0.00     0.200 A 
ATOM    102  F   UNL A   1      45.044  25.532  36.677  1.00  0.00    -0.200 F 
ATOM    103  F   UNL A   1      47.550  26.557  36.350  1.00  0.00    -0.200 F 
ENDBRANCH  70  93
ENDBRANCH  44  45
ENDBRANCH  36  39
ENDBRANCH  34  35
ENDBRANCH  33  34
ENDBRANCH  32  33
ENDBRANCH  31  32
ENDBRANCH   1  31
TORSDOF 17
ENDMDL
MODEL 2
REMARK VINA RESULT:     -12.8      1.373      7.211
REMARK SMILES O=C(Cn1nc(C(=O)NCCCCCCNC(=O)c2ccc(-c3c4nc(c(-c5c(F)c(F)c(F)c(F)c5F)c5ccc([nH]5)c(-c5c(F)c(F)c(F)c(F)c5F)c5nc(c(-c6c(F)c(F)c(F)c(F)c6F)c6ccc3[nH]6)C=C5)C=C4)cc2)c2ccccc2c1=O)NCc1ccc(F)cc1
REMARK SMILES IDX 11 1 10 2 9 3 7 4 8 5 6 7 4 8 5 9 88 10 87 11 89 12 82 13
REMARK SMILES IDX 86 14 83 15 85 16 84 17 3 18 2 19 1 20 90 21 91 23 92 24
REMARK SMILES IDX 93 25 98 26 94 27 97 28 95 29 96 30 12 31 13 32 14 33 15 34
REMARK SMILES IDX 16 35 17 36 18 38 19 39 20 40 81 41 21 42 80 43 22 44 23 45
REMARK SMILES IDX 24 46 74 47 25 48 79 49 73 50 75 51 26 52 78 53 72 54 71 55
REMARK SMILES IDX 27 57 59 58 39 59 58 60 40 61 43 62 57 63 76 64 41 65 42 66
REMARK SMILES IDX 56 68 77 69 44 70 28 71 29 72 37 73 30 74 31 75 35 76 38 77
REMARK SMILES IDX 32 78 33 79 36 80 34 81 60 82 61 83 69 84 62 85 63 86 67 87
REMARK SMILES IDX 70 88 64 89 65 90 68 91 66 92 45 93 46 94 54 95 47 96 48 97
REMARK SMILES IDX 52 98 55 99 49 100 50 101 53 102 51 103
REMARK H PARENT 9 6 90 22 16 37 75 56 43 67
REMARK Flexibility Score: inf
ROOT
ATOM      1  C   UNL A   1      31.974  28.616  27.641  1.00  0.00     0.021 C 
ENDROOT
BRANCH   1   2
ATOM      2  C   UNL A   1      32.473  27.305  27.037  1.00  0.00     0.116 C 
BRANCH   2   3
ATOM      3  N   UNL A   1      31.405  26.339  26.851  1.00  0.00    -0.351 N 
ATOM      4  C   UNL A   1      31.358  25.133  26.191  1.00  0.00     0.272 C 
ATOM      5  O   UNL A   1      30.351  24.447  26.327  1.00  0.00    -0.267 OA
ATOM      6  H   UNL A   1      30.556  26.595  27.276  1.00  0.00     0.163 HD
BRANCH   4   7
ATOM      7  C   UNL A   1      32.521  24.639  25.307  1.00  0.00     0.156 A 
ATOM      8  N   UNL A   1      33.788  24.960  23.380  1.00  0.00    -0.219 N 
ATOM      9  N   UNL A   1      32.838  25.376  24.283  1.00  0.00    -0.163 NA
ATOM     10  C   UNL A   1      34.454  23.745  23.498  1.00  0.00     0.275 A 
ATOM     11  C   UNL A   1      34.282  23.024  24.766  1.00  0.00     0.051 A 
ATOM     12  O   UNL A   1      35.168  23.257  22.627  1.00  0.00    -0.267 OA
ATOM     13  C   UNL A   1      33.259  23.391  25.638  1.00  0.00     0.020 A 
ATOM     14  C   UNL A   1      35.128  21.942  25.054  1.00  0.00     0.014 A 
ATOM     15  C   UNL A   1      33.040  22.599  26.774  1.00  0.00     0.011 A 
ATOM     16  C   UNL A   1      34.933  21.196  26.211  1.00  0.00     0.001 A 
ATOM     17  C   UNL A   1      33.876  21.511  27.058  1.00  0.00     0.001 A 
BRANCH   8  18
ATOM     18  C   UNL A   1      33.712  25.618  22.068  1.00  0.00     0.248 C 
BRANCH  18  19
ATOM     19  C   UNL A   1      33.211  27.060  22.031  1.00  0.00     0.242 C 
ATOM     20  O   UNL A   1      33.998  28.000  21.909  1.00  0.00    -0.273 OA
ATOM     21  N   UNL A   1      31.847  27.229  21.996  1.00  0.00    -0.350 N 
ATOM     22  H   UNL A   1      31.269  26.466  21.763  1.00  0.00     0.163 HD
BRANCH  21  23
ATOM     23  C   UNL A   1      31.250  28.508  22.293  1.00  0.00     0.151 C 
BRANCH  23  24
ATOM     24  C   UNL A   1      29.823  28.387  22.751  1.00  0.00    -0.029 A 
ATOM     25  C   UNL A   1      28.875  29.359  22.392  1.00  0.00     0.008 A 
ATOM     26  C   UNL A   1      29.410  27.271  23.498  1.00  0.00     0.008 A 
ATOM     27  C   UNL A   1      27.543  29.220  22.781  1.00  0.00     0.039 A 
ATOM     28  C   UNL A   1      28.078  27.137  23.890  1.00  0.00     0.039 A 
ATOM     29  C   UNL A   1      27.157  28.112  23.528  1.00  0.00     0.123 A 
ATOM     30  F   UNL A   1      25.877  27.982  23.899  1.00  0.00    -0.207 F 
ENDBRANCH  23  24
ENDBRANCH  21  23
ENDBRANCH  18  19
ENDBRANCH   8  18
ENDBRANCH   4   7
ENDBRANCH   2   3
ENDBRANCH   1   2
BRANCH   1  31
ATOM     31  C   UNL A   1      32.634  29.884  27.091  1.00  0.00     0.002 C 
BRANCH  31  32
ATOM     32  C   UNL A   1      31.769  30.735  26.156  1.00  0.00     0.002 C 
BRANCH  32  33
ATOM     33  C   UNL A   1      31.449  32.145  26.652  1.00  0.00     0.021 C 
BRANCH  33  34
ATOM     34  C   UNL A   1      32.584  32.839  27.391  1.00  0.00     0.116 C 
BRANCH  34  35
ATOM     35  N   UNL A   1      32.328  34.252  27.632  1.00  0.00    -0.352 N 
ATOM     36  C   UNL A   1      32.923  35.096  28.540  1.00  0.00     0.251 C 
ATOM     37  H   UNL A   1      31.634  34.660  27.066  1.00  0.00     0.163 HD
ATOM     38  O   UNL A   1      32.491  36.231  28.713  1.00  0.00    -0.269 OA
BRANCH  36  39
ATOM     39  C   UNL A   1      34.069  34.610  29.342  1.00  0.00     0.039 A 
ATOM     40  C   UNL A   1      35.352  34.578  28.796  1.00  0.00     0.014 A 
ATOM     41  C   UNL A   1      33.845  34.132  30.637  1.00  0.00     0.014 A 
ATOM     42  C   UNL A   1      36.363  33.895  29.459  1.00  0.00     0.010 A 
ATOM     43  C   UNL A   1      34.892  33.536  31.346  1.00  0.00     0.010 A 
ATOM     44  C   UNL A   1      36.146  33.359  30.740  1.00  0.00    -0.014 A 
BRANCH  44  45
ATOM     45  C   UNL A   1      37.241  32.600  31.404  1.00  0.00     0.031 A 
ATOM     46  C   UNL A   1      37.956  31.487  30.685  1.00  0.00     0.074 A 
ATOM     47  C   UNL A   1      37.641  32.971  32.636  1.00  0.00     0.049 A 
ATOM     48  N   UNL A   1      38.961  30.753  31.095  1.00  0.00    -0.248 NA
ATOM     49  C   UNL A   1      37.486  31.149  29.332  1.00  0.00     0.031 C 
ATOM     50  C   UNL A   1      37.036  34.042  33.429  1.00  0.00     0.029 A 
ATOM     51  N   UNL A   1      38.671  32.517  33.423  1.00  0.00    -0.354 N 
ATOM     52  C   UNL A   1      39.232  29.864  30.061  1.00  0.00     0.074 A 
ATOM     53  C   UNL A   1      38.262  30.119  29.020  1.00  0.00     0.031 C 
ATOM     54  C   UNL A   1      37.741  34.207  34.557  1.00  0.00     0.029 A 
ATOM     55  C   UNL A   1      38.804  33.209  34.604  1.00  0.00     0.049 A 
ATOM     56  H   UNL A   1      39.256  31.769  33.167  1.00  0.00     0.167 HD
ATOM     57  C   UNL A   1      40.215  28.934  29.981  1.00  0.00     0.037 A 
ATOM     58  C   UNL A   1      39.677  33.052  35.616  1.00  0.00     0.037 A 
ATOM     59  C   UNL A   1      41.196  28.699  31.008  1.00  0.00     0.049 A 
ATOM     60  C   UNL A   1      40.719  31.972  35.524  1.00  0.00     0.074 A 
ATOM     61  C   UNL A   1      42.243  27.795  31.007  1.00  0.00     0.029 A 
ATOM     62  N   UNL A   1      41.253  29.374  32.219  1.00  0.00    -0.354 N 
ATOM     63  N   UNL A   1      40.973  31.153  34.534  1.00  0.00    -0.248 NA
ATOM     64  C   UNL A   1      41.588  31.789  36.695  1.00  0.00     0.031 C 
ATOM     65  C   UNL A   1      42.902  27.886  32.236  1.00  0.00     0.029 A 
ATOM     66  C   UNL A   1      42.300  28.884  32.983  1.00  0.00     0.049 A 
ATOM     67  H   UNL A   1      40.640  30.094  32.494  1.00  0.00     0.167 HD
ATOM     68  C   UNL A   1      42.036  30.366  34.954  1.00  0.00     0.074 A 
ATOM     69  C   UNL A   1      42.396  30.822  36.280  1.00  0.00     0.031 C 
ATOM     70  C   UNL A   1      42.651  29.351  34.300  1.00  0.00     0.037 A 
BRANCH  57  71
ATOM     71  C   UNL A   1      40.291  28.093  28.739  1.00  0.00     0.064 A 
ATOM     72  C   UNL A   1      41.050  28.489  27.628  1.00  0.00     0.173 A 
ATOM     73  C   UNL A   1      39.667  26.836  28.690  1.00  0.00     0.173 A 
ATOM     74  F   UNL A   1      41.658  29.686  27.618  1.00  0.00    -0.203 F 
ATOM     75  C   UNL A   1      41.171  27.666  26.511  1.00  0.00     0.198 A 
ATOM     76  C   UNL A   1      39.814  26.004  27.584  1.00  0.00     0.198 A 
ATOM     77  F   UNL A   1      38.935  26.404  29.729  1.00  0.00    -0.203 F 
ATOM     78  F   UNL A   1      41.875  28.081  25.448  1.00  0.00    -0.200 F 
ATOM     79  C   UNL A   1      40.562  26.421  26.494  1.00  0.00     0.200 A 
ATOM     80  F   UNL A   1      39.238  24.793  27.576  1.00  0.00    -0.200 F 
ATOM     81  F   UNL A   1      40.697  25.622  25.426  1.00  0.00    -0.200 F 
ENDBRANCH  57  71
BRANCH  58  82
ATOM     82  C   UNL A   1      39.598  33.947  36.800  1.00  0.00     0.064 A 
ATOM     83  C   UNL A   1      38.865  33.574  37.936  1.00  0.00     0.173 A 
ATOM     84  C   UNL A   1      40.269  35.179  36.832  1.00  0.00     0.173 A 
ATOM     85  F   UNL A   1      38.189  32.417  37.947  1.00  0.00    -0.203 F 
ATOM     86  C   UNL A   1      38.804  34.403  39.055  1.00  0.00     0.198 A 
ATOM     87  C   UNL A   1      40.234  35.990  37.962  1.00  0.00     0.198 A 
ATOM     88  F   UNL A   1      40.986  35.580  35.772  1.00  0.00    -0.203 F 
ATOM     89  F   UNL A   1      38.069  34.040  40.114  1.00  0.00    -0.200 F 
ATOM     90  C   UNL A   1      39.496  35.605  39.072  1.00  0.00     0.200 A 
ATOM     91  F   UNL A   1      40.919  37.141  37.981  1.00  0.00    -0.200 F 
ATOM     92  F   UNL A   1      39.450  36.393  40.154  1.00  0.00    -0.200 F 
ENDBRANCH  58  82
BRANCH  70  93
ATOM     93  C   UNL A   1      43.786  28.660  34.998  1.00  0.00     0.064 A 
ATOM     94  C   UNL A   1      45.103  29.125  34.884  1.00  0.00     0.173 A 
ATOM     95  C   UNL A   1      43.542  27.577  35.857  1.00  0.00     0.173 A 
ATOM     96  F   UNL A   1      45.391  30.149  34.065  1.00  0.00    -0.203 F 
ATOM     97  C   UNL A   1      46.138  28.526  35.597  1.00  0.00     0.198 A 
ATOM     98  C   UNL A   1      44.573  26.999  36.591  1.00  0.00     0.198 A 
ATOM     99  F   UNL A   1      42.297  27.101  36.006  1.00  0.00    -0.203 F 
ATOM    100  F   UNL A   1      47.394  28.966  35.449  1.00  0.00    -0.200 F 
ATOM    101  C   UNL A   1      45.871  27.472  36.459  1.00  0.00     0.200 A 
ATOM    102  F   UNL A   1      44.310  25.993  37.436  1.00  0.00    -0.200 F 
ATOM    103  F   UNL A   1      46.864  26.910  37.161  1.00  0.00    -0.200 F 
ENDBRANCH  70  93
ENDBRANCH  44  45
ENDBRANCH  36  39
ENDBRANCH  34  35
ENDBRANCH  33  34
ENDBRANCH  32  33
ENDBRANCH  31  32
ENDBRANCH   1  31
TORSDOF 17
ENDMDL
MODEL 3
REMARK VINA RESULT:     -12.6      1.733      4.415
REMARK SMILES O=C(Cn1nc(C(=O)NCCCCCCNC(=O)c2ccc(-c3c4nc(c(-c5c(F)c(F)c(F)c(F)c5F)c5ccc([nH]5)c(-c5c(F)c(F)c(F)c(F)c5F)c5nc(c(-c6c(F)c(F)c(F)c(F)c6F)c6ccc3[nH]6)C=C5)C=C4)cc2)c2ccccc2c1=O)NCc1ccc(F)cc1
REMARK SMILES IDX 11 1 10 2 9 3 7 4 8 5 6 7 4 8 5 9 88 10 87 11 89 12 82 13
REMARK SMILES IDX 86 14 83 15 85 16 84 17 3 18 2 19 1 20 90 21 91 23 92 24
REMARK SMILES IDX 93 25 98 26 94 27 97 28 95 29 96 30 12 31 13 32 14 33 15 34
REMARK SMILES IDX 16 35 17 36 18 38 19 39 20 40 81 41 21 42 80 43 22 44 23 45
REMARK SMILES IDX 24 46 74 47 25 48 79 49 73 50 75 51 26 52 78 53 72 54 71 55
REMARK SMILES IDX 27 57 59 58 39 59 58 60 40 61 43 62 57 63 76 64 41 65 42 66
REMARK SMILES IDX 56 68 77 69 44 70 28 71 29 72 37 73 30 74 31 75 35 76 38 77
REMARK SMILES IDX 32 78 33 79 36 80 34 81 60 82 61 83 69 84 62 85 63 86 67 87
REMARK SMILES IDX 70 88 64 89 65 90 68 91 66 92 45 93 46 94 54 95 47 96 48 97
REMARK SMILES IDX 52 98 55 99 49 100 50 101 53 102 51 103
REMARK H PARENT 9 6 90 22 16 37 75 56 43 67
REMARK Flexibility Score: inf
ROOT
ATOM      1  C   UNL A   1      33.894  29.069  26.161  1.00  0.00     0.021 C 
ENDROOT
BRANCH   1   2
ATOM      2  C   UNL A   1      33.649  29.530  24.726  1.00  0.00     0.116 C 
BRANCH   2   3
ATOM      3  N   UNL A   1      33.945  28.494  23.753  1.00  0.00    -0.351 N 
ATOM      4  C   UNL A   1      33.148  27.565  23.124  1.00  0.00     0.272 C 
ATOM      5  O   UNL A   1      33.648  26.903  22.221  1.00  0.00    -0.267 OA
ATOM      6  H   UNL A   1      34.893  28.447  23.494  1.00  0.00     0.163 HD
BRANCH   4   7
ATOM      7  C   UNL A   1      31.675  27.348  23.523  1.00  0.00     0.156 A 
ATOM      8  N   UNL A   1      30.143  26.094  24.749  1.00  0.00    -0.219 N 
ATOM      9  N   UNL A   1      31.433  26.430  24.412  1.00  0.00    -0.163 NA
ATOM     10  C   UNL A   1      29.035  26.699  24.166  1.00  0.00     0.275 A 
ATOM     11  C   UNL A   1      29.293  27.892  23.348  1.00  0.00     0.051 A 
ATOM     12  O   UNL A   1      27.879  26.308  24.300  1.00  0.00    -0.267 OA
ATOM     13  C   UNL A   1      30.591  28.179  22.934  1.00  0.00     0.020 A 
ATOM     14  C   UNL A   1      28.211  28.698  22.961  1.00  0.00     0.014 A 
ATOM     15  C   UNL A   1      30.783  29.248  22.047  1.00  0.00     0.011 A 
ATOM     16  C   UNL A   1      28.422  29.787  22.122  1.00  0.00     0.001 A 
ATOM     17  C   UNL A   1      29.704  30.047  21.648  1.00  0.00     0.001 A 
BRANCH   8  18
ATOM     18  C   UNL A   1      30.000  24.771  25.372  1.00  0.00     0.248 C 
BRANCH  18  19
ATOM     19  C   UNL A   1      31.252  24.138  25.977  1.00  0.00     0.242 C 
ATOM     20  O   UNL A   1      31.398  24.067  27.198  1.00  0.00    -0.273 OA
ATOM     21  N   UNL A   1      32.115  23.536  25.093  1.00  0.00    -0.350 N 
ATOM     22  H   UNL A   1      31.808  23.325  24.181  1.00  0.00     0.163 HD
BRANCH  21  23
ATOM     23  C   UNL A   1      33.464  23.206  25.483  1.00  0.00     0.151 C 
BRANCH  23  24
ATOM     24  C   UNL A   1      33.811  21.770  25.204  1.00  0.00    -0.029 A 
ATOM     25  C   UNL A   1      32.813  20.858  24.822  1.00  0.00     0.008 A 
ATOM     26  C   UNL A   1      35.145  21.336  25.269  1.00  0.00     0.008 A 
ATOM     27  C   UNL A   1      33.145  19.537  24.521  1.00  0.00     0.039 A 
ATOM     28  C   UNL A   1      35.474  20.014  24.972  1.00  0.00     0.039 A 
ATOM     29  C   UNL A   1      34.471  19.127  24.601  1.00  0.00     0.123 A 
ATOM     30  F   UNL A   1      34.786  17.858  24.310  1.00  0.00    -0.207 F 
ENDBRANCH  23  24
ENDBRANCH  21  23
ENDBRANCH  18  19
ENDBRANCH   8  18
ENDBRANCH   4   7
ENDBRANCH   2   3
ENDBRANCH   1   2
BRANCH   1  31
ATOM     31  C   UNL A   1      33.170  29.877  27.242  1.00  0.00     0.002 C 
BRANCH  31  32
ATOM     32  C   UNL A   1      31.759  30.356  26.885  1.00  0.00     0.002 C 
BRANCH  32  33
ATOM     33  C   UNL A   1      31.573  31.871  26.814  1.00  0.00     0.021 C 
BRANCH  33  34
ATOM     34  C   UNL A   1      32.744  32.687  27.344  1.00  0.00     0.116 C 
BRANCH  34  35
ATOM     35  N   UNL A   1      32.394  34.073  27.621  1.00  0.00    -0.352 N 
ATOM     36  C   UNL A   1      32.957  34.943  28.526  1.00  0.00     0.251 C 
ATOM     37  H   UNL A   1      31.652  34.438  27.087  1.00  0.00     0.163 HD
ATOM     38  O   UNL A   1      32.449  36.040  28.736  1.00  0.00    -0.269 OA
BRANCH  36  39
ATOM     39  C   UNL A   1      34.161  34.528  29.280  1.00  0.00     0.039 A 
ATOM     40  C   UNL A   1      35.426  34.619  28.698  1.00  0.00     0.014 A 
ATOM     41  C   UNL A   1      34.016  33.994  30.564  1.00  0.00     0.014 A 
ATOM     42  C   UNL A   1      36.508  34.002  29.310  1.00  0.00     0.010 A 
ATOM     43  C   UNL A   1      35.129  33.465  31.224  1.00  0.00     0.010 A 
ATOM     44  C   UNL A   1      36.375  33.410  30.578  1.00  0.00    -0.014 A 
BRANCH  44  45
ATOM     45  C   UNL A   1      37.547  32.725  31.186  1.00  0.00     0.031 A 
ATOM     46  C   UNL A   1      38.010  33.073  32.577  1.00  0.00     0.074 A 
ATOM     47  C   UNL A   1      38.149  31.728  30.508  1.00  0.00     0.049 A 
ATOM     48  N   UNL A   1      38.983  32.545  33.278  1.00  0.00    -0.248 NA
ATOM     49  C   UNL A   1      37.293  34.154  33.272  1.00  0.00     0.031 C 
ATOM     50  C   UNL A   1      37.784  31.290  29.160  1.00  0.00     0.029 A 
ATOM     51  N   UNL A   1      39.168  30.880  30.867  1.00  0.00    -0.354 N 
ATOM     52  C   UNL A   1      39.002  33.235  34.485  1.00  0.00     0.074 A 
ATOM     53  C   UNL A   1      37.972  34.246  34.409  1.00  0.00     0.031 C 
ATOM     54  C   UNL A   1      38.519  30.218  28.831  1.00  0.00     0.029 A 
ATOM     55  C   UNL A   1      39.456  29.935  29.912  1.00  0.00     0.049 A 
ATOM     56  H   UNL A   1      39.645  30.944  31.725  1.00  0.00     0.167 HD
ATOM     57  C   UNL A   1      39.793  33.027  35.565  1.00  0.00     0.037 A 
ATOM     58  C   UNL A   1      40.378  28.955  29.902  1.00  0.00     0.037 A 
ATOM     59  C   UNL A   1      40.800  32.001  35.649  1.00  0.00     0.049 A 
ATOM     60  C   UNL A   1      41.282  28.786  31.092  1.00  0.00     0.074 A 
ATOM     61  C   UNL A   1      41.635  31.700  36.710  1.00  0.00     0.029 A 
ATOM     62  N   UNL A   1      41.108  31.109  34.633  1.00  0.00    -0.354 N 
ATOM     63  N   UNL A   1      41.276  29.434  32.231  1.00  0.00    -0.248 NA
ATOM     64  C   UNL A   1      42.327  27.759  30.990  1.00  0.00     0.031 C 
ATOM     65  C   UNL A   1      42.482  30.660  36.320  1.00  0.00     0.029 A 
ATOM     66  C   UNL A   1      42.141  30.276  35.034  1.00  0.00     0.049 A 
ATOM     67  H   UNL A   1      40.660  31.072  33.756  1.00  0.00     0.167 HD
ATOM     68  C   UNL A   1      42.303  28.887  32.986  1.00  0.00     0.074 A 
ATOM     69  C   UNL A   1      42.898  27.837  32.185  1.00  0.00     0.031 C 
ATOM     70  C   UNL A   1      42.720  29.231  34.228  1.00  0.00     0.037 A 
BRANCH  57  71
ATOM     71  C   UNL A   1      39.607  33.921  36.758  1.00  0.00     0.064 A 
ATOM     72  C   UNL A   1      38.796  33.545  37.839  1.00  0.00     0.173 A 
ATOM     73  C   UNL A   1      40.317  35.128  36.860  1.00  0.00     0.173 A 
ATOM     74  F   UNL A   1      38.088  32.406  37.789  1.00  0.00    -0.203 F 
ATOM     75  C   UNL A   1      38.690  34.351  38.971  1.00  0.00     0.198 A 
ATOM     76  C   UNL A   1      40.231  35.917  38.005  1.00  0.00     0.198 A 
ATOM     77  F   UNL A   1      41.114  35.531  35.859  1.00  0.00    -0.203 F 
ATOM     78  F   UNL A   1      37.883  33.987  39.977  1.00  0.00    -0.200 F 
ATOM     79  C   UNL A   1      39.416  35.530  39.057  1.00  0.00     0.200 A 
ATOM     80  F   UNL A   1      40.946  37.047  38.093  1.00  0.00    -0.200 F 
ATOM     81  F   UNL A   1      39.329  36.293  40.156  1.00  0.00    -0.200 F 
ENDBRANCH  57  71
BRANCH  58  82
ATOM     82  C   UNL A   1      40.486  28.058  28.721  1.00  0.00     0.064 A 
ATOM     83  C   UNL A   1      39.792  26.841  28.676  1.00  0.00     0.173 A 
ATOM     84  C   UNL A   1      41.264  28.409  27.607  1.00  0.00     0.173 A 
ATOM     85  F   UNL A   1      39.053  26.452  29.723  1.00  0.00    -0.203 F 
ATOM     86  C   UNL A   1      39.877  26.007  27.562  1.00  0.00     0.198 A 
ATOM     87  C   UNL A   1      41.321  27.590  26.483  1.00  0.00     0.198 A 
ATOM     88  F   UNL A   1      41.945  29.563  27.599  1.00  0.00    -0.203 F 
ATOM     89  F   UNL A   1      39.232  24.833  27.557  1.00  0.00    -0.200 F 
ATOM     90  C   UNL A   1      40.633  26.386  26.462  1.00  0.00     0.200 A 
ATOM     91  F   UNL A   1      42.037  27.970  25.415  1.00  0.00    -0.200 F 
ATOM     92  F   UNL A   1      40.700  25.592  25.386  1.00  0.00    -0.200 F 
ENDBRANCH  58  82
BRANCH  70  93
ATOM     93  C   UNL A   1      43.871  28.466  34.813  1.00  0.00     0.064 A 
ATOM     94  C   UNL A   1      45.175  28.980  34.792  1.00  0.00     0.173 A 
ATOM     95  C   UNL A   1      43.654  27.249  35.478  1.00  0.00     0.173 A 
ATOM     96  F   UNL A   1      45.437  30.133  34.157  1.00  0.00    -0.203 F 
ATOM     97  C   UNL A   1      46.222  28.299  35.406  1.00  0.00     0.198 A 
ATOM     98  C   UNL A   1      44.698  26.586  36.116  1.00  0.00     0.198 A 
ATOM     99  F   UNL A   1      42.423  26.720  35.533  1.00  0.00    -0.203 F 
ATOM    100  F   UNL A   1      47.466  28.793  35.346  1.00  0.00    -0.200 F 
ATOM    101  C   UNL A   1      45.981  27.110  36.078  1.00  0.00     0.200 A 
ATOM    102  F   UNL A   1      44.460  25.447  36.781  1.00  0.00    -0.200 F 
ATOM    103  F   UNL A   1      46.987  26.467  36.688  1.00  0.00    -0.200 F 
ENDBRANCH  70  93
ENDBRANCH  44  45
ENDBRANCH  36  39
ENDBRANCH  34  35
ENDBRANCH  33  34
ENDBRANCH  32  33
ENDBRANCH  31  32
ENDBRANCH   1  31
TORSDOF 17
ENDMDL
