MODEL 1
REMARK VINA RESULT:     -12.9      0.000      0.000
REMARK SMILES O=C(NCCCCCCNC(=O)[C@@H]1CN(C(=O)C2CCCC2)C[C@H]1c1ccccc1)c1ccc(-c2c3nc(c(-c4c(F)c(F)c(F)c(F)c4F)c4ccc([nH]4)c(-c4c(F)c(F)c(F)c(F)c4F)c4nc(c(-c5c(F)c(F)c(F)c(F)c5F)c5ccc2[nH]5)C=C4)C=C3)cc1
REMARK SMILES IDX 6 1 5 2 4 3 3 4 1 5 2 6 31 8 32 9 93 10 33 11 92 12 34 13
REMARK SMILES IDX 35 14 36 15 86 16 37 17 91 18 85 19 87 20 38 21 90 22 84 23
REMARK SMILES IDX 83 24 39 26 71 27 51 28 70 29 52 30 55 31 69 32 88 33 53 34
REMARK SMILES IDX 54 35 68 37 89 38 56 39 40 40 41 41 49 42 42 43 43 44 47 45
REMARK SMILES IDX 50 46 44 47 45 48 48 49 46 50 72 51 73 52 81 53 74 54 75 55
REMARK SMILES IDX 79 56 82 57 76 58 77 59 80 60 78 61 57 62 58 63 66 64 59 65
REMARK SMILES IDX 60 66 64 67 67 68 61 69 62 70 65 71 63 72 7 73 8 74 9 75
REMARK SMILES IDX 10 76 11 77 12 79 13 80 14 81 24 82 15 83 23 84 25 85 26 86
REMARK SMILES IDX 30 87 27 88 29 89 28 90 16 91 17 92 18 93 19 94 22 95 20 96
REMARK SMILES IDX 21 97
REMARK H PARENT 3 7 87 25 55 36 10 78
REMARK Flexibility Score: inf
ROOT
ATOM      1  C   UNL A   1      31.535  30.719  26.226  1.00  0.00     0.002 C 
ENDROOT
BRANCH   1   2
ATOM      2  C   UNL A   1      31.386  32.206  26.547  1.00  0.00     0.021 C 
BRANCH   2   3
ATOM      3  C   UNL A   1      32.579  32.820  27.269  1.00  0.00     0.116 C 
BRANCH   3   4
ATOM      4  N   UNL A   1      32.351  34.209  27.636  1.00  0.00    -0.352 N 
ATOM      5  O   UNL A   1      32.546  36.076  28.892  1.00  0.00    -0.269 OA
ATOM      6  C   UNL A   1      32.978  34.966  28.596  1.00  0.00     0.251 C 
ATOM      7  H   UNL A   1      31.649  34.671  27.125  1.00  0.00     0.163 HD
BRANCH   6   8
ATOM      8  C   UNL A   1      34.163  34.425  29.295  1.00  0.00     0.039 A 
ATOM      9  C   UNL A   1      35.446  34.632  28.784  1.00  0.00     0.014 A 
ATOM     10  C   UNL A   1      33.985  33.689  30.471  1.00  0.00     0.014 A 
ATOM     11  C   UNL A   1      36.529  33.974  29.356  1.00  0.00     0.010 A 
ATOM     12  C   UNL A   1      35.089  33.099  31.093  1.00  0.00     0.010 A 
ATOM     13  C   UNL A   1      36.364  33.200  30.516  1.00  0.00    -0.014 A 
BRANCH  13  14
ATOM     14  C   UNL A   1      37.545  32.526  31.113  1.00  0.00     0.031 A 
ATOM     15  C   UNL A   1      38.013  32.867  32.501  1.00  0.00     0.074 A 
ATOM     16  C   UNL A   1      38.172  31.566  30.407  1.00  0.00     0.049 A 
ATOM     17  N   UNL A   1      38.991  32.340  33.196  1.00  0.00    -0.248 NA
ATOM     18  C   UNL A   1      37.298  33.944  33.201  1.00  0.00     0.031 C 
ATOM     19  C   UNL A   1      37.820  31.158  29.046  1.00  0.00     0.029 A 
ATOM     20  N   UNL A   1      39.217  30.743  30.741  1.00  0.00    -0.354 N 
ATOM     21  C   UNL A   1      39.025  33.036  34.397  1.00  0.00     0.074 A 
ATOM     22  C   UNL A   1      37.984  34.039  34.331  1.00  0.00     0.031 C 
ATOM     23  C   UNL A   1      38.595  30.126  28.681  1.00  0.00     0.029 A 
ATOM     24  C   UNL A   1      39.534  29.836  29.759  1.00  0.00     0.049 A 
ATOM     25  H   UNL A   1      39.694  30.797  31.600  1.00  0.00     0.167 HD
ATOM     26  C   UNL A   1      39.846  32.848  35.460  1.00  0.00     0.037 A 
ATOM     27  C   UNL A   1      40.478  28.878  29.729  1.00  0.00     0.037 A 
ATOM     28  C   UNL A   1      40.862  31.829  35.533  1.00  0.00     0.049 A 
ATOM     29  C   UNL A   1      41.369  28.691  30.924  1.00  0.00     0.074 A 
ATOM     30  C   UNL A   1      41.712  31.531  36.584  1.00  0.00     0.029 A 
ATOM     31  N   UNL A   1      41.166  30.941  34.511  1.00  0.00    -0.354 N 
ATOM     32  N   UNL A   1      41.362  29.327  32.069  1.00  0.00    -0.248 NA
ATOM     33  C   UNL A   1      42.398  27.648  30.820  1.00  0.00     0.031 C 
ATOM     34  C   UNL A   1      42.558  30.491  36.183  1.00  0.00     0.029 A 
ATOM     35  C   UNL A   1      42.203  30.108  34.900  1.00  0.00     0.049 A 
ATOM     36  H   UNL A   1      40.712  30.909  33.638  1.00  0.00     0.167 HD
ATOM     37  C   UNL A   1      42.366  28.748  32.832  1.00  0.00     0.074 A 
ATOM     38  C   UNL A   1      42.951  27.699  32.023  1.00  0.00     0.031 C 
ATOM     39  C   UNL A   1      42.766  29.060  34.089  1.00  0.00     0.037 A 
BRANCH  26  40
ATOM     40  C   UNL A   1      39.694  33.777  36.630  1.00  0.00     0.064 A 
ATOM     41  C   UNL A   1      40.325  35.029  36.666  1.00  0.00     0.173 A 
ATOM     42  C   UNL A   1      38.872  33.427  37.712  1.00  0.00     0.173 A 
ATOM     43  F   UNL A   1      41.132  35.409  35.664  1.00  0.00    -0.203 F 
ATOM     44  C   UNL A   1      40.156  35.886  37.752  1.00  0.00     0.198 A 
ATOM     45  C   UNL A   1      38.684  34.296  38.783  1.00  0.00     0.198 A 
ATOM     46  F   UNL A   1      38.241  32.243  37.724  1.00  0.00    -0.203 F 
ATOM     47  F   UNL A   1      40.803  37.059  37.784  1.00  0.00    -0.200 F 
ATOM     48  C   UNL A   1      39.332  35.521  38.806  1.00  0.00     0.200 A 
ATOM     49  F   UNL A   1      37.877  33.946  39.795  1.00  0.00    -0.200 F 
ATOM     50  F   UNL A   1      39.167  36.349  39.847  1.00  0.00    -0.200 F 
ENDBRANCH  26  40
BRANCH  27  51
ATOM     51  C   UNL A   1      40.608  28.009  28.533  1.00  0.00     0.064 A 
ATOM     52  C   UNL A   1      39.948  26.774  28.467  1.00  0.00     0.173 A 
ATOM     53  C   UNL A   1      41.380  28.399  27.429  1.00  0.00     0.173 A 
ATOM     54  F   UNL A   1      39.214  26.351  29.505  1.00  0.00    -0.203 F 
ATOM     55  C   UNL A   1      40.069  25.955  27.346  1.00  0.00     0.198 A 
ATOM     56  C   UNL A   1      41.475  27.593  26.298  1.00  0.00     0.198 A 
ATOM     57  F   UNL A   1      42.023  29.575  27.442  1.00  0.00    -0.203 F 
ATOM     58  F   UNL A   1      39.459  24.761  27.323  1.00  0.00    -0.200 F 
ATOM     59  C   UNL A   1      40.825  26.368  26.260  1.00  0.00     0.200 A 
ATOM     60  F   UNL A   1      42.194  28.003  25.244  1.00  0.00    -0.200 F 
ATOM     61  F   UNL A   1      40.933  25.583  25.179  1.00  0.00    -0.200 F 
ENDBRANCH  27  51
BRANCH  39  62
ATOM     62  C   UNL A   1      43.863  28.224  34.681  1.00  0.00     0.064 A 
ATOM     63  C   UNL A   1      45.211  28.597  34.581  1.00  0.00     0.173 A 
ATOM     64  C   UNL A   1      43.556  27.042  35.372  1.00  0.00     0.173 A 
ATOM     65  F   UNL A   1      45.556  29.710  33.914  1.00  0.00    -0.203 F 
ATOM     66  C   UNL A   1      46.215  27.801  35.125  1.00  0.00     0.198 A 
ATOM     67  C   UNL A   1      44.560  26.263  35.939  1.00  0.00     0.198 A 
ATOM     68  F   UNL A   1      42.281  26.645  35.500  1.00  0.00    -0.203 F 
ATOM     69  F   UNL A   1      47.500  28.148  34.972  1.00  0.00    -0.200 F 
ATOM     70  C   UNL A   1      45.889  26.638  35.808  1.00  0.00     0.200 A 
ATOM     71  F   UNL A   1      44.243  25.147  36.609  1.00  0.00    -0.200 F 
ATOM     72  F   UNL A   1      46.857  25.874  36.331  1.00  0.00    -0.200 F 
ENDBRANCH  39  62
ENDBRANCH  13  14
ENDBRANCH   6   8
ENDBRANCH   3   4
ENDBRANCH   2   3
ENDBRANCH   1   2
BRANCH   1  73
ATOM     73  C   UNL A   1      32.469  29.946  27.164  1.00  0.00     0.002 C 
BRANCH  73  74
ATOM     74  C   UNL A   1      32.420  28.419  27.014  1.00  0.00     0.021 C 
BRANCH  74  75
ATOM     75  C   UNL A   1      33.637  27.831  26.295  1.00  0.00     0.116 C 
BRANCH  75  76
ATOM     76  N   UNL A   1      33.959  28.628  25.125  1.00  0.00    -0.356 N 
ATOM     77  C   UNL A   1      33.821  28.323  23.804  1.00  0.00     0.225 C 
ATOM     78  H   UNL A   1      34.333  29.519  25.314  1.00  0.00     0.163 HD
ATOM     79  O   UNL A   1      34.373  29.050  22.980  1.00  0.00    -0.275 OA
BRANCH  77  80
ATOM     80  C   UNL A   1      32.997  27.116  23.418  1.00  0.00     0.107 C 
ATOM     81  C   UNL A   1      33.937  26.015  22.948  1.00  0.00     0.133 C 
ATOM     82  C   UNL A   1      32.056  27.305  22.200  1.00  0.00     0.053 C 
ATOM     83  N   UNL A   1      33.081  25.118  22.209  1.00  0.00    -0.341 N 
ATOM     84  C   UNL A   1      31.952  25.856  21.661  1.00  0.00     0.128 C 
BRANCH  82  85
ATOM     85  C   UNL A   1      30.725  27.989  22.513  1.00  0.00    -0.042 A 
ATOM     86  C   UNL A   1      29.657  27.314  23.128  1.00  0.00     0.004 A 
ATOM     87  C   UNL A   1      30.499  29.322  22.126  1.00  0.00     0.004 A 
ATOM     88  C   UNL A   1      28.445  27.960  23.399  1.00  0.00     0.000 A 
ATOM     89  C   UNL A   1      29.287  29.968  22.391  1.00  0.00     0.000 A 
ATOM     90  C   UNL A   1      28.262  29.289  23.037  1.00  0.00     0.000 A 
ENDBRANCH  82  85
BRANCH  83  91
ATOM     91  C   UNL A   1      33.151  23.755  22.051  1.00  0.00     0.225 C 
ATOM     92  O   UNL A   1      33.351  23.268  20.934  1.00  0.00    -0.275 OA
BRANCH  91  93
ATOM     93  C   UNL A   1      32.898  22.810  23.223  1.00  0.00     0.078 C 
ATOM     94  C   UNL A   1      32.187  21.497  22.927  1.00  0.00     0.013 C 
ATOM     95  C   UNL A   1      34.162  22.431  24.004  1.00  0.00     0.013 C 
ATOM     96  C   UNL A   1      32.490  20.655  24.158  1.00  0.00     0.001 C 
ATOM     97  C   UNL A   1      33.916  21.025  24.549  1.00  0.00     0.001 C 
ENDBRANCH  91  93
ENDBRANCH  83  91
ENDBRANCH  77  80
ENDBRANCH  75  76
ENDBRANCH  74  75
ENDBRANCH  73  74
ENDBRANCH   1  73
TORSDOF 16
ENDMDL
MODEL 2
REMARK VINA RESULT:     -12.7      2.120      3.514
REMARK SMILES O=C(NCCCCCCNC(=O)[C@@H]1CN(C(=O)C2CCCC2)C[C@H]1c1ccccc1)c1ccc(-c2c3nc(c(-c4c(F)c(F)c(F)c(F)c4F)c4ccc([nH]4)c(-c4c(F)c(F)c(F)c(F)c4F)c4nc(c(-c5c(F)c(F)c(F)c(F)c5F)c5ccc2[nH]5)C=C4)C=C3)cc1
REMARK SMILES IDX 6 1 5 2 4 3 3 4 1 5 2 6 31 8 32 9 93 10 33 11 92 12 34 13
REMARK SMILES IDX 35 14 36 15 86 16 37 17 91 18 85 19 87 20 38 21 90 22 84 23
REMARK SMILES IDX 83 24 39 26 71 27 51 28 70 29 52 30 55 31 69 32 88 33 53 34
REMARK SMILES IDX 54 35 68 37 89 38 56 39 40 40 41 41 49 42 42 43 43 44 47 45
REMARK SMILES IDX 50 46 44 47 45 48 48 49 46 50 72 51 73 52 81 53 74 54 75 55
REMARK SMILES IDX 79 56 82 57 76 58 77 59 80 60 78 61 57 62 58 63 66 64 59 65
REMARK SMILES IDX 60 66 64 67 67 68 61 69 62 70 65 71 63 72 7 73 8 74 9 75
REMARK SMILES IDX 10 76 11 77 12 79 13 80 14 81 24 82 15 83 23 84 25 85 26 86
REMARK SMILES IDX 30 87 27 88 29 89 28 90 16 91 17 92 18 93 19 94 22 95 20 96
REMARK SMILES IDX 21 97
REMARK H PARENT 3 7 87 25 55 36 10 78
REMARK Flexibility Score: inf
ROOT
ATOM      1  C   UNL A   1      31.026  28.916  24.875  1.00  0.00     0.002 C 
ENDROOT
BRANCH   1   2
ATOM      2  C   UNL A   1      32.356  29.651  25.044  1.00  0.00     0.021 C 
BRANCH   2   3
ATOM      3  C   UNL A   1      32.670  30.069  26.476  1.00  0.00     0.116 C 
BRANCH   3   4
ATOM      4  N   UNL A   1      32.542  31.504  26.676  1.00  0.00    -0.352 N 
ATOM      5  O   UNL A   1      32.984  33.509  27.618  1.00  0.00    -0.269 OA
ATOM      6  C   UNL A   1      33.332  32.349  27.417  1.00  0.00     0.251 C 
ATOM      7  H   UNL A   1      31.784  31.929  26.216  1.00  0.00     0.163 HD
BRANCH   6   8
ATOM      8  C   UNL A   1      34.594  31.847  28.000  1.00  0.00     0.039 A 
ATOM      9  C   UNL A   1      34.702  30.523  28.429  1.00  0.00     0.014 A 
ATOM     10  C   UNL A   1      35.679  32.719  28.132  1.00  0.00     0.014 A 
ATOM     11  C   UNL A   1      35.831  30.115  29.130  1.00  0.00     0.010 A 
ATOM     12  C   UNL A   1      36.848  32.282  28.762  1.00  0.00     0.010 A 
ATOM     13  C   UNL A   1      36.917  30.989  29.305  1.00  0.00    -0.014 A 
BRANCH  13  14
ATOM     14  C   UNL A   1      38.117  30.516  30.042  1.00  0.00     0.031 A 
ATOM     15  C   UNL A   1      38.341  30.894  31.481  1.00  0.00     0.074 A 
ATOM     16  C   UNL A   1      38.986  29.701  29.415  1.00  0.00     0.049 A 
ATOM     17  N   UNL A   1      39.305  30.527  32.290  1.00  0.00    -0.248 NA
ATOM     18  C   UNL A   1      37.366  31.809  32.091  1.00  0.00     0.031 C 
ATOM     19  C   UNL A   1      38.882  29.278  28.017  1.00  0.00     0.029 A 
ATOM     20  N   UNL A   1      40.111  29.065  29.873  1.00  0.00    -0.354 N 
ATOM     21  C   UNL A   1      39.066  31.183  33.490  1.00  0.00     0.074 A 
ATOM     22  C   UNL A   1      37.880  31.990  33.300  1.00  0.00     0.031 C 
ATOM     23  C   UNL A   1      39.868  28.408  27.748  1.00  0.00     0.029 A 
ATOM     24  C   UNL A   1      40.703  28.256  28.934  1.00  0.00     0.049 A 
ATOM     25  H   UNL A   1      40.461  29.177  30.786  1.00  0.00     0.167 HD
ATOM     26  C   UNL A   1      39.769  31.112  34.647  1.00  0.00     0.037 A 
ATOM     27  C   UNL A   1      41.798  27.480  29.017  1.00  0.00     0.037 A 
ATOM     28  C   UNL A   1      40.933  30.285  34.842  1.00  0.00     0.049 A 
ATOM     29  C   UNL A   1      42.554  27.418  30.314  1.00  0.00     0.074 A 
ATOM     30  C   UNL A   1      41.687  30.111  35.989  1.00  0.00     0.029 A 
ATOM     31  N   UNL A   1      41.514  29.494  33.861  1.00  0.00    -0.354 N 
ATOM     32  N   UNL A   1      42.293  28.010  31.453  1.00  0.00    -0.248 NA
ATOM     33  C   UNL A   1      43.757  26.575  30.334  1.00  0.00     0.031 C 
ATOM     34  C   UNL A   1      42.747  29.247  35.693  1.00  0.00     0.029 A 
ATOM     35  C   UNL A   1      42.626  28.844  34.372  1.00  0.00     0.049 A 
ATOM     36  H   UNL A   1      41.184  29.407  32.937  1.00  0.00     0.167 HD
ATOM     37  C   UNL A   1      43.282  27.594  32.333  1.00  0.00     0.074 A 
ATOM     38  C   UNL A   1      44.139  26.687  31.598  1.00  0.00     0.031 C 
ATOM     39  C   UNL A   1      43.462  27.935  33.632  1.00  0.00     0.037 A 
BRANCH  26  40
ATOM     40  C   UNL A   1      39.312  31.966  35.794  1.00  0.00     0.064 A 
ATOM     41  C   UNL A   1      38.364  31.512  36.722  1.00  0.00     0.173 A 
ATOM     42  C   UNL A   1      39.864  33.241  35.992  1.00  0.00     0.173 A 
ATOM     43  F   UNL A   1      37.795  30.306  36.573  1.00  0.00    -0.203 F 
ATOM     44  C   UNL A   1      37.967  32.312  37.792  1.00  0.00     0.198 A 
ATOM     45  C   UNL A   1      39.486  34.027  37.078  1.00  0.00     0.198 A 
ATOM     46  F   UNL A   1      40.780  33.721  35.137  1.00  0.00    -0.203 F 
ATOM     47  F   UNL A   1      37.027  31.875  38.641  1.00  0.00    -0.200 F 
ATOM     48  C   UNL A   1      38.532  33.566  37.972  1.00  0.00     0.200 A 
ATOM     49  F   UNL A   1      40.042  35.234  37.256  1.00  0.00    -0.200 F 
ATOM     50  F   UNL A   1      38.153  34.332  39.004  1.00  0.00    -0.200 F 
ENDBRANCH  26  40
BRANCH  27  51
ATOM     51  C   UNL A   1      42.227  26.682  27.841  1.00  0.00     0.064 A 
ATOM     52  C   UNL A   1      43.201  27.169  26.959  1.00  0.00     0.173 A 
ATOM     53  C   UNL A   1      41.687  25.413  27.585  1.00  0.00     0.173 A 
ATOM     54  F   UNL A   1      43.733  28.384  27.154  1.00  0.00    -0.203 F 
ATOM     55  C   UNL A   1      43.606  26.423  25.854  1.00  0.00     0.198 A 
ATOM     56  C   UNL A   1      42.114  24.657  26.497  1.00  0.00     0.198 A 
ATOM     57  F   UNL A   1      40.758  24.901  28.405  1.00  0.00    -0.203 F 
ATOM     58  F   UNL A   1      44.510  26.929  25.003  1.00  0.00    -0.200 F 
ATOM     59  C   UNL A   1      43.068  25.166  25.628  1.00  0.00     0.200 A 
ATOM     60  F   UNL A   1      41.604  23.435  26.291  1.00  0.00    -0.200 F 
ATOM     61  F   UNL A   1      43.465  24.445  24.570  1.00  0.00    -0.200 F 
ENDBRANCH  27  51
BRANCH  39  62
ATOM     62  C   UNL A   1      44.609  27.288  34.353  1.00  0.00     0.064 A 
ATOM     63  C   UNL A   1      45.891  27.855  34.360  1.00  0.00     0.173 A 
ATOM     64  C   UNL A   1      44.414  26.092  35.059  1.00  0.00     0.173 A 
ATOM     65  F   UNL A   1      46.131  28.989  33.683  1.00  0.00    -0.203 F 
ATOM     66  C   UNL A   1      46.944  27.232  35.023  1.00  0.00     0.198 A 
ATOM     67  C   UNL A   1      45.463  25.486  35.746  1.00  0.00     0.198 A 
ATOM     68  F   UNL A   1      43.204  25.512  35.089  1.00  0.00    -0.203 F 
ATOM     69  F   UNL A   1      48.174  27.763  34.972  1.00  0.00    -0.200 F 
ATOM     70  C   UNL A   1      46.729  26.051  35.719  1.00  0.00     0.200 A 
ATOM     71  F   UNL A   1      45.250  24.353  36.427  1.00  0.00    -0.200 F 
ATOM     72  F   UNL A   1      47.744  25.454  36.357  1.00  0.00    -0.200 F 
ENDBRANCH  39  62
ENDBRANCH  13  14
ENDBRANCH   6   8
ENDBRANCH   3   4
ENDBRANCH   2   3
ENDBRANCH   1   2
BRANCH   1  73
ATOM     73  C   UNL A   1      31.020  27.467  25.375  1.00  0.00     0.002 C 
BRANCH  73  74
ATOM     74  C   UNL A   1      30.267  26.475  24.477  1.00  0.00     0.021 C 
BRANCH  74  75
ATOM     75  C   UNL A   1      29.729  25.253  25.225  1.00  0.00     0.116 C 
BRANCH  75  76
ATOM     76  N   UNL A   1      30.602  24.925  26.338  1.00  0.00    -0.356 N 
ATOM     77  C   UNL A   1      31.491  23.900  26.470  1.00  0.00     0.225 C 
ATOM     78  H   UNL A   1      30.543  25.532  27.111  1.00  0.00     0.163 HD
ATOM     79  O   UNL A   1      31.955  23.674  27.586  1.00  0.00    -0.275 OA
BRANCH  77  80
ATOM     80  C   UNL A   1      31.863  23.097  25.244  1.00  0.00     0.107 C 
ATOM     81  C   UNL A   1      31.993  21.633  25.641  1.00  0.00     0.133 C 
ATOM     82  C   UNL A   1      33.252  23.410  24.632  1.00  0.00     0.053 C 
ATOM     83  N   UNL A   1      32.756  21.047  24.566  1.00  0.00    -0.341 N 
ATOM     84  C   UNL A   1      33.604  22.061  23.955  1.00  0.00     0.128 C 
BRANCH  82  85
ATOM     85  C   UNL A   1      33.294  24.636  23.720  1.00  0.00    -0.042 A 
ATOM     86  C   UNL A   1      33.905  25.841  24.105  1.00  0.00     0.004 A 
ATOM     87  C   UNL A   1      32.651  24.619  22.470  1.00  0.00     0.004 A 
ATOM     88  C   UNL A   1      33.926  26.953  23.255  1.00  0.00     0.000 A 
ATOM     89  C   UNL A   1      32.665  25.730  21.621  1.00  0.00     0.000 A 
ATOM     90  C   UNL A   1      33.312  26.896  22.010  1.00  0.00     0.000 A 
ENDBRANCH  82  85
BRANCH  83  91
ATOM     91  C   UNL A   1      32.714  19.780  24.039  1.00  0.00     0.225 C 
ATOM     92  O   UNL A   1      32.159  19.575  22.954  1.00  0.00    -0.275 OA
BRANCH  91  93
ATOM     93  C   UNL A   1      33.267  18.583  24.809  1.00  0.00     0.078 C 
ATOM     94  C   UNL A   1      32.354  17.377  24.987  1.00  0.00     0.013 C 
ATOM     95  C   UNL A   1      34.581  18.030  24.245  1.00  0.00     0.013 C 
ATOM     96  C   UNL A   1      33.321  16.268  25.376  1.00  0.00     0.001 C 
ATOM     97  C   UNL A   1      34.580  16.535  24.560  1.00  0.00     0.001 C 
ENDBRANCH  91  93
ENDBRANCH  83  91
ENDBRANCH  77  80
ENDBRANCH  75  76
ENDBRANCH  74  75
ENDBRANCH  73  74
ENDBRANCH   1  73
TORSDOF 16
ENDMDL
MODEL 3
REMARK VINA RESULT:     -12.5      3.054      5.610
REMARK SMILES O=C(NCCCCCCNC(=O)[C@@H]1CN(C(=O)C2CCCC2)C[C@H]1c1ccccc1)c1ccc(-c2c3nc(c(-c4c(F)c(F)c(F)c(F)c4F)c4ccc([nH]4)c(-c4c(F)c(F)c(F)c(F)c4F)c4nc(c(-c5c(F)c(F)c(F)c(F)c5F)c5ccc2[nH]5)C=C4)C=C3)cc1
REMARK SMILES IDX 6 1 5 2 4 3 3 4 1 5 2 6 31 8 32 9 93 10 33 11 92 12 34 13
REMARK SMILES IDX 35 14 36 15 86 16 37 17 91 18 85 19 87 20 38 21 90 22 84 23
REMARK SMILES IDX 83 24 39 26 71 27 51 28 70 29 52 30 55 31 69 32 88 33 53 34
REMARK SMILES IDX 54 35 68 37 89 38 56 39 40 40 41 41 49 42 42 43 43 44 47 45
REMARK SMILES IDX 50 46 44 47 45 48 48 49 46 50 72 51 73 52 81 53 74 54 75 55
REMARK SMILES IDX 79 56 82 57 76 58 77 59 80 60 78 61 57 62 58 63 66 64 59 65
REMARK SMILES IDX 60 66 64 67 67 68 61 69 62 70 65 71 63 72 7 73 8 74 9 75
REMARK SMILES IDX 10 76 11 77 12 79 13 80 14 81 24 82 15 83 23 84 25 85 26 86
REMARK SMILES IDX 30 87 27 88 29 89 28 90 16 91 17 92 18 93 19 94 22 95 20 96
REMARK SMILES IDX 21 97
REMARK H PARENT 3 7 87 25 55 36 10 78
REMARK Flexibility Score: inf
ROOT
ATOM      1  C   UNL A   1      33.087  25.795  26.161  1.00  0.00     0.002 C 
ENDROOT
BRANCH   1   2
ATOM      2  C   UNL A   1      32.887  27.309  26.111  1.00  0.00     0.021 C 
BRANCH   2   3
ATOM      3  C   UNL A   1      34.077  28.122  26.607  1.00  0.00     0.116 C 
BRANCH   3   4
ATOM      4  N   UNL A   1      33.731  29.510  26.870  1.00  0.00    -0.352 N 
ATOM      5  O   UNL A   1      33.889  31.528  27.872  1.00  0.00    -0.269 OA
ATOM      6  C   UNL A   1      34.409  30.447  27.611  1.00  0.00     0.251 C 
ATOM      7  H   UNL A   1      32.893  29.822  26.458  1.00  0.00     0.163 HD
BRANCH   6   8
ATOM      8  C   UNL A   1      35.761  30.137  28.122  1.00  0.00     0.039 A 
ATOM      9  C   UNL A   1      36.886  30.329  27.317  1.00  0.00     0.014 A 
ATOM     10  C   UNL A   1      35.902  29.634  29.418  1.00  0.00     0.014 A 
ATOM     11  C   UNL A   1      38.126  29.872  27.747  1.00  0.00     0.010 A 
ATOM     12  C   UNL A   1      37.165  29.254  29.881  1.00  0.00     0.010 A 
ATOM     13  C   UNL A   1      38.281  29.329  29.034  1.00  0.00    -0.014 A 
BRANCH  13  14
ATOM     14  C   UNL A   1      39.624  28.869  29.469  1.00  0.00     0.031 A 
ATOM     15  C   UNL A   1      40.407  29.632  30.503  1.00  0.00     0.074 A 
ATOM     16  C   UNL A   1      40.117  27.725  28.957  1.00  0.00     0.049 A 
ATOM     17  N   UNL A   1      41.569  29.343  31.037  1.00  0.00    -0.248 NA
ATOM     18  C   UNL A   1      39.818  30.885  30.997  1.00  0.00     0.031 C 
ATOM     19  C   UNL A   1      39.458  26.907  27.939  1.00  0.00     0.029 A 
ATOM     20  N   UNL A   1      41.273  27.041  29.237  1.00  0.00    -0.354 N 
ATOM     21  C   UNL A   1      41.859  30.388  31.905  1.00  0.00     0.074 A 
ATOM     22  C   UNL A   1      40.764  31.329  31.813  1.00  0.00     0.031 C 
ATOM     23  C   UNL A   1      40.188  25.804  27.720  1.00  0.00     0.029 A 
ATOM     24  C   UNL A   1      41.393  25.864  28.541  1.00  0.00     0.049 A 
ATOM     25  H   UNL A   1      41.950  27.362  29.875  1.00  0.00     0.167 HD
ATOM     26  C   UNL A   1      42.938  30.541  32.712  1.00  0.00     0.037 A 
ATOM     27  C   UNL A   1      42.366  24.936  28.558  1.00  0.00     0.037 A 
ATOM     28  C   UNL A   1      44.013  29.588  32.823  1.00  0.00     0.049 A 
ATOM     29  C   UNL A   1      43.547  25.131  29.466  1.00  0.00     0.074 A 
ATOM     30  C   UNL A   1      45.126  29.633  33.644  1.00  0.00     0.029 A 
ATOM     31  N   UNL A   1      44.109  28.415  32.087  1.00  0.00    -0.354 N 
ATOM     32  N   UNL A   1      43.789  26.102  30.312  1.00  0.00    -0.248 NA
ATOM     33  C   UNL A   1      44.591  24.098  29.419  1.00  0.00     0.031 C 
ATOM     34  C   UNL A   1      45.916  28.509  33.376  1.00  0.00     0.029 A 
ATOM     35  C   UNL A   1      45.271  27.739  32.422  1.00  0.00     0.049 A 
ATOM     36  H   UNL A   1      43.449  28.110  31.423  1.00  0.00     0.167 HD
ATOM     37  C   UNL A   1      44.996  25.786  30.918  1.00  0.00     0.074 A 
ATOM     38  C   UNL A   1      45.430  24.526  30.351  1.00  0.00     0.031 C 
ATOM     39  C   UNL A   1      45.683  26.479  31.858  1.00  0.00     0.037 A 
BRANCH  26  40
ATOM     40  C   UNL A   1      43.025  31.798  33.529  1.00  0.00     0.064 A 
ATOM     41  C   UNL A   1      43.656  32.953  33.044  1.00  0.00     0.173 A 
ATOM     42  C   UNL A   1      42.429  31.861  34.798  1.00  0.00     0.173 A 
ATOM     43  F   UNL A   1      44.253  32.943  31.843  1.00  0.00    -0.203 F 
ATOM     44  C   UNL A   1      43.709  34.116  33.810  1.00  0.00     0.198 A 
ATOM     45  C   UNL A   1      42.460  33.033  35.549  1.00  0.00     0.198 A 
ATOM     46  F   UNL A   1      41.807  30.786  35.306  1.00  0.00    -0.203 F 
ATOM     47  F   UNL A   1      44.356  35.194  33.344  1.00  0.00    -0.200 F 
ATOM     48  C   UNL A   1      43.106  34.157  35.058  1.00  0.00     0.200 A 
ATOM     49  F   UNL A   1      41.866  33.074  36.750  1.00  0.00    -0.200 F 
ATOM     50  F   UNL A   1      43.153  35.278  35.790  1.00  0.00    -0.200 F 
ENDBRANCH  26  40
BRANCH  27  51
ATOM     51  C   UNL A   1      42.249  23.727  27.704  1.00  0.00     0.064 A 
ATOM     52  C   UNL A   1      42.708  23.736  26.380  1.00  0.00     0.173 A 
ATOM     53  C   UNL A   1      41.690  22.538  28.196  1.00  0.00     0.173 A 
ATOM     54  F   UNL A   1      43.233  24.854  25.860  1.00  0.00    -0.203 F 
ATOM     55  C   UNL A   1      42.599  22.604  25.575  1.00  0.00     0.198 A 
ATOM     56  C   UNL A   1      41.609  21.399  27.399  1.00  0.00     0.198 A 
ATOM     57  F   UNL A   1      41.244  22.479  29.459  1.00  0.00    -0.203 F 
ATOM     58  F   UNL A   1      43.010  22.649  24.300  1.00  0.00    -0.200 F 
ATOM     59  C   UNL A   1      42.056  21.435  26.087  1.00  0.00     0.200 A 
ATOM     60  F   UNL A   1      41.099  20.267  27.903  1.00  0.00    -0.200 F 
ATOM     61  F   UNL A   1      41.960  20.344  25.315  1.00  0.00    -0.200 F 
ENDBRANCH  27  51
BRANCH  39  62
ATOM     62  C   UNL A   1      46.956  25.865  32.364  1.00  0.00     0.064 A 
ATOM     63  C   UNL A   1      48.189  26.104  31.740  1.00  0.00     0.173 A 
ATOM     64  C   UNL A   1      46.940  25.039  33.497  1.00  0.00     0.173 A 
ATOM     65  F   UNL A   1      48.252  26.873  30.642  1.00  0.00    -0.203 F 
ATOM     66  C   UNL A   1      49.356  25.514  32.216  1.00  0.00     0.198 A 
ATOM     67  C   UNL A   1      48.113  24.473  33.988  1.00  0.00     0.198 A 
ATOM     68  F   UNL A   1      45.786  24.784  34.133  1.00  0.00    -0.203 F 
ATOM     69  F   UNL A   1      50.516  25.712  31.574  1.00  0.00    -0.200 F 
ATOM     70  C   UNL A   1      49.319  24.703  33.342  1.00  0.00     0.200 A 
ATOM     71  F   UNL A   1      48.077  23.700  35.081  1.00  0.00    -0.200 F 
ATOM     72  F   UNL A   1      50.443  24.137  33.798  1.00  0.00    -0.200 F 
ENDBRANCH  39  62
ENDBRANCH  13  14
ENDBRANCH   6   8
ENDBRANCH   3   4
ENDBRANCH   2   3
ENDBRANCH   1   2
BRANCH   1  73
ATOM     73  C   UNL A   1      31.814  24.983  26.428  1.00  0.00     0.002 C 
BRANCH  73  74
ATOM     74  C   UNL A   1      32.052  23.553  26.932  1.00  0.00     0.021 C 
BRANCH  74  75
ATOM     75  C   UNL A   1      31.248  22.492  26.177  1.00  0.00     0.116 C 
BRANCH  75  76
ATOM     76  N   UNL A   1      32.115  21.400  25.775  1.00  0.00    -0.356 N 
ATOM     77  C   UNL A   1      33.113  21.383  24.845  1.00  0.00     0.225 C 
ATOM     78  H   UNL A   1      31.961  20.547  26.242  1.00  0.00     0.163 HD
ATOM     79  O   UNL A   1      33.564  20.293  24.498  1.00  0.00    -0.275 OA
BRANCH  77  80
ATOM     80  C   UNL A   1      33.616  22.697  24.293  1.00  0.00     0.107 C 
ATOM     81  C   UNL A   1      32.664  23.163  23.201  1.00  0.00     0.133 C 
ATOM     82  C   UNL A   1      34.979  22.639  23.557  1.00  0.00     0.053 C 
ATOM     83  N   UNL A   1      33.431  24.135  22.461  1.00  0.00    -0.341 N 
ATOM     84  C   UNL A   1      34.850  23.830  22.573  1.00  0.00     0.128 C 
BRANCH  82  85
ATOM     85  C   UNL A   1      36.206  22.666  24.467  1.00  0.00    -0.042 A 
ATOM     86  C   UNL A   1      37.067  21.564  24.605  1.00  0.00     0.004 A 
ATOM     87  C   UNL A   1      36.480  23.792  25.264  1.00  0.00     0.004 A 
ATOM     88  C   UNL A   1      38.181  21.609  25.450  1.00  0.00     0.000 A 
ATOM     89  C   UNL A   1      37.590  23.838  26.114  1.00  0.00     0.000 A 
ATOM     90  C   UNL A   1      38.447  22.749  26.200  1.00  0.00     0.000 A 
ENDBRANCH  82  85
BRANCH  83  91
ATOM     91  C   UNL A   1      33.024  25.267  21.797  1.00  0.00     0.225 C 
ATOM     92  O   UNL A   1      33.027  25.299  20.562  1.00  0.00    -0.275 OA
BRANCH  91  93
ATOM     93  C   UNL A   1      32.643  26.535  22.557  1.00  0.00     0.078 C 
ATOM     94  C   UNL A   1      33.478  27.783  22.304  1.00  0.00     0.013 C 
ATOM     95  C   UNL A   1      31.184  26.965  22.363  1.00  0.00     0.013 C 
ATOM     96  C   UNL A   1      32.595  28.902  22.841  1.00  0.00     0.001 C 
ATOM     97  C   UNL A   1      31.172  28.488  22.487  1.00  0.00     0.001 C 
ENDBRANCH  91  93
ENDBRANCH  83  91
ENDBRANCH  77  80
ENDBRANCH  75  76
ENDBRANCH  74  75
ENDBRANCH  73  74
ENDBRANCH   1  73
TORSDOF 16
ENDMDL
