MODEL 1
REMARK VINA RESULT:     -10.5      0.000      0.000
REMARK SMILES O=C(NCCCCCCNC(=O)c1ccccc1C(=O)Nc1ccc(N2C(=O)[C@H]3[C@@H]4CC[C@@H](C4)[C@@H]3C2=O)cc1)c1ccc(-c2c3nc(c(-c4c(F)c(F)c(F)c(F)c4F)c4ccc([nH]4)c(-c4c(F)c(F)c(F)c(F)c4F)c4nc(c(-c5c(F)c(F)c(F)c(F)c5F)c5ccc2[nH]5)C=C4)C=C3)cc1
REMARK SMILES IDX 7 1 6 2 5 3 4 4 3 5 1 6 2 7 40 9 41 10 102 11 42 12 101 13
REMARK SMILES IDX 43 14 44 15 45 16 95 17 46 18 100 19 94 20 96 21 47 22 99 23
REMARK SMILES IDX 93 24 92 25 48 27 80 28 60 29 79 30 61 31 64 32 78 33 97 34
REMARK SMILES IDX 62 35 63 36 77 38 98 39 65 40 49 41 50 42 58 43 51 44 52 45
REMARK SMILES IDX 56 46 59 47 53 48 54 49 57 50 55 51 81 52 82 53 90 54 83 55
REMARK SMILES IDX 84 56 88 57 91 58 85 59 86 60 89 61 87 62 66 63 67 64 75 65
REMARK SMILES IDX 68 66 69 67 73 68 76 69 70 70 71 71 74 72 72 73 8 74 9 75
REMARK SMILES IDX 10 76 11 77 12 79 13 80 14 81 18 82 15 83 17 84 16 85 19 86
REMARK SMILES IDX 20 87 21 88 22 90 23 91 39 92 24 93 38 94 25 95 26 96 27 97
REMARK SMILES IDX 36 98 28 99 29 100 35 101 37 102 30 103 33 104 31 105 34 106
REMARK SMILES IDX 32 107
REMARK H PARENT 3 8 96 26 64 37 10 78 21 89
REMARK Flexibility Score: inf
ROOT
ATOM      1  C   UNL A   1      35.077  34.744  32.077  1.00  0.00     0.002 C 
ENDROOT
BRANCH   1   2
ATOM      2  C   UNL A   1      34.397  33.911  30.987  1.00  0.00     0.002 C 
BRANCH   2   3
ATOM      3  C   UNL A   1      35.149  32.678  30.519  1.00  0.00     0.021 C 
BRANCH   3   4
ATOM      4  C   UNL A   1      35.247  32.536  29.016  1.00  0.00     0.116 C 
BRANCH   4   5
ATOM      5  N   UNL A   1      34.386  31.495  28.477  1.00  0.00    -0.352 N 
ATOM      6  O   UNL A   1      33.945  29.479  27.533  1.00  0.00    -0.269 OA
ATOM      7  C   UNL A   1      34.746  30.228  28.080  1.00  0.00     0.251 C 
ATOM      8  H   UNL A   1      33.433  31.724  28.385  1.00  0.00     0.163 HD
BRANCH   7   9
ATOM      9  C   UNL A   1      36.143  29.803  28.295  1.00  0.00     0.039 A 
ATOM     10  C   UNL A   1      36.535  29.331  29.550  1.00  0.00     0.014 A 
ATOM     11  C   UNL A   1      37.078  29.967  27.272  1.00  0.00     0.014 A 
ATOM     12  C   UNL A   1      37.883  29.198  29.837  1.00  0.00     0.010 A 
ATOM     13  C   UNL A   1      38.425  29.703  27.528  1.00  0.00     0.010 A 
ATOM     14  C   UNL A   1      38.841  29.343  28.820  1.00  0.00    -0.014 A 
BRANCH  14  15
ATOM     15  C   UNL A   1      40.254  29.009  29.119  1.00  0.00     0.031 A 
ATOM     16  C   UNL A   1      41.141  29.942  29.891  1.00  0.00     0.074 A 
ATOM     17  C   UNL A   1      40.722  27.821  28.689  1.00  0.00     0.049 A 
ATOM     18  N   UNL A   1      42.401  29.797  30.215  1.00  0.00    -0.248 NA
ATOM     19  C   UNL A   1      40.546  31.206  30.351  1.00  0.00     0.031 C 
ATOM     20  C   UNL A   1      39.946  26.840  27.923  1.00  0.00     0.029 A 
ATOM     21  N   UNL A   1      41.946  27.225  28.842  1.00  0.00    -0.354 N 
ATOM     22  C   UNL A   1      42.756  30.954  30.897  1.00  0.00     0.074 A 
ATOM     23  C   UNL A   1      41.584  31.805  30.918  1.00  0.00     0.031 C 
ATOM     24  C   UNL A   1      40.691  25.747  27.720  1.00  0.00     0.029 A 
ATOM     25  C   UNL A   1      42.024  25.984  28.258  1.00  0.00     0.049 A 
ATOM     26  H   UNL A   1      42.696  27.644  29.323  1.00  0.00     0.167 HD
ATOM     27  C   UNL A   1      43.951  31.268  31.456  1.00  0.00     0.037 A 
ATOM     28  C   UNL A   1      43.063  25.141  28.134  1.00  0.00     0.037 A 
ATOM     29  C   UNL A   1      45.107  30.404  31.428  1.00  0.00     0.049 A 
ATOM     30  C   UNL A   1      44.384  25.539  28.722  1.00  0.00     0.074 A 
ATOM     31  C   UNL A   1      46.354  30.614  31.991  1.00  0.00     0.029 A 
ATOM     32  N   UNL A   1      45.159  29.169  30.795  1.00  0.00    -0.354 N 
ATOM     33  N   UNL A   1      44.699  26.621  29.391  1.00  0.00    -0.248 NA
ATOM     34  C   UNL A   1      45.496  24.601  28.532  1.00  0.00     0.031 C 
ATOM     35  C   UNL A   1      47.178  29.539  31.644  1.00  0.00     0.029 A 
ATOM     36  C   UNL A   1      46.427  28.622  30.927  1.00  0.00     0.049 A 
ATOM     37  H   UNL A   1      44.407  28.744  30.323  1.00  0.00     0.167 HD
ATOM     38  C   UNL A   1      46.037  26.484  29.725  1.00  0.00     0.074 A 
ATOM     39  C   UNL A   1      46.468  25.203  29.202  1.00  0.00     0.031 C 
ATOM     40  C   UNL A   1      46.839  27.343  30.403  1.00  0.00     0.037 A 
BRANCH  27  41
ATOM     41  C   UNL A   1      44.086  32.610  32.120  1.00  0.00     0.064 A 
ATOM     42  C   UNL A   1      44.433  33.763  31.400  1.00  0.00     0.173 A 
ATOM     43  C   UNL A   1      43.813  32.754  33.490  1.00  0.00     0.173 A 
ATOM     44  F   UNL A   1      44.710  33.683  30.090  1.00  0.00    -0.203 F 
ATOM     45  C   UNL A   1      44.527  35.002  32.030  1.00  0.00     0.198 A 
ATOM     46  C   UNL A   1      43.877  34.000  34.110  1.00  0.00     0.198 A 
ATOM     47  F   UNL A   1      43.468  31.687  34.227  1.00  0.00    -0.203 F 
ATOM     48  F   UNL A   1      44.905  36.081  31.330  1.00  0.00    -0.200 F 
ATOM     49  C   UNL A   1      44.242  35.121  33.383  1.00  0.00     0.200 A 
ATOM     50  F   UNL A   1      43.584  34.114  35.413  1.00  0.00    -0.200 F 
ATOM     51  F   UNL A   1      44.323  36.316  33.984  1.00  0.00    -0.200 F 
ENDBRANCH  27  41
BRANCH  28  52
ATOM     52  C   UNL A   1      42.888  23.857  27.409  1.00  0.00     0.064 A 
ATOM     53  C   UNL A   1      43.229  23.741  26.054  1.00  0.00     0.173 A 
ATOM     54  C   UNL A   1      42.390  22.716  28.056  1.00  0.00     0.173 A 
ATOM     55  F   UNL A   1      43.698  24.806  25.388  1.00  0.00    -0.203 F 
ATOM     56  C   UNL A   1      43.056  22.539  25.371  1.00  0.00     0.198 A 
ATOM     57  C   UNL A   1      42.253  21.506  27.382  1.00  0.00     0.198 A 
ATOM     58  F   UNL A   1      42.059  22.771  29.355  1.00  0.00    -0.203 F 
ATOM     59  F   UNL A   1      43.342  22.469  24.064  1.00  0.00    -0.200 F 
ATOM     60  C   UNL A   1      42.575  21.421  26.037  1.00  0.00     0.200 A 
ATOM     61  F   UNL A   1      41.811  20.424  28.036  1.00  0.00    -0.200 F 
ATOM     62  F   UNL A   1      42.416  20.264  25.380  1.00  0.00    -0.200 F 
ENDBRANCH  28  52
BRANCH  40  63
ATOM     63  C   UNL A   1      48.252  26.901  30.653  1.00  0.00     0.064 A 
ATOM     64  C   UNL A   1      48.592  26.090  31.745  1.00  0.00     0.173 A 
ATOM     65  C   UNL A   1      49.276  27.278  29.771  1.00  0.00     0.173 A 
ATOM     66  F   UNL A   1      47.653  25.716  32.628  1.00  0.00    -0.203 F 
ATOM     67  C   UNL A   1      49.911  25.699  31.964  1.00  0.00     0.198 A 
ATOM     68  C   UNL A   1      50.587  26.855  29.971  1.00  0.00     0.198 A 
ATOM     69  F   UNL A   1      49.005  28.050  28.708  1.00  0.00    -0.203 F 
ATOM     70  F   UNL A   1      50.222  24.975  33.047  1.00  0.00    -0.200 F 
ATOM     71  C   UNL A   1      50.904  26.075  31.072  1.00  0.00     0.200 A 
ATOM     72  F   UNL A   1      51.543  27.206  29.101  1.00  0.00    -0.200 F 
ATOM     73  F   UNL A   1      52.172  25.693  31.280  1.00  0.00    -0.200 F 
ENDBRANCH  40  63
ENDBRANCH  14  15
ENDBRANCH   7   9
ENDBRANCH   4   5
ENDBRANCH   3   4
ENDBRANCH   2   3
ENDBRANCH   1   2
BRANCH   1  74
ATOM     74  C   UNL A   1      34.546  34.526  33.503  1.00  0.00     0.021 C 
BRANCH  74  75
ATOM     75  C   UNL A   1      35.550  33.864  34.441  1.00  0.00     0.116 C 
BRANCH  75  76
ATOM     76  N   UNL A   1      35.888  32.530  33.990  1.00  0.00    -0.352 N 
ATOM     77  C   UNL A   1      37.067  32.039  33.514  1.00  0.00     0.252 C 
ATOM     78  H   UNL A   1      35.152  31.878  34.035  1.00  0.00     0.163 HD
ATOM     79  O   UNL A   1      37.093  30.919  33.004  1.00  0.00    -0.269 OA
BRANCH  77  80
ATOM     80  C   UNL A   1      38.294  32.857  33.476  1.00  0.00     0.052 A 
ATOM     81  C   UNL A   1      38.452  33.515  32.232  1.00  0.00     0.014 A 
ATOM     82  C   UNL A   1      39.237  33.052  34.496  1.00  0.00     0.052 A 
ATOM     83  C   UNL A   1      39.469  34.440  32.020  1.00  0.00     0.001 A 
ATOM     84  C   UNL A   1      40.238  34.029  34.263  1.00  0.00     0.014 A 
ATOM     85  C   UNL A   1      40.347  34.722  33.053  1.00  0.00     0.001 A 
BRANCH  82  86
ATOM     86  C   UNL A   1      39.287  32.467  35.872  1.00  0.00     0.256 C 
ATOM     87  O   UNL A   1      38.644  33.055  36.751  1.00  0.00    -0.269 OA
ATOM     88  N   UNL A   1      39.888  31.295  36.267  1.00  0.00    -0.322 N 
ATOM     89  H   UNL A   1      39.713  31.063  37.207  1.00  0.00     0.170 HD
BRANCH  88  90
ATOM     90  C   UNL A   1      40.696  30.371  35.608  1.00  0.00     0.041 A 
ATOM     91  C   UNL A   1      41.811  29.907  36.316  1.00  0.00     0.028 A 
ATOM     92  C   UNL A   1      40.407  29.847  34.358  1.00  0.00     0.028 A 
ATOM     93  C   UNL A   1      42.438  28.725  35.936  1.00  0.00     0.029 A 
ATOM     94  C   UNL A   1      41.140  28.750  33.898  1.00  0.00     0.029 A 
ATOM     95  C   UNL A   1      42.079  28.125  34.735  1.00  0.00     0.052 A 
BRANCH  95  96
ATOM     96  N   UNL A   1      42.537  26.841  34.414  1.00  0.00    -0.250 N 
ATOM     97  C   UNL A   1      42.028  25.683  35.011  1.00  0.00     0.237 C 
ATOM     98  C   UNL A   1      43.731  26.600  33.702  1.00  0.00     0.237 C 
ATOM     99  O   UNL A   1      40.952  25.476  35.534  1.00  0.00    -0.274 OA
ATOM    100  C   UNL A   1      43.210  24.784  35.013  1.00  0.00     0.095 C 
ATOM    101  C   UNL A   1      43.793  25.101  33.645  1.00  0.00     0.095 C 
ATOM    102  O   UNL A   1      44.498  27.377  33.159  1.00  0.00    -0.274 OA
ATOM    103  C   UNL A   1      43.412  23.276  35.126  1.00  0.00     0.002 C 
ATOM    104  C   UNL A   1      44.860  24.016  33.546  1.00  0.00     0.002 C 
ATOM    105  C   UNL A   1      44.774  23.146  35.841  1.00  0.00     0.005 C 
ATOM    106  C   UNL A   1      43.878  22.827  33.722  1.00  0.00     0.009 C 
ATOM    107  C   UNL A   1      45.731  23.830  34.822  1.00  0.00     0.005 C 
ENDBRANCH  95  96
ENDBRANCH  88  90
ENDBRANCH  82  86
ENDBRANCH  77  80
ENDBRANCH  75  76
ENDBRANCH  74  75
ENDBRANCH   1  74
TORSDOF 16
ENDMDL
MODEL 2
REMARK VINA RESULT:     -10.4      5.549     11.397
REMARK SMILES O=C(NCCCCCCNC(=O)c1ccccc1C(=O)Nc1ccc(N2C(=O)[C@H]3[C@@H]4CC[C@@H](C4)[C@@H]3C2=O)cc1)c1ccc(-c2c3nc(c(-c4c(F)c(F)c(F)c(F)c4F)c4ccc([nH]4)c(-c4c(F)c(F)c(F)c(F)c4F)c4nc(c(-c5c(F)c(F)c(F)c(F)c5F)c5ccc2[nH]5)C=C4)C=C3)cc1
REMARK SMILES IDX 7 1 6 2 5 3 4 4 3 5 1 6 2 7 40 9 41 10 102 11 42 12 101 13
REMARK SMILES IDX 43 14 44 15 45 16 95 17 46 18 100 19 94 20 96 21 47 22 99 23
REMARK SMILES IDX 93 24 92 25 48 27 80 28 60 29 79 30 61 31 64 32 78 33 97 34
REMARK SMILES IDX 62 35 63 36 77 38 98 39 65 40 49 41 50 42 58 43 51 44 52 45
REMARK SMILES IDX 56 46 59 47 53 48 54 49 57 50 55 51 81 52 82 53 90 54 83 55
REMARK SMILES IDX 84 56 88 57 91 58 85 59 86 60 89 61 87 62 66 63 67 64 75 65
REMARK SMILES IDX 68 66 69 67 73 68 76 69 70 70 71 71 74 72 72 73 8 74 9 75
REMARK SMILES IDX 10 76 11 77 12 79 13 80 14 81 18 82 15 83 17 84 16 85 19 86
REMARK SMILES IDX 20 87 21 88 22 90 23 91 39 92 24 93 38 94 25 95 26 96 27 97
REMARK SMILES IDX 36 98 28 99 29 100 35 101 37 102 30 103 33 104 31 105 34 106
REMARK SMILES IDX 32 107
REMARK H PARENT 3 8 96 26 64 37 10 78 21 89
REMARK Flexibility Score: inf
ROOT
ATOM      1  C   UNL A   1      34.403  25.669  23.388  1.00  0.00     0.002 C 
ENDROOT
BRANCH   1   2
ATOM      2  C   UNL A   1      34.232  25.372  24.881  1.00  0.00     0.002 C 
BRANCH   2   3
ATOM      3  C   UNL A   1      34.983  24.164  25.414  1.00  0.00     0.021 C 
BRANCH   3   4
ATOM      4  C   UNL A   1      36.434  24.427  25.751  1.00  0.00     0.116 C 
BRANCH   4   5
ATOM      5  N   UNL A   1      37.265  23.234  25.695  1.00  0.00    -0.352 N 
ATOM      6  O   UNL A   1      39.198  22.066  25.912  1.00  0.00    -0.269 OA
ATOM      7  C   UNL A   1      38.566  23.095  26.120  1.00  0.00     0.251 C 
ATOM      8  H   UNL A   1      36.847  22.432  25.306  1.00  0.00     0.163 HD
BRANCH   7   9
ATOM      9  C   UNL A   1      39.201  24.239  26.803  1.00  0.00     0.039 A 
ATOM     10  C   UNL A   1      38.969  24.444  28.165  1.00  0.00     0.014 A 
ATOM     11  C   UNL A   1      39.946  25.157  26.062  1.00  0.00     0.014 A 
ATOM     12  C   UNL A   1      39.325  25.651  28.743  1.00  0.00     0.010 A 
ATOM     13  C   UNL A   1      40.419  26.315  26.683  1.00  0.00     0.010 A 
ATOM     14  C   UNL A   1      40.088  26.583  28.020  1.00  0.00    -0.014 A 
BRANCH  14  15
ATOM     15  C   UNL A   1      40.610  27.777  28.728  1.00  0.00     0.031 A 
ATOM     16  C   UNL A   1      42.050  27.887  29.136  1.00  0.00     0.074 A 
ATOM     17  C   UNL A   1      39.749  28.782  28.982  1.00  0.00     0.049 A 
ATOM     18  N   UNL A   1      42.651  28.859  29.775  1.00  0.00    -0.248 NA
ATOM     19  C   UNL A   1      42.932  26.761  28.795  1.00  0.00     0.031 C 
ATOM     20  C   UNL A   1      38.325  28.775  28.633  1.00  0.00     0.029 A 
ATOM     21  N   UNL A   1      39.938  30.004  29.571  1.00  0.00    -0.354 N 
ATOM     22  C   UNL A   1      43.971  28.456  29.931  1.00  0.00     0.074 A 
ATOM     23  C   UNL A   1      44.079  27.138  29.343  1.00  0.00     0.031 C 
ATOM     24  C   UNL A   1      37.783  29.953  28.966  1.00  0.00     0.029 A 
ATOM     25  C   UNL A   1      38.794  30.761  29.633  1.00  0.00     0.049 A 
ATOM     26  H   UNL A   1      40.808  30.310  29.916  1.00  0.00     0.167 HD
ATOM     27  C   UNL A   1      44.993  29.133  30.511  1.00  0.00     0.037 A 
ATOM     28  C   UNL A   1      38.570  31.960  30.196  1.00  0.00     0.037 A 
ATOM     29  C   UNL A   1      44.866  30.449  31.089  1.00  0.00     0.049 A 
ATOM     30  C   UNL A   1      39.712  32.661  30.871  1.00  0.00     0.074 A 
ATOM     31  C   UNL A   1      45.847  31.233  31.671  1.00  0.00     0.029 A 
ATOM     32  N   UNL A   1      43.682  31.171  31.165  1.00  0.00    -0.354 N 
ATOM     33  N   UNL A   1      40.961  32.284  30.985  1.00  0.00    -0.248 NA
ATOM     34  C   UNL A   1      39.410  33.952  31.499  1.00  0.00     0.031 C 
ATOM     35  C   UNL A   1      45.245  32.398  32.157  1.00  0.00     0.029 A 
ATOM     36  C   UNL A   1      43.903  32.376  31.814  1.00  0.00     0.049 A 
ATOM     37  H   UNL A   1      42.814  30.871  30.811  1.00  0.00     0.167 HD
ATOM     38  C   UNL A   1      41.602  33.301  31.676  1.00  0.00     0.074 A 
ATOM     39  C   UNL A   1      40.605  34.320  31.935  1.00  0.00     0.031 C 
ATOM     40  C   UNL A   1      42.900  33.382  32.062  1.00  0.00     0.037 A 
BRANCH  27  41
ATOM     41  C   UNL A   1      46.335  28.457  30.579  1.00  0.00     0.064 A 
ATOM     42  C   UNL A   1      46.668  27.568  31.612  1.00  0.00     0.173 A 
ATOM     43  C   UNL A   1      47.284  28.661  29.564  1.00  0.00     0.173 A 
ATOM     44  F   UNL A   1      45.801  27.340  32.611  1.00  0.00    -0.203 F 
ATOM     45  C   UNL A   1      47.906  26.931  31.641  1.00  0.00     0.198 A 
ATOM     46  C   UNL A   1      48.510  27.999  29.580  1.00  0.00     0.198 A 
ATOM     47  F   UNL A   1      47.018  29.493  28.545  1.00  0.00    -0.203 F 
ATOM     48  F   UNL A   1      48.218  26.123  32.665  1.00  0.00    -0.200 F 
ATOM     49  C   UNL A   1      48.823  27.141  30.622  1.00  0.00     0.200 A 
ATOM     50  F   UNL A   1      49.386  28.190  28.584  1.00  0.00    -0.200 F 
ATOM     51  F   UNL A   1      50.010  26.520  30.647  1.00  0.00    -0.200 F 
ENDBRANCH  27  41
BRANCH  28  52
ATOM     52  C   UNL A   1      37.208  32.550  30.157  1.00  0.00     0.064 A 
ATOM     53  C   UNL A   1      36.781  33.311  29.061  1.00  0.00     0.173 A 
ATOM     54  C   UNL A   1      36.299  32.356  31.209  1.00  0.00     0.173 A 
ATOM     55  F   UNL A   1      37.617  33.537  28.036  1.00  0.00    -0.203 F 
ATOM     56  C   UNL A   1      35.507  33.873  29.029  1.00  0.00     0.198 A 
ATOM     57  C   UNL A   1      35.013  32.886  31.159  1.00  0.00     0.198 A 
ATOM     58  F   UNL A   1      36.654  31.626  32.277  1.00  0.00    -0.203 F 
ATOM     59  F   UNL A   1      35.141  34.638  27.991  1.00  0.00    -0.200 F 
ATOM     60  C   UNL A   1      34.621  33.654  30.074  1.00  0.00     0.200 A 
ATOM     61  F   UNL A   1      34.154  32.651  32.160  1.00  0.00    -0.200 F 
ATOM     62  F   UNL A   1      33.393  34.189  30.038  1.00  0.00    -0.200 F 
ENDBRANCH  28  52
BRANCH  40  63
ATOM     63  C   UNL A   1      43.321  34.638  32.769  1.00  0.00     0.064 A 
ATOM     64  C   UNL A   1      43.349  34.726  34.169  1.00  0.00     0.173 A 
ATOM     65  C   UNL A   1      43.725  35.762  32.033  1.00  0.00     0.173 A 
ATOM     66  F   UNL A   1      42.956  33.686  34.920  1.00  0.00    -0.203 F 
ATOM     67  C   UNL A   1      43.734  35.904  34.805  1.00  0.00     0.198 A 
ATOM     68  C   UNL A   1      44.145  36.925  32.671  1.00  0.00     0.198 A 
ATOM     69  F   UNL A   1      43.721  35.730  30.692  1.00  0.00    -0.203 F 
ATOM     70  F   UNL A   1      43.696  35.985  36.142  1.00  0.00    -0.200 F 
ATOM     71  C   UNL A   1      44.140  36.998  34.055  1.00  0.00     0.200 A 
ATOM     72  F   UNL A   1      44.551  37.976  31.946  1.00  0.00    -0.200 F 
ATOM     73  F   UNL A   1      44.516  38.129  34.669  1.00  0.00    -0.200 F 
ENDBRANCH  40  63
ENDBRANCH  14  15
ENDBRANCH   7   9
ENDBRANCH   4   5
ENDBRANCH   3   4
ENDBRANCH   2   3
ENDBRANCH   1   2
BRANCH   1  74
ATOM     74  C   UNL A   1      33.915  27.052  22.931  1.00  0.00     0.021 C 
BRANCH  74  75
ATOM     75  C   UNL A   1      32.711  27.003  21.995  1.00  0.00     0.116 C 
BRANCH  75  76
ATOM     76  N   UNL A   1      31.902  28.198  22.118  1.00  0.00    -0.352 N 
ATOM     77  C   UNL A   1      31.236  28.698  23.198  1.00  0.00     0.252 C 
ATOM     78  H   UNL A   1      31.822  28.731  21.295  1.00  0.00     0.163 HD
ATOM     79  O   UNL A   1      30.448  29.630  23.042  1.00  0.00    -0.269 OA
BRANCH  77  80
ATOM     80  C   UNL A   1      31.334  28.075  24.531  1.00  0.00     0.052 A 
ATOM     81  C   UNL A   1      32.259  28.750  25.364  1.00  0.00     0.014 A 
ATOM     82  C   UNL A   1      30.625  26.969  25.024  1.00  0.00     0.052 A 
ATOM     83  C   UNL A   1      32.414  28.412  26.705  1.00  0.00     0.001 A 
ATOM     84  C   UNL A   1      30.777  26.675  26.403  1.00  0.00     0.014 A 
ATOM     85  C   UNL A   1      31.645  27.391  27.233  1.00  0.00     0.001 A 
BRANCH  82  86
ATOM     86  C   UNL A   1      29.618  26.101  24.340  1.00  0.00     0.256 C 
ATOM     87  O   UNL A   1      28.513  26.608  24.106  1.00  0.00    -0.269 OA
ATOM     88  N   UNL A   1      29.797  24.828  23.849  1.00  0.00    -0.322 N 
ATOM     89  H   UNL A   1      29.018  24.486  23.353  1.00  0.00     0.170 HD
BRANCH  88  90
ATOM     90  C   UNL A   1      30.855  23.925  23.911  1.00  0.00     0.041 A 
ATOM     91  C   UNL A   1      30.976  23.192  25.097  1.00  0.00     0.028 A 
ATOM     92  C   UNL A   1      31.715  23.670  22.854  1.00  0.00     0.028 A 
ATOM     93  C   UNL A   1      31.716  22.016  25.121  1.00  0.00     0.029 A 
ATOM     94  C   UNL A   1      32.579  22.574  22.934  1.00  0.00     0.029 A 
ATOM     95  C   UNL A   1      32.498  21.688  24.020  1.00  0.00     0.052 A 
BRANCH  95  96
ATOM     96  N   UNL A   1      33.098  20.425  23.921  1.00  0.00    -0.250 N 
ATOM     97  C   UNL A   1      32.569  19.395  23.137  1.00  0.00     0.237 C 
ATOM     98  C   UNL A   1      34.097  19.970  24.807  1.00  0.00     0.237 C 
ATOM     99  O   UNL A   1      31.843  19.439  22.165  1.00  0.00    -0.274 OA
ATOM    100  C   UNL A   1      32.972  18.183  23.896  1.00  0.00     0.095 C 
ATOM    101  C   UNL A   1      34.379  18.581  24.312  1.00  0.00     0.095 C 
ATOM    102  O   UNL A   1      34.688  20.554  25.698  1.00  0.00    -0.274 OA
ATOM    103  C   UNL A   1      33.125  16.704  23.555  1.00  0.00     0.002 C 
ATOM    104  C   UNL A   1      34.880  17.258  24.881  1.00  0.00     0.002 C 
ATOM    105  C   UNL A   1      32.776  15.990  24.878  1.00  0.00     0.005 C 
ATOM    106  C   UNL A   1      34.649  16.442  23.581  1.00  0.00     0.009 C 
ATOM    107  C   UNL A   1      33.884  16.530  25.829  1.00  0.00     0.005 C 
ENDBRANCH  95  96
ENDBRANCH  88  90
ENDBRANCH  82  86
ENDBRANCH  77  80
ENDBRANCH  75  76
ENDBRANCH  74  75
ENDBRANCH   1  74
TORSDOF 16
ENDMDL
MODEL 3
REMARK VINA RESULT:     -10.4      4.869     10.590
REMARK SMILES O=C(NCCCCCCNC(=O)c1ccccc1C(=O)Nc1ccc(N2C(=O)[C@H]3[C@@H]4CC[C@@H](C4)[C@@H]3C2=O)cc1)c1ccc(-c2c3nc(c(-c4c(F)c(F)c(F)c(F)c4F)c4ccc([nH]4)c(-c4c(F)c(F)c(F)c(F)c4F)c4nc(c(-c5c(F)c(F)c(F)c(F)c5F)c5ccc2[nH]5)C=C4)C=C3)cc1
REMARK SMILES IDX 7 1 6 2 5 3 4 4 3 5 1 6 2 7 40 9 41 10 102 11 42 12 101 13
REMARK SMILES IDX 43 14 44 15 45 16 95 17 46 18 100 19 94 20 96 21 47 22 99 23
REMARK SMILES IDX 93 24 92 25 48 27 80 28 60 29 79 30 61 31 64 32 78 33 97 34
REMARK SMILES IDX 62 35 63 36 77 38 98 39 65 40 49 41 50 42 58 43 51 44 52 45
REMARK SMILES IDX 56 46 59 47 53 48 54 49 57 50 55 51 81 52 82 53 90 54 83 55
REMARK SMILES IDX 84 56 88 57 91 58 85 59 86 60 89 61 87 62 66 63 67 64 75 65
REMARK SMILES IDX 68 66 69 67 73 68 76 69 70 70 71 71 74 72 72 73 8 74 9 75
REMARK SMILES IDX 10 76 11 77 12 79 13 80 14 81 18 82 15 83 17 84 16 85 19 86
REMARK SMILES IDX 20 87 21 88 22 90 23 91 39 92 24 93 38 94 25 95 26 96 27 97
REMARK SMILES IDX 36 98 28 99 29 100 35 101 37 102 30 103 33 104 31 105 34 106
REMARK SMILES IDX 32 107
REMARK H PARENT 3 8 96 26 64 37 10 78 21 89
REMARK Flexibility Score: inf
ROOT
ATOM      1  C   UNL A   1      32.104  28.548  26.230  1.00  0.00     0.002 C 
ENDROOT
BRANCH   1   2
ATOM      2  C   UNL A   1      31.964  29.935  25.596  1.00  0.00     0.002 C 
BRANCH   2   3
ATOM      3  C   UNL A   1      31.633  31.074  26.544  1.00  0.00     0.021 C 
BRANCH   3   4
ATOM      4  C   UNL A   1      32.830  31.875  27.005  1.00  0.00     0.116 C 
BRANCH   4   5
ATOM      5  N   UNL A   1      32.526  33.274  27.260  1.00  0.00    -0.352 N 
ATOM      6  O   UNL A   1      32.692  35.242  28.378  1.00  0.00    -0.269 OA
ATOM      7  C   UNL A   1      33.117  34.110  28.179  1.00  0.00     0.251 C 
ATOM      8  H   UNL A   1      31.812  33.670  26.709  1.00  0.00     0.163 HD
BRANCH   7   9
ATOM      9  C   UNL A   1      34.260  33.591  28.956  1.00  0.00     0.039 A 
ATOM     10  C   UNL A   1      35.562  33.929  28.576  1.00  0.00     0.014 A 
ATOM     11  C   UNL A   1      34.034  32.694  30.000  1.00  0.00     0.014 A 
ATOM     12  C   UNL A   1      36.631  33.234  29.116  1.00  0.00     0.010 A 
ATOM     13  C   UNL A   1      35.123  32.093  30.634  1.00  0.00     0.010 A 
ATOM     14  C   UNL A   1      36.428  32.337  30.177  1.00  0.00    -0.014 A 
BRANCH  14  15
ATOM     15  C   UNL A   1      37.612  31.756  30.854  1.00  0.00     0.031 A 
ATOM     16  C   UNL A   1      38.022  32.180  32.234  1.00  0.00     0.074 A 
ATOM     17  C   UNL A   1      38.310  30.810  30.194  1.00  0.00     0.049 A 
ATOM     18  N   UNL A   1      39.042  31.775  32.949  1.00  0.00    -0.248 NA
ATOM     19  C   UNL A   1      37.191  33.195  32.898  1.00  0.00     0.031 C 
ATOM     20  C   UNL A   1      38.001  30.328  28.844  1.00  0.00     0.029 A 
ATOM     21  N   UNL A   1      39.403  30.073  30.565  1.00  0.00    -0.354 N 
ATOM     22  C   UNL A   1      38.989  32.497  34.134  1.00  0.00     0.074 A 
ATOM     23  C   UNL A   1      37.850  33.386  34.033  1.00  0.00     0.031 C 
ATOM     24  C   UNL A   1      38.848  29.343  28.521  1.00  0.00     0.029 A 
ATOM     25  C   UNL A   1      39.815  29.187  29.599  1.00  0.00     0.049 A 
ATOM     26  H   UNL A   1      39.850  30.169  31.436  1.00  0.00     0.167 HD
ATOM     27  C   UNL A   1      39.816  32.416  35.205  1.00  0.00     0.037 A 
ATOM     28  C   UNL A   1      40.876  28.363  29.567  1.00  0.00     0.037 A 
ATOM     29  C   UNL A   1      40.944  31.520  35.288  1.00  0.00     0.049 A 
ATOM     30  C   UNL A   1      41.798  28.332  30.748  1.00  0.00     0.074 A 
ATOM     31  C   UNL A   1      41.825  31.338  36.341  1.00  0.00     0.029 A 
ATOM     32  N   UNL A   1      41.352  30.662  34.276  1.00  0.00    -0.354 N 
ATOM     33  N   UNL A   1      41.720  28.996  31.875  1.00  0.00    -0.248 NA
ATOM     34  C   UNL A   1      42.959  27.441  30.651  1.00  0.00     0.031 C 
ATOM     35  C   UNL A   1      42.802  30.421  35.942  1.00  0.00     0.029 A 
ATOM     36  C   UNL A   1      42.491  29.974  34.668  1.00  0.00     0.049 A 
ATOM     37  H   UNL A   1      40.900  30.558  33.408  1.00  0.00     0.167 HD
ATOM     38  C   UNL A   1      42.806  28.586  32.632  1.00  0.00     0.074 A 
ATOM     39  C   UNL A   1      43.515  27.599  31.843  1.00  0.00     0.031 C 
ATOM     40  C   UNL A   1      43.184  28.992  33.871  1.00  0.00     0.037 A 
BRANCH  27  41
ATOM     41  C   UNL A   1      39.557  33.337  36.365  1.00  0.00     0.064 A 
ATOM     42  C   UNL A   1      38.747  32.960  37.447  1.00  0.00     0.173 A 
ATOM     43  C   UNL A   1      40.171  34.599  36.419  1.00  0.00     0.173 A 
ATOM     44  F   UNL A   1      38.131  31.768  37.445  1.00  0.00    -0.203 F 
ATOM     45  C   UNL A   1      38.542  33.819  38.525  1.00  0.00     0.198 A 
ATOM     46  C   UNL A   1      39.988  35.443  37.513  1.00  0.00     0.198 A 
ATOM     47  F   UNL A   1      40.962  35.011  35.418  1.00  0.00    -0.203 F 
ATOM     48  F   UNL A   1      37.726  33.453  39.525  1.00  0.00    -0.200 F 
ATOM     49  C   UNL A   1      39.168  35.056  38.561  1.00  0.00     0.200 A 
ATOM     50  F   UNL A   1      40.609  36.630  37.553  1.00  0.00    -0.200 F 
ATOM     51  F   UNL A   1      38.976  35.876  39.603  1.00  0.00    -0.200 F 
ENDBRANCH  27  41
BRANCH  28  52
ATOM     52  C   UNL A   1      41.120  27.524  28.365  1.00  0.00     0.064 A 
ATOM     53  C   UNL A   1      40.469  26.294  28.199  1.00  0.00     0.173 A 
ATOM     54  C   UNL A   1      41.999  27.939  27.353  1.00  0.00     0.173 A 
ATOM     55  F   UNL A   1      39.629  25.847  29.144  1.00  0.00    -0.203 F 
ATOM     56  C   UNL A   1      40.706  25.503  27.076  1.00  0.00     0.198 A 
ATOM     57  C   UNL A   1      42.206  27.165  26.215  1.00  0.00     0.198 A 
ATOM     58  F   UNL A   1      42.639  29.114  27.459  1.00  0.00    -0.203 F 
ATOM     59  F   UNL A   1      40.109  24.308  26.965  1.00  0.00    -0.200 F 
ATOM     60  C   UNL A   1      41.569  25.942  26.083  1.00  0.00     0.200 A 
ATOM     61  F   UNL A   1      43.021  27.605  25.247  1.00  0.00    -0.200 F 
ATOM     62  F   UNL A   1      41.790  25.183  25.001  1.00  0.00    -0.200 F 
ENDBRANCH  28  52
BRANCH  40  63
ATOM     63  C   UNL A   1      44.397  28.333  34.462  1.00  0.00     0.064 A 
ATOM     64  C   UNL A   1      45.681  28.877  34.313  1.00  0.00     0.173 A 
ATOM     65  C   UNL A   1      44.267  27.152  35.207  1.00  0.00     0.173 A 
ATOM     66  F   UNL A   1      45.863  29.996  33.594  1.00  0.00    -0.203 F 
ATOM     67  C   UNL A   1      46.795  28.245  34.861  1.00  0.00     0.198 A 
ATOM     68  C   UNL A   1      45.376  26.543  35.786  1.00  0.00     0.198 A 
ATOM     69  F   UNL A   1      43.060  26.592  35.383  1.00  0.00    -0.203 F 
ATOM     70  F   UNL A   1      48.018  28.749  34.655  1.00  0.00    -0.200 F 
ATOM     71  C   UNL A   1      46.639  27.084  35.604  1.00  0.00     0.200 A 
ATOM     72  F   UNL A   1      45.222  25.430  36.516  1.00  0.00    -0.200 F 
ATOM     73  F   UNL A   1      47.710  26.480  36.137  1.00  0.00    -0.200 F 
ENDBRANCH  40  63
ENDBRANCH  14  15
ENDBRANCH   7   9
ENDBRANCH   4   5
ENDBRANCH   3   4
ENDBRANCH   2   3
ENDBRANCH   1   2
BRANCH   1  74
ATOM     74  C   UNL A   1      33.531  27.980  26.267  1.00  0.00     0.021 C 
BRANCH  74  75
ATOM     75  C   UNL A   1      33.669  26.615  25.601  1.00  0.00     0.116 C 
BRANCH  75  76
ATOM     76  N   UNL A   1      33.277  25.551  26.501  1.00  0.00    -0.352 N 
ATOM     77  C   UNL A   1      33.592  24.224  26.479  1.00  0.00     0.252 C 
ATOM     78  H   UNL A   1      32.696  25.828  27.244  1.00  0.00     0.163 HD
ATOM     79  O   UNL A   1      32.999  23.450  27.230  1.00  0.00    -0.269 OA
BRANCH  77  80
ATOM     80  C   UNL A   1      34.533  23.663  25.491  1.00  0.00     0.052 A 
ATOM     81  C   UNL A   1      35.867  24.064  25.743  1.00  0.00     0.014 A 
ATOM     82  C   UNL A   1      34.251  22.806  24.416  1.00  0.00     0.052 A 
ATOM     83  C   UNL A   1      36.934  23.549  25.014  1.00  0.00     0.001 A 
ATOM     84  C   UNL A   1      35.362  22.268  23.718  1.00  0.00     0.014 A 
ATOM     85  C   UNL A   1      36.681  22.622  24.018  1.00  0.00     0.001 A 
BRANCH  82  86
ATOM     86  C   UNL A   1      32.938  22.259  23.952  1.00  0.00     0.256 C 
ATOM     87  O   UNL A   1      32.856  21.029  23.840  1.00  0.00    -0.269 OA
ATOM     88  N   UNL A   1      31.772  22.951  23.723  1.00  0.00    -0.322 N 
ATOM     89  H   UNL A   1      31.006  22.369  23.511  1.00  0.00     0.170 HD
BRANCH  88  90
ATOM     90  C   UNL A   1      31.453  24.307  23.727  1.00  0.00     0.041 A 
ATOM     91  C   UNL A   1      32.090  25.096  22.762  1.00  0.00     0.028 A 
ATOM     92  C   UNL A   1      30.504  24.874  24.562  1.00  0.00     0.028 A 
ATOM     93  C   UNL A   1      31.566  26.337  22.417  1.00  0.00     0.029 A 
ATOM     94  C   UNL A   1      30.082  26.183  24.317  1.00  0.00     0.029 A 
ATOM     95  C   UNL A   1      30.535  26.871  23.179  1.00  0.00     0.052 A 
BRANCH  95  96
ATOM     96  N   UNL A   1      29.849  28.015  22.751  1.00  0.00    -0.250 N 
ATOM     97  C   UNL A   1      30.503  29.175  22.324  1.00  0.00     0.237 C 
ATOM     98  C   UNL A   1      28.473  28.226  22.983  1.00  0.00     0.237 C 
ATOM     99  O   UNL A   1      31.617  29.327  21.866  1.00  0.00    -0.274 OA
ATOM    100  C   UNL A   1      29.553  30.241  22.734  1.00  0.00     0.095 C 
ATOM    101  C   UNL A   1      28.232  29.577  22.376  1.00  0.00     0.095 C 
ATOM    102  O   UNL A   1      27.629  27.485  23.458  1.00  0.00    -0.274 OA
ATOM    103  C   UNL A   1      29.324  31.692  22.323  1.00  0.00     0.002 C 
ATOM    104  C   UNL A   1      27.277  30.750  22.570  1.00  0.00     0.002 C 
ATOM    105  C   UNL A   1      28.811  32.359  23.616  1.00  0.00     0.005 C 
ATOM    106  C   UNL A   1      27.984  31.685  21.553  1.00  0.00     0.009 C 
ATOM    107  C   UNL A   1      27.495  31.568  23.875  1.00  0.00     0.005 C 
ENDBRANCH  95  96
ENDBRANCH  88  90
ENDBRANCH  82  86
ENDBRANCH  77  80
ENDBRANCH  75  76
ENDBRANCH  74  75
ENDBRANCH   1  74
TORSDOF 16
ENDMDL
