MODEL 1
REMARK VINA RESULT:     -12.3      0.000      0.000
REMARK SMILES C#Cc1cccc(NS(=O)(=O)c2cc(C)c(C(=O)NCCCCCCNC(=O)c3ccc(-c4c5nc(c(-c6c(F)c(F)c(F)c(F)c6F)c6ccc([nH]6)c(-c6c(F)c(F)c(F)c(F)c6F)c6nc(c(-c7c(F)c(F)c(F)c(F)c7F)c7ccc4[nH]7)C=C6)C=C5)cc3)s2)c1
REMARK SMILES IDX 21 1 20 2 19 3 17 4 18 5 16 7 12 8 13 9 92 10 14 11 15 12
REMARK SMILES IDX 9 13 10 14 11 15 8 16 7 18 3 19 4 20 93 21 5 22 6 23 2 24
REMARK SMILES IDX 1 25 22 26 23 27 24 28 25 29 26 30 27 31 28 33 29 34 30 35
REMARK SMILES IDX 91 36 31 37 90 38 32 39 33 40 34 41 84 42 35 43 89 44 83 45
REMARK SMILES IDX 85 46 36 47 88 48 82 49 81 50 37 52 69 53 49 54 68 55 50 56
REMARK SMILES IDX 53 57 67 58 86 59 51 60 52 61 66 63 87 64 54 65 38 66 39 67
REMARK SMILES IDX 47 68 40 69 41 70 45 71 48 72 42 73 43 74 46 75 44 76 70 77
REMARK SMILES IDX 71 78 79 79 72 80 73 81 77 82 80 83 74 84 75 85 78 86 76 87
REMARK SMILES IDX 55 88 56 89 64 90 57 91 58 92 62 93 65 94 59 95 60 96 63 97
REMARK SMILES IDX 61 98
REMARK H PARENT 19 6 8 17 26 32 85 51 53 62
REMARK Flexibility Score: inf
ROOT
ATOM      1  C   UNL A   1      32.814  28.785  26.440  1.00  0.00     0.021 C 
ENDROOT
BRANCH   1   2
ATOM      2  C   UNL A   1      31.887  28.191  27.506  1.00  0.00     0.116 C 
BRANCH   2   3
ATOM      3  N   UNL A   1      30.867  27.396  26.889  1.00  0.00    -0.351 N 
ATOM      4  C   UNL A   1      30.884  26.281  26.101  1.00  0.00     0.261 C 
ATOM      5  O   UNL A   1      29.745  25.932  25.763  1.00  0.00    -0.268 OA
ATOM      6  H   UNL A   1      29.957  27.725  27.074  1.00  0.00     0.163 HD
BRANCH   4   7
ATOM      7  C   UNL A   1      32.092  25.531  25.730  1.00  0.00     0.096 A 
ATOM      8  C   UNL A   1      33.616  23.539  25.676  1.00  0.00     0.141 A 
ATOM      9  C   UNL A   1      34.207  24.690  25.211  1.00  0.00     0.038 A 
ATOM     10  S   UNL A   1      32.165  23.934  26.460  1.00  0.00    -0.116 S 
ATOM     11  C   UNL A   1      33.191  25.658  24.873  1.00  0.00    -0.026 A 
ATOM     12  C   UNL A   1      33.417  26.506  23.665  1.00  0.00     0.046 C 
BRANCH   8  13
ATOM     13  S   UNL A   1      34.086  21.830  25.616  1.00  0.00     0.271 S 
ATOM     14  O   UNL A   1      34.369  21.437  26.980  1.00  0.00    -0.200 OA
ATOM     15  O   UNL A   1      35.105  21.771  24.589  1.00  0.00    -0.200 OA
BRANCH  13  16
ATOM     16  N   UNL A   1      32.847  20.805  25.075  1.00  0.00    -0.279 N 
ATOM     17  H   UNL A   1      31.922  21.077  25.273  1.00  0.00     0.180 HD
BRANCH  16  18
ATOM     18  C   UNL A   1      33.030  19.583  24.357  1.00  0.00     0.050 A 
ATOM     19  C   UNL A   1      34.094  17.397  24.244  1.00  0.00     0.026 A 
ATOM     20  C   UNL A   1      33.494  17.163  23.010  1.00  0.00     0.017 A 
ATOM     21  C   UNL A   1      33.885  18.613  24.906  1.00  0.00     0.044 A 
ATOM     22  C   UNL A   1      32.555  18.063  22.527  1.00  0.00     0.003 A 
ATOM     23  C   UNL A   1      32.277  19.235  23.238  1.00  0.00     0.027 A 
BRANCH  19  24
ATOM     24  C   UNL A   1      34.806  16.310  24.846  1.00  0.00    -0.070 C 
ATOM     25  C   UNL A   1      35.552  15.464  25.248  1.00  0.00     0.010 C 
ENDBRANCH  19  24
ENDBRANCH  16  18
ENDBRANCH  13  16
ENDBRANCH   8  13
ENDBRANCH   4   7
ENDBRANCH   2   3
ENDBRANCH   1   2
BRANCH   1  26
ATOM     26  C   UNL A   1      32.836  30.312  26.511  1.00  0.00     0.002 C 
BRANCH  26  27
ATOM     27  C   UNL A   1      31.448  30.934  26.319  1.00  0.00     0.002 C 
BRANCH  27  28
ATOM     28  C   UNL A   1      31.358  32.407  26.721  1.00  0.00     0.021 C 
BRANCH  28  29
ATOM     29  C   UNL A   1      32.682  32.998  27.188  1.00  0.00     0.116 C 
BRANCH  29  30
ATOM     30  N   UNL A   1      32.516  34.364  27.667  1.00  0.00    -0.352 N 
ATOM     31  C   UNL A   1      33.062  34.974  28.765  1.00  0.00     0.251 C 
ATOM     32  H   UNL A   1      31.925  34.931  27.121  1.00  0.00     0.163 HD
ATOM     33  O   UNL A   1      32.595  36.025  29.187  1.00  0.00    -0.269 OA
BRANCH  31  34
ATOM     34  C   UNL A   1      34.218  34.351  29.437  1.00  0.00     0.039 A 
ATOM     35  C   UNL A   1      33.999  33.514  30.531  1.00  0.00     0.014 A 
ATOM     36  C   UNL A   1      35.517  34.607  28.988  1.00  0.00     0.014 A 
ATOM     37  C   UNL A   1      35.085  32.888  31.142  1.00  0.00     0.010 A 
ATOM     38  C   UNL A   1      36.585  33.908  29.533  1.00  0.00     0.010 A 
ATOM     39  C   UNL A   1      36.381  33.051  30.624  1.00  0.00    -0.014 A 
BRANCH  39  40
ATOM     40  C   UNL A   1      37.538  32.335  31.214  1.00  0.00     0.031 A 
ATOM     41  C   UNL A   1      38.046  32.713  32.576  1.00  0.00     0.074 A 
ATOM     42  C   UNL A   1      38.164  31.385  30.494  1.00  0.00     0.049 A 
ATOM     43  N   UNL A   1      39.069  32.235  33.241  1.00  0.00    -0.248 NA
ATOM     44  C   UNL A   1      37.329  33.791  33.275  1.00  0.00     0.031 C 
ATOM     45  C   UNL A   1      37.788  30.964  29.144  1.00  0.00     0.029 A 
ATOM     46  N   UNL A   1      39.249  30.604  30.796  1.00  0.00    -0.354 N 
ATOM     47  C   UNL A   1      39.120  32.959  34.424  1.00  0.00     0.074 A 
ATOM     48  C   UNL A   1      38.071  33.952  34.359  1.00  0.00     0.031 C 
ATOM     49  C   UNL A   1      38.604  29.975  28.750  1.00  0.00     0.029 A 
ATOM     50  C   UNL A   1      39.592  29.730  29.795  1.00  0.00     0.049 A 
ATOM     51  H   UNL A   1      39.737  30.665  31.650  1.00  0.00     0.167 HD
ATOM     52  C   UNL A   1      39.953  32.792  35.480  1.00  0.00     0.037 A 
ATOM     53  C   UNL A   1      40.598  28.837  29.725  1.00  0.00     0.037 A 
ATOM     54  C   UNL A   1      40.991  31.796  35.535  1.00  0.00     0.049 A 
ATOM     55  C   UNL A   1      41.535  28.698  30.894  1.00  0.00     0.074 A 
ATOM     56  C   UNL A   1      41.854  31.507  36.577  1.00  0.00     0.029 A 
ATOM     57  N   UNL A   1      41.318  30.936  34.495  1.00  0.00    -0.354 N 
ATOM     58  N   UNL A   1      41.530  29.336  32.040  1.00  0.00    -0.248 NA
ATOM     59  C   UNL A   1      42.615  27.713  30.760  1.00  0.00     0.031 C 
ATOM     60  C   UNL A   1      42.754  30.530  36.140  1.00  0.00     0.029 A 
ATOM     61  C   UNL A   1      42.399  30.147  34.856  1.00  0.00     0.049 A 
ATOM     62  H   UNL A   1      40.852  30.894  33.629  1.00  0.00     0.167 HD
ATOM     63  C   UNL A   1      42.581  28.805  32.776  1.00  0.00     0.074 A 
ATOM     64  C   UNL A   1      43.192  27.783  31.951  1.00  0.00     0.031 C 
ATOM     65  C   UNL A   1      42.999  29.132  34.025  1.00  0.00     0.037 A 
BRANCH  52  66
ATOM     66  C   UNL A   1      39.786  33.722  36.649  1.00  0.00     0.064 A 
ATOM     67  C   UNL A   1      38.951  33.411  37.736  1.00  0.00     0.173 A 
ATOM     68  C   UNL A   1      40.482  34.939  36.692  1.00  0.00     0.173 A 
ATOM     69  F   UNL A   1      38.254  32.265  37.746  1.00  0.00    -0.203 F 
ATOM     70  C   UNL A   1      38.785  34.302  38.793  1.00  0.00     0.198 A 
ATOM     71  C   UNL A   1      40.347  35.809  37.772  1.00  0.00     0.198 A 
ATOM     72  F   UNL A   1      41.299  35.288  35.687  1.00  0.00    -0.203 F 
ATOM     73  F   UNL A   1      37.928  34.013  39.782  1.00  0.00    -0.200 F 
ATOM     74  C   UNL A   1      39.488  35.496  38.814  1.00  0.00     0.200 A 
ATOM     75  F   UNL A   1      41.043  36.954  37.798  1.00  0.00    -0.200 F 
ATOM     76  F   UNL A   1      39.331  36.351  39.834  1.00  0.00    -0.200 F 
ENDBRANCH  52  66
BRANCH  53  77
ATOM     77  C   UNL A   1      40.752  27.991  28.512  1.00  0.00     0.064 A 
ATOM     78  C   UNL A   1      40.117  26.745  28.416  1.00  0.00     0.173 A 
ATOM     79  C   UNL A   1      41.533  28.408  27.424  1.00  0.00     0.173 A 
ATOM     80  F   UNL A   1      39.372  26.293  29.436  1.00  0.00    -0.203 F 
ATOM     81  C   UNL A   1      40.273  25.941  27.290  1.00  0.00     0.198 A 
ATOM     82  C   UNL A   1      41.662  27.619  26.283  1.00  0.00     0.198 A 
ATOM     83  F   UNL A   1      42.159  29.595  27.460  1.00  0.00    -0.203 F 
ATOM     84  F   UNL A   1      39.695  24.733  27.246  1.00  0.00    -0.200 F 
ATOM     85  C   UNL A   1      41.039  26.382  26.221  1.00  0.00     0.200 A 
ATOM     86  F   UNL A   1      42.386  28.058  25.245  1.00  0.00    -0.200 F 
ATOM     87  F   UNL A   1      41.183  25.611  25.134  1.00  0.00    -0.200 F 
ENDBRANCH  53  77
BRANCH  65  88
ATOM     88  C   UNL A   1      44.149  28.349  34.596  1.00  0.00     0.064 A 
ATOM     89  C   UNL A   1      45.475  28.795  34.498  1.00  0.00     0.173 A 
ATOM     90  C   UNL A   1      43.913  27.149  35.287  1.00  0.00     0.173 A 
ATOM     91  F   UNL A   1      45.761  29.928  33.837  1.00  0.00    -0.203 F 
ATOM     92  C   UNL A   1      46.523  28.054  35.038  1.00  0.00     0.198 A 
ATOM     93  C   UNL A   1      44.958  26.433  35.863  1.00  0.00     0.198 A 
ATOM     94  F   UNL A   1      42.664  26.679  35.420  1.00  0.00    -0.203 F 
ATOM     95  F   UNL A   1      47.788  28.470  34.877  1.00  0.00    -0.200 F 
ATOM     96  C   UNL A   1      46.263  26.880  35.728  1.00  0.00     0.200 A 
ATOM     97  F   UNL A   1      44.701  25.310  36.548  1.00  0.00    -0.200 F 
ATOM     98  F   UNL A   1      47.272  26.174  36.257  1.00  0.00    -0.200 F 
ENDBRANCH  65  88
ENDBRANCH  39  40
ENDBRANCH  31  34
ENDBRANCH  29  30
ENDBRANCH  28  29
ENDBRANCH  27  28
ENDBRANCH  26  27
ENDBRANCH   1  26
TORSDOF 17
ENDMDL
MODEL 2
REMARK VINA RESULT:     -12.1      2.014      2.909
REMARK SMILES C#Cc1cccc(NS(=O)(=O)c2cc(C)c(C(=O)NCCCCCCNC(=O)c3ccc(-c4c5nc(c(-c6c(F)c(F)c(F)c(F)c6F)c6ccc([nH]6)c(-c6c(F)c(F)c(F)c(F)c6F)c6nc(c(-c7c(F)c(F)c(F)c(F)c7F)c7ccc4[nH]7)C=C6)C=C5)cc3)s2)c1
REMARK SMILES IDX 21 1 20 2 19 3 17 4 18 5 16 7 12 8 13 9 92 10 14 11 15 12
REMARK SMILES IDX 9 13 10 14 11 15 8 16 7 18 3 19 4 20 93 21 5 22 6 23 2 24
REMARK SMILES IDX 1 25 22 26 23 27 24 28 25 29 26 30 27 31 28 33 29 34 30 35
REMARK SMILES IDX 91 36 31 37 90 38 32 39 33 40 34 41 84 42 35 43 89 44 83 45
REMARK SMILES IDX 85 46 36 47 88 48 82 49 81 50 37 52 69 53 49 54 68 55 50 56
REMARK SMILES IDX 53 57 67 58 86 59 51 60 52 61 66 63 87 64 54 65 38 66 39 67
REMARK SMILES IDX 47 68 40 69 41 70 45 71 48 72 42 73 43 74 46 75 44 76 70 77
REMARK SMILES IDX 71 78 79 79 72 80 73 81 77 82 80 83 74 84 75 85 78 86 76 87
REMARK SMILES IDX 55 88 56 89 64 90 57 91 58 92 62 93 65 94 59 95 60 96 63 97
REMARK SMILES IDX 61 98
REMARK H PARENT 19 6 8 17 26 32 85 51 53 62
REMARK Flexibility Score: inf
ROOT
ATOM      1  C   UNL A   1      35.000  31.427  28.575  1.00  0.00     0.021 C 
ENDROOT
BRANCH   1   2
ATOM      2  C   UNL A   1      34.719  30.499  27.388  1.00  0.00     0.116 C 
BRANCH   2   3
ATOM      3  N   UNL A   1      33.440  30.797  26.816  1.00  0.00    -0.351 N 
ATOM      4  C   UNL A   1      32.520  30.064  26.122  1.00  0.00     0.261 C 
ATOM      5  O   UNL A   1      31.541  30.743  25.787  1.00  0.00    -0.268 OA
ATOM      6  H   UNL A   1      33.166  31.733  26.952  1.00  0.00     0.163 HD
BRANCH   4   7
ATOM      7  C   UNL A   1      32.628  28.626  25.841  1.00  0.00     0.096 A 
ATOM      8  C   UNL A   1      32.026  26.202  26.076  1.00  0.00     0.141 A 
ATOM      9  C   UNL A   1      33.204  26.407  25.396  1.00  0.00     0.038 A 
ATOM     10  S   UNL A   1      31.560  27.646  26.835  1.00  0.00    -0.116 S 
ATOM     11  C   UNL A   1      33.267  27.773  24.934  1.00  0.00    -0.026 A 
ATOM     12  C   UNL A   1      33.867  28.022  23.589  1.00  0.00     0.046 C 
BRANCH   8  13
ATOM     13  S   UNL A   1      30.990  24.779  26.297  1.00  0.00     0.271 S 
ATOM     14  O   UNL A   1      29.628  25.267  26.320  1.00  0.00    -0.200 OA
ATOM     15  O   UNL A   1      31.562  24.089  27.434  1.00  0.00    -0.200 OA
BRANCH  13  16
ATOM     16  N   UNL A   1      31.076  23.673  25.014  1.00  0.00    -0.279 N 
ATOM     17  H   UNL A   1      30.382  23.739  24.318  1.00  0.00     0.180 HD
BRANCH  16  18
ATOM     18  C   UNL A   1      32.067  22.655  24.855  1.00  0.00     0.050 A 
ATOM     19  C   UNL A   1      34.328  22.069  24.175  1.00  0.00     0.026 A 
ATOM     20  C   UNL A   1      34.073  20.731  24.464  1.00  0.00     0.017 A 
ATOM     21  C   UNL A   1      33.321  23.027  24.345  1.00  0.00     0.044 A 
ATOM     22  C   UNL A   1      32.882  20.383  25.083  1.00  0.00     0.003 A 
ATOM     23  C   UNL A   1      31.913  21.358  25.339  1.00  0.00     0.027 A 
BRANCH  19  24
ATOM     24  C   UNL A   1      35.673  22.423  23.834  1.00  0.00    -0.070 C 
ATOM     25  C   UNL A   1      36.718  22.860  23.444  1.00  0.00     0.010 C 
ENDBRANCH  19  24
ENDBRANCH  16  18
ENDBRANCH  13  16
ENDBRANCH   8  13
ENDBRANCH   4   7
ENDBRANCH   2   3
ENDBRANCH   1   2
BRANCH   1  26
ATOM     26  C   UNL A   1      35.077  32.888  28.132  1.00  0.00     0.002 C 
BRANCH  26  27
ATOM     27  C   UNL A   1      34.802  33.870  29.277  1.00  0.00     0.002 C 
BRANCH  27  28
ATOM     28  C   UNL A   1      33.445  34.570  29.194  1.00  0.00     0.021 C 
BRANCH  28  29
ATOM     29  C   UNL A   1      33.475  36.023  29.649  1.00  0.00     0.116 C 
BRANCH  29  30
ATOM     30  N   UNL A   1      32.582  36.246  30.778  1.00  0.00    -0.352 N 
ATOM     31  C   UNL A   1      32.602  35.686  32.028  1.00  0.00     0.251 C 
ATOM     32  H   UNL A   1      31.858  36.893  30.618  1.00  0.00     0.163 HD
ATOM     33  O   UNL A   1      31.619  35.756  32.756  1.00  0.00    -0.269 OA
BRANCH  31  34
ATOM     34  C   UNL A   1      33.821  34.997  32.491  1.00  0.00     0.039 A 
ATOM     35  C   UNL A   1      33.731  33.674  32.924  1.00  0.00     0.014 A 
ATOM     36  C   UNL A   1      35.048  35.665  32.505  1.00  0.00     0.014 A 
ATOM     37  C   UNL A   1      34.887  33.003  33.321  1.00  0.00     0.010 A 
ATOM     38  C   UNL A   1      36.210  34.967  32.805  1.00  0.00     0.010 A 
ATOM     39  C   UNL A   1      36.140  33.633  33.228  1.00  0.00    -0.014 A 
BRANCH  39  40
ATOM     40  C   UNL A   1      37.388  32.911  33.575  1.00  0.00     0.031 A 
ATOM     41  C   UNL A   1      38.106  33.217  34.857  1.00  0.00     0.074 A 
ATOM     42  C   UNL A   1      37.901  32.024  32.702  1.00  0.00     0.049 A 
ATOM     43  N   UNL A   1      39.231  32.725  35.314  1.00  0.00    -0.248 NA
ATOM     44  C   UNL A   1      37.497  34.231  35.732  1.00  0.00     0.031 C 
ATOM     45  C   UNL A   1      37.316  31.677  31.407  1.00  0.00     0.029 A 
ATOM     46  N   UNL A   1      39.033  31.253  32.772  1.00  0.00    -0.354 N 
ATOM     47  C   UNL A   1      39.465  33.375  36.518  1.00  0.00     0.074 A 
ATOM     48  C   UNL A   1      38.405  34.344  36.689  1.00  0.00     0.031 C 
ATOM     49  C   UNL A   1      38.070  30.736  30.821  1.00  0.00     0.029 A 
ATOM     50  C   UNL A   1      39.221  30.451  31.673  1.00  0.00     0.049 A 
ATOM     51  H   UNL A   1      39.653  31.273  33.537  1.00  0.00     0.167 HD
ATOM     52  C   UNL A   1      40.462  33.164  37.411  1.00  0.00     0.037 A 
ATOM     53  C   UNL A   1      40.214  29.590  31.383  1.00  0.00     0.037 A 
ATOM     54  C   UNL A   1      41.510  32.194  37.232  1.00  0.00     0.049 A 
ATOM     55  C   UNL A   1      41.332  29.403  32.372  1.00  0.00     0.074 A 
ATOM     56  C   UNL A   1      42.536  31.863  38.099  1.00  0.00     0.029 A 
ATOM     57  N   UNL A   1      41.675  31.408  36.099  1.00  0.00    -0.354 N 
ATOM     58  N   UNL A   1      41.506  29.969  33.543  1.00  0.00    -0.248 NA
ATOM     59  C   UNL A   1      42.390  28.456  32.001  1.00  0.00     0.031 C 
ATOM     60  C   UNL A   1      43.367  30.938  37.459  1.00  0.00     0.029 A 
ATOM     61  C   UNL A   1      42.812  30.625  36.228  1.00  0.00     0.049 A 
ATOM     62  H   UNL A   1      41.074  31.408  35.320  1.00  0.00     0.167 HD
ATOM     63  C   UNL A   1      42.671  29.420  34.063  1.00  0.00     0.074 A 
ATOM     64  C   UNL A   1      43.153  28.467  33.084  1.00  0.00     0.031 C 
ATOM     65  C   UNL A   1      43.283  29.680  35.245  1.00  0.00     0.037 A 
BRANCH  52  66
ATOM     66  C   UNL A   1      40.475  34.016  38.651  1.00  0.00     0.064 A 
ATOM     67  C   UNL A   1      39.783  33.647  39.816  1.00  0.00     0.173 A 
ATOM     68  C   UNL A   1      41.202  35.215  38.679  1.00  0.00     0.173 A 
ATOM     69  F   UNL A   1      39.063  32.515  39.845  1.00  0.00    -0.203 F 
ATOM     70  C   UNL A   1      39.782  34.466  40.941  1.00  0.00     0.198 A 
ATOM     71  C   UNL A   1      41.234  36.012  39.821  1.00  0.00     0.198 A 
ATOM     72  F   UNL A   1      41.889  35.617  37.599  1.00  0.00    -0.203 F 
ATOM     73  F   UNL A   1      39.055  34.127  42.015  1.00  0.00    -0.200 F 
ATOM     74  C   UNL A   1      40.512  35.644  40.946  1.00  0.00     0.200 A 
ATOM     75  F   UNL A   1      41.957  37.140  39.828  1.00  0.00    -0.200 F 
ATOM     76  F   UNL A   1      40.513  36.431  42.031  1.00  0.00    -0.200 F 
ENDBRANCH  52  66
BRANCH  53  77
ATOM     77  C   UNL A   1      40.180  28.825  30.108  1.00  0.00     0.064 A 
ATOM     78  C   UNL A   1      39.537  27.582  30.031  1.00  0.00     0.173 A 
ATOM     79  C   UNL A   1      40.785  29.319  28.943  1.00  0.00     0.173 A 
ATOM     80  F   UNL A   1      38.958  27.059  31.122  1.00  0.00    -0.203 F 
ATOM     81  C   UNL A   1      39.518  26.853  28.844  1.00  0.00     0.198 A 
ATOM     82  C   UNL A   1      40.736  28.605  27.747  1.00  0.00     0.198 A 
ATOM     83  F   UNL A   1      41.409  30.507  28.960  1.00  0.00    -0.203 F 
ATOM     84  F   UNL A   1      38.940  25.645  28.811  1.00  0.00    -0.200 F 
ATOM     85  C   UNL A   1      40.111  27.369  27.702  1.00  0.00     0.200 A 
ATOM     86  F   UNL A   1      41.293  29.117  26.641  1.00  0.00    -0.200 F 
ATOM     87  F   UNL A   1      40.086  26.670  26.558  1.00  0.00    -0.200 F 
ENDBRANCH  53  77
BRANCH  65  88
ATOM     88  C   UNL A   1      44.522  28.892  35.570  1.00  0.00     0.064 A 
ATOM     89  C   UNL A   1      45.800  29.320  35.178  1.00  0.00     0.173 A 
ATOM     90  C   UNL A   1      44.431  27.708  36.319  1.00  0.00     0.173 A 
ATOM     91  F   UNL A   1      45.945  30.437  34.448  1.00  0.00    -0.203 F 
ATOM     92  C   UNL A   1      46.933  28.575  35.493  1.00  0.00     0.198 A 
ATOM     93  C   UNL A   1      45.570  26.989  36.670  1.00  0.00     0.198 A 
ATOM     94  F   UNL A   1      43.236  27.257  36.729  1.00  0.00    -0.203 F 
ATOM     95  F   UNL A   1      48.137  28.971  35.054  1.00  0.00    -0.200 F 
ATOM     96  C   UNL A   1      46.818  27.416  36.246  1.00  0.00     0.200 A 
ATOM     97  F   UNL A   1      45.457  25.882  37.416  1.00  0.00    -0.200 F 
ATOM     98  F   UNL A   1      47.912  26.707  36.559  1.00  0.00    -0.200 F 
ENDBRANCH  65  88
ENDBRANCH  39  40
ENDBRANCH  31  34
ENDBRANCH  29  30
ENDBRANCH  28  29
ENDBRANCH  27  28
ENDBRANCH  26  27
ENDBRANCH   1  26
TORSDOF 17
ENDMDL
MODEL 3
REMARK VINA RESULT:     -12.1      2.516      3.523
REMARK SMILES C#Cc1cccc(NS(=O)(=O)c2cc(C)c(C(=O)NCCCCCCNC(=O)c3ccc(-c4c5nc(c(-c6c(F)c(F)c(F)c(F)c6F)c6ccc([nH]6)c(-c6c(F)c(F)c(F)c(F)c6F)c6nc(c(-c7c(F)c(F)c(F)c(F)c7F)c7ccc4[nH]7)C=C6)C=C5)cc3)s2)c1
REMARK SMILES IDX 21 1 20 2 19 3 17 4 18 5 16 7 12 8 13 9 92 10 14 11 15 12
REMARK SMILES IDX 9 13 10 14 11 15 8 16 7 18 3 19 4 20 93 21 5 22 6 23 2 24
REMARK SMILES IDX 1 25 22 26 23 27 24 28 25 29 26 30 27 31 28 33 29 34 30 35
REMARK SMILES IDX 91 36 31 37 90 38 32 39 33 40 34 41 84 42 35 43 89 44 83 45
REMARK SMILES IDX 85 46 36 47 88 48 82 49 81 50 37 52 69 53 49 54 68 55 50 56
REMARK SMILES IDX 53 57 67 58 86 59 51 60 52 61 66 63 87 64 54 65 38 66 39 67
REMARK SMILES IDX 47 68 40 69 41 70 45 71 48 72 42 73 43 74 46 75 44 76 70 77
REMARK SMILES IDX 71 78 79 79 72 80 73 81 77 82 80 83 74 84 75 85 78 86 76 87
REMARK SMILES IDX 55 88 56 89 64 90 57 91 58 92 62 93 65 94 59 95 60 96 63 97
REMARK SMILES IDX 61 98
REMARK H PARENT 19 6 8 17 26 32 85 51 53 62
REMARK Flexibility Score: inf
ROOT
ATOM      1  C   UNL A   1      31.356  28.675  22.858  1.00  0.00     0.021 C 
ENDROOT
BRANCH   1   2
ATOM      2  C   UNL A   1      30.764  27.346  22.375  1.00  0.00     0.116 C 
BRANCH   2   3
ATOM      3  N   UNL A   1      31.670  26.697  21.475  1.00  0.00    -0.351 N 
ATOM      4  C   UNL A   1      32.706  25.823  21.642  1.00  0.00     0.261 C 
ATOM      5  O   UNL A   1      33.245  25.529  20.567  1.00  0.00    -0.268 OA
ATOM      6  H   UNL A   1      31.511  26.932  20.532  1.00  0.00     0.163 HD
BRANCH   4   7
ATOM      7  C   UNL A   1      33.117  25.241  22.927  1.00  0.00     0.096 A 
ATOM      8  C   UNL A   1      33.844  23.405  24.474  1.00  0.00     0.141 A 
ATOM      9  C   UNL A   1      33.482  24.558  25.130  1.00  0.00     0.038 A 
ATOM     10  S   UNL A   1      33.337  23.499  22.857  1.00  0.00    -0.116 S 
ATOM     11  C   UNL A   1      33.493  25.667  24.206  1.00  0.00    -0.026 A 
ATOM     12  C   UNL A   1      33.985  26.984  24.711  1.00  0.00     0.046 C 
BRANCH   8  13
ATOM     13  S   UNL A   1      34.676  21.928  24.996  1.00  0.00     0.271 S 
ATOM     14  O   UNL A   1      34.034  20.831  24.303  1.00  0.00    -0.200 OA
ATOM     15  O   UNL A   1      34.679  22.006  26.442  1.00  0.00    -0.200 OA
BRANCH  13  16
ATOM     16  N   UNL A   1      36.312  21.878  24.548  1.00  0.00    -0.279 N 
ATOM     17  H   UNL A   1      36.524  21.489  23.669  1.00  0.00     0.180 HD
BRANCH  16  18
ATOM     18  C   UNL A   1      37.407  22.352  25.335  1.00  0.00     0.050 A 
ATOM     19  C   UNL A   1      39.534  21.867  26.412  1.00  0.00     0.026 A 
ATOM     20  C   UNL A   1      39.585  23.166  26.909  1.00  0.00     0.017 A 
ATOM     21  C   UNL A   1      38.437  21.451  25.647  1.00  0.00     0.044 A 
ATOM     22  C   UNL A   1      38.634  24.090  26.499  1.00  0.00     0.003 A 
ATOM     23  C   UNL A   1      37.589  23.695  25.658  1.00  0.00     0.027 A 
BRANCH  19  24
ATOM     24  C   UNL A   1      40.690  21.044  26.602  1.00  0.00    -0.070 C 
ATOM     25  C   UNL A   1      41.622  20.292  26.584  1.00  0.00     0.010 C 
ENDBRANCH  19  24
ENDBRANCH  16  18
ENDBRANCH  13  16
ENDBRANCH   8  13
ENDBRANCH   4   7
ENDBRANCH   2   3
ENDBRANCH   1   2
BRANCH   1  26
ATOM     26  C   UNL A   1      30.448  29.346  23.889  1.00  0.00     0.002 C 
BRANCH  26  27
ATOM     27  C   UNL A   1      31.233  30.058  24.996  1.00  0.00     0.002 C 
BRANCH  27  28
ATOM     28  C   UNL A   1      31.654  29.151  26.153  1.00  0.00     0.021 C 
BRANCH  28  29
ATOM     29  C   UNL A   1      32.733  29.752  27.044  1.00  0.00     0.116 C 
BRANCH  29  30
ATOM     30  N   UNL A   1      32.783  31.202  26.915  1.00  0.00    -0.352 N 
ATOM     31  C   UNL A   1      33.626  32.101  27.513  1.00  0.00     0.251 C 
ATOM     32  H   UNL A   1      32.113  31.592  26.309  1.00  0.00     0.163 HD
ATOM     33  O   UNL A   1      33.350  33.295  27.528  1.00  0.00    -0.269 OA
BRANCH  31  34
ATOM     34  C   UNL A   1      34.870  31.618  28.140  1.00  0.00     0.039 A 
ATOM     35  C   UNL A   1      35.928  32.508  28.326  1.00  0.00     0.014 A 
ATOM     36  C   UNL A   1      34.989  30.282  28.535  1.00  0.00     0.014 A 
ATOM     37  C   UNL A   1      37.090  32.067  28.959  1.00  0.00     0.010 A 
ATOM     38  C   UNL A   1      36.104  29.872  29.252  1.00  0.00     0.010 A 
ATOM     39  C   UNL A   1      37.171  30.757  29.460  1.00  0.00    -0.014 A 
BRANCH  39  40
ATOM     40  C   UNL A   1      38.369  30.293  30.201  1.00  0.00     0.031 A 
ATOM     41  C   UNL A   1      38.591  30.724  31.623  1.00  0.00     0.074 A 
ATOM     42  C   UNL A   1      39.283  29.532  29.571  1.00  0.00     0.049 A 
ATOM     43  N   UNL A   1      39.596  30.460  32.421  1.00  0.00    -0.248 NA
ATOM     44  C   UNL A   1      37.563  31.590  32.221  1.00  0.00     0.031 C 
ATOM     45  C   UNL A   1      39.196  29.087  28.179  1.00  0.00     0.029 A 
ATOM     46  N   UNL A   1      40.465  28.999  30.017  1.00  0.00    -0.354 N 
ATOM     47  C   UNL A   1      39.324  31.134  33.603  1.00  0.00     0.074 A 
ATOM     48  C   UNL A   1      38.098  31.872  33.398  1.00  0.00     0.031 C 
ATOM     49  C   UNL A   1      40.258  28.318  27.897  1.00  0.00     0.029 A 
ATOM     50  C   UNL A   1      41.126  28.259  29.068  1.00  0.00     0.049 A 
ATOM     51  H   UNL A   1      40.807  29.135  30.930  1.00  0.00     0.167 HD
ATOM     52  C   UNL A   1      40.023  31.116  34.764  1.00  0.00     0.037 A 
ATOM     53  C   UNL A   1      42.306  27.614  29.134  1.00  0.00     0.037 A 
ATOM     54  C   UNL A   1      41.241  30.373  34.958  1.00  0.00     0.049 A 
ATOM     55  C   UNL A   1      43.084  27.643  30.421  1.00  0.00     0.074 A 
ATOM     56  C   UNL A   1      41.998  30.245  36.109  1.00  0.00     0.029 A 
ATOM     57  N   UNL A   1      41.889  29.646  33.969  1.00  0.00    -0.354 N 
ATOM     58  N   UNL A   1      42.783  28.222  31.559  1.00  0.00    -0.248 NA
ATOM     59  C   UNL A   1      44.366  26.927  30.434  1.00  0.00     0.031 C 
ATOM     60  C   UNL A   1      43.145  29.507  35.797  1.00  0.00     0.029 A 
ATOM     61  C   UNL A   1      43.061  29.102  34.474  1.00  0.00     0.049 A 
ATOM     62  H   UNL A   1      41.566  29.533  33.047  1.00  0.00     0.167 HD
ATOM     63  C   UNL A   1      43.817  27.910  32.432  1.00  0.00     0.074 A 
ATOM     64  C   UNL A   1      44.746  27.080  31.694  1.00  0.00     0.031 C 
ATOM     65  C   UNL A   1      43.979  28.276  33.728  1.00  0.00     0.037 A 
BRANCH  52  66
ATOM     66  C   UNL A   1      39.496  31.944  35.904  1.00  0.00     0.064 A 
ATOM     67  C   UNL A   1      39.964  33.244  36.160  1.00  0.00     0.173 A 
ATOM     68  C   UNL A   1      38.497  31.435  36.747  1.00  0.00     0.173 A 
ATOM     69  F   UNL A   1      40.924  33.780  35.392  1.00  0.00    -0.203 F 
ATOM     70  C   UNL A   1      39.485  33.980  37.241  1.00  0.00     0.198 A 
ATOM     71  C   UNL A   1      37.990  32.190  37.801  1.00  0.00     0.198 A 
ATOM     72  F   UNL A   1      38.006  30.202  36.548  1.00  0.00    -0.203 F 
ATOM     73  F   UNL A   1      39.999  35.189  37.506  1.00  0.00    -0.200 F 
ATOM     74  C   UNL A   1      38.494  33.456  38.056  1.00  0.00     0.200 A 
ATOM     75  F   UNL A   1      37.019  31.688  38.576  1.00  0.00    -0.200 F 
ATOM     76  F   UNL A   1      38.033  34.167  39.094  1.00  0.00    -0.200 F 
ENDBRANCH  52  66
BRANCH  53  77
ATOM     77  C   UNL A   1      42.808  26.868  27.950  1.00  0.00     0.064 A 
ATOM     78  C   UNL A   1      42.566  25.494  27.808  1.00  0.00     0.173 A 
ATOM     79  C   UNL A   1      43.535  27.509  26.936  1.00  0.00     0.173 A 
ATOM     80  F   UNL A   1      41.890  24.832  28.758  1.00  0.00    -0.203 F 
ATOM     81  C   UNL A   1      43.050  24.787  26.709  1.00  0.00     0.198 A 
ATOM     82  C   UNL A   1      43.989  26.808  25.821  1.00  0.00     0.198 A 
ATOM     83  F   UNL A   1      43.790  28.824  27.019  1.00  0.00    -0.203 F 
ATOM     84  F   UNL A   1      42.847  23.465  26.624  1.00  0.00    -0.200 F 
ATOM     85  C   UNL A   1      43.754  25.446  25.713  1.00  0.00     0.200 A 
ATOM     86  F   UNL A   1      44.652  27.453  24.851  1.00  0.00    -0.200 F 
ATOM     87  F   UNL A   1      44.213  24.767  24.653  1.00  0.00    -0.200 F 
ENDBRANCH  53  77
BRANCH  65  88
ATOM     88  C   UNL A   1      45.187  27.746  34.450  1.00  0.00     0.064 A 
ATOM     89  C   UNL A   1      46.395  28.459  34.503  1.00  0.00     0.173 A 
ATOM     90  C   UNL A   1      45.122  26.520  35.132  1.00  0.00     0.173 A 
ATOM     91  F   UNL A   1      46.518  29.629  33.858  1.00  0.00    -0.203 F 
ATOM     92  C   UNL A   1      47.499  27.949  35.181  1.00  0.00     0.198 A 
ATOM     93  C   UNL A   1      46.214  26.034  35.844  1.00  0.00     0.198 A 
ATOM     94  F   UNL A   1      43.990  25.800  35.123  1.00  0.00    -0.203 F 
ATOM     95  F   UNL A   1      48.661  28.619  35.165  1.00  0.00    -0.200 F 
ATOM     96  C   UNL A   1      47.405  26.743  35.858  1.00  0.00     0.200 A 
ATOM     97  F   UNL A   1      46.113  24.879  36.516  1.00  0.00    -0.200 F 
ATOM     98  F   UNL A   1      48.466  26.260  36.520  1.00  0.00    -0.200 F 
ENDBRANCH  65  88
ENDBRANCH  39  40
ENDBRANCH  31  34
ENDBRANCH  29  30
ENDBRANCH  28  29
ENDBRANCH  27  28
ENDBRANCH  26  27
ENDBRANCH   1  26
TORSDOF 17
ENDMDL
