MODEL 1
REMARK VINA RESULT:      -8.9      0.000      0.000
REMARK SMILES C[C@H](Oc1ccc(/C=C2\SC(=S)N(N)C2=O)cc1)C(=O)NCCCCCCNC(=O)c1ccc(-c2c3nc(c(-c4c(F)c(F)c(F)c(F)c4F)c4ccc([nH]4)c(-c4c(F)c(F)c(F)c(F)c4F)c4nc(c(-c5c(F)c(F)c(F)c(F)c5F)c5ccc2[nH]5)C=C4)C=C3)cc1
REMARK SMILES IDX 23 1 22 2 21 3 19 4 20 5 2 7 1 8 3 9 4 10 5 11 18 12 6 13
REMARK SMILES IDX 17 14 7 15 8 16 9 17 10 18 15 19 11 20 13 21 16 22 12 23
REMARK SMILES IDX 14 24 24 27 25 28 26 29 27 30 28 31 29 32 30 34 31 35 32 36
REMARK SMILES IDX 93 37 33 38 92 39 34 40 35 41 36 42 86 43 37 44 91 45 85 46
REMARK SMILES IDX 87 47 38 48 90 49 84 50 83 51 39 53 71 54 51 55 70 56 52 57
REMARK SMILES IDX 55 58 69 59 88 60 53 61 54 62 68 64 89 65 56 66 40 67 41 68
REMARK SMILES IDX 49 69 42 70 43 71 47 72 50 73 44 74 45 75 48 76 46 77 72 78
REMARK SMILES IDX 73 79 81 80 74 81 75 82 79 83 82 84 76 85 77 86 80 87 78 88
REMARK SMILES IDX 57 89 58 90 66 91 59 92 60 93 64 94 67 95 61 96 62 97 65 98
REMARK SMILES IDX 63 99
REMARK H PARENT 21 6 14 25 14 26 28 33 87 52 55 63
REMARK Flexibility Score: inf
ROOT
ATOM      1  C   UNL A   1      38.230  34.122  31.000  1.00  0.00     0.021 C 
ENDROOT
BRANCH   1   2
ATOM      2  C   UNL A   1      39.369  33.755  31.943  1.00  0.00     0.116 C 
BRANCH   2   3
ATOM      3  N   UNL A   1      39.272  34.494  33.189  1.00  0.00    -0.353 N 
ATOM      4  C   UNL A   1      38.412  34.303  34.237  1.00  0.00     0.260 C 
ATOM      5  O   UNL A   1      38.450  35.099  35.177  1.00  0.00    -0.271 OA
ATOM      6  H   UNL A   1      39.911  35.235  33.294  1.00  0.00     0.163 HD
BRANCH   4   7
ATOM      7  C   UNL A   1      37.510  33.058  34.268  1.00  0.00     0.258 C 
ATOM      8  C   UNL A   1      36.071  33.581  34.408  1.00  0.00     0.064 C 
BRANCH   7   9
ATOM      9  O   UNL A   1      38.065  32.179  35.258  1.00  0.00    -0.481 OA
BRANCH   9  10
ATOM     10  C   UNL A   1      39.016  31.252  34.972  1.00  0.00     0.120 A 
ATOM     11  C   UNL A   1      40.126  30.957  35.744  1.00  0.00     0.047 A 
ATOM     12  C   UNL A   1      38.842  30.568  33.764  1.00  0.00     0.047 A 
ATOM     13  C   UNL A   1      41.138  30.137  35.239  1.00  0.00     0.012 A 
ATOM     14  C   UNL A   1      39.848  29.732  33.260  1.00  0.00     0.012 A 
ATOM     15  C   UNL A   1      41.049  29.576  33.960  1.00  0.00    -0.024 A 
BRANCH  15  16
ATOM     16  C   UNL A   1      42.153  28.792  33.375  1.00  0.00     0.029 C 
ATOM     17  C   UNL A   1      42.561  27.561  33.731  1.00  0.00     0.082 C 
ATOM     18  S   UNL A   1      41.951  26.557  34.999  1.00  0.00    -0.053 SA
ATOM     19  C   UNL A   1      43.685  26.868  33.035  1.00  0.00     0.280 C 
ATOM     20  C   UNL A   1      43.077  25.252  34.670  1.00  0.00     0.162 C 
ATOM     21  N   UNL A   1      43.903  25.627  33.625  1.00  0.00    -0.226 N 
ATOM     22  O   UNL A   1      44.283  27.322  32.065  1.00  0.00    -0.267 OA
ATOM     23  S   UNL A   1      43.073  23.806  35.502  1.00  0.00    -0.050 S 
BRANCH  21  24
ATOM     24  N   UNL A   1      44.962  24.798  33.159  1.00  0.00    -0.239 NA
ATOM     25  H   UNL A   1      44.597  24.126  32.485  1.00  0.00     0.144 HD
ATOM     26  H   UNL A   1      45.375  24.300  33.947  1.00  0.00     0.144 HD
ENDBRANCH  21  24
ENDBRANCH  15  16
ENDBRANCH   9  10
ENDBRANCH   7   9
ENDBRANCH   4   7
ENDBRANCH   2   3
ENDBRANCH   1   2
BRANCH   1  27
ATOM     27  C   UNL A   1      37.741  32.946  30.150  1.00  0.00     0.002 C 
BRANCH  27  28
ATOM     28  C   UNL A   1      37.181  33.337  28.778  1.00  0.00     0.002 C 
BRANCH  28  29
ATOM     29  C   UNL A   1      35.669  33.161  28.628  1.00  0.00     0.021 C 
BRANCH  29  30
ATOM     30  C   UNL A   1      35.066  32.103  29.546  1.00  0.00     0.116 C 
BRANCH  30  31
ATOM     31  N   UNL A   1      34.499  30.991  28.800  1.00  0.00    -0.352 N 
ATOM     32  C   UNL A   1      35.134  29.940  28.192  1.00  0.00     0.251 C 
ATOM     33  H   UNL A   1      33.517  30.995  28.720  1.00  0.00     0.163 HD
ATOM     34  O   UNL A   1      34.518  29.193  27.440  1.00  0.00    -0.269 OA
BRANCH  32  35
ATOM     35  C   UNL A   1      36.576  29.721  28.432  1.00  0.00     0.039 A 
ATOM     36  C   UNL A   1      36.987  29.251  29.681  1.00  0.00     0.014 A 
ATOM     37  C   UNL A   1      37.515  29.975  27.428  1.00  0.00     0.014 A 
ATOM     38  C   UNL A   1      38.337  28.980  29.904  1.00  0.00     0.010 A 
ATOM     39  C   UNL A   1      38.848  29.632  27.627  1.00  0.00     0.010 A 
ATOM     40  C   UNL A   1      39.274  29.135  28.868  1.00  0.00    -0.014 A 
BRANCH  40  41
ATOM     41  C   UNL A   1      40.701  28.777  29.065  1.00  0.00     0.031 A 
ATOM     42  C   UNL A   1      41.643  29.751  29.716  1.00  0.00     0.074 A 
ATOM     43  C   UNL A   1      41.160  27.599  28.603  1.00  0.00     0.049 A 
ATOM     44  N   UNL A   1      42.931  29.646  29.923  1.00  0.00    -0.248 NA
ATOM     45  C   UNL A   1      41.064  31.025  30.171  1.00  0.00     0.031 C 
ATOM     46  C   UNL A   1      40.355  26.590  27.913  1.00  0.00     0.029 A 
ATOM     47  N   UNL A   1      42.420  27.053  28.635  1.00  0.00    -0.354 N 
ATOM     48  C   UNL A   1      43.317  30.839  30.519  1.00  0.00     0.074 A 
ATOM     49  C   UNL A   1      42.140  31.677  30.588  1.00  0.00     0.031 C 
ATOM     50  C   UNL A   1      41.133  25.538  27.610  1.00  0.00     0.029 A 
ATOM     51  C   UNL A   1      42.499  25.815  28.044  1.00  0.00     0.049 A 
ATOM     52  H   UNL A   1      43.193  27.504  29.043  1.00  0.00     0.167 HD
ATOM     53  C   UNL A   1      44.536  31.192  30.990  1.00  0.00     0.037 A 
ATOM     54  C   UNL A   1      43.556  25.001  27.862  1.00  0.00     0.037 A 
ATOM     55  C   UNL A   1      45.700  30.347  30.934  1.00  0.00     0.049 A 
ATOM     56  C   UNL A   1      44.905  25.427  28.376  1.00  0.00     0.074 A 
ATOM     57  C   UNL A   1      46.968  30.590  31.432  1.00  0.00     0.029 A 
ATOM     58  N   UNL A   1      45.740  29.096  30.334  1.00  0.00    -0.354 N 
ATOM     59  N   UNL A   1      45.243  26.526  29.005  1.00  0.00    -0.248 NA
ATOM     60  C   UNL A   1      46.018  24.493  28.161  1.00  0.00     0.031 C 
ATOM     61  C   UNL A   1      47.790  29.512  31.084  1.00  0.00     0.029 A 
ATOM     62  C   UNL A   1      47.019  28.568  30.425  1.00  0.00     0.049 A 
ATOM     63  H   UNL A   1      44.973  28.649  29.906  1.00  0.00     0.167 HD
ATOM     64  C   UNL A   1      46.596  26.404  29.289  1.00  0.00     0.074 A 
ATOM     65  C   UNL A   1      47.014  25.116  28.777  1.00  0.00     0.031 C 
ATOM     66  C   UNL A   1      47.419  27.280  29.917  1.00  0.00     0.037 A 
BRANCH  53  67
ATOM     67  C   UNL A   1      44.676  32.555  31.606  1.00  0.00     0.064 A 
ATOM     68  C   UNL A   1      44.420  32.780  32.968  1.00  0.00     0.173 A 
ATOM     69  C   UNL A   1      45.106  33.646  30.833  1.00  0.00     0.173 A 
ATOM     70  F   UNL A   1      43.998  31.776  33.751  1.00  0.00    -0.203 F 
ATOM     71  C   UNL A   1      44.556  34.050  33.524  1.00  0.00     0.198 A 
ATOM     72  C   UNL A   1      45.274  34.906  31.401  1.00  0.00     0.198 A 
ATOM     73  F   UNL A   1      45.370  33.487  29.528  1.00  0.00    -0.203 F 
ATOM     74  F   UNL A   1      44.253  34.250  34.814  1.00  0.00    -0.200 F 
ATOM     75  C   UNL A   1      44.991  35.110  32.742  1.00  0.00     0.200 A 
ATOM     76  F   UNL A   1      45.709  35.926  30.647  1.00  0.00    -0.200 F 
ATOM     77  F   UNL A   1      45.129  36.329  33.281  1.00  0.00    -0.200 F 
ENDBRANCH  53  67
BRANCH  54  78
ATOM     78  C   UNL A   1      43.377  23.691  27.181  1.00  0.00     0.064 A 
ATOM     79  C   UNL A   1      42.795  22.605  27.847  1.00  0.00     0.173 A 
ATOM     80  C   UNL A   1      43.789  23.497  25.854  1.00  0.00     0.173 A 
ATOM     81  F   UNL A   1      42.401  22.735  29.123  1.00  0.00    -0.203 F 
ATOM     82  C   UNL A   1      42.654  21.367  27.223  1.00  0.00     0.198 A 
ATOM     83  C   UNL A   1      43.619  22.268  25.220  1.00  0.00     0.198 A 
ATOM     84  F   UNL A   1      44.346  24.506  25.168  1.00  0.00    -0.203 F 
ATOM     85  F   UNL A   1      42.140  20.332  27.901  1.00  0.00    -0.200 F 
ATOM     86  C   UNL A   1      43.061  21.202  25.907  1.00  0.00     0.200 A 
ATOM     87  F   UNL A   1      43.997  22.117  23.943  1.00  0.00    -0.200 F 
ATOM     88  F   UNL A   1      42.921  20.012  25.306  1.00  0.00    -0.200 F 
ENDBRANCH  54  78
BRANCH  66  89
ATOM     89  C   UNL A   1      48.846  26.859  30.124  1.00  0.00     0.064 A 
ATOM     90  C   UNL A   1      49.866  27.234  29.236  1.00  0.00     0.173 A 
ATOM     91  C   UNL A   1      49.205  26.102  31.251  1.00  0.00     0.173 A 
ATOM     92  F   UNL A   1      49.574  27.945  28.136  1.00  0.00    -0.203 F 
ATOM     93  C   UNL A   1      51.184  26.843  29.452  1.00  0.00     0.198 A 
ATOM     94  C   UNL A   1      50.529  25.742  31.483  1.00  0.00     0.198 A 
ATOM     95  F   UNL A   1      48.270  25.722  32.136  1.00  0.00    -0.203 F 
ATOM     96  F   UNL A   1      52.132  27.168  28.564  1.00  0.00    -0.200 F 
ATOM     97  C   UNL A   1      51.516  26.106  30.580  1.00  0.00     0.200 A 
ATOM     98  F   UNL A   1      50.849  25.044  32.581  1.00  0.00    -0.200 F 
ATOM     99  F   UNL A   1      52.787  25.738  30.791  1.00  0.00    -0.200 F 
ENDBRANCH  66  89
ENDBRANCH  40  41
ENDBRANCH  32  35
ENDBRANCH  30  31
ENDBRANCH  29  30
ENDBRANCH  28  29
ENDBRANCH  27  28
ENDBRANCH   1  27
TORSDOF 17
ENDMDL
MODEL 2
REMARK VINA RESULT:      -8.8      5.316     11.304
REMARK SMILES C[C@H](Oc1ccc(/C=C2\SC(=S)N(N)C2=O)cc1)C(=O)NCCCCCCNC(=O)c1ccc(-c2c3nc(c(-c4c(F)c(F)c(F)c(F)c4F)c4ccc([nH]4)c(-c4c(F)c(F)c(F)c(F)c4F)c4nc(c(-c5c(F)c(F)c(F)c(F)c5F)c5ccc2[nH]5)C=C4)C=C3)cc1
REMARK SMILES IDX 23 1 22 2 21 3 19 4 20 5 2 7 1 8 3 9 4 10 5 11 18 12 6 13
REMARK SMILES IDX 17 14 7 15 8 16 9 17 10 18 15 19 11 20 13 21 16 22 12 23
REMARK SMILES IDX 14 24 24 27 25 28 26 29 27 30 28 31 29 32 30 34 31 35 32 36
REMARK SMILES IDX 93 37 33 38 92 39 34 40 35 41 36 42 86 43 37 44 91 45 85 46
REMARK SMILES IDX 87 47 38 48 90 49 84 50 83 51 39 53 71 54 51 55 70 56 52 57
REMARK SMILES IDX 55 58 69 59 88 60 53 61 54 62 68 64 89 65 56 66 40 67 41 68
REMARK SMILES IDX 49 69 42 70 43 71 47 72 50 73 44 74 45 75 48 76 46 77 72 78
REMARK SMILES IDX 73 79 81 80 74 81 75 82 79 83 82 84 76 85 77 86 80 87 78 88
REMARK SMILES IDX 57 89 58 90 66 91 59 92 60 93 64 94 67 95 61 96 62 97 65 98
REMARK SMILES IDX 63 99
REMARK H PARENT 21 6 14 25 14 26 28 33 87 52 55 63
REMARK Flexibility Score: inf
ROOT
ATOM      1  C   UNL A   1      37.060  21.444  24.565  1.00  0.00     0.021 C 
ENDROOT
BRANCH   1   2
ATOM      2  C   UNL A   1      35.939  20.511  25.005  1.00  0.00     0.116 C 
BRANCH   2   3
ATOM      3  N   UNL A   1      35.177  21.092  26.095  1.00  0.00    -0.353 N 
ATOM      4  C   UNL A   1      33.824  21.284  26.193  1.00  0.00     0.260 C 
ATOM      5  O   UNL A   1      33.387  21.870  27.186  1.00  0.00    -0.271 OA
ATOM      6  H   UNL A   1      35.705  21.391  26.870  1.00  0.00     0.163 HD
BRANCH   4   7
ATOM      7  C   UNL A   1      32.889  20.677  25.135  1.00  0.00     0.258 C 
ATOM      8  C   UNL A   1      32.906  19.158  25.376  1.00  0.00     0.064 C 
BRANCH   7   9
ATOM      9  O   UNL A   1      33.299  21.218  23.871  1.00  0.00    -0.481 OA
BRANCH   9  10
ATOM     10  C   UNL A   1      32.796  22.374  23.364  1.00  0.00     0.120 A 
ATOM     11  C   UNL A   1      33.503  23.331  22.658  1.00  0.00     0.047 A 
ATOM     12  C   UNL A   1      31.439  22.599  23.622  1.00  0.00     0.047 A 
ATOM     13  C   UNL A   1      32.922  24.570  22.376  1.00  0.00     0.012 A 
ATOM     14  C   UNL A   1      30.848  23.836  23.326  1.00  0.00     0.012 A 
ATOM     15  C   UNL A   1      31.614  24.868  22.773  1.00  0.00    -0.024 A 
BRANCH  15  16
ATOM     16  C   UNL A   1      31.024  26.204  22.572  1.00  0.00     0.029 C 
ATOM     17  C   UNL A   1      31.115  27.271  23.388  1.00  0.00     0.082 C 
ATOM     18  S   UNL A   1      31.902  27.378  24.924  1.00  0.00    -0.053 SA
ATOM     19  C   UNL A   1      30.484  28.580  23.050  1.00  0.00     0.280 C 
ATOM     20  C   UNL A   1      31.472  29.063  25.160  1.00  0.00     0.162 C 
ATOM     21  N   UNL A   1      30.718  29.487  24.080  1.00  0.00    -0.226 N 
ATOM     22  O   UNL A   1      29.894  28.814  22.001  1.00  0.00    -0.267 OA
ATOM     23  S   UNL A   1      31.956  29.955  26.483  1.00  0.00    -0.050 S 
BRANCH  21  24
ATOM     24  N   UNL A   1      30.170  30.799  24.004  1.00  0.00    -0.239 NA
ATOM     25  H   UNL A   1      30.750  31.376  23.395  1.00  0.00     0.144 HD
ATOM     26  H   UNL A   1      30.144  31.210  24.937  1.00  0.00     0.144 HD
ENDBRANCH  21  24
ENDBRANCH  15  16
ENDBRANCH   9  10
ENDBRANCH   7   9
ENDBRANCH   4   7
ENDBRANCH   2   3
ENDBRANCH   1   2
BRANCH   1  27
ATOM     27  C   UNL A   1      37.682  22.235  25.719  1.00  0.00     0.002 C 
BRANCH  27  28
ATOM     28  C   UNL A   1      39.104  21.806  26.096  1.00  0.00     0.002 C 
BRANCH  28  29
ATOM     29  C   UNL A   1      39.545  20.462  25.513  1.00  0.00     0.021 C 
BRANCH  29  30
ATOM     30  C   UNL A   1      40.099  19.483  26.542  1.00  0.00     0.116 C 
BRANCH  30  31
ATOM     31  N   UNL A   1      41.365  18.904  26.119  1.00  0.00    -0.352 N 
ATOM     32  C   UNL A   1      42.552  19.527  25.835  1.00  0.00     0.251 C 
ATOM     33  H   UNL A   1      41.369  17.924  26.023  1.00  0.00     0.163 HD
ATOM     34  O   UNL A   1      43.467  18.908  25.305  1.00  0.00    -0.269 OA
BRANCH  32  35
ATOM     35  C   UNL A   1      42.718  20.961  26.152  1.00  0.00     0.039 A 
ATOM     36  C   UNL A   1      42.823  21.348  27.489  1.00  0.00     0.014 A 
ATOM     37  C   UNL A   1      42.773  21.917  25.134  1.00  0.00     0.014 A 
ATOM     38  C   UNL A   1      43.042  22.689  27.803  1.00  0.00     0.010 A 
ATOM     39  C   UNL A   1      43.069  23.240  25.444  1.00  0.00     0.010 A 
ATOM     40  C   UNL A   1      43.202  23.641  26.782  1.00  0.00    -0.014 A 
BRANCH  40  41
ATOM     41  C   UNL A   1      43.513  25.058  27.097  1.00  0.00     0.031 A 
ATOM     42  C   UNL A   1      44.896  25.599  26.860  1.00  0.00     0.074 A 
ATOM     43  C   UNL A   1      42.567  25.839  27.650  1.00  0.00     0.049 A 
ATOM     44  N   UNL A   1      45.376  26.788  27.125  1.00  0.00    -0.248 NA
ATOM     45  C   UNL A   1      45.876  24.673  26.274  1.00  0.00     0.031 C 
ATOM     46  C   UNL A   1      41.203  25.416  27.970  1.00  0.00     0.029 A 
ATOM     47  N   UNL A   1      42.609  27.152  28.052  1.00  0.00    -0.354 N 
ATOM     48  C   UNL A   1      46.712  26.748  26.748  1.00  0.00     0.074 A 
ATOM     49  C   UNL A   1      46.983  25.402  26.293  1.00  0.00     0.031 C 
ATOM     50  C   UNL A   1      40.531  26.455  28.494  1.00  0.00     0.029 A 
ATOM     51  C   UNL A   1      41.428  27.602  28.588  1.00  0.00     0.049 A 
ATOM     52  H   UNL A   1      43.411  27.717  27.963  1.00  0.00     0.167 HD
ATOM     53  C   UNL A   1      47.623  27.750  26.758  1.00  0.00     0.037 A 
ATOM     54  C   UNL A   1      41.107  28.803  29.106  1.00  0.00     0.037 A 
ATOM     55  C   UNL A   1      47.343  29.092  27.197  1.00  0.00     0.049 A 
ATOM     56  C   UNL A   1      42.144  29.894  29.124  1.00  0.00     0.074 A 
ATOM     57  C   UNL A   1      48.181  30.193  27.194  1.00  0.00     0.029 A 
ATOM     58  N   UNL A   1      46.131  29.514  27.727  1.00  0.00    -0.354 N 
ATOM     59  N   UNL A   1      43.383  29.866  28.697  1.00  0.00    -0.248 NA
ATOM     60  C   UNL A   1      41.734  31.185  29.691  1.00  0.00     0.031 C 
ATOM     61  C   UNL A   1      47.496  31.266  27.775  1.00  0.00     0.029 A 
ATOM     62  C   UNL A   1      46.210  30.852  28.081  1.00  0.00     0.049 A 
ATOM     63  H   UNL A   1      45.334  28.946  27.836  1.00  0.00     0.167 HD
ATOM     64  C   UNL A   1      43.891  31.140  28.913  1.00  0.00     0.074 A 
ATOM     65  C   UNL A   1      42.820  31.921  29.495  1.00  0.00     0.031 C 
ATOM     66  C   UNL A   1      45.132  31.620  28.653  1.00  0.00     0.037 A 
BRANCH  53  67
ATOM     67  C   UNL A   1      49.012  27.432  26.282  1.00  0.00     0.064 A 
ATOM     68  C   UNL A   1      50.035  27.076  27.174  1.00  0.00     0.173 A 
ATOM     69  C   UNL A   1      49.317  27.451  24.912  1.00  0.00     0.173 A 
ATOM     70  F   UNL A   1      49.802  27.051  28.496  1.00  0.00    -0.203 F 
ATOM     71  C   UNL A   1      51.318  26.783  26.717  1.00  0.00     0.198 A 
ATOM     72  C   UNL A   1      50.591  27.124  24.455  1.00  0.00     0.198 A 
ATOM     73  F   UNL A   1      48.377  27.779  24.014  1.00  0.00    -0.203 F 
ATOM     74  F   UNL A   1      52.291  26.499  27.593  1.00  0.00    -0.200 F 
ATOM     75  C   UNL A   1      51.593  26.799  25.358  1.00  0.00     0.200 A 
ATOM     76  F   UNL A   1      50.851  27.125  23.141  1.00  0.00    -0.200 F 
ATOM     77  F   UNL A   1      52.825  26.509  24.919  1.00  0.00    -0.200 F 
ENDBRANCH  53  67
BRANCH  54  78
ATOM     78  C   UNL A   1      39.737  29.044  29.632  1.00  0.00     0.064 A 
ATOM     79  C   UNL A   1      39.437  28.837  30.985  1.00  0.00     0.173 A 
ATOM     80  C   UNL A   1      38.700  29.481  28.794  1.00  0.00     0.173 A 
ATOM     81  F   UNL A   1      40.390  28.402  31.823  1.00  0.00    -0.203 F 
ATOM     82  C   UNL A   1      38.147  29.031  31.476  1.00  0.00     0.198 A 
ATOM     83  C   UNL A   1      37.418  29.706  29.292  1.00  0.00     0.198 A 
ATOM     84  F   UNL A   1      38.935  29.701  27.493  1.00  0.00    -0.203 F 
ATOM     85  F   UNL A   1      37.878  28.776  32.763  1.00  0.00    -0.200 F 
ATOM     86  C   UNL A   1      37.141  29.471  30.630  1.00  0.00     0.200 A 
ATOM     87  F   UNL A   1      36.453  30.148  28.475  1.00  0.00    -0.200 F 
ATOM     88  F   UNL A   1      35.902  29.663  31.103  1.00  0.00    -0.200 F 
ENDBRANCH  54  78
BRANCH  66  89
ATOM     89  C   UNL A   1      45.390  33.069  28.955  1.00  0.00     0.064 A 
ATOM     90  C   UNL A   1      45.964  33.482  30.166  1.00  0.00     0.173 A 
ATOM     91  C   UNL A   1      45.094  34.055  28.000  1.00  0.00     0.173 A 
ATOM     92  F   UNL A   1      46.253  32.581  31.118  1.00  0.00    -0.203 F 
ATOM     93  C   UNL A   1      46.205  34.829  30.422  1.00  0.00     0.198 A 
ATOM     94  C   UNL A   1      45.368  35.397  28.245  1.00  0.00     0.198 A 
ATOM     95  F   UNL A   1      44.550  33.713  26.821  1.00  0.00    -0.203 F 
ATOM     96  F   UNL A   1      46.705  35.205  31.607  1.00  0.00    -0.200 F 
ATOM     97  C   UNL A   1      45.915  35.783  29.458  1.00  0.00     0.200 A 
ATOM     98  F   UNL A   1      45.103  36.315  27.306  1.00  0.00    -0.200 F 
ATOM     99  F   UNL A   1      46.157  37.079  29.703  1.00  0.00    -0.200 F 
ENDBRANCH  66  89
ENDBRANCH  40  41
ENDBRANCH  32  35
ENDBRANCH  30  31
ENDBRANCH  29  30
ENDBRANCH  28  29
ENDBRANCH  27  28
ENDBRANCH   1  27
TORSDOF 17
ENDMDL
MODEL 3
REMARK VINA RESULT:      -8.7      4.077     10.667
REMARK SMILES C[C@H](Oc1ccc(/C=C2\SC(=S)N(N)C2=O)cc1)C(=O)NCCCCCCNC(=O)c1ccc(-c2c3nc(c(-c4c(F)c(F)c(F)c(F)c4F)c4ccc([nH]4)c(-c4c(F)c(F)c(F)c(F)c4F)c4nc(c(-c5c(F)c(F)c(F)c(F)c5F)c5ccc2[nH]5)C=C4)C=C3)cc1
REMARK SMILES IDX 23 1 22 2 21 3 19 4 20 5 2 7 1 8 3 9 4 10 5 11 18 12 6 13
REMARK SMILES IDX 17 14 7 15 8 16 9 17 10 18 15 19 11 20 13 21 16 22 12 23
REMARK SMILES IDX 14 24 24 27 25 28 26 29 27 30 28 31 29 32 30 34 31 35 32 36
REMARK SMILES IDX 93 37 33 38 92 39 34 40 35 41 36 42 86 43 37 44 91 45 85 46
REMARK SMILES IDX 87 47 38 48 90 49 84 50 83 51 39 53 71 54 51 55 70 56 52 57
REMARK SMILES IDX 55 58 69 59 88 60 53 61 54 62 68 64 89 65 56 66 40 67 41 68
REMARK SMILES IDX 49 69 42 70 43 71 47 72 50 73 44 74 45 75 48 76 46 77 72 78
REMARK SMILES IDX 73 79 81 80 74 81 75 82 79 83 82 84 76 85 77 86 80 87 78 88
REMARK SMILES IDX 57 89 58 90 66 91 59 92 60 93 64 94 67 95 61 96 62 97 65 98
REMARK SMILES IDX 63 99
REMARK H PARENT 21 6 14 25 14 26 28 33 87 52 55 63
REMARK Flexibility Score: inf
ROOT
ATOM      1  C   UNL A   1      43.962  18.762  25.784  1.00  0.00     0.021 C 
ENDROOT
BRANCH   1   2
ATOM      2  C   UNL A   1      44.211  19.986  24.910  1.00  0.00     0.116 C 
BRANCH   2   3
ATOM      3  N   UNL A   1      45.343  20.751  25.399  1.00  0.00    -0.353 N 
ATOM      4  C   UNL A   1      45.396  22.069  25.768  1.00  0.00     0.260 C 
ATOM      5  O   UNL A   1      46.488  22.544  26.087  1.00  0.00    -0.271 OA
ATOM      6  H   UNL A   1      46.191  20.256  25.473  1.00  0.00     0.163 HD
BRANCH   4   7
ATOM      7  C   UNL A   1      44.096  22.882  25.883  1.00  0.00     0.258 C 
ATOM      8  C   UNL A   1      43.876  23.524  24.502  1.00  0.00     0.064 C 
BRANCH   7   9
ATOM      9  O   UNL A   1      44.231  23.702  27.054  1.00  0.00    -0.481 OA
BRANCH   9  10
ATOM     10  C   UNL A   1      44.457  25.041  26.996  1.00  0.00     0.120 A 
ATOM     11  C   UNL A   1      43.725  25.960  26.264  1.00  0.00     0.047 A 
ATOM     12  C   UNL A   1      45.554  25.496  27.734  1.00  0.00     0.047 A 
ATOM     13  C   UNL A   1      44.185  27.271  26.119  1.00  0.00     0.012 A 
ATOM     14  C   UNL A   1      46.009  26.815  27.604  1.00  0.00     0.012 A 
ATOM     15  C   UNL A   1      45.373  27.696  26.723  1.00  0.00    -0.024 A 
BRANCH  15  16
ATOM     16  C   UNL A   1      45.922  29.046  26.497  1.00  0.00     0.029 C 
ATOM     17  C   UNL A   1      45.474  30.208  27.005  1.00  0.00     0.082 C 
ATOM     18  S   UNL A   1      44.103  30.471  28.026  1.00  0.00    -0.053 SA
ATOM     19  C   UNL A   1      46.142  31.510  26.712  1.00  0.00     0.280 C 
ATOM     20  C   UNL A   1      44.353  32.205  28.117  1.00  0.00     0.162 C 
ATOM     21  N   UNL A   1      45.453  32.539  27.346  1.00  0.00    -0.226 N 
ATOM     22  O   UNL A   1      47.166  31.628  26.048  1.00  0.00    -0.267 OA
ATOM     23  S   UNL A   1      43.398  33.222  29.031  1.00  0.00    -0.050 S 
BRANCH  21  24
ATOM     24  N   UNL A   1      45.878  33.886  27.173  1.00  0.00    -0.239 NA
ATOM     25  H   UNL A   1      45.066  34.503  27.180  1.00  0.00     0.144 HD
ATOM     26  H   UNL A   1      46.365  33.976  26.281  1.00  0.00     0.144 HD
ENDBRANCH  21  24
ENDBRANCH  15  16
ENDBRANCH   9  10
ENDBRANCH   7   9
ENDBRANCH   4   7
ENDBRANCH   2   3
ENDBRANCH   1   2
BRANCH   1  27
ATOM     27  C   UNL A   1      42.500  18.608  26.212  1.00  0.00     0.002 C 
BRANCH  27  28
ATOM     28  C   UNL A   1      41.682  19.904  26.173  1.00  0.00     0.002 C 
BRANCH  28  29
ATOM     29  C   UNL A   1      41.367  20.505  27.545  1.00  0.00     0.021 C 
BRANCH  29  30
ATOM     30  C   UNL A   1      40.892  21.953  27.501  1.00  0.00     0.116 C 
BRANCH  30  31
ATOM     31  N   UNL A   1      39.808  22.145  26.552  1.00  0.00    -0.352 N 
ATOM     32  C   UNL A   1      38.980  23.225  26.385  1.00  0.00     0.251 C 
ATOM     33  H   UNL A   1      39.644  21.390  25.941  1.00  0.00     0.163 HD
ATOM     34  O   UNL A   1      37.991  23.144  25.666  1.00  0.00    -0.269 OA
BRANCH  32  35
ATOM     35  C   UNL A   1      39.275  24.486  27.096  1.00  0.00     0.039 A 
ATOM     36  C   UNL A   1      38.818  24.645  28.406  1.00  0.00     0.014 A 
ATOM     37  C   UNL A   1      40.003  25.505  26.474  1.00  0.00     0.014 A 
ATOM     38  C   UNL A   1      39.140  25.803  29.113  1.00  0.00     0.010 A 
ATOM     39  C   UNL A   1      40.388  26.624  27.204  1.00  0.00     0.010 A 
ATOM     40  C   UNL A   1      39.958  26.787  28.530  1.00  0.00    -0.014 A 
BRANCH  40  41
ATOM     41  C   UNL A   1      40.375  27.989  29.295  1.00  0.00     0.031 A 
ATOM     42  C   UNL A   1      41.745  28.055  29.912  1.00  0.00     0.074 A 
ATOM     43  C   UNL A   1      39.500  28.994  29.483  1.00  0.00     0.049 A 
ATOM     44  N   UNL A   1      42.271  28.990  30.663  1.00  0.00    -0.248 NA
ATOM     45  C   UNL A   1      42.631  26.904  29.678  1.00  0.00     0.031 C 
ATOM     46  C   UNL A   1      38.128  29.026  28.973  1.00  0.00     0.029 A 
ATOM     47  N   UNL A   1      39.629  30.180  30.162  1.00  0.00    -0.354 N 
ATOM     48  C   UNL A   1      43.540  28.536  30.997  1.00  0.00     0.074 A 
ATOM     49  C   UNL A   1      43.684  27.218  30.419  1.00  0.00     0.031 C 
ATOM     50  C   UNL A   1      37.551  30.184  29.335  1.00  0.00     0.029 A 
ATOM     51  C   UNL A   1      38.495  30.955  30.138  1.00  0.00     0.049 A 
ATOM     52  H   UNL A   1      40.456  30.451  30.622  1.00  0.00     0.167 HD
ATOM     53  C   UNL A   1      44.506  29.173  31.701  1.00  0.00     0.037 A 
ATOM     54  C   UNL A   1      38.242  32.148  30.708  1.00  0.00     0.037 A 
ATOM     55  C   UNL A   1      44.362  30.491  32.260  1.00  0.00     0.049 A 
ATOM     56  C   UNL A   1      39.326  32.825  31.503  1.00  0.00     0.074 A 
ATOM     57  C   UNL A   1      45.301  31.246  32.942  1.00  0.00     0.029 A 
ATOM     58  N   UNL A   1      43.201  31.250  32.208  1.00  0.00    -0.354 N 
ATOM     59  N   UNL A   1      40.548  32.420  31.750  1.00  0.00    -0.248 NA
ATOM     60  C   UNL A   1      38.997  34.130  32.091  1.00  0.00     0.031 C 
ATOM     61  C   UNL A   1      44.690  32.436  33.353  1.00  0.00     0.029 A 
ATOM     62  C   UNL A   1      43.391  32.452  32.872  1.00  0.00     0.049 A 
ATOM     63  H   UNL A   1      42.365  30.974  31.766  1.00  0.00     0.167 HD
ATOM     64  C   UNL A   1      41.143  33.430  32.494  1.00  0.00     0.074 A 
ATOM     65  C   UNL A   1      40.152  34.475  32.644  1.00  0.00     0.031 C 
ATOM     66  C   UNL A   1      42.397  33.488  33.007  1.00  0.00     0.037 A 
BRANCH  53  67
ATOM     67  C   UNL A   1      45.806  28.449  31.910  1.00  0.00     0.064 A 
ATOM     68  C   UNL A   1      46.860  28.544  30.989  1.00  0.00     0.173 A 
ATOM     69  C   UNL A   1      46.013  27.677  33.063  1.00  0.00     0.173 A 
ATOM     70  F   UNL A   1      46.713  29.261  29.863  1.00  0.00    -0.203 F 
ATOM     71  C   UNL A   1      48.060  27.868  31.198  1.00  0.00     0.198 A 
ATOM     72  C   UNL A   1      47.227  27.031  33.286  1.00  0.00     0.198 A 
ATOM     73  F   UNL A   1      45.042  27.555  33.980  1.00  0.00    -0.203 F 
ATOM     74  F   UNL A   1      49.032  27.931  30.277  1.00  0.00    -0.200 F 
ATOM     75  C   UNL A   1      48.246  27.119  32.350  1.00  0.00     0.200 A 
ATOM     76  F   UNL A   1      47.410  26.319  34.407  1.00  0.00    -0.200 F 
ATOM     77  F   UNL A   1      49.403  26.476  32.553  1.00  0.00    -0.200 F 
ENDBRANCH  53  67
BRANCH  54  78
ATOM     78  C   UNL A   1      36.912  32.790  30.530  1.00  0.00     0.064 A 
ATOM     79  C   UNL A   1      36.604  33.502  29.363  1.00  0.00     0.173 A 
ATOM     80  C   UNL A   1      35.925  32.710  31.524  1.00  0.00     0.173 A 
ATOM     81  F   UNL A   1      37.522  33.622  28.391  1.00  0.00    -0.203 F 
ATOM     82  C   UNL A   1      35.371  34.131  29.206  1.00  0.00     0.198 A 
ATOM     83  C   UNL A   1      34.680  33.313  31.352  1.00  0.00     0.198 A 
ATOM     84  F   UNL A   1      36.165  32.036  32.657  1.00  0.00    -0.203 F 
ATOM     85  F   UNL A   1      35.124  34.847  28.100  1.00  0.00    -0.200 F 
ATOM     86  C   UNL A   1      34.408  34.031  30.198  1.00  0.00     0.200 A 
ATOM     87  F   UNL A   1      33.746  33.199  32.306  1.00  0.00    -0.200 F 
ATOM     88  F   UNL A   1      33.220  34.632  30.045  1.00  0.00    -0.200 F 
ENDBRANCH  54  78
BRANCH  66  89
ATOM     89  C   UNL A   1      42.785  34.738  33.743  1.00  0.00     0.064 A 
ATOM     90  C   UNL A   1      42.698  34.833  35.139  1.00  0.00     0.173 A 
ATOM     91  C   UNL A   1      43.290  35.845  33.041  1.00  0.00     0.173 A 
ATOM     92  F   UNL A   1      42.210  33.809  35.856  1.00  0.00    -0.203 F 
ATOM     93  C   UNL A   1      43.075  35.997  35.803  1.00  0.00     0.198 A 
ATOM     94  C   UNL A   1      43.697  36.995  33.710  1.00  0.00     0.198 A 
ATOM     95  F   UNL A   1      43.400  35.805  31.704  1.00  0.00    -0.203 F 
ATOM     96  F   UNL A   1      42.934  36.084  37.132  1.00  0.00    -0.200 F 
ATOM     97  C   UNL A   1      43.582  37.073  35.090  1.00  0.00     0.200 A 
ATOM     98  F   UNL A   1      44.203  38.026  33.020  1.00  0.00    -0.200 F 
ATOM     99  F   UNL A   1      43.952  38.190  35.731  1.00  0.00    -0.200 F 
ENDBRANCH  66  89
ENDBRANCH  40  41
ENDBRANCH  32  35
ENDBRANCH  30  31
ENDBRANCH  29  30
ENDBRANCH  28  29
ENDBRANCH  27  28
ENDBRANCH   1  27
TORSDOF 17
ENDMDL
