MODEL 1
REMARK VINA RESULT:     -12.6      0.000      0.000
REMARK SMILES C[C@@H]1CC[C@H](C)[N@H+]1Cc1cc2c(cc1Cl)C=C(C(=O)NCCCCCCNC(=O)c1ccc(-c3c4nc(c(-c5c(F)c(F)c(F)c(F)c5F)c5ccc([nH]5)c(-c5c(F)c(F)c(F)c(F)c5F)c5nc(c(-c6c(F)c(F)c(F)c(F)c6F)c6ccc3[nH]6)C=C5)C=C4)cc1)[C@@H](C(F)(F)F)O2
REMARK SMILES IDX 23 1 22 2 21 3 20 4 18 5 19 6 17 8 9 9 10 10 14 11 11 12
REMARK SMILES IDX 13 13 15 14 12 15 98 16 16 17 93 18 8 19 7 20 6 21 5 22 4 23
REMARK SMILES IDX 3 24 2 25 1 27 94 28 95 29 96 30 97 31 24 32 25 33 26 34
REMARK SMILES IDX 27 35 28 36 29 38 30 39 31 40 92 41 32 42 91 43 33 44 34 45
REMARK SMILES IDX 35 46 85 47 36 48 90 49 84 50 86 51 37 52 89 53 83 54 82 55
REMARK SMILES IDX 38 57 70 58 50 59 69 60 51 61 54 62 68 63 87 64 52 65 53 66
REMARK SMILES IDX 67 68 88 69 55 70 39 71 40 72 48 73 41 74 42 75 46 76 49 77
REMARK SMILES IDX 43 78 44 79 47 80 45 81 71 82 72 83 80 84 73 85 74 86 78 87
REMARK SMILES IDX 81 88 75 89 76 90 79 91 77 92 56 93 57 94 65 95 58 96 59 97
REMARK SMILES IDX 63 98 66 99 60 100 61 101 64 102 62 103
REMARK H PARENT 20 7 7 26 27 37 86 56 54 67
REMARK Flexibility Score: inf
ROOT
ATOM      1  C   UNL A   1      37.029  21.829  24.096  1.00  0.00     0.002 C 
ENDROOT
BRANCH   1   2
ATOM      2  C   UNL A   1      36.099  23.004  24.418  1.00  0.00     0.021 C 
BRANCH   2   3
ATOM      3  C   UNL A   1      35.084  22.709  25.520  1.00  0.00     0.116 C 
BRANCH   3   4
ATOM      4  N   UNL A   1      33.998  21.882  25.030  1.00  0.00    -0.352 N 
ATOM      5  C   UNL A   1      32.763  22.068  24.514  1.00  0.00     0.251 C 
ATOM      6  O   UNL A   1      32.166  21.031  24.206  1.00  0.00    -0.270 OA
ATOM      7  H   UNL A   1      34.221  20.925  25.090  1.00  0.00     0.163 HD
BRANCH   5   8
ATOM      8  C   UNL A   1      32.101  23.387  24.303  1.00  0.00     0.067 C 
ATOM      9  C   UNL A   1      31.013  28.062  22.712  1.00  0.00     0.029 A 
ATOM     10  C   UNL A   1      30.254  26.970  23.177  1.00  0.00     0.058 A 
ATOM     11  C   UNL A   1      32.413  27.938  22.729  1.00  0.00     0.050 A 
ATOM     12  C   UNL A   1      30.868  25.776  23.538  1.00  0.00     0.128 A 
ATOM     13  C   UNL A   1      33.021  26.712  23.029  1.00  0.00     0.033 A 
ATOM     14  Cl  UNL A   1      33.476  29.274  22.460  1.00  0.00    -0.084 Cl
ATOM     15  C   UNL A   1      32.245  25.619  23.408  1.00  0.00     0.019 A 
ATOM     16  O   UNL A   1      30.059  24.766  23.974  1.00  0.00    -0.475 OA
ATOM     17  C   UNL A   1      32.832  24.307  23.647  1.00  0.00     0.025 C 
ATOM     18  C   UNL A   1      30.724  23.753  24.784  1.00  0.00     0.314 C 
BRANCH   9  19
ATOM     19  C   UNL A   1      30.268  29.276  22.188  1.00  0.00     0.301 C 
BRANCH  19  20
ATOM     20  N   UNL A   1      29.388  29.972  23.142  1.00  0.00    -0.327 N 
ATOM     21  C   UNL A   1      27.193  28.853  23.411  1.00  0.00     0.075 C 
ATOM     22  C   UNL A   1      27.955  30.029  22.814  1.00  0.00     0.181 C 
ATOM     23  C   UNL A   1      27.468  31.362  23.377  1.00  0.00     0.071 C 
ATOM     24  C   UNL A   1      28.690  32.245  23.238  1.00  0.00     0.071 C 
ATOM     25  C   UNL A   1      29.841  31.304  23.563  1.00  0.00     0.181 C 
ATOM     26  H   UNL A   1      29.478  29.334  23.932  1.00  0.00     0.348 HD
ATOM     27  C   UNL A   1      30.154  31.266  25.059  1.00  0.00     0.075 C 
ENDBRANCH  19  20
ENDBRANCH   9  19
BRANCH  18  28
ATOM     28  C   UNL A   1      30.723  24.173  26.268  1.00  0.00     0.429 C 
ATOM     29  F   UNL A   1      31.947  23.982  26.819  1.00  0.00    -0.167 F 
ATOM     30  F   UNL A   1      30.433  25.487  26.429  1.00  0.00    -0.167 F 
ATOM     31  F   UNL A   1      29.830  23.482  27.011  1.00  0.00    -0.167 F 
ENDBRANCH  18  28
ENDBRANCH   5   8
ENDBRANCH   3   4
ENDBRANCH   2   3
ENDBRANCH   1   2
BRANCH   1  32
ATOM     32  C   UNL A   1      37.478  20.991  25.300  1.00  0.00     0.002 C 
BRANCH  32  33
ATOM     33  C   UNL A   1      38.678  20.075  25.055  1.00  0.00     0.021 C 
BRANCH  33  34
ATOM     34  C   UNL A   1      39.693  20.033  26.191  1.00  0.00     0.116 C 
BRANCH  34  35
ATOM     35  N   UNL A   1      40.682  18.982  26.018  1.00  0.00    -0.352 N 
ATOM     36  C   UNL A   1      42.054  19.079  26.012  1.00  0.00     0.251 C 
ATOM     37  H   UNL A   1      40.320  18.076  25.887  1.00  0.00     0.163 HD
ATOM     38  O   UNL A   1      42.752  18.122  25.710  1.00  0.00    -0.269 OA
BRANCH  36  39
ATOM     39  C   UNL A   1      42.676  20.379  26.334  1.00  0.00     0.039 A 
ATOM     40  C   UNL A   1      42.624  20.884  27.636  1.00  0.00     0.014 A 
ATOM     41  C   UNL A   1      43.252  21.126  25.304  1.00  0.00     0.014 A 
ATOM     42  C   UNL A   1      43.003  22.202  27.876  1.00  0.00     0.010 A 
ATOM     43  C   UNL A   1      43.692  22.425  25.562  1.00  0.00     0.010 A 
ATOM     44  C   UNL A   1      43.521  22.990  26.836  1.00  0.00    -0.014 A 
BRANCH  44  45
ATOM     45  C   UNL A   1      43.832  24.422  27.072  1.00  0.00     0.031 A 
ATOM     46  C   UNL A   1      45.216  24.948  26.803  1.00  0.00     0.074 A 
ATOM     47  C   UNL A   1      42.864  25.256  27.493  1.00  0.00     0.049 A 
ATOM     48  N   UNL A   1      45.710  26.138  27.033  1.00  0.00    -0.248 NA
ATOM     49  C   UNL A   1      46.174  24.010  26.195  1.00  0.00     0.031 C 
ATOM     50  C   UNL A   1      41.474  24.877  27.745  1.00  0.00     0.029 A 
ATOM     51  N   UNL A   1      42.901  26.597  27.774  1.00  0.00    -0.354 N 
ATOM     52  C   UNL A   1      47.036  26.085  26.625  1.00  0.00     0.074 A 
ATOM     53  C   UNL A   1      47.278  24.741  26.147  1.00  0.00     0.031 C 
ATOM     54  C   UNL A   1      40.783  25.965  28.115  1.00  0.00     0.029 A 
ATOM     55  C   UNL A   1      41.695  27.103  28.192  1.00  0.00     0.049 A 
ATOM     56  H   UNL A   1      43.714  27.145  27.687  1.00  0.00     0.167 HD
ATOM     57  C   UNL A   1      47.964  27.073  26.641  1.00  0.00     0.037 A 
ATOM     58  C   UNL A   1      41.367  28.337  28.615  1.00  0.00     0.037 A 
ATOM     59  C   UNL A   1      47.712  28.416  27.095  1.00  0.00     0.049 A 
ATOM     60  C   UNL A   1      42.430  29.397  28.680  1.00  0.00     0.074 A 
ATOM     61  C   UNL A   1      48.586  29.487  27.153  1.00  0.00     0.029 A 
ATOM     62  N   UNL A   1      46.489  28.874  27.562  1.00  0.00    -0.354 N 
ATOM     63  N   UNL A   1      43.691  29.325  28.332  1.00  0.00    -0.248 NA
ATOM     64  C   UNL A   1      42.025  30.706  29.208  1.00  0.00     0.031 C 
ATOM     65  C   UNL A   1      47.902  30.584  27.686  1.00  0.00     0.029 A 
ATOM     66  C   UNL A   1      46.589  30.209  27.922  1.00  0.00     0.049 A 
ATOM     67  H   UNL A   1      45.670  28.331  27.629  1.00  0.00     0.167 HD
ATOM     68  C   UNL A   1      44.230  30.576  28.596  1.00  0.00     0.074 A 
ATOM     69  C   UNL A   1      43.151  31.397  29.106  1.00  0.00     0.031 C 
ATOM     70  C   UNL A   1      45.507  31.006  28.438  1.00  0.00     0.037 A 
BRANCH  57  71
ATOM     71  C   UNL A   1      49.347  26.738  26.166  1.00  0.00     0.064 A 
ATOM     72  C   UNL A   1      49.748  26.976  24.843  1.00  0.00     0.173 A 
ATOM     73  C   UNL A   1      50.300  26.225  27.059  1.00  0.00     0.173 A 
ATOM     74  F   UNL A   1      48.870  27.451  23.946  1.00  0.00    -0.203 F 
ATOM     75  C   UNL A   1      51.049  26.700  24.428  1.00  0.00     0.198 A 
ATOM     76  C   UNL A   1      51.606  25.972  26.647  1.00  0.00     0.198 A 
ATOM     77  F   UNL A   1      49.968  25.981  28.336  1.00  0.00    -0.203 F 
ATOM     78  F   UNL A   1      51.401  26.903  23.151  1.00  0.00    -0.200 F 
ATOM     79  C   UNL A   1      51.978  26.206  25.331  1.00  0.00     0.200 A 
ATOM     80  F   UNL A   1      52.505  25.505  27.524  1.00  0.00    -0.200 F 
ATOM     81  F   UNL A   1      53.232  25.950  24.933  1.00  0.00    -0.200 F 
ENDBRANCH  57  71
BRANCH  58  82
ATOM     82  C   UNL A   1      39.971  28.625  29.029  1.00  0.00     0.064 A 
ATOM     83  C   UNL A   1      39.040  29.130  28.112  1.00  0.00     0.173 A 
ATOM     84  C   UNL A   1      39.536  28.385  30.340  1.00  0.00     0.173 A 
ATOM     85  F   UNL A   1      39.418  29.397  26.853  1.00  0.00    -0.203 F 
ATOM     86  C   UNL A   1      37.726  29.389  28.493  1.00  0.00     0.198 A 
ATOM     87  C   UNL A   1      38.214  28.619  30.713  1.00  0.00     0.198 A 
ATOM     88  F   UNL A   1      40.390  27.901  31.255  1.00  0.00    -0.203 F 
ATOM     89  F   UNL A   1      36.863  29.902  27.606  1.00  0.00    -0.200 F 
ATOM     90  C   UNL A   1      37.311  29.126  29.790  1.00  0.00     0.200 A 
ATOM     91  F   UNL A   1      37.815  28.351  31.964  1.00  0.00    -0.200 F 
ATOM     92  F   UNL A   1      36.044  29.364  30.152  1.00  0.00    -0.200 F 
ENDBRANCH  58  82
BRANCH  70  93
ATOM     93  C   UNL A   1      45.800  32.426  28.817  1.00  0.00     0.064 A 
ATOM     94  C   UNL A   1      45.617  33.477  27.906  1.00  0.00     0.173 A 
ATOM     95  C   UNL A   1      46.242  32.743  30.110  1.00  0.00     0.173 A 
ATOM     96  F   UNL A   1      45.210  33.222  26.654  1.00  0.00    -0.203 F 
ATOM     97  C   UNL A   1      45.889  34.793  28.270  1.00  0.00     0.198 A 
ATOM     98  C   UNL A   1      46.489  34.063  30.478  1.00  0.00     0.198 A 
ATOM     99  F   UNL A   1      46.428  31.774  31.018  1.00  0.00    -0.203 F 
ATOM    100  F   UNL A   1      45.752  35.776  27.370  1.00  0.00    -0.200 F 
ATOM    101  C   UNL A   1      46.320  35.085  29.555  1.00  0.00     0.200 A 
ATOM    102  F   UNL A   1      46.895  34.345  31.723  1.00  0.00    -0.200 F 
ATOM    103  F   UNL A   1      46.580  36.353  29.904  1.00  0.00    -0.200 F 
ENDBRANCH  70  93
ENDBRANCH  44  45
ENDBRANCH  36  39
ENDBRANCH  34  35
ENDBRANCH  33  34
ENDBRANCH  32  33
ENDBRANCH   1  32
TORSDOF 16
ENDMDL
MODEL 2
REMARK VINA RESULT:     -12.4      6.403     12.365
REMARK SMILES C[C@@H]1CC[C@H](C)[N@H+]1Cc1cc2c(cc1Cl)C=C(C(=O)NCCCCCCNC(=O)c1ccc(-c3c4nc(c(-c5c(F)c(F)c(F)c(F)c5F)c5ccc([nH]5)c(-c5c(F)c(F)c(F)c(F)c5F)c5nc(c(-c6c(F)c(F)c(F)c(F)c6F)c6ccc3[nH]6)C=C5)C=C4)cc1)[C@@H](C(F)(F)F)O2
REMARK SMILES IDX 23 1 22 2 21 3 20 4 18 5 19 6 17 8 9 9 10 10 14 11 11 12
REMARK SMILES IDX 13 13 15 14 12 15 98 16 16 17 93 18 8 19 7 20 6 21 5 22 4 23
REMARK SMILES IDX 3 24 2 25 1 27 94 28 95 29 96 30 97 31 24 32 25 33 26 34
REMARK SMILES IDX 27 35 28 36 29 38 30 39 31 40 92 41 32 42 91 43 33 44 34 45
REMARK SMILES IDX 35 46 85 47 36 48 90 49 84 50 86 51 37 52 89 53 83 54 82 55
REMARK SMILES IDX 38 57 70 58 50 59 69 60 51 61 54 62 68 63 87 64 52 65 53 66
REMARK SMILES IDX 67 68 88 69 55 70 39 71 40 72 48 73 41 74 42 75 46 76 49 77
REMARK SMILES IDX 43 78 44 79 47 80 45 81 71 82 72 83 80 84 73 85 74 86 78 87
REMARK SMILES IDX 81 88 75 89 76 90 79 91 77 92 56 93 57 94 65 95 58 96 59 97
REMARK SMILES IDX 63 98 66 99 60 100 61 101 64 102 62 103
REMARK H PARENT 20 7 7 26 27 37 86 56 54 67
REMARK Flexibility Score: inf
ROOT
ATOM      1  C   UNL A   1      38.591  34.026  29.088  1.00  0.00     0.002 C 
ENDROOT
BRANCH   1   2
ATOM      2  C   UNL A   1      39.111  34.940  30.203  1.00  0.00     0.021 C 
BRANCH   2   3
ATOM      3  C   UNL A   1      38.857  34.408  31.611  1.00  0.00     0.116 C 
BRANCH   3   4
ATOM      4  N   UNL A   1      37.573  34.853  32.119  1.00  0.00    -0.352 N 
ATOM      5  C   UNL A   1      36.881  34.772  33.277  1.00  0.00     0.251 C 
ATOM      6  O   UNL A   1      35.781  35.333  33.267  1.00  0.00    -0.270 OA
ATOM      7  H   UNL A   1      37.068  35.348  31.435  1.00  0.00     0.163 HD
BRANCH   5   8
ATOM      8  C   UNL A   1      37.339  34.075  34.514  1.00  0.00     0.067 C 
ATOM      9  C   UNL A   1      39.253  33.083  39.087  1.00  0.00     0.029 A 
ATOM     10  C   UNL A   1      38.297  32.467  38.257  1.00  0.00     0.058 A 
ATOM     11  C   UNL A   1      39.939  34.198  38.577  1.00  0.00     0.050 A 
ATOM     12  C   UNL A   1      37.970  33.010  37.019  1.00  0.00     0.128 A 
ATOM     13  C   UNL A   1      39.558  34.779  37.360  1.00  0.00     0.033 A 
ATOM     14  Cl  UNL A   1      41.324  34.884  39.353  1.00  0.00    -0.084 Cl
ATOM     15  C   UNL A   1      38.552  34.200  36.592  1.00  0.00     0.019 A 
ATOM     16  O   UNL A   1      37.030  32.352  36.279  1.00  0.00    -0.475 OA
ATOM     17  C   UNL A   1      38.072  34.819  35.363  1.00  0.00     0.025 C 
ATOM     18  C   UNL A   1      37.066  32.635  34.850  1.00  0.00     0.314 C 
BRANCH   9  19
ATOM     19  C   UNL A   1      39.447  32.527  40.487  1.00  0.00     0.301 C 
BRANCH  19  20
ATOM     20  N   UNL A   1      38.275  32.565  41.379  1.00  0.00    -0.327 N 
ATOM     21  C   UNL A   1      37.857  30.395  42.502  1.00  0.00     0.075 C 
ATOM     22  C   UNL A   1      37.420  31.367  41.415  1.00  0.00     0.181 C 
ATOM     23  C   UNL A   1      36.007  31.893  41.661  1.00  0.00     0.071 C 
ATOM     24  C   UNL A   1      36.030  33.239  40.969  1.00  0.00     0.071 C 
ATOM     25  C   UNL A   1      37.431  33.760  41.261  1.00  0.00     0.181 C 
ATOM     26  H   UNL A   1      38.763  32.598  42.274  1.00  0.00     0.348 HD
ATOM     27  C   UNL A   1      37.497  34.538  42.575  1.00  0.00     0.075 C 
ENDBRANCH  19  20
ENDBRANCH   9  19
BRANCH  18  28
ATOM     28  C   UNL A   1      38.051  31.681  34.144  1.00  0.00     0.429 C 
ATOM     29  F   UNL A   1      39.292  32.225  34.097  1.00  0.00    -0.167 F 
ATOM     30  F   UNL A   1      38.177  30.500  34.796  1.00  0.00    -0.167 F 
ATOM     31  F   UNL A   1      37.686  31.390  32.875  1.00  0.00    -0.167 F 
ENDBRANCH  18  28
ENDBRANCH   5   8
ENDBRANCH   3   4
ENDBRANCH   2   3
ENDBRANCH   1   2
BRANCH   1  32
ATOM     32  C   UNL A   1      37.516  33.015  29.508  1.00  0.00     0.002 C 
BRANCH  32  33
ATOM     33  C   UNL A   1      36.072  33.429  29.218  1.00  0.00     0.021 C 
BRANCH  33  34
ATOM     34  C   UNL A   1      35.012  32.508  29.808  1.00  0.00     0.116 C 
BRANCH  34  35
ATOM     35  N   UNL A   1      34.229  31.832  28.787  1.00  0.00    -0.352 N 
ATOM     36  C   UNL A   1      34.575  30.755  28.004  1.00  0.00     0.251 C 
ATOM     37  H   UNL A   1      33.326  32.194  28.636  1.00  0.00     0.163 HD
ATOM     38  O   UNL A   1      33.857  30.388  27.085  1.00  0.00    -0.269 OA
BRANCH  36  39
ATOM     39  C   UNL A   1      35.858  30.071  28.263  1.00  0.00     0.039 A 
ATOM     40  C   UNL A   1      36.071  29.400  29.470  1.00  0.00     0.014 A 
ATOM     41  C   UNL A   1      36.877  30.167  27.313  1.00  0.00     0.014 A 
ATOM     42  C   UNL A   1      37.352  28.965  29.796  1.00  0.00     0.010 A 
ATOM     43  C   UNL A   1      38.146  29.670  27.615  1.00  0.00     0.010 A 
ATOM     44  C   UNL A   1      38.405  29.115  28.879  1.00  0.00    -0.014 A 
BRANCH  44  45
ATOM     45  C   UNL A   1      39.788  28.740  29.266  1.00  0.00     0.031 A 
ATOM     46  C   UNL A   1      40.579  29.626  30.189  1.00  0.00     0.074 A 
ATOM     47  C   UNL A   1      40.320  27.588  28.817  1.00  0.00     0.049 A 
ATOM     48  N   UNL A   1      41.828  29.523  30.570  1.00  0.00    -0.248 NA
ATOM     49  C   UNL A   1      39.873  30.783  30.762  1.00  0.00     0.031 C 
ATOM     50  C   UNL A   1      39.638  26.624  27.955  1.00  0.00     0.029 A 
ATOM     51  N   UNL A   1      41.554  27.031  29.033  1.00  0.00    -0.354 N 
ATOM     52  C   UNL A   1      42.063  30.611  31.401  1.00  0.00     0.074 A 
ATOM     53  C   UNL A   1      40.835  31.373  31.458  1.00  0.00     0.031 C 
ATOM     54  C   UNL A   1      40.451  25.579  27.737  1.00  0.00     0.029 A 
ATOM     55  C   UNL A   1      41.733  25.832  28.389  1.00  0.00     0.049 A 
ATOM     56  H   UNL A   1      42.246  27.450  29.593  1.00  0.00     0.167 HD
ATOM     57  C   UNL A   1      43.200  30.938  32.061  1.00  0.00     0.037 A 
ATOM     58  C   UNL A   1      42.817  25.039  28.310  1.00  0.00     0.037 A 
ATOM     59  C   UNL A   1      44.413  30.164  32.019  1.00  0.00     0.049 A 
ATOM     60  C   UNL A   1      44.083  25.456  29.003  1.00  0.00     0.074 A 
ATOM     61  C   UNL A   1      45.620  30.413  32.651  1.00  0.00     0.029 A 
ATOM     62  N   UNL A   1      44.571  28.982  31.311  1.00  0.00    -0.354 N 
ATOM     63  N   UNL A   1      44.309  26.508  29.750  1.00  0.00    -0.248 NA
ATOM     64  C   UNL A   1      45.250  24.580  28.829  1.00  0.00     0.031 C 
ATOM     65  C   UNL A   1      46.517  29.399  32.298  1.00  0.00     0.029 A 
ATOM     66  C   UNL A   1      45.858  28.496  31.480  1.00  0.00     0.049 A 
ATOM     67  H   UNL A   1      43.872  28.552  30.767  1.00  0.00     0.167 HD
ATOM     68  C   UNL A   1      45.638  26.421  30.138  1.00  0.00     0.074 A 
ATOM     69  C   UNL A   1      46.161  25.197  29.567  1.00  0.00     0.031 C 
ATOM     70  C   UNL A   1      46.364  27.282  30.894  1.00  0.00     0.037 A 
BRANCH  57  71
ATOM     71  C   UNL A   1      43.196  32.197  32.877  1.00  0.00     0.064 A 
ATOM     72  C   UNL A   1      42.796  32.201  34.221  1.00  0.00     0.173 A 
ATOM     73  C   UNL A   1      43.650  33.403  32.324  1.00  0.00     0.173 A 
ATOM     74  F   UNL A   1      42.338  31.075  34.793  1.00  0.00    -0.203 F 
ATOM     75  C   UNL A   1      42.838  33.369  34.978  1.00  0.00     0.198 A 
ATOM     76  C   UNL A   1      43.713  34.565  33.090  1.00  0.00     0.198 A 
ATOM     77  F   UNL A   1      44.046  33.454  31.043  1.00  0.00    -0.203 F 
ATOM     78  F   UNL A   1      42.418  33.357  36.251  1.00  0.00    -0.200 F 
ATOM     79  C   UNL A   1      43.304  34.548  34.415  1.00  0.00     0.200 A 
ATOM     80  F   UNL A   1      44.173  35.701  32.546  1.00  0.00    -0.200 F 
ATOM     81  F   UNL A   1      43.353  35.669  35.147  1.00  0.00    -0.200 F 
ENDBRANCH  57  71
BRANCH  58  82
ATOM     82  C   UNL A   1      42.751  23.780  27.526  1.00  0.00     0.064 A 
ATOM     83  C   UNL A   1      43.122  23.755  26.176  1.00  0.00     0.173 A 
ATOM     84  C   UNL A   1      42.333  22.578  28.114  1.00  0.00     0.173 A 
ATOM     85  F   UNL A   1      43.506  24.886  25.566  1.00  0.00    -0.203 F 
ATOM     86  C   UNL A   1      43.073  22.573  25.441  1.00  0.00     0.198 A 
ATOM     87  C   UNL A   1      42.310  21.391  27.385  1.00  0.00     0.198 A 
ATOM     88  F   UNL A   1      41.967  22.551  29.405  1.00  0.00    -0.203 F 
ATOM     89  F   UNL A   1      43.404  22.581  24.142  1.00  0.00    -0.200 F 
ATOM     90  C   UNL A   1      42.676  21.391  26.047  1.00  0.00     0.200 A 
ATOM     91  F   UNL A   1      41.938  20.249  27.979  1.00  0.00    -0.200 F 
ATOM     92  F   UNL A   1      42.642  20.252  25.342  1.00  0.00    -0.200 F 
ENDBRANCH  58  82
BRANCH  70  93
ATOM     93  C   UNL A   1      47.798  26.925  31.147  1.00  0.00     0.064 A 
ATOM     94  C   UNL A   1      48.831  27.444  30.352  1.00  0.00     0.173 A 
ATOM     95  C   UNL A   1      48.146  26.079  32.209  1.00  0.00     0.173 A 
ATOM     96  F   UNL A   1      48.546  28.245  29.314  1.00  0.00    -0.203 F 
ATOM     97  C   UNL A   1      50.159  27.108  30.597  1.00  0.00     0.198 A 
ATOM     98  C   UNL A   1      49.477  25.765  32.468  1.00  0.00     0.198 A 
ATOM     99  F   UNL A   1      47.195  25.561  33.001  1.00  0.00    -0.203 F 
ATOM    100  F   UNL A   1      51.125  27.578  29.797  1.00  0.00    -0.200 F 
ATOM    101  C   UNL A   1      50.481  26.274  31.658  1.00  0.00     0.200 A 
ATOM    102  F   UNL A   1      49.788  24.968  33.499  1.00  0.00    -0.200 F 
ATOM    103  F   UNL A   1      51.761  25.953  31.894  1.00  0.00    -0.200 F 
ENDBRANCH  70  93
ENDBRANCH  44  45
ENDBRANCH  36  39
ENDBRANCH  34  35
ENDBRANCH  33  34
ENDBRANCH  32  33
ENDBRANCH   1  32
TORSDOF 16
ENDMDL
MODEL 3
REMARK VINA RESULT:     -12.4      6.272      9.740
REMARK SMILES C[C@@H]1CC[C@H](C)[N@H+]1Cc1cc2c(cc1Cl)C=C(C(=O)NCCCCCCNC(=O)c1ccc(-c3c4nc(c(-c5c(F)c(F)c(F)c(F)c5F)c5ccc([nH]5)c(-c5c(F)c(F)c(F)c(F)c5F)c5nc(c(-c6c(F)c(F)c(F)c(F)c6F)c6ccc3[nH]6)C=C5)C=C4)cc1)[C@@H](C(F)(F)F)O2
REMARK SMILES IDX 23 1 22 2 21 3 20 4 18 5 19 6 17 8 9 9 10 10 14 11 11 12
REMARK SMILES IDX 13 13 15 14 12 15 98 16 16 17 93 18 8 19 7 20 6 21 5 22 4 23
REMARK SMILES IDX 3 24 2 25 1 27 94 28 95 29 96 30 97 31 24 32 25 33 26 34
REMARK SMILES IDX 27 35 28 36 29 38 30 39 31 40 92 41 32 42 91 43 33 44 34 45
REMARK SMILES IDX 35 46 85 47 36 48 90 49 84 50 86 51 37 52 89 53 83 54 82 55
REMARK SMILES IDX 38 57 70 58 50 59 69 60 51 61 54 62 68 63 87 64 52 65 53 66
REMARK SMILES IDX 67 68 88 69 55 70 39 71 40 72 48 73 41 74 42 75 46 76 49 77
REMARK SMILES IDX 43 78 44 79 47 80 45 81 71 82 72 83 80 84 73 85 74 86 78 87
REMARK SMILES IDX 81 88 75 89 76 90 79 91 77 92 56 93 57 94 65 95 58 96 59 97
REMARK SMILES IDX 63 98 66 99 60 100 61 101 64 102 62 103
REMARK H PARENT 20 7 7 26 27 37 86 56 54 67
REMARK Flexibility Score: inf
ROOT
ATOM      1  C   UNL A   1      44.437  24.890  27.793  1.00  0.00     0.002 C 
ENDROOT
BRANCH   1   2
ATOM      2  C   UNL A   1      43.798  23.681  28.485  1.00  0.00     0.021 C 
BRANCH   2   3
ATOM      3  C   UNL A   1      42.385  23.935  29.001  1.00  0.00     0.116 C 
BRANCH   3   4
ATOM      4  N   UNL A   1      41.468  24.214  27.912  1.00  0.00    -0.352 N 
ATOM      5  C   UNL A   1      40.711  25.251  27.492  1.00  0.00     0.251 C 
ATOM      6  O   UNL A   1      40.067  25.042  26.459  1.00  0.00    -0.270 OA
ATOM      7  H   UNL A   1      41.369  23.436  27.318  1.00  0.00     0.163 HD
BRANCH   5   8
ATOM      8  C   UNL A   1      40.605  26.577  28.168  1.00  0.00     0.067 C 
ATOM      9  C   UNL A   1      39.186  30.372  31.193  1.00  0.00     0.029 A 
ATOM     10  C   UNL A   1      40.381  30.022  30.534  1.00  0.00     0.058 A 
ATOM     11  C   UNL A   1      38.051  29.578  30.952  1.00  0.00     0.050 A 
ATOM     12  C   UNL A   1      40.457  28.869  29.759  1.00  0.00     0.128 A 
ATOM     13  C   UNL A   1      38.152  28.384  30.227  1.00  0.00     0.033 A 
ATOM     14  Cl  UNL A   1      36.463  30.037  31.457  1.00  0.00    -0.084 Cl
ATOM     15  C   UNL A   1      39.365  28.013  29.652  1.00  0.00     0.019 A 
ATOM     16  O   UNL A   1      41.654  28.601  29.158  1.00  0.00    -0.475 OA
ATOM     17  C   UNL A   1      39.530  26.741  28.961  1.00  0.00     0.025 C 
ATOM     18  C   UNL A   1      41.576  27.713  28.005  1.00  0.00     0.314 C 
BRANCH   9  19
ATOM     19  C   UNL A   1      39.217  31.553  32.145  1.00  0.00     0.301 C 
BRANCH  19  20
ATOM     20  N   UNL A   1      38.620  32.809  31.658  1.00  0.00    -0.327 N 
ATOM     21  C   UNL A   1      37.011  33.791  33.268  1.00  0.00     0.075 C 
ATOM     22  C   UNL A   1      37.198  33.035  31.959  1.00  0.00     0.181 C 
ATOM     23  C   UNL A   1      36.659  33.827  30.768  1.00  0.00     0.071 C 
ATOM     24  C   UNL A   1      37.498  33.307  29.620  1.00  0.00     0.071 C 
ATOM     25  C   UNL A   1      38.873  33.121  30.247  1.00  0.00     0.181 C 
ATOM     26  H   UNL A   1      39.145  33.465  32.236  1.00  0.00     0.348 HD
ATOM     27  C   UNL A   1      39.721  34.391  30.169  1.00  0.00     0.075 C 
ENDBRANCH  19  20
ENDBRANCH   9  19
BRANCH  18  28
ATOM     28  C   UNL A   1      41.302  28.528  26.724  1.00  0.00     0.429 C 
ATOM     29  F   UNL A   1      41.973  29.706  26.755  1.00  0.00    -0.167 F 
ATOM     30  F   UNL A   1      41.717  27.882  25.608  1.00  0.00    -0.167 F 
ATOM     31  F   UNL A   1      39.992  28.810  26.548  1.00  0.00    -0.167 F 
ENDBRANCH  18  28
ENDBRANCH   5   8
ENDBRANCH   3   4
ENDBRANCH   2   3
ENDBRANCH   1   2
BRANCH   1  32
ATOM     32  C   UNL A   1      45.963  24.994  27.917  1.00  0.00     0.002 C 
BRANCH  32  33
ATOM     33  C   UNL A   1      46.760  24.390  26.759  1.00  0.00     0.021 C 
BRANCH  33  34
ATOM     34  C   UNL A   1      48.055  25.121  26.425  1.00  0.00     0.116 C 
BRANCH  34  35
ATOM     35  N   UNL A   1      48.087  25.602  25.054  1.00  0.00    -0.352 N 
ATOM     36  C   UNL A   1      47.540  26.750  24.527  1.00  0.00     0.251 C 
ATOM     37  H   UNL A   1      48.566  25.028  24.414  1.00  0.00     0.163 HD
ATOM     38  O   UNL A   1      47.529  26.946  23.321  1.00  0.00    -0.269 OA
BRANCH  36  39
ATOM     39  C   UNL A   1      46.922  27.729  25.445  1.00  0.00     0.039 A 
ATOM     40  C   UNL A   1      47.721  28.550  26.245  1.00  0.00     0.014 A 
ATOM     41  C   UNL A   1      45.531  27.769  25.550  1.00  0.00     0.014 A 
ATOM     42  C   UNL A   1      47.135  29.294  27.264  1.00  0.00     0.010 A 
ATOM     43  C   UNL A   1      44.940  28.567  26.530  1.00  0.00     0.010 A 
ATOM     44  C   UNL A   1      45.740  29.293  27.428  1.00  0.00    -0.014 A 
BRANCH  44  45
ATOM     45  C   UNL A   1      45.125  30.009  28.574  1.00  0.00     0.031 A 
ATOM     46  C   UNL A   1      44.821  31.478  28.471  1.00  0.00     0.074 A 
ATOM     47  C   UNL A   1      44.809  29.332  29.694  1.00  0.00     0.049 A 
ATOM     48  N   UNL A   1      44.374  32.300  29.387  1.00  0.00    -0.248 NA
ATOM     49  C   UNL A   1      45.049  32.111  27.161  1.00  0.00     0.031 C 
ATOM     50  C   UNL A   1      45.013  27.898  29.898  1.00  0.00     0.029 A 
ATOM     51  N   UNL A   1      44.242  29.760  30.866  1.00  0.00    -0.354 N 
ATOM     52  C   UNL A   1      44.294  33.544  28.777  1.00  0.00     0.074 A 
ATOM     53  C   UNL A   1      44.753  33.378  27.415  1.00  0.00     0.031 C 
ATOM     54  C   UNL A   1      44.550  27.559  31.111  1.00  0.00     0.029 A 
ATOM     55  C   UNL A   1      44.080  28.761  31.793  1.00  0.00     0.049 A 
ATOM     56  H   UNL A   1      43.977  30.694  31.028  1.00  0.00     0.167 HD
ATOM     57  C   UNL A   1      43.868  34.717  29.305  1.00  0.00     0.037 A 
ATOM     58  C   UNL A   1      43.630  28.813  33.060  1.00  0.00     0.037 A 
ATOM     59  C   UNL A   1      43.390  34.873  30.654  1.00  0.00     0.049 A 
ATOM     60  C   UNL A   1      43.220  30.137  33.639  1.00  0.00     0.074 A 
ATOM     61  C   UNL A   1      42.939  36.020  31.284  1.00  0.00     0.029 A 
ATOM     62  N   UNL A   1      43.293  33.845  31.581  1.00  0.00    -0.354 N 
ATOM     63  N   UNL A   1      43.189  31.316  33.068  1.00  0.00    -0.248 NA
ATOM     64  C   UNL A   1      42.797  30.139  35.046  1.00  0.00     0.031 C 
ATOM     65  C   UNL A   1      42.600  35.694  32.601  1.00  0.00     0.029 A 
ATOM     66  C   UNL A   1      42.800  34.335  32.780  1.00  0.00     0.049 A 
ATOM     67  H   UNL A   1      43.538  32.907  31.411  1.00  0.00     0.167 HD
ATOM     68  C   UNL A   1      42.740  32.198  34.040  1.00  0.00     0.074 A 
ATOM     69  C   UNL A   1      42.485  31.414  35.231  1.00  0.00     0.031 C 
ATOM     70  C   UNL A   1      42.564  33.540  33.958  1.00  0.00     0.037 A 
BRANCH  57  71
ATOM     71  C   UNL A   1      43.911  35.934  28.428  1.00  0.00     0.064 A 
ATOM     72  C   UNL A   1      42.762  36.420  27.787  1.00  0.00     0.173 A 
ATOM     73  C   UNL A   1      45.104  36.654  28.271  1.00  0.00     0.173 A 
ATOM     74  F   UNL A   1      41.599  35.758  27.893  1.00  0.00    -0.203 F 
ATOM     75  C   UNL A   1      42.809  37.575  27.011  1.00  0.00     0.198 A 
ATOM     76  C   UNL A   1      45.143  37.822  27.513  1.00  0.00     0.198 A 
ATOM     77  F   UNL A   1      46.232  36.233  28.865  1.00  0.00    -0.203 F 
ATOM     78  F   UNL A   1      41.706  38.002  26.380  1.00  0.00    -0.200 F 
ATOM     79  C   UNL A   1      43.997  38.279  26.881  1.00  0.00     0.200 A 
ATOM     80  F   UNL A   1      46.290  38.507  27.398  1.00  0.00    -0.200 F 
ATOM     81  F   UNL A   1      44.038  39.396  26.141  1.00  0.00    -0.200 F 
ENDBRANCH  57  71
BRANCH  58  82
ATOM     82  C   UNL A   1      43.564  27.569  33.867  1.00  0.00     0.064 A 
ATOM     83  C   UNL A   1      44.727  26.996  34.398  1.00  0.00     0.173 A 
ATOM     84  C   UNL A   1      42.341  26.940  34.138  1.00  0.00     0.173 A 
ATOM     85  F   UNL A   1      45.922  27.550  34.145  1.00  0.00    -0.203 F 
ATOM     86  C   UNL A   1      44.669  25.836  35.167  1.00  0.00     0.198 A 
ATOM     87  C   UNL A   1      42.281  25.796  34.930  1.00  0.00     0.198 A 
ATOM     88  F   UNL A   1      41.200  27.451  33.652  1.00  0.00    -0.203 F 
ATOM     89  F   UNL A   1      45.798  25.290  35.638  1.00  0.00    -0.200 F 
ATOM     90  C   UNL A   1      43.446  25.242  35.440  1.00  0.00     0.200 A 
ATOM     91  F   UNL A   1      41.096  25.233  35.201  1.00  0.00    -0.200 F 
ATOM     92  F   UNL A   1      43.389  24.133  36.189  1.00  0.00    -0.200 F 
ENDBRANCH  58  82
BRANCH  70  93
ATOM     93  C   UNL A   1      42.067  34.239  35.187  1.00  0.00     0.064 A 
ATOM     94  C   UNL A   1      42.950  34.868  36.077  1.00  0.00     0.173 A 
ATOM     95  C   UNL A   1      40.694  34.304  35.466  1.00  0.00     0.173 A 
ATOM     96  F   UNL A   1      44.273  34.819  35.862  1.00  0.00    -0.203 F 
ATOM     97  C   UNL A   1      42.477  35.517  37.214  1.00  0.00     0.198 A 
ATOM     98  C   UNL A   1      40.222  34.976  36.590  1.00  0.00     0.198 A 
ATOM     99  F   UNL A   1      39.809  33.722  34.642  1.00  0.00    -0.203 F 
ATOM    100  F   UNL A   1      43.342  36.071  38.075  1.00  0.00    -0.200 F 
ATOM    101  C   UNL A   1      41.115  35.575  37.467  1.00  0.00     0.200 A 
ATOM    102  F   UNL A   1      38.905  35.040  36.827  1.00  0.00    -0.200 F 
ATOM    103  F   UNL A   1      40.661  36.201  38.561  1.00  0.00    -0.200 F 
ENDBRANCH  70  93
ENDBRANCH  44  45
ENDBRANCH  36  39
ENDBRANCH  34  35
ENDBRANCH  33  34
ENDBRANCH  32  33
ENDBRANCH   1  32
TORSDOF 16
ENDMDL
