MODEL 1
REMARK VINA RESULT:     -12.4      0.000      0.000
REMARK SMILES O=C(NCCCCCCNC(=O)c1cccc(S(=O)(=O)NC[C@@H]2COc3ccccc3O2)c1)c1ccc(-c2c3nc(c(-c4c(F)c(F)c(F)c(F)c4F)c4ccc([nH]4)c(-c4c(F)c(F)c(F)c(F)c4F)c4nc(c(-c5c(F)c(F)c(F)c(F)c5F)c5ccc2[nH]5)C=C4)C=C3)cc1
REMARK SMILES IDX 7 1 6 2 5 3 4 4 3 5 1 6 2 7 34 9 35 10 96 11 36 12 95 13
REMARK SMILES IDX 37 14 38 15 39 16 89 17 40 18 94 19 88 20 90 21 41 22 93 23
REMARK SMILES IDX 87 24 86 25 42 27 74 28 54 29 73 30 55 31 58 32 72 33 91 34
REMARK SMILES IDX 56 35 57 36 71 38 92 39 59 40 43 41 44 42 52 43 45 44 46 45
REMARK SMILES IDX 50 46 53 47 47 48 48 49 51 50 49 51 75 52 76 53 84 54 77 55
REMARK SMILES IDX 78 56 82 57 85 58 79 59 80 60 83 61 81 62 60 63 61 64 69 65
REMARK SMILES IDX 62 66 63 67 67 68 70 69 64 70 65 71 68 72 66 73 8 74 9 75
REMARK SMILES IDX 10 76 11 77 12 79 13 80 14 81 33 82 15 83 17 84 16 85 18 86
REMARK SMILES IDX 19 87 20 88 21 89 22 91 23 92 24 93 32 94 25 95 31 96 26 97
REMARK SMILES IDX 30 98 27 99 29 100 28 101
REMARK H PARENT 3 8 90 26 58 37 10 78 21 90
REMARK Flexibility Score: inf
ROOT
ATOM      1  C   UNL A   1      35.898  21.308  25.346  1.00  0.00     0.002 C 
ENDROOT
BRANCH   1   2
ATOM      2  C   UNL A   1      37.111  20.933  24.490  1.00  0.00     0.002 C 
BRANCH   2   3
ATOM      3  C   UNL A   1      37.954  19.765  25.001  1.00  0.00     0.021 C 
BRANCH   3   4
ATOM      4  C   UNL A   1      39.060  20.134  25.981  1.00  0.00     0.116 C 
BRANCH   4   5
ATOM      5  N   UNL A   1      40.147  19.175  26.001  1.00  0.00    -0.352 N 
ATOM      6  O   UNL A   1      42.298  18.488  26.002  1.00  0.00    -0.269 OA
ATOM      7  C   UNL A   1      41.496  19.407  26.126  1.00  0.00     0.251 C 
ATOM      8  H   UNL A   1      39.885  18.230  25.912  1.00  0.00     0.163 HD
BRANCH   7   9
ATOM      9  C   UNL A   1      41.985  20.780  26.387  1.00  0.00     0.039 A 
ATOM     10  C   UNL A   1      42.132  21.701  25.346  1.00  0.00     0.014 A 
ATOM     11  C   UNL A   1      42.281  21.155  27.701  1.00  0.00     0.014 A 
ATOM     12  C   UNL A   1      42.676  22.956  25.602  1.00  0.00     0.010 A 
ATOM     13  C   UNL A   1      42.758  22.442  27.967  1.00  0.00     0.010 A 
ATOM     14  C   UNL A   1      42.973  23.347  26.917  1.00  0.00    -0.014 A 
BRANCH  14  15
ATOM     15  C   UNL A   1      43.409  24.741  27.179  1.00  0.00     0.031 A 
ATOM     16  C   UNL A   1      42.469  25.763  27.751  1.00  0.00     0.074 A 
ATOM     17  C   UNL A   1      44.683  25.074  26.894  1.00  0.00     0.049 A 
ATOM     18  N   UNL A   1      42.698  27.019  28.041  1.00  0.00    -0.248 NA
ATOM     19  C   UNL A   1      41.092  25.326  28.028  1.00  0.00     0.031 C 
ATOM     20  C   UNL A   1      45.677  24.169  26.312  1.00  0.00     0.029 A 
ATOM     21  N   UNL A   1      45.365  26.252  27.061  1.00  0.00    -0.354 N 
ATOM     22  C   UNL A   1      41.497  27.527  28.517  1.00  0.00     0.074 A 
ATOM     23  C   UNL A   1      40.533  26.448  28.463  1.00  0.00     0.031 C 
ATOM     24  C   UNL A   1      46.847  24.812  26.201  1.00  0.00     0.029 A 
ATOM     25  C   UNL A   1      46.674  26.188  26.650  1.00  0.00     0.049 A 
ATOM     26  H   UNL A   1      44.956  27.064  27.438  1.00  0.00     0.167 HD
ATOM     27  C   UNL A   1      41.231  28.779  28.962  1.00  0.00     0.037 A 
ATOM     28  C   UNL A   1      47.626  27.139  26.620  1.00  0.00     0.037 A 
ATOM     29  C   UNL A   1      42.202  29.841  29.033  1.00  0.00     0.049 A 
ATOM     30  C   UNL A   1      47.294  28.517  27.113  1.00  0.00     0.074 A 
ATOM     31  C   UNL A   1      42.041  31.124  29.529  1.00  0.00     0.029 A 
ATOM     32  N   UNL A   1      43.513  29.745  28.592  1.00  0.00    -0.354 N 
ATOM     33  N   UNL A   1      46.169  28.968  27.609  1.00  0.00    -0.248 NA
ATOM     34  C   UNL A   1      48.363  29.522  27.034  1.00  0.00     0.031 C 
ATOM     35  C   UNL A   1      43.242  31.819  29.345  1.00  0.00     0.029 A 
ATOM     36  C   UNL A   1      44.164  30.956  28.777  1.00  0.00     0.049 A 
ATOM     37  H   UNL A   1      43.922  28.938  28.205  1.00  0.00     0.167 HD
ATOM     38  C   UNL A   1      46.395  30.302  27.913  1.00  0.00     0.074 A 
ATOM     39  C   UNL A   1      47.774  30.582  27.568  1.00  0.00     0.031 C 
ATOM     40  C   UNL A   1      45.534  31.216  28.423  1.00  0.00     0.037 A 
BRANCH  27  41
ATOM     41  C   UNL A   1      39.832  29.088  29.405  1.00  0.00     0.064 A 
ATOM     42  C   UNL A   1      38.843  29.492  28.496  1.00  0.00     0.173 A 
ATOM     43  C   UNL A   1      39.452  28.890  30.742  1.00  0.00     0.173 A 
ATOM     44  F   UNL A   1      39.158  29.704  27.209  1.00  0.00    -0.203 F 
ATOM     45  C   UNL A   1      37.529  29.693  28.909  1.00  0.00     0.198 A 
ATOM     46  C   UNL A   1      38.132  29.071  31.147  1.00  0.00     0.198 A 
ATOM     47  F   UNL A   1      40.358  28.497  31.650  1.00  0.00    -0.203 F 
ATOM     48  F   UNL A   1      36.605  30.099  28.027  1.00  0.00    -0.200 F 
ATOM     49  C   UNL A   1      37.173  29.472  30.232  1.00  0.00     0.200 A 
ATOM     50  F   UNL A   1      37.788  28.846  32.423  1.00  0.00    -0.200 F 
ATOM     51  F   UNL A   1      35.903  29.650  30.623  1.00  0.00    -0.200 F 
ENDBRANCH  27  41
BRANCH  28  52
ATOM     52  C   UNL A   1      48.975  26.817  26.091  1.00  0.00     0.064 A 
ATOM     53  C   UNL A   1      49.291  27.020  24.742  1.00  0.00     0.173 A 
ATOM     54  C   UNL A   1      49.978  26.303  26.928  1.00  0.00     0.173 A 
ATOM     55  F   UNL A   1      48.358  27.490  23.899  1.00  0.00    -0.203 F 
ATOM     56  C   UNL A   1      50.552  26.703  24.243  1.00  0.00     0.198 A 
ATOM     57  C   UNL A   1      51.248  26.015  26.435  1.00  0.00     0.198 A 
ATOM     58  F   UNL A   1      49.728  26.097  28.229  1.00  0.00    -0.203 F 
ATOM     59  F   UNL A   1      50.815  26.864  22.939  1.00  0.00    -0.200 F 
ATOM     60  C   UNL A   1      51.531  26.207  25.091  1.00  0.00     0.200 A 
ATOM     61  F   UNL A   1      52.196  25.553  27.261  1.00  0.00    -0.200 F 
ATOM     62  F   UNL A   1      52.747  25.907  24.612  1.00  0.00    -0.200 F 
ENDBRANCH  28  52
BRANCH  40  63
ATOM     63  C   UNL A   1      46.069  32.598  28.648  1.00  0.00     0.064 A 
ATOM     64  C   UNL A   1      45.977  33.587  27.656  1.00  0.00     0.173 A 
ATOM     65  C   UNL A   1      46.664  32.943  29.870  1.00  0.00     0.173 A 
ATOM     66  F   UNL A   1      45.433  33.297  26.464  1.00  0.00    -0.203 F 
ATOM     67  C   UNL A   1      46.484  34.865  27.873  1.00  0.00     0.198 A 
ATOM     68  C   UNL A   1      47.145  34.229  30.093  1.00  0.00     0.198 A 
ATOM     69  F   UNL A   1      46.773  32.033  30.850  1.00  0.00    -0.203 F 
ATOM     70  F   UNL A   1      46.428  35.779  26.895  1.00  0.00    -0.200 F 
ATOM     71  C   UNL A   1      47.061  35.186  29.092  1.00  0.00     0.200 A 
ATOM     72  F   UNL A   1      47.696  34.543  31.274  1.00  0.00    -0.200 F 
ATOM     73  F   UNL A   1      47.548  36.418  29.299  1.00  0.00    -0.200 F 
ENDBRANCH  40  63
ENDBRANCH  14  15
ENDBRANCH   7   9
ENDBRANCH   4   5
ENDBRANCH   3   4
ENDBRANCH   2   3
ENDBRANCH   1   2
BRANCH   1  74
ATOM     74  C   UNL A   1      34.733  20.310  25.351  1.00  0.00     0.021 C 
BRANCH  74  75
ATOM     75  C   UNL A   1      33.696  20.500  24.247  1.00  0.00     0.116 C 
BRANCH  75  76
ATOM     76  N   UNL A   1      32.437  20.991  24.771  1.00  0.00    -0.352 N 
ATOM     77  C   UNL A   1      32.074  22.252  25.168  1.00  0.00     0.251 C 
ATOM     78  H   UNL A   1      31.729  20.312  24.856  1.00  0.00     0.163 HD
ATOM     79  O   UNL A   1      31.027  22.406  25.790  1.00  0.00    -0.269 OA
BRANCH  77  80
ATOM     80  C   UNL A   1      32.876  23.445  24.802  1.00  0.00     0.041 A 
ATOM     81  C   UNL A   1      33.582  24.125  25.798  1.00  0.00     0.014 A 
ATOM     82  C   UNL A   1      32.783  24.003  23.529  1.00  0.00     0.035 A 
ATOM     83  C   UNL A   1      34.199  25.348  25.513  1.00  0.00     0.002 A 
ATOM     84  C   UNL A   1      33.337  25.254  23.264  1.00  0.00     0.083 A 
ATOM     85  C   UNL A   1      34.063  25.926  24.247  1.00  0.00     0.022 A 
BRANCH  84  86
ATOM     86  S   UNL A   1      33.052  26.038  21.696  1.00  0.00     0.240 S 
ATOM     87  O   UNL A   1      33.824  27.255  21.654  1.00  0.00    -0.207 OA
ATOM     88  O   UNL A   1      33.164  25.003  20.694  1.00  0.00    -0.207 OA
BRANCH  86  89
ATOM     89  N   UNL A   1      31.403  26.442  21.740  1.00  0.00    -0.207 NA
ATOM     90  H   UNL A   1      30.980  25.868  22.471  1.00  0.00     0.141 HD
BRANCH  89  91
ATOM     91  C   UNL A   1      30.984  27.848  22.001  1.00  0.00     0.147 C 
BRANCH  91  92
ATOM     92  C   UNL A   1      29.880  28.041  23.061  1.00  0.00     0.226 C 
ATOM     93  C   UNL A   1      29.625  29.498  23.463  1.00  0.00     0.276 C 
ATOM     94  O   UNL A   1      30.211  27.254  24.226  1.00  0.00    -0.482 OA
ATOM     95  O   UNL A   1      30.775  30.089  24.070  1.00  0.00    -0.486 OA
ATOM     96  C   UNL A   1      30.917  27.936  25.180  1.00  0.00     0.161 A 
ATOM     97  C   UNL A   1      31.200  29.303  25.106  1.00  0.00     0.161 A 
ATOM     98  C   UNL A   1      31.347  27.201  26.281  1.00  0.00     0.050 A 
ATOM     99  C   UNL A   1      31.936  29.928  26.109  1.00  0.00     0.050 A 
ATOM    100  C   UNL A   1      32.064  27.830  27.301  1.00  0.00     0.004 A 
ATOM    101  C   UNL A   1      32.362  29.191  27.213  1.00  0.00     0.004 A 
ENDBRANCH  91  92
ENDBRANCH  89  91
ENDBRANCH  86  89
ENDBRANCH  84  86
ENDBRANCH  77  80
ENDBRANCH  75  76
ENDBRANCH  74  75
ENDBRANCH   1  74
TORSDOF 17
ENDMDL
MODEL 2
REMARK VINA RESULT:     -12.3      1.704      7.285
REMARK SMILES O=C(NCCCCCCNC(=O)c1cccc(S(=O)(=O)NC[C@@H]2COc3ccccc3O2)c1)c1ccc(-c2c3nc(c(-c4c(F)c(F)c(F)c(F)c4F)c4ccc([nH]4)c(-c4c(F)c(F)c(F)c(F)c4F)c4nc(c(-c5c(F)c(F)c(F)c(F)c5F)c5ccc2[nH]5)C=C4)C=C3)cc1
REMARK SMILES IDX 7 1 6 2 5 3 4 4 3 5 1 6 2 7 34 9 35 10 96 11 36 12 95 13
REMARK SMILES IDX 37 14 38 15 39 16 89 17 40 18 94 19 88 20 90 21 41 22 93 23
REMARK SMILES IDX 87 24 86 25 42 27 74 28 54 29 73 30 55 31 58 32 72 33 91 34
REMARK SMILES IDX 56 35 57 36 71 38 92 39 59 40 43 41 44 42 52 43 45 44 46 45
REMARK SMILES IDX 50 46 53 47 47 48 48 49 51 50 49 51 75 52 76 53 84 54 77 55
REMARK SMILES IDX 78 56 82 57 85 58 79 59 80 60 83 61 81 62 60 63 61 64 69 65
REMARK SMILES IDX 62 66 63 67 67 68 70 69 64 70 65 71 68 72 66 73 8 74 9 75
REMARK SMILES IDX 10 76 11 77 12 79 13 80 14 81 33 82 15 83 17 84 16 85 18 86
REMARK SMILES IDX 19 87 20 88 21 89 22 91 23 92 24 93 32 94 25 95 31 96 26 97
REMARK SMILES IDX 30 98 27 99 29 100 28 101
REMARK H PARENT 3 8 90 26 58 37 10 78 21 90
REMARK Flexibility Score: inf
ROOT
ATOM      1  C   UNL A   1      37.754  22.039  25.324  1.00  0.00     0.002 C 
ENDROOT
BRANCH   1   2
ATOM      2  C   UNL A   1      37.410  20.722  24.623  1.00  0.00     0.002 C 
BRANCH   2   3
ATOM      3  C   UNL A   1      38.320  19.537  24.943  1.00  0.00     0.021 C 
BRANCH   3   4
ATOM      4  C   UNL A   1      39.399  19.800  25.985  1.00  0.00     0.116 C 
BRANCH   4   5
ATOM      5  N   UNL A   1      40.529  18.898  25.876  1.00  0.00    -0.352 N 
ATOM      6  O   UNL A   1      42.707  18.319  25.743  1.00  0.00    -0.269 OA
ATOM      7  C   UNL A   1      41.869  19.182  25.982  1.00  0.00     0.251 C 
ATOM      8  H   UNL A   1      40.306  17.955  25.702  1.00  0.00     0.163 HD
BRANCH   7   9
ATOM      9  C   UNL A   1      42.304  20.545  26.362  1.00  0.00     0.039 A 
ATOM     10  C   UNL A   1      42.726  21.461  25.394  1.00  0.00     0.014 A 
ATOM     11  C   UNL A   1      42.268  20.916  27.710  1.00  0.00     0.014 A 
ATOM     12  C   UNL A   1      43.213  22.705  25.783  1.00  0.00     0.010 A 
ATOM     13  C   UNL A   1      42.688  22.194  28.091  1.00  0.00     0.010 A 
ATOM     14  C   UNL A   1      43.178  23.092  27.133  1.00  0.00    -0.014 A 
BRANCH  14  15
ATOM     15  C   UNL A   1      43.562  24.478  27.501  1.00  0.00     0.031 A 
ATOM     16  C   UNL A   1      44.999  24.913  27.528  1.00  0.00     0.074 A 
ATOM     17  C   UNL A   1      42.582  25.349  27.809  1.00  0.00     0.049 A 
ATOM     18  N   UNL A   1      45.496  26.088  27.824  1.00  0.00    -0.248 NA
ATOM     19  C   UNL A   1      46.012  23.903  27.186  1.00  0.00     0.031 C 
ATOM     20  C   UNL A   1      41.153  25.028  27.841  1.00  0.00     0.029 A 
ATOM     21  N   UNL A   1      42.630  26.678  28.145  1.00  0.00    -0.354 N 
ATOM     22  C   UNL A   1      46.874  25.957  27.721  1.00  0.00     0.074 A 
ATOM     23  C   UNL A   1      47.140  24.582  27.352  1.00  0.00     0.031 C 
ATOM     24  C   UNL A   1      40.459  26.134  28.143  1.00  0.00     0.029 A 
ATOM     25  C   UNL A   1      41.394  27.227  28.382  1.00  0.00     0.049 A 
ATOM     26  H   UNL A   1      43.470  27.188  28.210  1.00  0.00     0.167 HD
ATOM     27  C   UNL A   1      47.825  26.902  27.915  1.00  0.00     0.037 A 
ATOM     28  C   UNL A   1      41.051  28.469  28.769  1.00  0.00     0.037 A 
ATOM     29  C   UNL A   1      47.551  28.274  28.261  1.00  0.00     0.049 A 
ATOM     30  C   UNL A   1      42.131  29.489  28.983  1.00  0.00     0.074 A 
ATOM     31  C   UNL A   1      48.446  29.319  28.416  1.00  0.00     0.029 A 
ATOM     32  N   UNL A   1      46.289  28.789  28.511  1.00  0.00    -0.354 N 
ATOM     33  N   UNL A   1      43.427  29.364  28.831  1.00  0.00    -0.248 NA
ATOM     34  C   UNL A   1      41.703  30.822  29.428  1.00  0.00     0.031 C 
ATOM     35  C   UNL A   1      47.730  30.457  28.805  1.00  0.00     0.029 A 
ATOM     36  C   UNL A   1      46.384  30.131  28.848  1.00  0.00     0.049 A 
ATOM     37  H   UNL A   1      45.449  28.279  28.457  1.00  0.00     0.167 HD
ATOM     38  C   UNL A   1      43.967  30.601  29.150  1.00  0.00     0.074 A 
ATOM     39  C   UNL A   1      42.857  31.471  29.480  1.00  0.00     0.031 C 
ATOM     40  C   UNL A   1      45.268  30.979  29.177  1.00  0.00     0.037 A 
BRANCH  27  41
ATOM     41  C   UNL A   1      49.263  26.499  27.767  1.00  0.00     0.064 A 
ATOM     42  C   UNL A   1      49.872  26.396  26.508  1.00  0.00     0.173 A 
ATOM     43  C   UNL A   1      50.063  26.302  28.903  1.00  0.00     0.173 A 
ATOM     44  F   UNL A   1      49.148  26.566  25.392  1.00  0.00    -0.203 F 
ATOM     45  C   UNL A   1      51.229  26.104  26.392  1.00  0.00     0.198 A 
ATOM     46  C   UNL A   1      51.424  26.031  28.783  1.00  0.00     0.198 A 
ATOM     47  F   UNL A   1      49.529  26.396  30.130  1.00  0.00    -0.203 F 
ATOM     48  F   UNL A   1      51.787  25.990  25.179  1.00  0.00    -0.200 F 
ATOM     49  C   UNL A   1      52.005  25.932  27.529  1.00  0.00     0.200 A 
ATOM     50  F   UNL A   1      52.174  25.877  29.883  1.00  0.00    -0.200 F 
ATOM     51  F   UNL A   1      53.314  25.669  27.414  1.00  0.00    -0.200 F 
ENDBRANCH  27  41
BRANCH  28  52
ATOM     52  C   UNL A   1      39.623  28.806  28.991  1.00  0.00     0.064 A 
ATOM     53  C   UNL A   1      38.822  29.287  27.947  1.00  0.00     0.173 A 
ATOM     54  C   UNL A   1      39.029  28.650  30.253  1.00  0.00     0.173 A 
ATOM     55  F   UNL A   1      39.352  29.473  26.728  1.00  0.00    -0.203 F 
ATOM     56  C   UNL A   1      37.486  29.618  28.160  1.00  0.00     0.198 A 
ATOM     57  C   UNL A   1      37.685  28.951  30.457  1.00  0.00     0.198 A 
ATOM     58  F   UNL A   1      39.751  28.186  31.283  1.00  0.00    -0.203 F 
ATOM     59  F   UNL A   1      36.754  30.119  27.155  1.00  0.00    -0.200 F 
ATOM     60  C   UNL A   1      36.917  29.444  29.412  1.00  0.00     0.200 A 
ATOM     61  F   UNL A   1      37.135  28.765  31.664  1.00  0.00    -0.200 F 
ATOM     62  F   UNL A   1      35.630  29.757  29.615  1.00  0.00    -0.200 F 
ENDBRANCH  28  52
BRANCH  40  63
ATOM     63  C   UNL A   1      45.553  32.399  29.565  1.00  0.00     0.064 A 
ATOM     64  C   UNL A   1      45.587  33.424  28.608  1.00  0.00     0.173 A 
ATOM     65  C   UNL A   1      45.776  32.741  30.907  1.00  0.00     0.173 A 
ATOM     66  F   UNL A   1      45.397  33.141  27.310  1.00  0.00    -0.203 F 
ATOM     67  C   UNL A   1      45.859  34.738  28.978  1.00  0.00     0.198 A 
ATOM     68  C   UNL A   1      46.022  34.059  31.276  1.00  0.00     0.198 A 
ATOM     69  F   UNL A   1      45.752  31.796  31.859  1.00  0.00    -0.203 F 
ATOM     70  F   UNL A   1      45.933  35.693  28.041  1.00  0.00    -0.200 F 
ATOM     71  C   UNL A   1      46.070  35.055  30.311  1.00  0.00     0.200 A 
ATOM     72  F   UNL A   1      46.218  34.368  32.566  1.00  0.00    -0.200 F 
ATOM     73  F   UNL A   1      46.331  36.321  30.666  1.00  0.00    -0.200 F 
ENDBRANCH  40  63
ENDBRANCH  14  15
ENDBRANCH   7   9
ENDBRANCH   4   5
ENDBRANCH   3   4
ENDBRANCH   2   3
ENDBRANCH   1   2
BRANCH   1  74
ATOM     74  C   UNL A   1      37.002  23.285  24.839  1.00  0.00     0.021 C 
BRANCH  74  75
ATOM     75  C   UNL A   1      35.924  23.815  25.781  1.00  0.00     0.116 C 
BRANCH  75  76
ATOM     76  N   UNL A   1      35.425  22.779  26.662  1.00  0.00    -0.352 N 
ATOM     77  C   UNL A   1      34.140  22.391  26.936  1.00  0.00     0.251 C 
ATOM     78  H   UNL A   1      36.120  22.271  27.141  1.00  0.00     0.163 HD
ATOM     79  O   UNL A   1      33.929  21.638  27.883  1.00  0.00    -0.269 OA
BRANCH  77  80
ATOM     80  C   UNL A   1      33.003  22.798  26.074  1.00  0.00     0.041 A 
ATOM     81  C   UNL A   1      32.898  22.266  24.786  1.00  0.00     0.014 A 
ATOM     82  C   UNL A   1      32.154  23.834  26.457  1.00  0.00     0.035 A 
ATOM     83  C   UNL A   1      31.942  22.764  23.895  1.00  0.00     0.002 A 
ATOM     84  C   UNL A   1      31.250  24.378  25.547  1.00  0.00     0.083 A 
ATOM     85  C   UNL A   1      31.125  23.836  24.268  1.00  0.00     0.022 A 
BRANCH  84  86
ATOM     86  S   UNL A   1      30.307  25.818  25.984  1.00  0.00     0.240 S 
ATOM     87  O   UNL A   1      30.249  26.685  24.832  1.00  0.00    -0.207 OA
ATOM     88  O   UNL A   1      29.127  25.344  26.669  1.00  0.00    -0.207 OA
BRANCH  86  89
ATOM     89  N   UNL A   1      31.249  26.569  27.181  1.00  0.00    -0.207 NA
ATOM     90  H   UNL A   1      32.108  26.024  27.263  1.00  0.00     0.141 HD
BRANCH  89  91
ATOM     91  C   UNL A   1      31.656  27.994  27.028  1.00  0.00     0.147 C 
BRANCH  91  92
ATOM     92  C   UNL A   1      33.142  28.242  26.696  1.00  0.00     0.226 C 
ATOM     93  C   UNL A   1      33.412  29.505  25.871  1.00  0.00     0.276 C 
ATOM     94  O   UNL A   1      33.667  27.082  26.016  1.00  0.00    -0.482 OA
ATOM     95  O   UNL A   1      32.792  29.442  24.586  1.00  0.00    -0.486 OA
ATOM     96  C   UNL A   1      33.596  27.153  24.651  1.00  0.00     0.161 A 
ATOM     97  C   UNL A   1      33.165  28.286  23.955  1.00  0.00     0.161 A 
ATOM     98  C   UNL A   1      33.997  26.022  23.946  1.00  0.00     0.050 A 
ATOM     99  C   UNL A   1      33.105  28.282  22.564  1.00  0.00     0.050 A 
ATOM    100  C   UNL A   1      33.962  26.023  22.550  1.00  0.00     0.004 A 
ATOM    101  C   UNL A   1      33.513  27.149  21.860  1.00  0.00     0.004 A 
ENDBRANCH  91  92
ENDBRANCH  89  91
ENDBRANCH  86  89
ENDBRANCH  84  86
ENDBRANCH  77  80
ENDBRANCH  75  76
ENDBRANCH  74  75
ENDBRANCH   1  74
TORSDOF 17
ENDMDL
MODEL 3
REMARK VINA RESULT:     -12.3      5.877     10.722
REMARK SMILES O=C(NCCCCCCNC(=O)c1cccc(S(=O)(=O)NC[C@@H]2COc3ccccc3O2)c1)c1ccc(-c2c3nc(c(-c4c(F)c(F)c(F)c(F)c4F)c4ccc([nH]4)c(-c4c(F)c(F)c(F)c(F)c4F)c4nc(c(-c5c(F)c(F)c(F)c(F)c5F)c5ccc2[nH]5)C=C4)C=C3)cc1
REMARK SMILES IDX 7 1 6 2 5 3 4 4 3 5 1 6 2 7 34 9 35 10 96 11 36 12 95 13
REMARK SMILES IDX 37 14 38 15 39 16 89 17 40 18 94 19 88 20 90 21 41 22 93 23
REMARK SMILES IDX 87 24 86 25 42 27 74 28 54 29 73 30 55 31 58 32 72 33 91 34
REMARK SMILES IDX 56 35 57 36 71 38 92 39 59 40 43 41 44 42 52 43 45 44 46 45
REMARK SMILES IDX 50 46 53 47 47 48 48 49 51 50 49 51 75 52 76 53 84 54 77 55
REMARK SMILES IDX 78 56 82 57 85 58 79 59 80 60 83 61 81 62 60 63 61 64 69 65
REMARK SMILES IDX 62 66 63 67 67 68 70 69 64 70 65 71 68 72 66 73 8 74 9 75
REMARK SMILES IDX 10 76 11 77 12 79 13 80 14 81 33 82 15 83 17 84 16 85 18 86
REMARK SMILES IDX 19 87 20 88 21 89 22 91 23 92 24 93 32 94 25 95 31 96 26 97
REMARK SMILES IDX 30 98 27 99 29 100 28 101
REMARK H PARENT 3 8 90 26 58 37 10 78 21 90
REMARK Flexibility Score: inf
ROOT
ATOM      1  C   UNL A   1      34.436  32.061  28.690  1.00  0.00     0.002 C 
ENDROOT
BRANCH   1   2
ATOM      2  C   UNL A   1      34.564  33.586  28.725  1.00  0.00     0.002 C 
BRANCH   2   3
ATOM      3  C   UNL A   1      33.251  34.367  28.760  1.00  0.00     0.021 C 
BRANCH   3   4
ATOM      4  C   UNL A   1      33.351  35.795  29.281  1.00  0.00     0.116 C 
BRANCH   4   5
ATOM      5  N   UNL A   1      32.531  36.033  30.453  1.00  0.00    -0.352 N 
ATOM      6  O   UNL A   1      31.869  35.787  32.598  1.00  0.00    -0.269 OA
ATOM      7  C   UNL A   1      32.726  35.598  31.742  1.00  0.00     0.251 C 
ATOM      8  H   UNL A   1      31.724  36.578  30.306  1.00  0.00     0.163 HD
BRANCH   7   9
ATOM      9  C   UNL A   1      33.969  34.875  32.093  1.00  0.00     0.039 A 
ATOM     10  C   UNL A   1      35.206  35.526  32.088  1.00  0.00     0.014 A 
ATOM     11  C   UNL A   1      33.890  33.527  32.455  1.00  0.00     0.014 A 
ATOM     12  C   UNL A   1      36.370  34.805  32.336  1.00  0.00     0.010 A 
ATOM     13  C   UNL A   1      35.053  32.822  32.776  1.00  0.00     0.010 A 
ATOM     14  C   UNL A   1      36.304  33.451  32.704  1.00  0.00    -0.014 A 
BRANCH  14  15
ATOM     15  C   UNL A   1      37.546  32.747  33.109  1.00  0.00     0.031 A 
ATOM     16  C   UNL A   1      38.228  33.046  34.413  1.00  0.00     0.074 A 
ATOM     17  C   UNL A   1      38.052  31.818  32.275  1.00  0.00     0.049 A 
ATOM     18  N   UNL A   1      39.315  32.515  34.912  1.00  0.00    -0.248 NA
ATOM     19  C   UNL A   1      37.619  34.078  35.266  1.00  0.00     0.031 C 
ATOM     20  C   UNL A   1      37.487  31.464  30.971  1.00  0.00     0.029 A 
ATOM     21  N   UNL A   1      39.144  30.998  32.396  1.00  0.00    -0.354 N 
ATOM     22  C   UNL A   1      39.532  33.155  36.125  1.00  0.00     0.074 A 
ATOM     23  C   UNL A   1      38.472  34.128  36.282  1.00  0.00     0.031 C 
ATOM     24  C   UNL A   1      38.214  30.478  30.427  1.00  0.00     0.029 A 
ATOM     25  C   UNL A   1      39.327  30.168  31.317  1.00  0.00     0.049 A 
ATOM     26  H   UNL A   1      39.739  31.003  33.180  1.00  0.00     0.167 HD
ATOM     27  C   UNL A   1      40.524  32.942  37.023  1.00  0.00     0.037 A 
ATOM     28  C   UNL A   1      40.296  29.270  31.061  1.00  0.00     0.037 A 
ATOM     29  C   UNL A   1      41.563  31.955  36.869  1.00  0.00     0.049 A 
ATOM     30  C   UNL A   1      41.384  29.066  32.074  1.00  0.00     0.074 A 
ATOM     31  C   UNL A   1      42.574  31.623  37.755  1.00  0.00     0.029 A 
ATOM     32  N   UNL A   1      41.727  31.146  35.755  1.00  0.00    -0.354 N 
ATOM     33  N   UNL A   1      41.546  29.641  33.240  1.00  0.00    -0.248 NA
ATOM     34  C   UNL A   1      42.430  28.091  31.733  1.00  0.00     0.031 C 
ATOM     35  C   UNL A   1      43.377  30.645  37.157  1.00  0.00     0.029 A 
ATOM     36  C   UNL A   1      42.840  30.336  35.919  1.00  0.00     0.049 A 
ATOM     37  H   UNL A   1      41.140  31.146  34.965  1.00  0.00     0.167 HD
ATOM     38  C   UNL A   1      42.701  29.093  33.777  1.00  0.00     0.074 A 
ATOM     39  C   UNL A   1      43.187  28.120  32.820  1.00  0.00     0.031 C 
ATOM     40  C   UNL A   1      43.311  29.378  34.953  1.00  0.00     0.037 A 
BRANCH  27  41
ATOM     41  C   UNL A   1      40.552  33.791  38.259  1.00  0.00     0.064 A 
ATOM     42  C   UNL A   1      39.807  33.455  39.400  1.00  0.00     0.173 A 
ATOM     43  C   UNL A   1      41.405  34.903  38.335  1.00  0.00     0.173 A 
ATOM     44  F   UNL A   1      38.971  32.407  39.375  1.00  0.00    -0.203 F 
ATOM     45  C   UNL A   1      39.910  34.206  40.568  1.00  0.00     0.198 A 
ATOM     46  C   UNL A   1      41.521  35.638  39.512  1.00  0.00     0.198 A 
ATOM     47  F   UNL A   1      42.143  35.262  37.274  1.00  0.00    -0.203 F 
ATOM     48  F   UNL A   1      39.174  33.880  41.639  1.00  0.00    -0.200 F 
ATOM     49  C   UNL A   1      40.774  35.290  40.626  1.00  0.00     0.200 A 
ATOM     50  F   UNL A   1      42.365  36.679  39.569  1.00  0.00    -0.200 F 
ATOM     51  F   UNL A   1      40.884  36.000  41.757  1.00  0.00    -0.200 F 
ENDBRANCH  27  41
BRANCH  28  52
ATOM     52  C   UNL A   1      40.283  28.512  29.785  1.00  0.00     0.064 A 
ATOM     53  C   UNL A   1      39.569  27.313  29.664  1.00  0.00     0.173 A 
ATOM     54  C   UNL A   1      40.981  28.974  28.659  1.00  0.00     0.173 A 
ATOM     55  F   UNL A   1      38.902  26.820  30.720  1.00  0.00    -0.203 F 
ATOM     56  C   UNL A   1      39.569  26.593  28.471  1.00  0.00     0.198 A 
ATOM     57  C   UNL A   1      40.956  28.271  27.458  1.00  0.00     0.198 A 
ATOM     58  F   UNL A   1      41.674  30.121  28.722  1.00  0.00    -0.203 F 
ATOM     59  F   UNL A   1      38.916  25.426  28.395  1.00  0.00    -0.200 F 
ATOM     60  C   UNL A   1      40.257  27.076  27.368  1.00  0.00     0.200 A 
ATOM     61  F   UNL A   1      41.607  28.749  26.390  1.00  0.00    -0.200 F 
ATOM     62  F   UNL A   1      40.253  26.386  26.218  1.00  0.00    -0.200 F 
ENDBRANCH  28  52
BRANCH  40  63
ATOM     63  C   UNL A   1      44.561  28.615  35.270  1.00  0.00     0.064 A 
ATOM     64  C   UNL A   1      44.515  27.382  35.937  1.00  0.00     0.173 A 
ATOM     65  C   UNL A   1      45.817  29.112  34.888  1.00  0.00     0.173 A 
ATOM     66  F   UNL A   1      43.338  26.876  36.338  1.00  0.00    -0.203 F 
ATOM     67  C   UNL A   1      45.683  26.685  36.232  1.00  0.00     0.198 A 
ATOM     68  C   UNL A   1      46.980  28.400  35.161  1.00  0.00     0.198 A 
ATOM     69  F   UNL A   1      45.912  30.286  34.245  1.00  0.00    -0.203 F 
ATOM     70  F   UNL A   1      45.619  25.532  36.913  1.00  0.00    -0.200 F 
ATOM     71  C   UNL A   1      46.913  27.191  35.839  1.00  0.00     0.200 A 
ATOM     72  F   UNL A   1      48.168  28.885  34.774  1.00  0.00    -0.200 F 
ATOM     73  F   UNL A   1      48.037  26.519  36.123  1.00  0.00    -0.200 F 
ENDBRANCH  40  63
ENDBRANCH  14  15
ENDBRANCH   7   9
ENDBRANCH   4   5
ENDBRANCH   3   4
ENDBRANCH   2   3
ENDBRANCH   1   2
BRANCH   1  74
ATOM     74  C   UNL A   1      35.289  31.329  27.646  1.00  0.00     0.021 C 
BRANCH  74  75
ATOM     75  C   UNL A   1      35.278  29.805  27.733  1.00  0.00     0.116 C 
BRANCH  75  76
ATOM     76  N   UNL A   1      33.951  29.294  28.013  1.00  0.00    -0.352 N 
ATOM     77  C   UNL A   1      33.009  28.765  27.170  1.00  0.00     0.251 C 
ATOM     78  H   UNL A   1      33.682  29.331  28.960  1.00  0.00     0.163 HD
ATOM     79  O   UNL A   1      31.864  28.596  27.580  1.00  0.00    -0.269 OA
BRANCH  77  80
ATOM     80  C   UNL A   1      33.353  28.322  25.797  1.00  0.00     0.041 A 
ATOM     81  C   UNL A   1      33.102  29.177  24.720  1.00  0.00     0.014 A 
ATOM     82  C   UNL A   1      33.743  27.007  25.549  1.00  0.00     0.035 A 
ATOM     83  C   UNL A   1      33.252  28.718  23.407  1.00  0.00     0.002 A 
ATOM     84  C   UNL A   1      33.824  26.530  24.242  1.00  0.00     0.083 A 
ATOM     85  C   UNL A   1      33.597  27.385  23.164  1.00  0.00     0.022 A 
BRANCH  84  86
ATOM     86  S   UNL A   1      34.137  24.808  23.943  1.00  0.00     0.240 S 
ATOM     87  O   UNL A   1      34.260  24.612  22.520  1.00  0.00    -0.207 OA
ATOM     88  O   UNL A   1      35.161  24.408  24.881  1.00  0.00    -0.207 OA
BRANCH  86  89
ATOM     89  N   UNL A   1      32.719  24.041  24.476  1.00  0.00    -0.207 NA
ATOM     90  H   UNL A   1      31.937  24.542  24.052  1.00  0.00     0.141 HD
BRANCH  89  91
ATOM     91  C   UNL A   1      32.502  22.592  24.202  1.00  0.00     0.147 C 
BRANCH  91  92
ATOM     92  C   UNL A   1      32.372  21.680  25.439  1.00  0.00     0.226 C 
ATOM     93  C   UNL A   1      33.675  21.466  26.217  1.00  0.00     0.276 C 
ATOM     94  O   UNL A   1      31.825  20.409  25.025  1.00  0.00    -0.482 OA
ATOM     95  O   UNL A   1      34.664  20.809  25.424  1.00  0.00    -0.486 OA
ATOM     96  C   UNL A   1      32.770  19.465  24.724  1.00  0.00     0.161 A 
ATOM     97  C   UNL A   1      34.142  19.656  24.905  1.00  0.00     0.161 A 
ATOM     98  C   UNL A   1      32.302  18.253  24.225  1.00  0.00     0.050 A 
ATOM     99  C   UNL A   1      35.047  18.655  24.563  1.00  0.00     0.050 A 
ATOM    100  C   UNL A   1      33.204  17.237  23.904  1.00  0.00     0.004 A 
ATOM    101  C   UNL A   1      34.575  17.439  24.069  1.00  0.00     0.004 A 
ENDBRANCH  91  92
ENDBRANCH  89  91
ENDBRANCH  86  89
ENDBRANCH  84  86
ENDBRANCH  77  80
ENDBRANCH  75  76
ENDBRANCH  74  75
ENDBRANCH   1  74
TORSDOF 17
ENDMDL
