MODEL 1
REMARK VINA RESULT:     -13.9      0.000      0.000
REMARK SMILES Cc1ccc2[nH]cc([C@@H](C(=O)NCCCCCCNC(=O)c3ccc(-c4c5nc(c(-c6c(F)c(F)c(F)c(F)c6F)c6ccc([nH]6)c(-c6c(F)c(F)c(F)c(F)c6F)c6nc(c(-c7c(F)c(F)c(F)c(F)c7F)c7ccc4[nH]7)C=C6)C=C5)cc3)[NH+]3CCN(c4cccc(Cl)c4)CC3)c2c1
REMARK SMILES IDX 15 1 14 2 13 3 12 4 10 5 11 6 9 8 8 9 1 10 2 11 3 12 99 13
REMARK SMILES IDX 4 14 98 15 5 16 6 17 7 18 85 20 86 21 97 22 87 24 96 25
REMARK SMILES IDX 88 26 89 27 90 28 95 29 91 30 93 31 92 32 94 33 16 34 17 35
REMARK SMILES IDX 18 36 19 37 20 38 21 40 22 41 23 42 84 43 24 44 83 45 25 46
REMARK SMILES IDX 26 47 27 48 77 49 28 50 82 51 76 52 78 53 29 54 81 55 75 56
REMARK SMILES IDX 74 57 30 59 62 60 42 61 61 62 43 63 46 64 60 65 79 66 44 67
REMARK SMILES IDX 45 68 59 70 80 71 47 72 31 73 32 74 40 75 33 76 34 77 38 78
REMARK SMILES IDX 41 79 35 80 36 81 39 82 37 83 63 84 64 85 72 86 65 87 66 88
REMARK SMILES IDX 70 89 73 90 67 91 68 92 71 93 69 94 48 95 49 96 57 97 50 98
REMARK SMILES IDX 51 99 55 100 58 101 52 102 53 103 56 104 54 105
REMARK H PARENT 12 7 6 19 85 23 19 39 78 58 46 69
REMARK Flexibility Score: inf
ROOT
ATOM      1  C   UNL A   1      32.500  29.998  26.999  1.00  0.00     0.002 C 
ENDROOT
BRANCH   1   2
ATOM      2  C   UNL A   1      33.659  29.335  26.250  1.00  0.00     0.021 C 
BRANCH   2   3
ATOM      3  C   UNL A   1      33.764  27.832  26.504  1.00  0.00     0.116 C 
BRANCH   3   4
ATOM      4  N   UNL A   1      32.468  27.271  26.807  1.00  0.00    -0.351 N 
ATOM      5  C   UNL A   1      31.538  26.742  25.949  1.00  0.00     0.283 C 
ATOM      6  O   UNL A   1      30.450  26.452  26.455  1.00  0.00    -0.268 OA
ATOM      7  H   UNL A   1      32.217  27.269  27.759  1.00  0.00     0.163 HD
BRANCH   5   8
ATOM      8  C   UNL A   1      31.929  26.467  24.457  1.00  0.00     0.307 C 
BRANCH   8   9
ATOM      9  C   UNL A   1      31.679  27.644  23.540  1.00  0.00     0.044 A 
ATOM     10  C   UNL A   1      26.581  28.265  23.390  1.00  0.00     0.044 C 
ATOM     11  C   UNL A   1      27.993  28.684  23.103  1.00  0.00    -0.050 A 
ATOM     12  C   UNL A   1      28.259  29.785  22.285  1.00  0.00     0.005 A 
ATOM     13  C   UNL A   1      29.061  27.933  23.624  1.00  0.00     0.014 A 
ATOM     14  C   UNL A   1      29.566  30.128  21.928  1.00  0.00     0.027 A 
ATOM     15  C   UNL A   1      30.392  28.236  23.252  1.00  0.00     0.009 A 
ATOM     16  C   UNL A   1      30.603  29.313  22.394  1.00  0.00     0.046 A 
ATOM     17  N   UNL A   1      31.951  29.362  22.134  1.00  0.00    -0.361 N 
ATOM     18  C   UNL A   1      32.587  28.314  22.739  1.00  0.00     0.094 A 
ATOM     19  H   UNL A   1      32.394  30.053  21.589  1.00  0.00     0.166 HD
ENDBRANCH   8   9
BRANCH   8  20
ATOM     20  N   UNL A   1      31.371  25.188  23.958  1.00  0.00    -0.318 N 
ATOM     21  C   UNL A   1      31.995  24.562  22.782  1.00  0.00     0.284 C 
ATOM     22  C   UNL A   1      31.102  24.176  24.993  1.00  0.00     0.284 C 
ATOM     23  H   UNL A   1      30.482  25.548  23.614  1.00  0.00     0.349 HD
ATOM     24  C   UNL A   1      33.152  23.572  23.025  1.00  0.00     0.178 C 
ATOM     25  C   UNL A   1      32.272  23.232  25.350  1.00  0.00     0.178 C 
ATOM     26  N   UNL A   1      32.890  22.665  24.145  1.00  0.00    -0.360 N 
BRANCH  26  27
ATOM     27  C   UNL A   1      33.812  21.645  24.355  1.00  0.00     0.038 A 
ATOM     28  C   UNL A   1      33.452  20.289  24.384  1.00  0.00     0.026 A 
ATOM     29  C   UNL A   1      35.150  21.984  24.574  1.00  0.00     0.046 A 
ATOM     30  C   UNL A   1      34.397  19.299  24.670  1.00  0.00     0.004 A 
ATOM     31  C   UNL A   1      36.090  21.000  24.869  1.00  0.00     0.043 A 
ATOM     32  C   UNL A   1      35.719  19.659  24.924  1.00  0.00     0.020 A 
ATOM     33  Cl  UNL A   1      37.719  21.451  25.191  1.00  0.00    -0.084 Cl
ENDBRANCH  26  27
ENDBRANCH   8  20
ENDBRANCH   5   8
ENDBRANCH   3   4
ENDBRANCH   2   3
ENDBRANCH   1   2
BRANCH   1  34
ATOM     34  C   UNL A   1      31.549  30.798  26.105  1.00  0.00     0.002 C 
BRANCH  34  35
ATOM     35  C   UNL A   1      31.398  32.268  26.502  1.00  0.00     0.021 C 
BRANCH  35  36
ATOM     36  C   UNL A   1      32.598  32.830  27.255  1.00  0.00     0.116 C 
BRANCH  36  37
ATOM     37  N   UNL A   1      32.408  34.233  27.590  1.00  0.00    -0.352 N 
ATOM     38  C   UNL A   1      32.977  34.964  28.601  1.00  0.00     0.251 C 
ATOM     39  H   UNL A   1      31.782  34.725  27.011  1.00  0.00     0.163 HD
ATOM     40  O   UNL A   1      32.527  36.063  28.903  1.00  0.00    -0.269 OA
BRANCH  38  41
ATOM     41  C   UNL A   1      34.135  34.411  29.329  1.00  0.00     0.039 A 
ATOM     42  C   UNL A   1      33.921  33.743  30.536  1.00  0.00     0.014 A 
ATOM     43  C   UNL A   1      35.429  34.557  28.820  1.00  0.00     0.014 A 
ATOM     44  C   UNL A   1      35.004  33.175  31.208  1.00  0.00     0.010 A 
ATOM     45  C   UNL A   1      36.494  33.924  29.448  1.00  0.00     0.010 A 
ATOM     46  C   UNL A   1      36.293  33.235  30.654  1.00  0.00    -0.014 A 
BRANCH  46  47
ATOM     47  C   UNL A   1      37.448  32.589  31.326  1.00  0.00     0.031 A 
ATOM     48  C   UNL A   1      38.171  31.454  30.655  1.00  0.00     0.074 A 
ATOM     49  C   UNL A   1      37.810  32.990  32.559  1.00  0.00     0.049 A 
ATOM     50  N   UNL A   1      39.161  30.724  31.101  1.00  0.00    -0.248 NA
ATOM     51  C   UNL A   1      37.698  31.068  29.316  1.00  0.00     0.031 C 
ATOM     52  C   UNL A   1      37.159  34.052  33.327  1.00  0.00     0.029 A 
ATOM     53  N   UNL A   1      38.808  32.544  33.388  1.00  0.00    -0.354 N 
ATOM     54  C   UNL A   1      39.423  29.794  30.104  1.00  0.00     0.074 A 
ATOM     55  C   UNL A   1      38.445  30.007  29.059  1.00  0.00     0.031 C 
ATOM     56  C   UNL A   1      37.794  34.197  34.500  1.00  0.00     0.029 A 
ATOM     57  C   UNL A   1      38.865  33.209  34.588  1.00  0.00     0.049 A 
ATOM     58  H   UNL A   1      39.425  31.816  33.146  1.00  0.00     0.167 HD
ATOM     59  C   UNL A   1      40.407  28.864  30.052  1.00  0.00     0.037 A 
ATOM     60  C   UNL A   1      39.685  33.037  35.640  1.00  0.00     0.037 A 
ATOM     61  C   UNL A   1      41.384  28.666  31.091  1.00  0.00     0.049 A 
ATOM     62  C   UNL A   1      40.749  31.973  35.572  1.00  0.00     0.074 A 
ATOM     63  C   UNL A   1      42.448  27.783  31.118  1.00  0.00     0.029 A 
ATOM     64  N   UNL A   1      41.409  29.358  32.293  1.00  0.00    -0.354 N 
ATOM     65  N   UNL A   1      41.030  31.143  34.597  1.00  0.00    -0.248 NA
ATOM     66  C   UNL A   1      41.612  31.827  36.752  1.00  0.00     0.031 C 
ATOM     67  C   UNL A   1      43.084  27.901  32.358  1.00  0.00     0.029 A 
ATOM     68  C   UNL A   1      42.455  28.903  33.080  1.00  0.00     0.049 A 
ATOM     69  H   UNL A   1      40.778  30.069  32.549  1.00  0.00     0.167 HD
ATOM     70  C   UNL A   1      42.122  30.402  35.028  1.00  0.00     0.074 A 
ATOM     71  C   UNL A   1      42.459  30.890  36.350  1.00  0.00     0.031 C 
ATOM     72  C   UNL A   1      42.785  29.406  34.390  1.00  0.00     0.037 A 
BRANCH  59  73
ATOM     73  C   UNL A   1      40.471  27.991  28.831  1.00  0.00     0.064 A 
ATOM     74  C   UNL A   1      41.240  28.344  27.711  1.00  0.00     0.173 A 
ATOM     75  C   UNL A   1      39.773  26.773  28.787  1.00  0.00     0.173 A 
ATOM     76  F   UNL A   1      41.917  29.501  27.694  1.00  0.00    -0.203 F 
ATOM     77  C   UNL A   1      41.278  27.531  26.580  1.00  0.00     0.198 A 
ATOM     78  C   UNL A   1      39.843  25.946  27.669  1.00  0.00     0.198 A 
ATOM     79  F   UNL A   1      39.027  26.383  29.831  1.00  0.00    -0.203 F 
ATOM     80  F   UNL A   1      41.972  27.920  25.501  1.00  0.00    -0.200 F 
ATOM     81  C   UNL A   1      40.586  26.329  26.564  1.00  0.00     0.200 A 
ATOM     82  F   UNL A   1      39.185  24.779  27.660  1.00  0.00    -0.200 F 
ATOM     83  F   UNL A   1      40.628  25.546  25.478  1.00  0.00    -0.200 F 
ENDBRANCH  59  73
BRANCH  60  84
ATOM     84  C   UNL A   1      39.553  33.905  36.839  1.00  0.00     0.064 A 
ATOM     85  C   UNL A   1      38.793  33.495  37.945  1.00  0.00     0.173 A 
ATOM     86  C   UNL A   1      40.174  35.161  36.907  1.00  0.00     0.173 A 
ATOM     87  F   UNL A   1      38.166  32.310  37.920  1.00  0.00    -0.203 F 
ATOM     88  C   UNL A   1      38.637  34.317  39.057  1.00  0.00     0.198 A 
ATOM     89  C   UNL A   1      40.043  35.970  38.035  1.00  0.00     0.198 A 
ATOM     90  F   UNL A   1      40.917  35.600  35.880  1.00  0.00    -0.203 F 
ATOM     91  F   UNL A   1      37.862  33.922  40.076  1.00  0.00    -0.200 F 
ATOM     92  C   UNL A   1      39.267  35.552  39.104  1.00  0.00     0.200 A 
ATOM     93  F   UNL A   1      40.667  37.155  38.081  1.00  0.00    -0.200 F 
ATOM     94  F   UNL A   1      39.119  36.342  40.176  1.00  0.00    -0.200 F 
ENDBRANCH  60  84
BRANCH  72  95
ATOM     95  C   UNL A   1      43.971  28.808  35.090  1.00  0.00     0.064 A 
ATOM     96  C   UNL A   1      43.845  27.706  35.950  1.00  0.00     0.173 A 
ATOM     97  C   UNL A   1      45.258  29.323  34.869  1.00  0.00     0.173 A 
ATOM     98  F   UNL A   1      42.636  27.185  36.207  1.00  0.00    -0.203 F 
ATOM     99  C   UNL A   1      44.960  27.161  36.583  1.00  0.00     0.198 A 
ATOM    100  C   UNL A   1      46.373  28.753  35.476  1.00  0.00     0.198 A 
ATOM    101  F   UNL A   1      45.435  30.371  34.051  1.00  0.00    -0.203 F 
ATOM    102  F   UNL A   1      44.807  26.143  37.442  1.00  0.00    -0.200 F 
ATOM    103  C   UNL A   1      46.223  27.680  36.339  1.00  0.00     0.200 A 
ATOM    104  F   UNL A   1      47.595  29.246  35.226  1.00  0.00    -0.200 F 
ATOM    105  F   UNL A   1      47.294  27.148  36.944  1.00  0.00    -0.200 F 
ENDBRANCH  72  95
ENDBRANCH  46  47
ENDBRANCH  38  41
ENDBRANCH  36  37
ENDBRANCH  35  36
ENDBRANCH  34  35
ENDBRANCH   1  34
TORSDOF 16
ENDMDL
MODEL 2
REMARK VINA RESULT:     -13.8      0.127      1.854
REMARK SMILES Cc1ccc2[nH]cc([C@@H](C(=O)NCCCCCCNC(=O)c3ccc(-c4c5nc(c(-c6c(F)c(F)c(F)c(F)c6F)c6ccc([nH]6)c(-c6c(F)c(F)c(F)c(F)c6F)c6nc(c(-c7c(F)c(F)c(F)c(F)c7F)c7ccc4[nH]7)C=C6)C=C5)cc3)[NH+]3CCN(c4cccc(Cl)c4)CC3)c2c1
REMARK SMILES IDX 15 1 14 2 13 3 12 4 10 5 11 6 9 8 8 9 1 10 2 11 3 12 99 13
REMARK SMILES IDX 4 14 98 15 5 16 6 17 7 18 85 20 86 21 97 22 87 24 96 25
REMARK SMILES IDX 88 26 89 27 90 28 95 29 91 30 93 31 92 32 94 33 16 34 17 35
REMARK SMILES IDX 18 36 19 37 20 38 21 40 22 41 23 42 84 43 24 44 83 45 25 46
REMARK SMILES IDX 26 47 27 48 77 49 28 50 82 51 76 52 78 53 29 54 81 55 75 56
REMARK SMILES IDX 74 57 30 59 62 60 42 61 61 62 43 63 46 64 60 65 79 66 44 67
REMARK SMILES IDX 45 68 59 70 80 71 47 72 31 73 32 74 40 75 33 76 34 77 38 78
REMARK SMILES IDX 41 79 35 80 36 81 39 82 37 83 63 84 64 85 72 86 65 87 66 88
REMARK SMILES IDX 70 89 73 90 67 91 68 92 71 93 69 94 48 95 49 96 57 97 50 98
REMARK SMILES IDX 51 99 55 100 58 101 52 102 53 103 56 104 54 105
REMARK H PARENT 12 7 6 19 85 23 19 39 78 58 46 69
REMARK Flexibility Score: inf
ROOT
ATOM      1  C   UNL A   1      32.264  29.855  26.941  1.00  0.00     0.002 C 
ENDROOT
BRANCH   1   2
ATOM      2  C   UNL A   1      33.585  29.292  26.410  1.00  0.00     0.021 C 
BRANCH   2   3
ATOM      3  C   UNL A   1      33.678  27.771  26.507  1.00  0.00     0.116 C 
BRANCH   3   4
ATOM      4  N   UNL A   1      32.389  27.196  26.817  1.00  0.00    -0.351 N 
ATOM      5  C   UNL A   1      31.467  26.642  25.967  1.00  0.00     0.283 C 
ATOM      6  O   UNL A   1      30.382  26.345  26.477  1.00  0.00    -0.268 OA
ATOM      7  H   UNL A   1      32.138  27.205  27.769  1.00  0.00     0.163 HD
BRANCH   5   8
ATOM      8  C   UNL A   1      31.863  26.352  24.479  1.00  0.00     0.307 C 
BRANCH   8   9
ATOM      9  C   UNL A   1      31.665  27.535  23.558  1.00  0.00     0.044 A 
ATOM     10  C   UNL A   1      26.597  28.353  23.364  1.00  0.00     0.044 C 
ATOM     11  C   UNL A   1      28.027  28.717  23.089  1.00  0.00    -0.050 A 
ATOM     12  C   UNL A   1      28.342  29.805  22.272  1.00  0.00     0.005 A 
ATOM     13  C   UNL A   1      29.060  27.925  23.619  1.00  0.00     0.014 A 
ATOM     14  C   UNL A   1      29.665  30.097  21.925  1.00  0.00     0.027 A 
ATOM     15  C   UNL A   1      30.405  28.176  23.259  1.00  0.00     0.009 A 
ATOM     16  C   UNL A   1      30.665  29.243  22.401  1.00  0.00     0.046 A 
ATOM     17  N   UNL A   1      32.015  29.240  22.152  1.00  0.00    -0.361 N 
ATOM     18  C   UNL A   1      32.605  28.168  22.764  1.00  0.00     0.094 A 
ATOM     19  H   UNL A   1      32.490  29.912  21.610  1.00  0.00     0.166 HD
ENDBRANCH   8   9
BRANCH   8  20
ATOM     20  N   UNL A   1      31.262  25.093  23.976  1.00  0.00    -0.318 N 
ATOM     21  C   UNL A   1      31.859  24.456  22.791  1.00  0.00     0.284 C 
ATOM     22  C   UNL A   1      30.969  24.084  25.006  1.00  0.00     0.284 C 
ATOM     23  H   UNL A   1      30.382  25.483  23.640  1.00  0.00     0.349 HD
ATOM     24  C   UNL A   1      32.986  23.429  23.020  1.00  0.00     0.178 C 
ATOM     25  C   UNL A   1      32.112  23.101  25.350  1.00  0.00     0.178 C 
ATOM     26  N   UNL A   1      32.704  22.524  24.137  1.00  0.00    -0.360 N 
BRANCH  26  27
ATOM     27  C   UNL A   1      33.595  21.474  24.333  1.00  0.00     0.038 A 
ATOM     28  C   UNL A   1      33.194  20.130  24.360  1.00  0.00     0.026 A 
ATOM     29  C   UNL A   1      34.945  21.770  24.543  1.00  0.00     0.046 A 
ATOM     30  C   UNL A   1      34.110  19.110  24.632  1.00  0.00     0.004 A 
ATOM     31  C   UNL A   1      35.856  20.756  24.825  1.00  0.00     0.043 A 
ATOM     32  C   UNL A   1      35.444  19.427  24.877  1.00  0.00     0.020 A 
ATOM     33  Cl  UNL A   1      37.501  21.154  25.135  1.00  0.00    -0.084 Cl
ENDBRANCH  26  27
ENDBRANCH   8  20
ENDBRANCH   5   8
ENDBRANCH   3   4
ENDBRANCH   2   3
ENDBRANCH   1   2
BRANCH   1  34
ATOM     34  C   UNL A   1      31.574  30.840  25.993  1.00  0.00     0.002 C 
BRANCH  34  35
ATOM     35  C   UNL A   1      31.360  32.236  26.583  1.00  0.00     0.021 C 
BRANCH  35  36
ATOM     36  C   UNL A   1      32.597  32.818  27.256  1.00  0.00     0.116 C 
BRANCH  36  37
ATOM     37  N   UNL A   1      32.415  34.224  27.581  1.00  0.00    -0.352 N 
ATOM     38  C   UNL A   1      32.992  34.961  28.583  1.00  0.00     0.251 C 
ATOM     39  H   UNL A   1      31.790  34.715  27.001  1.00  0.00     0.163 HD
ATOM     40  O   UNL A   1      32.550  36.064  28.880  1.00  0.00    -0.269 OA
BRANCH  38  41
ATOM     41  C   UNL A   1      34.151  34.407  29.311  1.00  0.00     0.039 A 
ATOM     42  C   UNL A   1      33.936  33.723  30.508  1.00  0.00     0.014 A 
ATOM     43  C   UNL A   1      35.447  34.569  28.811  1.00  0.00     0.014 A 
ATOM     44  C   UNL A   1      35.019  33.155  31.180  1.00  0.00     0.010 A 
ATOM     45  C   UNL A   1      36.513  33.936  29.437  1.00  0.00     0.010 A 
ATOM     46  C   UNL A   1      36.311  33.231  30.633  1.00  0.00    -0.014 A 
BRANCH  46  47
ATOM     47  C   UNL A   1      37.467  32.586  31.303  1.00  0.00     0.031 A 
ATOM     48  C   UNL A   1      38.192  31.455  30.629  1.00  0.00     0.074 A 
ATOM     49  C   UNL A   1      37.827  32.983  32.538  1.00  0.00     0.049 A 
ATOM     50  N   UNL A   1      39.184  30.726  31.073  1.00  0.00    -0.248 NA
ATOM     51  C   UNL A   1      37.721  31.073  29.289  1.00  0.00     0.031 C 
ATOM     52  C   UNL A   1      37.174  34.041  33.309  1.00  0.00     0.029 A 
ATOM     53  N   UNL A   1      38.826  32.537  33.366  1.00  0.00    -0.354 N 
ATOM     54  C   UNL A   1      39.449  29.799  30.073  1.00  0.00     0.074 A 
ATOM     55  C   UNL A   1      38.471  30.013  29.028  1.00  0.00     0.031 C 
ATOM     56  C   UNL A   1      37.808  34.184  34.484  1.00  0.00     0.029 A 
ATOM     57  C   UNL A   1      38.881  33.198  34.568  1.00  0.00     0.049 A 
ATOM     58  H   UNL A   1      39.445  31.811  33.121  1.00  0.00     0.167 HD
ATOM     59  C   UNL A   1      40.435  28.872  30.019  1.00  0.00     0.037 A 
ATOM     60  C   UNL A   1      39.702  33.024  35.620  1.00  0.00     0.037 A 
ATOM     61  C   UNL A   1      41.412  28.672  31.057  1.00  0.00     0.049 A 
ATOM     62  C   UNL A   1      40.768  31.963  35.549  1.00  0.00     0.074 A 
ATOM     63  C   UNL A   1      42.478  27.792  31.081  1.00  0.00     0.029 A 
ATOM     64  N   UNL A   1      41.435  29.361  32.261  1.00  0.00    -0.354 N 
ATOM     65  N   UNL A   1      41.051  31.137  34.571  1.00  0.00    -0.248 NA
ATOM     66  C   UNL A   1      41.631  31.815  36.728  1.00  0.00     0.031 C 
ATOM     67  C   UNL A   1      43.114  27.908  32.321  1.00  0.00     0.029 A 
ATOM     68  C   UNL A   1      42.482  28.905  33.047  1.00  0.00     0.049 A 
ATOM     69  H   UNL A   1      40.802  30.069  32.520  1.00  0.00     0.167 HD
ATOM     70  C   UNL A   1      42.144  30.397  35.000  1.00  0.00     0.074 A 
ATOM     71  C   UNL A   1      42.480  30.882  36.323  1.00  0.00     0.031 C 
ATOM     72  C   UNL A   1      42.810  29.405  34.358  1.00  0.00     0.037 A 
BRANCH  59  73
ATOM     73  C   UNL A   1      40.502  28.003  28.795  1.00  0.00     0.064 A 
ATOM     74  C   UNL A   1      39.808  26.785  28.715  1.00  0.00     0.173 A 
ATOM     75  C   UNL A   1      41.250  28.403  27.676  1.00  0.00     0.173 A 
ATOM     76  F   UNL A   1      39.088  26.348  29.759  1.00  0.00    -0.203 F 
ATOM     77  C   UNL A   1      39.892  25.983  27.579  1.00  0.00     0.198 A 
ATOM     78  C   UNL A   1      41.302  27.616  26.529  1.00  0.00     0.198 A 
ATOM     79  F   UNL A   1      41.928  29.560  27.693  1.00  0.00    -0.203 F 
ATOM     80  F   UNL A   1      39.269  24.796  27.552  1.00  0.00    -0.200 F 
ATOM     81  C   UNL A   1      40.631  26.403  26.484  1.00  0.00     0.200 A 
ATOM     82  F   UNL A   1      42.005  28.030  25.466  1.00  0.00    -0.200 F 
ATOM     83  F   UNL A   1      40.707  25.633  25.389  1.00  0.00    -0.200 F 
ENDBRANCH  59  73
BRANCH  60  84
ATOM     84  C   UNL A   1      39.567  33.888  36.822  1.00  0.00     0.064 A 
ATOM     85  C   UNL A   1      40.202  35.137  36.885  1.00  0.00     0.173 A 
ATOM     86  C   UNL A   1      38.812  33.485  37.934  1.00  0.00     0.173 A 
ATOM     87  F   UNL A   1      40.950  35.559  35.855  1.00  0.00    -0.203 F 
ATOM     88  C   UNL A   1      40.109  35.937  38.021  1.00  0.00     0.198 A 
ATOM     89  C   UNL A   1      38.693  34.301  39.057  1.00  0.00     0.198 A 
ATOM     90  F   UNL A   1      38.179  32.303  37.923  1.00  0.00    -0.203 F 
ATOM     91  F   UNL A   1      40.769  37.101  38.074  1.00  0.00    -0.200 F 
ATOM     92  C   UNL A   1      39.350  35.521  39.105  1.00  0.00     0.200 A 
ATOM     93  F   UNL A   1      37.945  33.901  40.095  1.00  0.00    -0.200 F 
ATOM     94  F   UNL A   1      39.257  36.291  40.197  1.00  0.00    -0.200 F 
ENDBRANCH  60  84
BRANCH  72  95
ATOM     95  C   UNL A   1      43.997  28.807  35.057  1.00  0.00     0.064 A 
ATOM     96  C   UNL A   1      45.291  29.325  34.894  1.00  0.00     0.173 A 
ATOM     97  C   UNL A   1      43.832  27.722  35.933  1.00  0.00     0.173 A 
ATOM     98  F   UNL A   1      45.507  30.352  34.057  1.00  0.00    -0.203 F 
ATOM     99  C   UNL A   1      46.377  28.762  35.558  1.00  0.00     0.198 A 
ATOM    100  C   UNL A   1      44.915  27.185  36.622  1.00  0.00     0.198 A 
ATOM    101  F   UNL A   1      42.615  27.194  36.132  1.00  0.00    -0.203 F 
ATOM    102  F   UNL A   1      47.612  29.240  35.344  1.00  0.00    -0.200 F 
ATOM    103  C   UNL A   1      46.187  27.699  36.428  1.00  0.00     0.200 A 
ATOM    104  F   UNL A   1      44.726  26.167  37.475  1.00  0.00    -0.200 F 
ATOM    105  F   UNL A   1      47.233  27.163  37.072  1.00  0.00    -0.200 F 
ENDBRANCH  72  95
ENDBRANCH  46  47
ENDBRANCH  38  41
ENDBRANCH  36  37
ENDBRANCH  35  36
ENDBRANCH  34  35
ENDBRANCH   1  34
TORSDOF 16
ENDMDL
MODEL 3
REMARK VINA RESULT:     -13.7      0.768      6.994
REMARK SMILES Cc1ccc2[nH]cc([C@@H](C(=O)NCCCCCCNC(=O)c3ccc(-c4c5nc(c(-c6c(F)c(F)c(F)c(F)c6F)c6ccc([nH]6)c(-c6c(F)c(F)c(F)c(F)c6F)c6nc(c(-c7c(F)c(F)c(F)c(F)c7F)c7ccc4[nH]7)C=C6)C=C5)cc3)[NH+]3CCN(c4cccc(Cl)c4)CC3)c2c1
REMARK SMILES IDX 15 1 14 2 13 3 12 4 10 5 11 6 9 8 8 9 1 10 2 11 3 12 99 13
REMARK SMILES IDX 4 14 98 15 5 16 6 17 7 18 85 20 86 21 97 22 87 24 96 25
REMARK SMILES IDX 88 26 89 27 90 28 95 29 91 30 93 31 92 32 94 33 16 34 17 35
REMARK SMILES IDX 18 36 19 37 20 38 21 40 22 41 23 42 84 43 24 44 83 45 25 46
REMARK SMILES IDX 26 47 27 48 77 49 28 50 82 51 76 52 78 53 29 54 81 55 75 56
REMARK SMILES IDX 74 57 30 59 62 60 42 61 61 62 43 63 46 64 60 65 79 66 44 67
REMARK SMILES IDX 45 68 59 70 80 71 47 72 31 73 32 74 40 75 33 76 34 77 38 78
REMARK SMILES IDX 41 79 35 80 36 81 39 82 37 83 63 84 64 85 72 86 65 87 66 88
REMARK SMILES IDX 70 89 73 90 67 91 68 92 71 93 69 94 48 95 49 96 57 97 50 98
REMARK SMILES IDX 51 99 55 100 58 101 52 102 53 103 56 104 54 105
REMARK H PARENT 12 7 6 19 85 23 19 39 78 58 46 69
REMARK Flexibility Score: inf
ROOT
ATOM      1  C   UNL A   1      32.148  29.910  26.843  1.00  0.00     0.002 C 
ENDROOT
BRANCH   1   2
ATOM      2  C   UNL A   1      33.466  29.371  26.280  1.00  0.00     0.021 C 
BRANCH   2   3
ATOM      3  C   UNL A   1      33.658  27.874  26.513  1.00  0.00     0.116 C 
BRANCH   3   4
ATOM      4  N   UNL A   1      32.396  27.234  26.806  1.00  0.00    -0.351 N 
ATOM      5  C   UNL A   1      31.509  26.646  25.941  1.00  0.00     0.283 C 
ATOM      6  O   UNL A   1      30.436  26.291  26.438  1.00  0.00    -0.268 OA
ATOM      7  H   UNL A   1      32.136  27.220  27.756  1.00  0.00     0.163 HD
BRANCH   5   8
ATOM      8  C   UNL A   1      31.931  26.391  24.454  1.00  0.00     0.307 C 
BRANCH   8   9
ATOM      9  C   UNL A   1      31.705  27.582  23.550  1.00  0.00     0.044 A 
ATOM     10  C   UNL A   1      26.620  28.288  23.373  1.00  0.00     0.044 C 
ATOM     11  C   UNL A   1      28.040  28.688  23.101  1.00  0.00    -0.050 A 
ATOM     12  C   UNL A   1      28.330  29.794  22.298  1.00  0.00     0.005 A 
ATOM     13  C   UNL A   1      29.092  27.913  23.619  1.00  0.00     0.014 A 
ATOM     14  C   UNL A   1      29.645  30.119  21.953  1.00  0.00     0.027 A 
ATOM     15  C   UNL A   1      30.431  28.198  23.260  1.00  0.00     0.009 A 
ATOM     16  C   UNL A   1      30.665  29.282  22.417  1.00  0.00     0.046 A 
ATOM     17  N   UNL A   1      32.015  29.313  22.166  1.00  0.00    -0.361 N 
ATOM     18  C   UNL A   1      32.630  28.247  22.763  1.00  0.00     0.094 A 
ATOM     19  H   UNL A   1      32.473  30.002  21.632  1.00  0.00     0.166 HD
ENDBRANCH   8   9
BRANCH   8  20
ATOM     20  N   UNL A   1      31.377  25.122  23.925  1.00  0.00    -0.318 N 
ATOM     21  C   UNL A   1      32.059  24.480  22.790  1.00  0.00     0.284 C 
ATOM     22  C   UNL A   1      31.024  24.120  24.943  1.00  0.00     0.284 C 
ATOM     23  H   UNL A   1      30.519  25.500  23.526  1.00  0.00     0.349 HD
ATOM     24  C   UNL A   1      33.177  23.466  23.106  1.00  0.00     0.178 C 
ATOM     25  C   UNL A   1      32.150  23.152  25.374  1.00  0.00     0.178 C 
ATOM     26  N   UNL A   1      32.828  22.569  24.210  1.00  0.00    -0.360 N 
BRANCH  26  27
ATOM     27  C   UNL A   1      33.714  21.530  24.477  1.00  0.00     0.038 A 
ATOM     28  C   UNL A   1      35.065  21.744  24.791  1.00  0.00     0.026 A 
ATOM     29  C   UNL A   1      33.248  20.215  24.402  1.00  0.00     0.046 A 
ATOM     30  C   UNL A   1      35.938  20.669  24.982  1.00  0.00     0.004 A 
ATOM     31  C   UNL A   1      34.119  19.143  24.582  1.00  0.00     0.043 A 
ATOM     32  C   UNL A   1      35.465  19.364  24.866  1.00  0.00     0.020 A 
ATOM     33  Cl  UNL A   1      33.530  17.534  24.429  1.00  0.00    -0.084 Cl
ENDBRANCH  26  27
ENDBRANCH   8  20
ENDBRANCH   5   8
ENDBRANCH   3   4
ENDBRANCH   2   3
ENDBRANCH   1   2
BRANCH   1  34
ATOM     34  C   UNL A   1      31.432  30.904  25.925  1.00  0.00     0.002 C 
BRANCH  34  35
ATOM     35  C   UNL A   1      31.293  32.312  26.508  1.00  0.00     0.021 C 
BRANCH  35  36
ATOM     36  C   UNL A   1      32.565  32.836  27.165  1.00  0.00     0.116 C 
BRANCH  36  37
ATOM     37  N   UNL A   1      32.415  34.221  27.586  1.00  0.00    -0.352 N 
ATOM     38  C   UNL A   1      33.028  34.880  28.621  1.00  0.00     0.251 C 
ATOM     39  H   UNL A   1      31.786  34.759  27.055  1.00  0.00     0.163 HD
ATOM     40  O   UNL A   1      32.612  35.968  28.999  1.00  0.00    -0.269 OA
BRANCH  38  41
ATOM     41  C   UNL A   1      34.193  34.261  29.283  1.00  0.00     0.039 A 
ATOM     42  C   UNL A   1      33.983  33.420  30.377  1.00  0.00     0.014 A 
ATOM     43  C   UNL A   1      35.489  34.516  28.823  1.00  0.00     0.014 A 
ATOM     44  C   UNL A   1      35.073  32.792  30.980  1.00  0.00     0.010 A 
ATOM     45  C   UNL A   1      36.564  33.829  29.373  1.00  0.00     0.010 A 
ATOM     46  C   UNL A   1      36.368  32.968  30.464  1.00  0.00    -0.014 A 
BRANCH  46  47
ATOM     47  C   UNL A   1      37.533  32.265  31.056  1.00  0.00     0.031 A 
ATOM     48  C   UNL A   1      38.028  32.650  32.423  1.00  0.00     0.074 A 
ATOM     49  C   UNL A   1      38.175  31.322  30.342  1.00  0.00     0.049 A 
ATOM     50  N   UNL A   1      39.062  32.198  33.086  1.00  0.00    -0.248 NA
ATOM     51  C   UNL A   1      37.279  33.703  33.125  1.00  0.00     0.031 C 
ATOM     52  C   UNL A   1      37.813  30.893  28.990  1.00  0.00     0.029 A 
ATOM     53  N   UNL A   1      39.274  30.560  30.649  1.00  0.00    -0.354 N 
ATOM     54  C   UNL A   1      39.089  32.914  34.276  1.00  0.00     0.074 A 
ATOM     55  C   UNL A   1      38.010  33.877  34.215  1.00  0.00     0.031 C 
ATOM     56  C   UNL A   1      38.653  29.923  28.598  1.00  0.00     0.029 A 
ATOM     57  C   UNL A   1      39.640  29.694  29.649  1.00  0.00     0.049 A 
ATOM     58  H   UNL A   1      39.753  30.627  31.507  1.00  0.00     0.167 HD
ATOM     59  C   UNL A   1      39.921  32.765  35.334  1.00  0.00     0.037 A 
ATOM     60  C   UNL A   1      40.660  28.819  29.586  1.00  0.00     0.037 A 
ATOM     61  C   UNL A   1      40.985  31.796  35.392  1.00  0.00     0.049 A 
ATOM     62  C   UNL A   1      41.593  28.696  30.762  1.00  0.00     0.074 A 
ATOM     63  C   UNL A   1      41.856  31.533  36.434  1.00  0.00     0.029 A 
ATOM     64  N   UNL A   1      41.327  30.937  34.358  1.00  0.00    -0.354 N 
ATOM     65  N   UNL A   1      41.569  29.332  31.908  1.00  0.00    -0.248 NA
ATOM     66  C   UNL A   1      42.691  27.729  30.635  1.00  0.00     0.031 C 
ATOM     67  C   UNL A   1      42.760  30.553  36.011  1.00  0.00     0.029 A 
ATOM     68  C   UNL A   1      42.414  30.161  34.728  1.00  0.00     0.049 A 
ATOM     69  H   UNL A   1      40.866  30.886  33.490  1.00  0.00     0.167 HD
ATOM     70  C   UNL A   1      42.623  28.819  32.651  1.00  0.00     0.074 A 
ATOM     71  C   UNL A   1      43.259  27.809  31.830  1.00  0.00     0.031 C 
ATOM     72  C   UNL A   1      43.030  29.153  33.902  1.00  0.00     0.037 A 
BRANCH  59  73
ATOM     73  C   UNL A   1      39.712  33.672  36.513  1.00  0.00     0.064 A 
ATOM     74  C   UNL A   1      40.365  34.910  36.617  1.00  0.00     0.173 A 
ATOM     75  C   UNL A   1      38.829  33.310  37.544  1.00  0.00     0.173 A 
ATOM     76  F   UNL A   1      41.229  35.300  35.669  1.00  0.00    -0.203 F 
ATOM     77  C   UNL A   1      40.172  35.734  37.724  1.00  0.00     0.198 A 
ATOM     78  C   UNL A   1      38.611  34.153  38.630  1.00  0.00     0.198 A 
ATOM     79  F   UNL A   1      38.173  32.142  37.494  1.00  0.00    -0.203 F 
ATOM     80  F   UNL A   1      40.854  36.883  37.829  1.00  0.00    -0.200 F 
ATOM     81  C   UNL A   1      39.289  35.358  38.725  1.00  0.00     0.200 A 
ATOM     82  F   UNL A   1      37.747  33.795  39.590  1.00  0.00    -0.200 F 
ATOM     83  F   UNL A   1      39.100  36.153  39.787  1.00  0.00    -0.200 F 
ENDBRANCH  59  73
BRANCH  60  84
ATOM     84  C   UNL A   1      40.843  27.972  28.378  1.00  0.00     0.064 A 
ATOM     85  C   UNL A   1      40.257  26.700  28.296  1.00  0.00     0.173 A 
ATOM     86  C   UNL A   1      41.610  28.406  27.287  1.00  0.00     0.173 A 
ATOM     87  F   UNL A   1      39.529  26.233  29.321  1.00  0.00    -0.203 F 
ATOM     88  C   UNL A   1      40.452  25.887  27.182  1.00  0.00     0.198 A 
ATOM     89  C   UNL A   1      41.778  27.605  26.159  1.00  0.00     0.198 A 
ATOM     90  F   UNL A   1      42.188  29.617  27.311  1.00  0.00    -0.203 F 
ATOM     91  F   UNL A   1      39.923  24.657  27.154  1.00  0.00    -0.200 F 
ATOM     92  C   UNL A   1      41.208  26.342  26.112  1.00  0.00     0.200 A 
ATOM     93  F   UNL A   1      42.496  28.055  25.121  1.00  0.00    -0.200 F 
ATOM     94  F   UNL A   1      41.393  25.561  25.040  1.00  0.00    -0.200 F 
ENDBRANCH  60  84
BRANCH  72  95
ATOM     95  C   UNL A   1      44.188  28.390  34.476  1.00  0.00     0.064 A 
ATOM     96  C   UNL A   1      45.508  28.855  34.369  1.00  0.00     0.173 A 
ATOM     97  C   UNL A   1      43.971  27.192  35.177  1.00  0.00     0.173 A 
ATOM     98  F   UNL A   1      45.773  29.986  33.697  1.00  0.00    -0.203 F 
ATOM     99  C   UNL A   1      46.567  28.136  34.917  1.00  0.00     0.198 A 
ATOM    100  C   UNL A   1      45.029  26.496  35.753  1.00  0.00     0.198 A 
ATOM    101  F   UNL A   1      42.728  26.707  35.315  1.00  0.00    -0.203 F 
ATOM    102  F   UNL A   1      47.824  28.573  34.755  1.00  0.00    -0.200 F 
ATOM    103  C   UNL A   1      46.326  26.963  35.615  1.00  0.00     0.200 A 
ATOM    104  F   UNL A   1      44.791  25.370  36.442  1.00  0.00    -0.200 F 
ATOM    105  F   UNL A   1      47.347  26.277  36.148  1.00  0.00    -0.200 F 
ENDBRANCH  72  95
ENDBRANCH  46  47
ENDBRANCH  38  41
ENDBRANCH  36  37
ENDBRANCH  35  36
ENDBRANCH  34  35
ENDBRANCH   1  34
TORSDOF 16
ENDMDL
