MODEL 1
REMARK VINA RESULT:      -9.0      0.000      0.000
REMARK SMILES C[C@@H](C(=O)NCCCCCCNC(=O)c1ccc(-c2c3nc(c(-c4c(F)c(F)c(F)c(F)c4F)c4ccc([nH]4)c(-c4c(F)c(F)c(F)c(F)c4F)c4nc(c(-c5c(F)c(F)c(F)c(F)c5F)c5ccc2[nH]5)C=C4)C=C3)cc1)c1ccc(-c2cccc(OC(=O)NCCCc3ccccc3)c2)c(F)c1
REMARK SMILES IDX 3 1 4 2 5 3 2 5 1 6 78 7 79 8 103 9 80 10 101 11 81 12
REMARK SMILES IDX 102 13 82 14 83 15 100 16 84 17 86 18 85 19 87 20 88 21
REMARK SMILES IDX 89 22 90 23 91 25 92 26 93 27 94 28 95 29 99 30 96 31 98 32
REMARK SMILES IDX 97 33 6 34 7 35 8 36 9 37 10 38 11 39 12 40 13 41 14 43
REMARK SMILES IDX 15 44 16 45 77 46 17 47 76 48 18 49 19 50 20 51 70 52 21 53
REMARK SMILES IDX 75 54 69 55 71 56 22 57 74 58 68 59 67 60 23 62 55 63 35 64
REMARK SMILES IDX 54 65 36 66 39 67 53 68 72 69 37 70 38 71 52 73 73 74 40 75
REMARK SMILES IDX 24 76 25 77 33 78 26 79 27 80 31 81 34 82 28 83 29 84 32 85
REMARK SMILES IDX 30 86 56 87 57 88 65 89 58 90 59 91 63 92 66 93 60 94 61 95
REMARK SMILES IDX 64 96 62 97 41 98 42 99 50 100 43 101 44 102 48 103 51 104
REMARK SMILES IDX 45 105 46 106 49 107 47 108
REMARK H PARENT 5 4 90 24 12 42 71 61 39 72
REMARK Flexibility Score: inf
ROOT
ATOM      1  C   UNL A   1      41.396  26.099  27.297  1.00  0.00     0.227 C 
ATOM      2  O   UNL A   1      41.240  26.474  26.135  1.00  0.00    -0.274 OA
ATOM      3  N   UNL A   1      42.648  25.689  27.648  1.00  0.00    -0.356 N 
ATOM      4  H   UNL A   1      43.372  25.974  27.045  1.00  0.00     0.163 HD
ENDROOT
BRANCH   1   5
ATOM      5  C   UNL A   1      40.281  26.137  28.359  1.00  0.00     0.105 C 
ATOM      6  C   UNL A   1      39.050  25.343  27.897  1.00  0.00     0.023 C 
BRANCH   5   7
ATOM      7  C   UNL A   1      39.953  27.573  28.768  1.00  0.00    -0.033 A 
ATOM      8  C   UNL A   1      38.910  28.264  28.121  1.00  0.00     0.005 A 
ATOM      9  C   UNL A   1      40.656  28.242  29.776  1.00  0.00     0.044 A 
ATOM     10  C   UNL A   1      38.574  29.573  28.482  1.00  0.00     0.012 A 
ATOM     11  C   UNL A   1      40.324  29.544  30.121  1.00  0.00     0.131 A 
ATOM     12  C   UNL A   1      39.290  30.238  29.483  1.00  0.00     0.018 A 
ATOM     13  F   UNL A   1      41.049  30.139  31.082  1.00  0.00    -0.206 F 
BRANCH  12  14
ATOM     14  C   UNL A   1      39.053  31.648  29.788  1.00  0.00    -0.012 A 
ATOM     15  C   UNL A   1      39.980  32.446  30.470  1.00  0.00     0.009 A 
ATOM     16  C   UNL A   1      37.851  32.228  29.356  1.00  0.00     0.056 A 
ATOM     17  C   UNL A   1      39.713  33.799  30.698  1.00  0.00     0.004 A 
ATOM     18  C   UNL A   1      37.581  33.567  29.590  1.00  0.00     0.133 A 
ATOM     19  C   UNL A   1      38.514  34.362  30.257  1.00  0.00     0.047 A 
BRANCH  18  20
ATOM     20  O   UNL A   1      36.408  34.216  29.148  1.00  0.00    -0.410 OA
BRANCH  20  21
ATOM     21  C   UNL A   1      35.245  33.575  28.717  1.00  0.00     0.412 C 
ATOM     22  O   UNL A   1      35.043  33.069  27.623  1.00  0.00    -0.224 OA
ATOM     23  N   UNL A   1      34.276  33.529  29.678  1.00  0.00    -0.321 N 
ATOM     24  H   UNL A   1      33.393  33.188  29.411  1.00  0.00     0.167 HD
BRANCH  23  25
ATOM     25  C   UNL A   1      34.439  33.937  31.051  1.00  0.00     0.120 C 
BRANCH  25  26
ATOM     26  C   UNL A   1      34.758  32.794  32.011  1.00  0.00     0.026 C 
BRANCH  26  27
ATOM     27  C   UNL A   1      36.034  32.888  32.859  1.00  0.00     0.037 C 
BRANCH  27  28
ATOM     28  C   UNL A   1      36.987  31.719  32.950  1.00  0.00    -0.048 A 
ATOM     29  C   UNL A   1      36.720  30.432  32.474  1.00  0.00     0.004 A 
ATOM     30  C   UNL A   1      38.208  31.930  33.618  1.00  0.00     0.004 A 
ATOM     31  C   UNL A   1      37.637  29.392  32.658  1.00  0.00     0.000 A 
ATOM     32  C   UNL A   1      39.128  30.895  33.793  1.00  0.00     0.000 A 
ATOM     33  C   UNL A   1      38.840  29.622  33.316  1.00  0.00     0.000 A 
ENDBRANCH  27  28
ENDBRANCH  26  27
ENDBRANCH  25  26
ENDBRANCH  23  25
ENDBRANCH  20  21
ENDBRANCH  18  20
ENDBRANCH  12  14
ENDBRANCH   5   7
ENDBRANCH   1   5
BRANCH   3  34
ATOM     34  C   UNL A   1      43.062  24.895  28.784  1.00  0.00     0.116 C 
BRANCH  34  35
ATOM     35  C   UNL A   1      44.053  23.821  28.324  1.00  0.00     0.021 C 
BRANCH  35  36
ATOM     36  C   UNL A   1      45.057  24.320  27.278  1.00  0.00     0.002 C 
BRANCH  36  37
ATOM     37  C   UNL A   1      45.020  23.562  25.950  1.00  0.00     0.002 C 
BRANCH  37  38
ATOM     38  C   UNL A   1      46.337  23.578  25.172  1.00  0.00     0.021 C 
BRANCH  38  39
ATOM     39  C   UNL A   1      47.284  24.710  25.558  1.00  0.00     0.116 C 
BRANCH  39  40
ATOM     40  N   UNL A   1      47.499  25.632  24.456  1.00  0.00    -0.352 N 
ATOM     41  C   UNL A   1      47.069  26.923  24.300  1.00  0.00     0.251 C 
ATOM     42  H   UNL A   1      48.034  25.276  23.710  1.00  0.00     0.163 HD
ATOM     43  O   UNL A   1      47.160  27.471  23.206  1.00  0.00    -0.269 OA
BRANCH  41  44
ATOM     44  C   UNL A   1      46.480  27.656  25.440  1.00  0.00     0.039 A 
ATOM     45  C   UNL A   1      47.340  28.242  26.372  1.00  0.00     0.014 A 
ATOM     46  C   UNL A   1      45.094  27.739  25.617  1.00  0.00     0.014 A 
ATOM     47  C   UNL A   1      46.812  28.946  27.454  1.00  0.00     0.010 A 
ATOM     48  C   UNL A   1      44.569  28.505  26.657  1.00  0.00     0.010 A 
ATOM     49  C   UNL A   1      45.423  29.109  27.590  1.00  0.00    -0.014 A 
BRANCH  49  50
ATOM     50  C   UNL A   1      44.867  29.916  28.706  1.00  0.00     0.031 A 
ATOM     51  C   UNL A   1      44.508  29.270  30.016  1.00  0.00     0.074 A 
ATOM     52  C   UNL A   1      44.669  31.236  28.529  1.00  0.00     0.049 A 
ATOM     53  N   UNL A   1      44.027  29.819  31.104  1.00  0.00    -0.248 NA
ATOM     54  C   UNL A   1      44.693  27.814  30.112  1.00  0.00     0.031 C 
ATOM     55  C   UNL A   1      44.921  31.966  27.284  1.00  0.00     0.029 A 
ATOM     56  N   UNL A   1      44.212  32.200  29.391  1.00  0.00    -0.354 N 
ATOM     57  C   UNL A   1      43.862  28.780  32.011  1.00  0.00     0.074 A 
ATOM     58  C   UNL A   1      44.226  27.560  31.326  1.00  0.00     0.031 C 
ATOM     59  C   UNL A   1      44.641  33.266  27.472  1.00  0.00     0.029 A 
ATOM     60  C   UNL A   1      44.162  33.456  28.837  1.00  0.00     0.049 A 
ATOM     61  H   UNL A   1      43.945  32.009  30.319  1.00  0.00     0.167 HD
ATOM     62  C   UNL A   1      43.471  28.844  33.306  1.00  0.00     0.037 A 
ATOM     63  C   UNL A   1      43.773  34.629  29.371  1.00  0.00     0.037 A 
ATOM     64  C   UNL A   1      43.112  30.061  33.988  1.00  0.00     0.049 A 
ATOM     65  C   UNL A   1      43.341  34.669  30.811  1.00  0.00     0.074 A 
ATOM     66  C   UNL A   1      42.730  30.234  35.306  1.00  0.00     0.029 A 
ATOM     67  N   UNL A   1      43.091  31.318  33.399  1.00  0.00    -0.354 N 
ATOM     68  N   UNL A   1      43.254  33.690  31.678  1.00  0.00    -0.248 NA
ATOM     69  C   UNL A   1      42.968  35.983  31.353  1.00  0.00     0.031 C 
ATOM     70  C   UNL A   1      42.437  31.587  35.505  1.00  0.00     0.029 A 
ATOM     71  C   UNL A   1      42.688  32.267  34.325  1.00  0.00     0.049 A 
ATOM     72  H   UNL A   1      43.327  31.507  32.462  1.00  0.00     0.167 HD
ATOM     73  C   UNL A   1      42.841  34.269  32.869  1.00  0.00     0.074 A 
ATOM     74  C   UNL A   1      42.721  35.691  32.622  1.00  0.00     0.031 C 
ATOM     75  C   UNL A   1      42.574  33.679  34.061  1.00  0.00     0.037 A 
BRANCH  62  76
ATOM     76  C   UNL A   1      43.430  27.558  34.084  1.00  0.00     0.064 A 
ATOM     77  C   UNL A   1      44.598  26.988  34.612  1.00  0.00     0.173 A 
ATOM     78  C   UNL A   1      42.210  26.918  34.347  1.00  0.00     0.173 A 
ATOM     79  F   UNL A   1      45.791  27.553  34.379  1.00  0.00    -0.203 F 
ATOM     80  C   UNL A   1      44.549  25.810  35.355  1.00  0.00     0.198 A 
ATOM     81  C   UNL A   1      42.161  25.757  35.117  1.00  0.00     0.198 A 
ATOM     82  F   UNL A   1      41.063  27.423  33.871  1.00  0.00    -0.203 F 
ATOM     83  F   UNL A   1      45.682  25.261  35.812  1.00  0.00    -0.200 F 
ATOM     84  C   UNL A   1      43.331  25.201  35.615  1.00  0.00     0.200 A 
ATOM     85  F   UNL A   1      40.982  25.178  35.380  1.00  0.00    -0.200 F 
ATOM     86  F   UNL A   1      43.283  24.076  36.341  1.00  0.00    -0.200 F 
ENDBRANCH  62  76
BRANCH  63  87
ATOM     87  C   UNL A   1      43.787  35.865  28.544  1.00  0.00     0.064 A 
ATOM     88  C   UNL A   1      42.620  36.343  27.932  1.00  0.00     0.173 A 
ATOM     89  C   UNL A   1      44.973  36.583  28.333  1.00  0.00     0.173 A 
ATOM     90  F   UNL A   1      41.462  35.682  28.088  1.00  0.00    -0.203 F 
ATOM     91  C   UNL A   1      42.645  37.471  27.115  1.00  0.00     0.198 A 
ATOM     92  C   UNL A   1      44.991  37.730  27.543  1.00  0.00     0.198 A 
ATOM     93  F   UNL A   1      46.117  36.174  28.903  1.00  0.00    -0.203 F 
ATOM     94  F   UNL A   1      41.527  37.871  26.495  1.00  0.00    -0.200 F 
ATOM     95  C   UNL A   1      43.830  38.167  26.925  1.00  0.00     0.200 A 
ATOM     96  F   UNL A   1      46.134  38.409  27.378  1.00  0.00    -0.200 F 
ATOM     97  F   UNL A   1      43.853  39.251  26.139  1.00  0.00    -0.200 F 
ENDBRANCH  63  87
BRANCH  75  98
ATOM     98  C   UNL A   1      42.155  34.577  35.189  1.00  0.00     0.064 A 
ATOM     99  C   UNL A   1      40.807  34.892  35.417  1.00  0.00     0.173 A 
ATOM    100  C   UNL A   1      43.111  35.119  36.061  1.00  0.00     0.173 A 
ATOM    101  F   UNL A   1      39.853  34.410  34.604  1.00  0.00    -0.203 F 
ATOM    102  C   UNL A   1      40.435  35.748  36.451  1.00  0.00     0.198 A 
ATOM    103  C   UNL A   1      42.734  35.948  37.114  1.00  0.00     0.198 A 
ATOM    104  F   UNL A   1      44.414  34.843  35.893  1.00  0.00    -0.203 F 
ATOM    105  F   UNL A   1      39.148  36.085  36.609  1.00  0.00    -0.200 F 
ATOM    106  C   UNL A   1      41.398  36.270  37.301  1.00  0.00     0.200 A 
ATOM    107  F   UNL A   1      43.664  36.440  37.944  1.00  0.00    -0.200 F 
ATOM    108  F   UNL A   1      41.040  37.095  38.295  1.00  0.00    -0.200 F 
ENDBRANCH  75  98
ENDBRANCH  49  50
ENDBRANCH  41  44
ENDBRANCH  39  40
ENDBRANCH  38  39
ENDBRANCH  37  38
ENDBRANCH  36  37
ENDBRANCH  35  36
ENDBRANCH  34  35
ENDBRANCH   3  34
TORSDOF 21
ENDMDL
MODEL 2
REMARK VINA RESULT:      -9.0      3.050     11.465
REMARK SMILES C[C@@H](C(=O)NCCCCCCNC(=O)c1ccc(-c2c3nc(c(-c4c(F)c(F)c(F)c(F)c4F)c4ccc([nH]4)c(-c4c(F)c(F)c(F)c(F)c4F)c4nc(c(-c5c(F)c(F)c(F)c(F)c5F)c5ccc2[nH]5)C=C4)C=C3)cc1)c1ccc(-c2cccc(OC(=O)NCCCc3ccccc3)c2)c(F)c1
REMARK SMILES IDX 3 1 4 2 5 3 2 5 1 6 78 7 79 8 103 9 80 10 101 11 81 12
REMARK SMILES IDX 102 13 82 14 83 15 100 16 84 17 86 18 85 19 87 20 88 21
REMARK SMILES IDX 89 22 90 23 91 25 92 26 93 27 94 28 95 29 99 30 96 31 98 32
REMARK SMILES IDX 97 33 6 34 7 35 8 36 9 37 10 38 11 39 12 40 13 41 14 43
REMARK SMILES IDX 15 44 16 45 77 46 17 47 76 48 18 49 19 50 20 51 70 52 21 53
REMARK SMILES IDX 75 54 69 55 71 56 22 57 74 58 68 59 67 60 23 62 55 63 35 64
REMARK SMILES IDX 54 65 36 66 39 67 53 68 72 69 37 70 38 71 52 73 73 74 40 75
REMARK SMILES IDX 24 76 25 77 33 78 26 79 27 80 31 81 34 82 28 83 29 84 32 85
REMARK SMILES IDX 30 86 56 87 57 88 65 89 58 90 59 91 63 92 66 93 60 94 61 95
REMARK SMILES IDX 64 96 62 97 41 98 42 99 50 100 43 101 44 102 48 103 51 104
REMARK SMILES IDX 45 105 46 106 49 107 47 108
REMARK H PARENT 5 4 90 24 12 42 71 61 39 72
REMARK Flexibility Score: inf
ROOT
ATOM      1  C   UNL A   1      36.992  33.233  29.560  1.00  0.00     0.227 C 
ATOM      2  O   UNL A   1      37.603  33.913  28.734  1.00  0.00    -0.274 OA
ATOM      3  N   UNL A   1      35.630  33.249  29.481  1.00  0.00    -0.356 N 
ATOM      4  H   UNL A   1      35.258  33.572  28.629  1.00  0.00     0.163 HD
ENDROOT
BRANCH   1   5
ATOM      5  C   UNL A   1      37.685  32.338  30.604  1.00  0.00     0.105 C 
ATOM      6  C   UNL A   1      38.732  33.128  31.402  1.00  0.00     0.023 C 
BRANCH   5   7
ATOM      7  C   UNL A   1      38.248  31.070  29.961  1.00  0.00    -0.033 A 
ATOM      8  C   UNL A   1      37.369  30.097  29.447  1.00  0.00     0.005 A 
ATOM      9  C   UNL A   1      39.623  30.830  29.860  1.00  0.00     0.044 A 
ATOM     10  C   UNL A   1      37.851  28.933  28.838  1.00  0.00     0.012 A 
ATOM     11  C   UNL A   1      40.094  29.669  29.265  1.00  0.00     0.131 A 
ATOM     12  C   UNL A   1      39.228  28.697  28.752  1.00  0.00     0.018 A 
ATOM     13  F   UNL A   1      41.424  29.487  29.216  1.00  0.00    -0.206 F 
BRANCH  12  14
ATOM     14  C   UNL A   1      39.759  27.432  28.247  1.00  0.00    -0.012 A 
ATOM     15  C   UNL A   1      39.613  26.218  28.929  1.00  0.00     0.009 A 
ATOM     16  C   UNL A   1      40.424  27.438  27.012  1.00  0.00     0.056 A 
ATOM     17  C   UNL A   1      40.109  25.034  28.375  1.00  0.00     0.004 A 
ATOM     18  C   UNL A   1      40.925  26.266  26.467  1.00  0.00     0.133 A 
ATOM     19  C   UNL A   1      40.765  25.056  27.143  1.00  0.00     0.047 A 
BRANCH  18  20
ATOM     20  O   UNL A   1      41.570  26.202  25.213  1.00  0.00    -0.410 OA
BRANCH  20  21
ATOM     21  C   UNL A   1      42.648  26.996  24.818  1.00  0.00     0.412 C 
ATOM     22  O   UNL A   1      42.644  28.204  24.625  1.00  0.00    -0.224 OA
ATOM     23  N   UNL A   1      43.804  26.286  24.665  1.00  0.00    -0.321 N 
ATOM     24  H   UNL A   1      44.577  26.762  24.285  1.00  0.00     0.167 HD
BRANCH  23  25
ATOM     25  C   UNL A   1      43.987  24.900  25.014  1.00  0.00     0.120 C 
BRANCH  25  26
ATOM     26  C   UNL A   1      45.349  24.581  25.624  1.00  0.00     0.026 C 
BRANCH  26  27
ATOM     27  C   UNL A   1      45.438  24.372  27.142  1.00  0.00     0.037 C 
BRANCH  27  28
ATOM     28  C   UNL A   1      44.677  25.268  28.091  1.00  0.00    -0.048 A 
ATOM     29  C   UNL A   1      43.956  24.825  29.203  1.00  0.00     0.004 A 
ATOM     30  C   UNL A   1      44.644  26.644  27.795  1.00  0.00     0.004 A 
ATOM     31  C   UNL A   1      43.225  25.721  29.992  1.00  0.00     0.000 A 
ATOM     32  C   UNL A   1      43.925  27.540  28.587  1.00  0.00     0.000 A 
ATOM     33  C   UNL A   1      43.210  27.077  29.686  1.00  0.00     0.000 A 
ENDBRANCH  27  28
ENDBRANCH  26  27
ENDBRANCH  25  26
ENDBRANCH  23  25
ENDBRANCH  20  21
ENDBRANCH  18  20
ENDBRANCH  12  14
ENDBRANCH   5   7
ENDBRANCH   1   5
BRANCH   3  34
ATOM     34  C   UNL A   1      34.656  32.856  30.475  1.00  0.00     0.116 C 
BRANCH  34  35
ATOM     35  C   UNL A   1      34.436  34.009  31.461  1.00  0.00     0.021 C 
BRANCH  35  36
ATOM     36  C   UNL A   1      34.309  33.553  32.920  1.00  0.00     0.002 C 
BRANCH  36  37
ATOM     37  C   UNL A   1      35.641  33.247  33.608  1.00  0.00     0.002 C 
BRANCH  37  38
ATOM     38  C   UNL A   1      36.475  34.482  33.954  1.00  0.00     0.021 C 
BRANCH  38  39
ATOM     39  C   UNL A   1      37.740  34.184  34.753  1.00  0.00     0.116 C 
BRANCH  39  40
ATOM     40  N   UNL A   1      37.474  33.297  35.872  1.00  0.00    -0.352 N 
ATOM     41  C   UNL A   1      37.988  32.056  36.145  1.00  0.00     0.251 C 
ATOM     42  H   UNL A   1      36.828  33.637  36.533  1.00  0.00     0.163 HD
ATOM     43  O   UNL A   1      37.480  31.362  37.021  1.00  0.00    -0.269 OA
BRANCH  41  44
ATOM     44  C   UNL A   1      39.142  31.542  35.380  1.00  0.00     0.039 A 
ATOM     45  C   UNL A   1      38.897  30.727  34.272  1.00  0.00     0.014 A 
ATOM     46  C   UNL A   1      40.458  31.824  35.764  1.00  0.00     0.014 A 
ATOM     47  C   UNL A   1      39.967  30.232  33.527  1.00  0.00     0.010 A 
ATOM     48  C   UNL A   1      41.522  31.390  34.976  1.00  0.00     0.010 A 
ATOM     49  C   UNL A   1      41.288  30.583  33.854  1.00  0.00    -0.014 A 
BRANCH  49  50
ATOM     50  C   UNL A   1      42.420  30.110  33.017  1.00  0.00     0.031 A 
ATOM     51  C   UNL A   1      42.895  30.917  31.841  1.00  0.00     0.074 A 
ATOM     52  C   UNL A   1      43.010  28.936  33.312  1.00  0.00     0.049 A 
ATOM     53  N   UNL A   1      43.876  30.668  31.009  1.00  0.00    -0.248 NA
ATOM     54  C   UNL A   1      42.160  32.157  31.544  1.00  0.00     0.031 C 
ATOM     55  C   UNL A   1      42.599  28.034  34.390  1.00  0.00     0.029 A 
ATOM     56  N   UNL A   1      44.078  28.297  32.734  1.00  0.00    -0.354 N 
ATOM     57  C   UNL A   1      43.880  31.720  30.102  1.00  0.00     0.074 A 
ATOM     58  C   UNL A   1      42.762  32.573  30.440  1.00  0.00     0.031 C 
ATOM     59  C   UNL A   1      43.423  26.973  34.414  1.00  0.00     0.029 A 
ATOM     60  C   UNL A   1      44.397  27.104  33.335  1.00  0.00     0.049 A 
ATOM     61  H   UNL A   1      44.569  28.660  31.962  1.00  0.00     0.167 HD
ATOM     62  C   UNL A   1      44.755  31.966  29.098  1.00  0.00     0.037 A 
ATOM     63  C   UNL A   1      45.367  26.216  33.048  1.00  0.00     0.037 A 
ATOM     64  C   UNL A   1      45.871  31.117  28.766  1.00  0.00     0.049 A 
ATOM     65  C   UNL A   1      46.323  26.515  31.926  1.00  0.00     0.074 A 
ATOM     66  C   UNL A   1      46.830  31.295  27.786  1.00  0.00     0.029 A 
ATOM     67  N   UNL A   1      46.174  29.926  29.409  1.00  0.00    -0.354 N 
ATOM     68  N   UNL A   1      46.357  27.547  31.119  1.00  0.00    -0.248 NA
ATOM     69  C   UNL A   1      47.388  25.531  31.685  1.00  0.00     0.031 C 
ATOM     70  C   UNL A   1      47.689  30.191  27.807  1.00  0.00     0.029 A 
ATOM     71  C   UNL A   1      47.297  29.351  28.836  1.00  0.00     0.049 A 
ATOM     72  H   UNL A   1      45.665  29.544  30.161  1.00  0.00     0.167 HD
ATOM     73  C   UNL A   1      47.454  27.350  30.292  1.00  0.00     0.074 A 
ATOM     74  C   UNL A   1      48.078  26.113  30.715  1.00  0.00     0.031 C 
ATOM     75  C   UNL A   1      47.904  28.118  29.269  1.00  0.00     0.037 A 
BRANCH  62  76
ATOM     76  C   UNL A   1      44.555  33.220  28.294  1.00  0.00     0.064 A 
ATOM     77  C   UNL A   1      43.985  33.182  27.013  1.00  0.00     0.173 A 
ATOM     78  C   UNL A   1      44.889  34.475  28.825  1.00  0.00     0.173 A 
ATOM     79  F   UNL A   1      43.659  32.007  26.453  1.00  0.00    -0.203 F 
ATOM     80  C   UNL A   1      43.776  34.351  26.284  1.00  0.00     0.198 A 
ATOM     81  C   UNL A   1      44.651  35.644  28.106  1.00  0.00     0.198 A 
ATOM     82  F   UNL A   1      45.432  34.570  30.048  1.00  0.00    -0.203 F 
ATOM     83  F   UNL A   1      43.270  34.284  25.045  1.00  0.00    -0.200 F 
ATOM     84  C   UNL A   1      44.101  35.581  26.834  1.00  0.00     0.200 A 
ATOM     85  F   UNL A   1      44.951  36.834  28.646  1.00  0.00    -0.200 F 
ATOM     86  F   UNL A   1      43.888  36.706  26.138  1.00  0.00    -0.200 F 
ENDBRANCH  62  76
BRANCH  63  87
ATOM     87  C   UNL A   1      45.492  24.966  33.845  1.00  0.00     0.064 A 
ATOM     88  C   UNL A   1      44.750  23.822  33.522  1.00  0.00     0.173 A 
ATOM     89  C   UNL A   1      46.343  24.898  34.958  1.00  0.00     0.173 A 
ATOM     90  F   UNL A   1      43.909  23.841  32.477  1.00  0.00    -0.203 F 
ATOM     91  C   UNL A   1      44.829  22.669  34.300  1.00  0.00     0.198 A 
ATOM     92  C   UNL A   1      46.447  23.733  35.715  1.00  0.00     0.198 A 
ATOM     93  F   UNL A   1      47.082  25.962  35.305  1.00  0.00    -0.203 F 
ATOM     94  F   UNL A   1      44.064  21.610  34.003  1.00  0.00    -0.200 F 
ATOM     95  C   UNL A   1      45.681  22.624  35.393  1.00  0.00     0.200 A 
ATOM     96  F   UNL A   1      47.284  23.689  36.760  1.00  0.00    -0.200 F 
ATOM     97  F   UNL A   1      45.756  21.515  36.142  1.00  0.00    -0.200 F 
ENDBRANCH  63  87
BRANCH  75  98
ATOM     98  C   UNL A   1      49.142  27.652  28.558  1.00  0.00     0.064 A 
ATOM     99  C   UNL A   1      50.424  28.007  29.003  1.00  0.00     0.173 A 
ATOM    100  C   UNL A   1      49.045  26.830  27.426  1.00  0.00     0.173 A 
ATOM    101  F   UNL A   1      50.572  28.802  30.074  1.00  0.00    -0.203 F 
ATOM    102  C   UNL A   1      51.562  27.589  28.318  1.00  0.00     0.198 A 
ATOM    103  C   UNL A   1      50.185  26.386  26.761  1.00  0.00     0.198 A 
ATOM    104  F   UNL A   1      47.843  26.454  26.962  1.00  0.00    -0.203 F 
ATOM    105  F   UNL A   1      52.773  27.993  28.724  1.00  0.00    -0.200 F 
ATOM    106  C   UNL A   1      51.442  26.775  27.201  1.00  0.00     0.200 A 
ATOM    107  F   UNL A   1      50.068  25.587  25.692  1.00  0.00    -0.200 F 
ATOM    108  F   UNL A   1      52.537  26.374  26.542  1.00  0.00    -0.200 F 
ENDBRANCH  75  98
ENDBRANCH  49  50
ENDBRANCH  41  44
ENDBRANCH  39  40
ENDBRANCH  38  39
ENDBRANCH  37  38
ENDBRANCH  36  37
ENDBRANCH  35  36
ENDBRANCH  34  35
ENDBRANCH   3  34
TORSDOF 21
ENDMDL
MODEL 3
REMARK VINA RESULT:      -8.4      3.197     11.433
REMARK SMILES C[C@@H](C(=O)NCCCCCCNC(=O)c1ccc(-c2c3nc(c(-c4c(F)c(F)c(F)c(F)c4F)c4ccc([nH]4)c(-c4c(F)c(F)c(F)c(F)c4F)c4nc(c(-c5c(F)c(F)c(F)c(F)c5F)c5ccc2[nH]5)C=C4)C=C3)cc1)c1ccc(-c2cccc(OC(=O)NCCCc3ccccc3)c2)c(F)c1
REMARK SMILES IDX 3 1 4 2 5 3 2 5 1 6 78 7 79 8 103 9 80 10 101 11 81 12
REMARK SMILES IDX 102 13 82 14 83 15 100 16 84 17 86 18 85 19 87 20 88 21
REMARK SMILES IDX 89 22 90 23 91 25 92 26 93 27 94 28 95 29 99 30 96 31 98 32
REMARK SMILES IDX 97 33 6 34 7 35 8 36 9 37 10 38 11 39 12 40 13 41 14 43
REMARK SMILES IDX 15 44 16 45 77 46 17 47 76 48 18 49 19 50 20 51 70 52 21 53
REMARK SMILES IDX 75 54 69 55 71 56 22 57 74 58 68 59 67 60 23 62 55 63 35 64
REMARK SMILES IDX 54 65 36 66 39 67 53 68 72 69 37 70 38 71 52 73 73 74 40 75
REMARK SMILES IDX 24 76 25 77 33 78 26 79 27 80 31 81 34 82 28 83 29 84 32 85
REMARK SMILES IDX 30 86 56 87 57 88 65 89 58 90 59 91 63 92 66 93 60 94 61 95
REMARK SMILES IDX 64 96 62 97 41 98 42 99 50 100 43 101 44 102 48 103 51 104
REMARK SMILES IDX 45 105 46 106 49 107 47 108
REMARK H PARENT 5 4 90 24 12 42 71 61 39 72
REMARK Flexibility Score: inf
ROOT
ATOM      1  C   UNL A   1      37.168  31.301  28.699  1.00  0.00     0.227 C 
ATOM      2  O   UNL A   1      36.514  31.521  27.680  1.00  0.00    -0.274 OA
ATOM      3  N   UNL A   1      37.869  32.349  29.218  1.00  0.00    -0.356 N 
ATOM      4  H   UNL A   1      37.590  33.241  28.907  1.00  0.00     0.163 HD
ENDROOT
BRANCH   1   5
ATOM      5  C   UNL A   1      37.173  29.945  29.430  1.00  0.00     0.105 C 
ATOM      6  C   UNL A   1      36.622  30.084  30.857  1.00  0.00     0.023 C 
BRANCH   5   7
ATOM      7  C   UNL A   1      38.553  29.291  29.378  1.00  0.00    -0.033 A 
ATOM      8  C   UNL A   1      39.240  29.204  28.151  1.00  0.00     0.005 A 
ATOM      9  C   UNL A   1      39.176  28.766  30.516  1.00  0.00     0.044 A 
ATOM     10  C   UNL A   1      40.512  28.626  28.071  1.00  0.00     0.012 A 
ATOM     11  C   UNL A   1      40.432  28.184  30.427  1.00  0.00     0.131 A 
ATOM     12  C   UNL A   1      41.121  28.093  29.213  1.00  0.00     0.018 A 
ATOM     13  F   UNL A   1      40.968  27.680  31.551  1.00  0.00    -0.206 F 
BRANCH  12  14
ATOM     14  C   UNL A   1      42.386  27.363  29.137  1.00  0.00    -0.012 A 
ATOM     15  C   UNL A   1      42.659  26.231  29.915  1.00  0.00     0.009 A 
ATOM     16  C   UNL A   1      43.356  27.809  28.228  1.00  0.00     0.056 A 
ATOM     17  C   UNL A   1      43.872  25.553  29.770  1.00  0.00     0.004 A 
ATOM     18  C   UNL A   1      44.563  27.142  28.091  1.00  0.00     0.133 A 
ATOM     19  C   UNL A   1      44.826  26.007  28.857  1.00  0.00     0.047 A 
BRANCH  18  20
ATOM     20  O   UNL A   1      45.563  27.519  27.168  1.00  0.00    -0.410 OA
BRANCH  20  21
ATOM     21  C   UNL A   1      45.338  27.885  25.840  1.00  0.00     0.412 C 
ATOM     22  O   UNL A   1      45.148  29.013  25.406  1.00  0.00    -0.224 OA
ATOM     23  N   UNL A   1      45.365  26.822  24.983  1.00  0.00    -0.321 N 
ATOM     24  H   UNL A   1      45.109  26.990  24.049  1.00  0.00     0.167 HD
BRANCH  23  25
ATOM     25  C   UNL A   1      45.737  25.474  25.334  1.00  0.00     0.120 C 
BRANCH  25  26
ATOM     26  C   UNL A   1      44.708  24.417  24.942  1.00  0.00     0.026 C 
BRANCH  26  27
ATOM     27  C   UNL A   1      43.914  23.723  26.057  1.00  0.00     0.037 C 
BRANCH  27  28
ATOM     28  C   UNL A   1      42.551  24.230  26.465  1.00  0.00    -0.048 A 
ATOM     29  C   UNL A   1      41.734  23.636  27.431  1.00  0.00     0.004 A 
ATOM     30  C   UNL A   1      42.044  25.348  25.776  1.00  0.00     0.004 A 
ATOM     31  C   UNL A   1      40.455  24.137  27.700  1.00  0.00     0.000 A 
ATOM     32  C   UNL A   1      40.772  25.855  26.050  1.00  0.00     0.000 A 
ATOM     33  C   UNL A   1      39.975  25.246  27.012  1.00  0.00     0.000 A 
ENDBRANCH  27  28
ENDBRANCH  26  27
ENDBRANCH  25  26
ENDBRANCH  23  25
ENDBRANCH  20  21
ENDBRANCH  18  20
ENDBRANCH  12  14
ENDBRANCH   5   7
ENDBRANCH   1   5
BRANCH   3  34
ATOM     34  C   UNL A   1      38.965  32.335  30.161  1.00  0.00     0.116 C 
BRANCH  34  35
ATOM     35  C   UNL A   1      38.975  33.645  30.955  1.00  0.00     0.021 C 
BRANCH  35  36
ATOM     36  C   UNL A   1      38.513  33.485  32.409  1.00  0.00     0.002 C 
BRANCH  36  37
ATOM     37  C   UNL A   1      37.003  33.301  32.579  1.00  0.00     0.002 C 
BRANCH  37  38
ATOM     38  C   UNL A   1      36.477  33.626  33.978  1.00  0.00     0.021 C 
BRANCH  38  39
ATOM     39  C   UNL A   1      37.564  33.821  35.031  1.00  0.00     0.116 C 
BRANCH  39  40
ATOM     40  N   UNL A   1      37.385  32.928  36.162  1.00  0.00    -0.352 N 
ATOM     41  C   UNL A   1      37.956  31.708  36.411  1.00  0.00     0.251 C 
ATOM     42  H   UNL A   1      36.761  33.247  36.853  1.00  0.00     0.163 HD
ATOM     43  O   UNL A   1      37.516  30.999  37.312  1.00  0.00    -0.269 OA
BRANCH  41  44
ATOM     44  C   UNL A   1      39.088  31.232  35.591  1.00  0.00     0.039 A 
ATOM     45  C   UNL A   1      40.379  31.641  35.936  1.00  0.00     0.014 A 
ATOM     46  C   UNL A   1      38.887  30.422  34.468  1.00  0.00     0.014 A 
ATOM     47  C   UNL A   1      41.468  31.202  35.183  1.00  0.00     0.010 A 
ATOM     48  C   UNL A   1      39.982  29.924  33.763  1.00  0.00     0.010 A 
ATOM     49  C   UNL A   1      41.282  30.316  34.108  1.00  0.00    -0.014 A 
BRANCH  49  50
ATOM     50  C   UNL A   1      42.450  29.798  33.352  1.00  0.00     0.031 A 
ATOM     51  C   UNL A   1      42.968  30.529  32.144  1.00  0.00     0.074 A 
ATOM     52  C   UNL A   1      43.035  28.651  33.748  1.00  0.00     0.049 A 
ATOM     53  N   UNL A   1      43.984  30.233  31.371  1.00  0.00    -0.248 NA
ATOM     54  C   UNL A   1      42.238  31.739  31.734  1.00  0.00     0.031 C 
ATOM     55  C   UNL A   1      42.586  27.820  34.867  1.00  0.00     0.029 A 
ATOM     56  N   UNL A   1      44.130  27.985  33.258  1.00  0.00    -0.354 N 
ATOM     57  C   UNL A   1      44.019  31.221  30.396  1.00  0.00     0.074 A 
ATOM     58  C   UNL A   1      42.882  32.085  30.630  1.00  0.00     0.031 C 
ATOM     59  C   UNL A   1      43.415  26.771  34.995  1.00  0.00     0.029 A 
ATOM     60  C   UNL A   1      44.432  26.838  33.951  1.00  0.00     0.049 A 
ATOM     61  H   UNL A   1      44.650  28.300  32.484  1.00  0.00     0.167 HD
ATOM     62  C   UNL A   1      44.933  31.408  29.414  1.00  0.00     0.037 A 
ATOM     63  C   UNL A   1      45.417  25.941  33.763  1.00  0.00     0.037 A 
ATOM     64  C   UNL A   1      46.066  30.548  29.185  1.00  0.00     0.049 A 
ATOM     65  C   UNL A   1      46.417  26.172  32.663  1.00  0.00     0.074 A 
ATOM     66  C   UNL A   1      47.063  30.668  28.234  1.00  0.00     0.029 A 
ATOM     67  N   UNL A   1      46.350  29.405  29.918  1.00  0.00    -0.354 N 
ATOM     68  N   UNL A   1      46.478  27.148  31.791  1.00  0.00    -0.248 NA
ATOM     69  C   UNL A   1      47.496  25.184  32.532  1.00  0.00     0.031 C 
ATOM     70  C   UNL A   1      47.928  29.576  28.364  1.00  0.00     0.029 A 
ATOM     71  C   UNL A   1      47.499  28.803  29.431  1.00  0.00     0.049 A 
ATOM     72  H   UNL A   1      45.813  29.071  30.673  1.00  0.00     0.167 HD
ATOM     73  C   UNL A   1      47.609  26.906  31.024  1.00  0.00     0.074 A 
ATOM     74  C   UNL A   1      48.222  25.705  31.554  1.00  0.00     0.031 C 
ATOM     75  C   UNL A   1      48.095  27.608  29.970  1.00  0.00     0.037 A 
BRANCH  62  76
ATOM     76  C   UNL A   1      44.758  32.603  28.519  1.00  0.00     0.064 A 
ATOM     77  C   UNL A   1      45.205  33.876  28.907  1.00  0.00     0.173 A 
ATOM     78  C   UNL A   1      44.186  32.470  27.246  1.00  0.00     0.173 A 
ATOM     79  F   UNL A   1      45.748  34.061  30.120  1.00  0.00    -0.203 F 
ATOM     80  C   UNL A   1      45.065  34.974  28.062  1.00  0.00     0.198 A 
ATOM     81  C   UNL A   1      44.076  33.564  26.391  1.00  0.00     0.198 A 
ATOM     82  F   UNL A   1      43.747  31.275  26.823  1.00  0.00    -0.203 F 
ATOM     83  F   UNL A   1      45.461  36.187  28.472  1.00  0.00    -0.200 F 
ATOM     84  C   UNL A   1      44.510  34.816  26.802  1.00  0.00     0.200 A 
ATOM     85  F   UNL A   1      43.552  33.407  25.167  1.00  0.00    -0.200 F 
ATOM     86  F   UNL A   1      44.387  35.871  25.984  1.00  0.00    -0.200 F 
ENDBRANCH  62  76
BRANCH  63  87
ATOM     87  C   UNL A   1      45.518  24.749  34.647  1.00  0.00     0.064 A 
ATOM     88  C   UNL A   1      44.986  23.511  34.260  1.00  0.00     0.173 A 
ATOM     89  C   UNL A   1      46.131  24.829  35.906  1.00  0.00     0.173 A 
ATOM     90  F   UNL A   1      44.374  23.387  33.072  1.00  0.00    -0.203 F 
ATOM     91  C   UNL A   1      45.034  22.408  35.110  1.00  0.00     0.198 A 
ATOM     92  C   UNL A   1      46.209  23.716  36.741  1.00  0.00     0.198 A 
ATOM     93  F   UNL A   1      46.664  25.987  36.322  1.00  0.00    -0.203 F 
ATOM     94  F   UNL A   1      44.465  21.254  34.738  1.00  0.00    -0.200 F 
ATOM     95  C   UNL A   1      45.650  22.510  36.348  1.00  0.00     0.200 A 
ATOM     96  F   UNL A   1      46.820  23.816  37.930  1.00  0.00    -0.200 F 
ATOM     97  F   UNL A   1      45.696  21.450  37.166  1.00  0.00    -0.200 F 
ENDBRANCH  63  87
BRANCH  75  98
ATOM     98  C   UNL A   1      49.364  27.106  29.343  1.00  0.00     0.064 A 
ATOM     99  C   UNL A   1      50.625  27.497  29.818  1.00  0.00     0.173 A 
ATOM    100  C   UNL A   1      49.318  26.213  28.262  1.00  0.00     0.173 A 
ATOM    101  F   UNL A   1      50.723  28.360  30.841  1.00  0.00    -0.203 F 
ATOM    102  C   UNL A   1      51.792  27.044  29.208  1.00  0.00     0.198 A 
ATOM    103  C   UNL A   1      50.487  25.736  27.675  1.00  0.00     0.198 A 
ATOM    104  F   UNL A   1      48.138  25.801  27.773  1.00  0.00    -0.203 F 
ATOM    105  F   UNL A   1      52.983  27.481  29.639  1.00  0.00    -0.200 F 
ATOM    106  C   UNL A   1      51.722  26.160  28.142  1.00  0.00     0.200 A 
ATOM    107  F   UNL A   1      50.419  24.871  26.654  1.00  0.00    -0.200 F 
ATOM    108  F   UNL A   1      52.846  25.726  27.556  1.00  0.00    -0.200 F 
ENDBRANCH  75  98
ENDBRANCH  49  50
ENDBRANCH  41  44
ENDBRANCH  39  40
ENDBRANCH  38  39
ENDBRANCH  37  38
ENDBRANCH  36  37
ENDBRANCH  35  36
ENDBRANCH  34  35
ENDBRANCH   3  34
TORSDOF 21
ENDMDL
