MODEL 1
REMARK VINA RESULT:     -11.4      0.000      0.000
REMARK SMILES COCCN(CC(=O)NCCCCCCNC(=O)c1ccc(-c2c3nc(c(-c4c(F)c(F)c(F)c(F)c4F)c4ccc([nH]4)c(-c4c(F)c(F)c(F)c(F)c4F)c4nc(c(-c5c(F)c(F)c(F)c(F)c5F)c5ccc2[nH]5)C=C4)C=C3)cc1)C(=O)c1cccc(N)c1
REMARK SMILES IDX 11 1 10 2 9 3 7 4 8 5 6 7 5 8 4 9 3 10 2 11 1 12 82 13 83 14
REMARK SMILES IDX 84 15 85 16 90 17 86 18 88 19 87 20 89 21 12 24 13 25 14 26
REMARK SMILES IDX 15 27 16 28 17 29 18 31 19 32 20 33 81 34 21 35 80 36 22 37
REMARK SMILES IDX 23 38 24 39 74 40 25 41 79 42 73 43 75 44 26 45 78 46 72 47
REMARK SMILES IDX 71 48 27 50 59 51 39 52 58 53 40 54 43 55 57 56 76 57 41 58
REMARK SMILES IDX 42 59 56 61 77 62 44 63 28 64 29 65 37 66 30 67 31 68 35 69
REMARK SMILES IDX 38 70 32 71 33 72 36 73 34 74 60 75 61 76 69 77 62 78 63 79
REMARK SMILES IDX 67 80 70 81 64 82 65 83 68 84 66 85 45 86 46 87 54 88 47 89
REMARK SMILES IDX 48 90 52 91 55 92 49 93 50 94 53 95 51 96
REMARK H PARENT 9 6 89 22 89 23 16 30 75 49 43 60
REMARK Flexibility Score: inf
ROOT
ATOM      1  C   UNL A   1      32.173  28.171  27.438  1.00  0.00     0.021 C 
ENDROOT
BRANCH   1   2
ATOM      2  C   UNL A   1      31.545  27.513  26.211  1.00  0.00     0.116 C 
BRANCH   2   3
ATOM      3  N   UNL A   1      30.775  26.328  26.513  1.00  0.00    -0.355 N 
ATOM      4  C   UNL A   1      31.134  25.013  26.484  1.00  0.00     0.239 C 
ATOM      5  O   UNL A   1      30.391  24.226  27.082  1.00  0.00    -0.273 OA
ATOM      6  H   UNL A   1      29.844  26.497  26.783  1.00  0.00     0.163 HD
BRANCH   4   7
ATOM      7  C   UNL A   1      32.459  24.514  25.867  1.00  0.00     0.219 C 
BRANCH   7   8
ATOM      8  N   UNL A   1      32.378  23.615  24.708  1.00  0.00    -0.327 N 
BRANCH   8   9
ATOM      9  C   UNL A   1      31.276  23.827  23.749  1.00  0.00     0.149 C 
BRANCH   9  10
ATOM     10  C   UNL A   1      31.474  24.988  22.760  1.00  0.00     0.181 C 
BRANCH  10  11
ATOM     11  O   UNL A   1      30.749  26.150  23.147  1.00  0.00    -0.383 OA
ATOM     12  C   UNL A   1      31.196  27.330  22.497  1.00  0.00     0.194 C 
ENDBRANCH  10  11
ENDBRANCH   9  10
ENDBRANCH   8   9
BRANCH   8  13
ATOM     13  C   UNL A   1      33.365  22.677  24.369  1.00  0.00     0.254 C 
ATOM     14  O   UNL A   1      34.536  22.983  24.162  1.00  0.00    -0.269 OA
BRANCH  13  15
ATOM     15  C   UNL A   1      33.042  21.232  24.311  1.00  0.00     0.042 A 
ATOM     16  C   UNL A   1      32.558  20.720  23.103  1.00  0.00     0.014 A 
ATOM     17  C   UNL A   1      33.109  20.409  25.436  1.00  0.00     0.039 A 
ATOM     18  C   UNL A   1      32.193  19.379  23.014  1.00  0.00     0.003 A 
ATOM     19  C   UNL A   1      32.827  19.044  25.334  1.00  0.00     0.032 A 
ATOM     20  C   UNL A   1      32.327  18.548  24.128  1.00  0.00     0.025 A 
BRANCH  19  21
ATOM     21  N   UNL A   1      32.896  18.229  26.456  1.00  0.00    -0.399 N 
ATOM     22  H   UNL A   1      33.596  17.540  26.522  1.00  0.00     0.156 HD
ATOM     23  H   UNL A   1      32.245  18.339  27.186  1.00  0.00     0.156 HD
ENDBRANCH  19  21
ENDBRANCH  13  15
ENDBRANCH   8  13
ENDBRANCH   7   8
ENDBRANCH   4   7
ENDBRANCH   2   3
ENDBRANCH   1   2
BRANCH   1  24
ATOM     24  C   UNL A   1      32.591  29.630  27.240  1.00  0.00     0.002 C 
BRANCH  24  25
ATOM     25  C   UNL A   1      31.783  30.405  26.195  1.00  0.00     0.002 C 
BRANCH  25  26
ATOM     26  C   UNL A   1      31.535  31.879  26.527  1.00  0.00     0.021 C 
BRANCH  26  27
ATOM     27  C   UNL A   1      32.631  32.531  27.363  1.00  0.00     0.116 C 
BRANCH  27  28
ATOM     28  N   UNL A   1      32.373  33.947  27.586  1.00  0.00    -0.352 N 
ATOM     29  C   UNL A   1      32.945  34.804  28.491  1.00  0.00     0.251 C 
ATOM     30  H   UNL A   1      31.690  34.347  27.001  1.00  0.00     0.163 HD
ATOM     31  O   UNL A   1      32.454  35.913  28.694  1.00  0.00    -0.269 OA
BRANCH  29  32
ATOM     32  C   UNL A   1      34.143  34.383  29.245  1.00  0.00     0.039 A 
ATOM     33  C   UNL A   1      33.987  33.849  30.526  1.00  0.00     0.014 A 
ATOM     34  C   UNL A   1      35.416  34.506  28.683  1.00  0.00     0.014 A 
ATOM     35  C   UNL A   1      35.101  33.361  31.212  1.00  0.00     0.010 A 
ATOM     36  C   UNL A   1      36.515  33.954  29.335  1.00  0.00     0.010 A 
ATOM     37  C   UNL A   1      36.367  33.367  30.601  1.00  0.00    -0.014 A 
BRANCH  37  38
ATOM     38  C   UNL A   1      37.544  32.735  31.251  1.00  0.00     0.031 A 
ATOM     39  C   UNL A   1      38.245  31.583  30.590  1.00  0.00     0.074 A 
ATOM     40  C   UNL A   1      37.921  33.142  32.478  1.00  0.00     0.049 A 
ATOM     41  N   UNL A   1      39.212  30.829  31.047  1.00  0.00    -0.248 NA
ATOM     42  C   UNL A   1      37.782  31.214  29.243  1.00  0.00     0.031 C 
ATOM     43  C   UNL A   1      37.296  34.225  33.238  1.00  0.00     0.029 A 
ATOM     44  N   UNL A   1      38.909  32.680  33.313  1.00  0.00    -0.354 N 
ATOM     45  C   UNL A   1      39.464  29.893  30.054  1.00  0.00     0.074 A 
ATOM     46  C   UNL A   1      38.515  30.140  28.989  1.00  0.00     0.031 C 
ATOM     47  C   UNL A   1      37.922  34.354  34.418  1.00  0.00     0.029 A 
ATOM     48  C   UNL A   1      38.957  33.330  34.522  1.00  0.00     0.049 A 
ATOM     49  H   UNL A   1      39.525  31.952  33.067  1.00  0.00     0.167 HD
ATOM     50  C   UNL A   1      40.412  28.925  30.027  1.00  0.00     0.037 A 
ATOM     51  C   UNL A   1      39.732  33.110  35.602  1.00  0.00     0.037 A 
ATOM     52  C   UNL A   1      41.360  28.692  31.086  1.00  0.00     0.049 A 
ATOM     53  C   UNL A   1      40.748  32.001  35.563  1.00  0.00     0.074 A 
ATOM     54  C   UNL A   1      42.399  27.778  31.127  1.00  0.00     0.029 A 
ATOM     55  N   UNL A   1      41.378  29.372  32.296  1.00  0.00    -0.354 N 
ATOM     56  N   UNL A   1      41.026  31.167  34.590  1.00  0.00    -0.248 NA
ATOM     57  C   UNL A   1      41.559  31.801  36.772  1.00  0.00     0.031 C 
ATOM     58  C   UNL A   1      43.004  27.862  32.385  1.00  0.00     0.029 A 
ATOM     59  C   UNL A   1      42.386  28.871  33.104  1.00  0.00     0.049 A 
ATOM     60  H   UNL A   1      40.765  30.103  32.543  1.00  0.00     0.167 HD
ATOM     61  C   UNL A   1      42.057  30.364  35.057  1.00  0.00     0.074 A 
ATOM     62  C   UNL A   1      42.367  30.820  36.396  1.00  0.00     0.031 C 
ATOM     63  C   UNL A   1      42.687  29.339  34.435  1.00  0.00     0.037 A 
BRANCH  50  64
ATOM     64  C   UNL A   1      40.469  28.038  28.817  1.00  0.00     0.064 A 
ATOM     65  C   UNL A   1      39.752  26.833  28.751  1.00  0.00     0.173 A 
ATOM     66  C   UNL A   1      41.213  28.419  27.690  1.00  0.00     0.173 A 
ATOM     67  F   UNL A   1      39.030  26.418  29.804  1.00  0.00    -0.203 F 
ATOM     68  C   UNL A   1      39.803  26.028  27.616  1.00  0.00     0.198 A 
ATOM     69  C   UNL A   1      41.235  27.628  26.544  1.00  0.00     0.198 A 
ATOM     70  F   UNL A   1      41.911  29.564  27.695  1.00  0.00    -0.203 F 
ATOM     71  F   UNL A   1      39.151  24.858  27.596  1.00  0.00    -0.200 F 
ATOM     72  C   UNL A   1      40.537  26.431  26.511  1.00  0.00     0.200 A 
ATOM     73  F   UNL A   1      41.931  28.027  25.470  1.00  0.00    -0.200 F 
ATOM     74  F   UNL A   1      40.577  25.661  25.414  1.00  0.00    -0.200 F 
ENDBRANCH  50  64
BRANCH  51  75
ATOM     75  C   UNL A   1      39.575  33.957  36.815  1.00  0.00     0.064 A 
ATOM     76  C   UNL A   1      38.783  33.535  37.891  1.00  0.00     0.173 A 
ATOM     77  C   UNL A   1      40.205  35.206  36.921  1.00  0.00     0.173 A 
ATOM     78  F   UNL A   1      38.143  32.356  37.830  1.00  0.00    -0.203 F 
ATOM     79  C   UNL A   1      38.609  34.337  39.017  1.00  0.00     0.198 A 
ATOM     80  C   UNL A   1      40.056  35.994  38.061  1.00  0.00     0.198 A 
ATOM     81  F   UNL A   1      40.977  35.658  35.922  1.00  0.00    -0.203 F 
ATOM     82  F   UNL A   1      37.805  33.930  40.009  1.00  0.00    -0.200 F 
ATOM     83  C   UNL A   1      39.250  35.563  39.103  1.00  0.00     0.200 A 
ATOM     84  F   UNL A   1      40.691  37.170  38.148  1.00  0.00    -0.200 F 
ATOM     85  F   UNL A   1      39.086  36.333  40.188  1.00  0.00    -0.200 F 
ENDBRANCH  51  75
BRANCH  63  86
ATOM     86  C   UNL A   1      43.799  28.654  35.178  1.00  0.00     0.064 A 
ATOM     87  C   UNL A   1      45.125  29.103  35.096  1.00  0.00     0.173 A 
ATOM     88  C   UNL A   1      43.523  27.573  36.030  1.00  0.00     0.173 A 
ATOM     89  F   UNL A   1      45.445  30.122  34.284  1.00  0.00    -0.203 F 
ATOM     90  C   UNL A   1      46.137  28.483  35.824  1.00  0.00     0.198 A 
ATOM     91  C   UNL A   1      44.530  26.977  36.781  1.00  0.00     0.198 A 
ATOM     92  F   UNL A   1      42.270  27.108  36.148  1.00  0.00    -0.203 F 
ATOM     93  F   UNL A   1      47.404  28.900  35.698  1.00  0.00    -0.200 F 
ATOM     94  C   UNL A   1      45.837  27.428  36.674  1.00  0.00     0.200 A 
ATOM     95  F   UNL A   1      44.237  25.968  37.613  1.00  0.00    -0.200 F 
ATOM     96  F   UNL A   1      46.810  26.843  37.386  1.00  0.00    -0.200 F 
ENDBRANCH  63  86
ENDBRANCH  37  38
ENDBRANCH  29  32
ENDBRANCH  27  28
ENDBRANCH  26  27
ENDBRANCH  25  26
ENDBRANCH  24  25
ENDBRANCH   1  24
TORSDOF 20
ENDMDL
MODEL 2
REMARK VINA RESULT:     -11.3      5.584     10.861
REMARK SMILES COCCN(CC(=O)NCCCCCCNC(=O)c1ccc(-c2c3nc(c(-c4c(F)c(F)c(F)c(F)c4F)c4ccc([nH]4)c(-c4c(F)c(F)c(F)c(F)c4F)c4nc(c(-c5c(F)c(F)c(F)c(F)c5F)c5ccc2[nH]5)C=C4)C=C3)cc1)C(=O)c1cccc(N)c1
REMARK SMILES IDX 11 1 10 2 9 3 7 4 8 5 6 7 5 8 4 9 3 10 2 11 1 12 82 13 83 14
REMARK SMILES IDX 84 15 85 16 90 17 86 18 88 19 87 20 89 21 12 24 13 25 14 26
REMARK SMILES IDX 15 27 16 28 17 29 18 31 19 32 20 33 81 34 21 35 80 36 22 37
REMARK SMILES IDX 23 38 24 39 74 40 25 41 79 42 73 43 75 44 26 45 78 46 72 47
REMARK SMILES IDX 71 48 27 50 59 51 39 52 58 53 40 54 43 55 57 56 76 57 41 58
REMARK SMILES IDX 42 59 56 61 77 62 44 63 28 64 29 65 37 66 30 67 31 68 35 69
REMARK SMILES IDX 38 70 32 71 33 72 36 73 34 74 60 75 61 76 69 77 62 78 63 79
REMARK SMILES IDX 67 80 70 81 64 82 65 83 68 84 66 85 45 86 46 87 54 88 47 89
REMARK SMILES IDX 48 90 52 91 55 92 49 93 50 94 53 95 51 96
REMARK H PARENT 9 6 89 22 89 23 16 30 75 49 43 60
REMARK Flexibility Score: inf
ROOT
ATOM      1  C   UNL A   1      36.969  23.333  25.751  1.00  0.00     0.021 C 
ENDROOT
BRANCH   1   2
ATOM      2  C   UNL A   1      35.493  23.331  26.145  1.00  0.00     0.116 C 
BRANCH   2   3
ATOM      3  N   UNL A   1      34.831  24.599  25.940  1.00  0.00    -0.355 N 
ATOM      4  C   UNL A   1      33.503  24.898  25.868  1.00  0.00     0.239 C 
ATOM      5  O   UNL A   1      33.199  26.089  25.998  1.00  0.00    -0.273 OA
ATOM      6  H   UNL A   1      35.435  25.368  25.835  1.00  0.00     0.163 HD
BRANCH   4   7
ATOM      7  C   UNL A   1      32.400  23.821  25.768  1.00  0.00     0.219 C 
BRANCH   7   8
ATOM      8  N   UNL A   1      32.102  23.268  24.440  1.00  0.00    -0.327 N 
BRANCH   8   9
ATOM      9  C   UNL A   1      30.945  23.820  23.710  1.00  0.00     0.149 C 
BRANCH   9  10
ATOM     10  C   UNL A   1      31.196  25.149  22.978  1.00  0.00     0.181 C 
BRANCH  10  11
ATOM     11  O   UNL A   1      30.183  26.110  23.251  1.00  0.00    -0.383 OA
ATOM     12  C   UNL A   1      29.869  26.216  24.630  1.00  0.00     0.194 C 
ENDBRANCH  10  11
ENDBRANCH   9  10
ENDBRANCH   8   9
BRANCH   8  13
ATOM     13  C   UNL A   1      32.935  22.369  23.758  1.00  0.00     0.254 C 
ATOM     14  O   UNL A   1      33.858  22.731  23.032  1.00  0.00    -0.269 OA
BRANCH  13  15
ATOM     15  C   UNL A   1      32.775  20.907  23.940  1.00  0.00     0.042 A 
ATOM     16  C   UNL A   1      32.367  20.153  22.836  1.00  0.00     0.014 A 
ATOM     17  C   UNL A   1      32.918  20.293  25.185  1.00  0.00     0.039 A 
ATOM     18  C   UNL A   1      32.153  18.783  22.971  1.00  0.00     0.003 A 
ATOM     19  C   UNL A   1      32.790  18.908  25.312  1.00  0.00     0.032 A 
ATOM     20  C   UNL A   1      32.364  18.167  24.206  1.00  0.00     0.025 A 
BRANCH  19  21
ATOM     21  N   UNL A   1      32.934  18.300  26.552  1.00  0.00    -0.399 N 
ATOM     22  H   UNL A   1      32.686  17.355  26.669  1.00  0.00     0.156 HD
ATOM     23  H   UNL A   1      33.284  18.815  27.315  1.00  0.00     0.156 HD
ENDBRANCH  19  21
ENDBRANCH  13  15
ENDBRANCH   8  13
ENDBRANCH   7   8
ENDBRANCH   4   7
ENDBRANCH   2   3
ENDBRANCH   1   2
BRANCH   1  24
ATOM     24  C   UNL A   1      37.340  22.334  24.652  1.00  0.00     0.002 C 
BRANCH  24  25
ATOM     25  C   UNL A   1      36.856  20.900  24.881  1.00  0.00     0.002 C 
BRANCH  25  26
ATOM     26  C   UNL A   1      37.961  19.843  24.951  1.00  0.00     0.021 C 
BRANCH  26  27
ATOM     27  C   UNL A   1      39.211  20.285  25.703  1.00  0.00     0.116 C 
BRANCH  27  28
ATOM     28  N   UNL A   1      40.149  19.187  25.890  1.00  0.00    -0.352 N 
ATOM     29  C   UNL A   1      41.504  19.225  26.101  1.00  0.00     0.251 C 
ATOM     30  H   UNL A   1      39.753  18.287  25.861  1.00  0.00     0.163 HD
ATOM     31  O   UNL A   1      42.176  18.199  26.018  1.00  0.00    -0.269 OA
BRANCH  29  32
ATOM     32  C   UNL A   1      42.163  20.511  26.406  1.00  0.00     0.039 A 
ATOM     33  C   UNL A   1      42.483  21.377  25.358  1.00  0.00     0.014 A 
ATOM     34  C   UNL A   1      42.456  20.865  27.726  1.00  0.00     0.014 A 
ATOM     35  C   UNL A   1      43.020  22.635  25.639  1.00  0.00     0.010 A 
ATOM     36  C   UNL A   1      42.923  22.145  28.010  1.00  0.00     0.010 A 
ATOM     37  C   UNL A   1      43.200  23.046  26.971  1.00  0.00    -0.014 A 
BRANCH  37  38
ATOM     38  C   UNL A   1      43.643  24.424  27.303  1.00  0.00     0.031 A 
ATOM     39  C   UNL A   1      42.654  25.437  27.804  1.00  0.00     0.074 A 
ATOM     40  C   UNL A   1      44.919  24.784  27.067  1.00  0.00     0.049 A 
ATOM     41  N   UNL A   1      42.822  26.714  28.038  1.00  0.00    -0.248 NA
ATOM     42  C   UNL A   1      41.286  24.956  28.052  1.00  0.00     0.031 C 
ATOM     43  C   UNL A   1      45.964  23.901  26.547  1.00  0.00     0.029 A 
ATOM     44  N   UNL A   1      45.552  25.994  27.212  1.00  0.00    -0.354 N 
ATOM     45  C   UNL A   1      41.584  27.189  28.448  1.00  0.00     0.074 A 
ATOM     46  C   UNL A   1      40.661  26.077  28.383  1.00  0.00     0.031 C 
ATOM     47  C   UNL A   1      47.108  24.593  26.431  1.00  0.00     0.029 A 
ATOM     48  C   UNL A   1      46.868  25.979  26.816  1.00  0.00     0.049 A 
ATOM     49  H   UNL A   1      45.105  26.796  27.568  1.00  0.00     0.167 HD
ATOM     50  C   UNL A   1      41.254  28.438  28.857  1.00  0.00     0.037 A 
ATOM     51  C   UNL A   1      47.771  26.976  26.749  1.00  0.00     0.037 A 
ATOM     52  C   UNL A   1      42.181  29.538  28.929  1.00  0.00     0.049 A 
ATOM     53  C   UNL A   1      47.366  28.364  27.167  1.00  0.00     0.074 A 
ATOM     54  C   UNL A   1      41.957  30.824  29.389  1.00  0.00     0.029 A 
ATOM     55  N   UNL A   1      43.506  29.483  28.520  1.00  0.00    -0.354 N 
ATOM     56  N   UNL A   1      46.210  28.787  27.622  1.00  0.00    -0.248 NA
ATOM     57  C   UNL A   1      48.389  29.414  27.064  1.00  0.00     0.031 C 
ATOM     58  C   UNL A   1      43.129  31.565  29.199  1.00  0.00     0.029 A 
ATOM     59  C   UNL A   1      44.101  30.725  28.681  1.00  0.00     0.049 A 
ATOM     60  H   UNL A   1      43.956  28.682  28.167  1.00  0.00     0.167 HD
ATOM     61  C   UNL A   1      46.375  30.141  27.882  1.00  0.00     0.074 A 
ATOM     62  C   UNL A   1      47.746  30.466  27.551  1.00  0.00     0.031 C 
ATOM     63  C   UNL A   1      45.470  31.034  28.351  1.00  0.00     0.037 A 
BRANCH  50  64
ATOM     64  C   UNL A   1      39.826  28.687  29.252  1.00  0.00     0.064 A 
ATOM     65  C   UNL A   1      38.869  29.126  28.323  1.00  0.00     0.173 A 
ATOM     66  C   UNL A   1      39.399  28.440  30.565  1.00  0.00     0.173 A 
ATOM     67  F   UNL A   1      39.227  29.384  27.056  1.00  0.00    -0.203 F 
ATOM     68  C   UNL A   1      37.546  29.338  28.703  1.00  0.00     0.198 A 
ATOM     69  C   UNL A   1      38.067  28.621  30.932  1.00  0.00     0.198 A 
ATOM     70  F   UNL A   1      40.269  28.012  31.492  1.00  0.00    -0.203 F 
ATOM     71  F   UNL A   1      36.663  29.805  27.810  1.00  0.00    -0.200 F 
ATOM     72  C   UNL A   1      37.145  29.077  30.004  1.00  0.00     0.200 A 
ATOM     73  F   UNL A   1      37.677  28.351  32.187  1.00  0.00    -0.200 F 
ATOM     74  F   UNL A   1      35.868  29.271  30.364  1.00  0.00    -0.200 F 
ENDBRANCH  50  64
BRANCH  51  75
ATOM     75  C   UNL A   1      49.149  26.700  26.261  1.00  0.00     0.064 A 
ATOM     76  C   UNL A   1      49.491  26.898  24.917  1.00  0.00     0.173 A 
ATOM     77  C   UNL A   1      50.148  26.227  27.124  1.00  0.00     0.173 A 
ATOM     78  F   UNL A   1      48.565  27.329  24.047  1.00  0.00    -0.203 F 
ATOM     79  C   UNL A   1      50.771  26.611  24.449  1.00  0.00     0.198 A 
ATOM     80  C   UNL A   1      51.439  25.972  26.662  1.00  0.00     0.198 A 
ATOM     81  F   UNL A   1      49.877  26.024  28.422  1.00  0.00    -0.203 F 
ATOM     82  F   UNL A   1      51.056  26.762  23.147  1.00  0.00    -0.200 F 
ATOM     83  C   UNL A   1      51.746  26.155  25.323  1.00  0.00     0.200 A 
ATOM     84  F   UNL A   1      52.381  25.547  27.514  1.00  0.00    -0.200 F 
ATOM     85  F   UNL A   1      52.979  25.884  24.874  1.00  0.00    -0.200 F 
ENDBRANCH  51  75
BRANCH  63  86
ATOM     86  C   UNL A   1      45.936  32.446  28.565  1.00  0.00     0.064 A 
ATOM     87  C   UNL A   1      46.538  32.848  29.766  1.00  0.00     0.173 A 
ATOM     88  C   UNL A   1      45.833  33.391  27.532  1.00  0.00     0.173 A 
ATOM     89  F   UNL A   1      46.646  31.988  30.789  1.00  0.00    -0.203 F 
ATOM     90  C   UNL A   1      47.002  34.151  29.932  1.00  0.00     0.198 A 
ATOM     91  C   UNL A   1      46.327  34.682  27.690  1.00  0.00     0.198 A 
ATOM     92  F   UNL A   1      45.269  33.056  26.362  1.00  0.00    -0.203 F 
ATOM     93  F   UNL A   1      47.535  34.526  31.102  1.00  0.00    -0.200 F 
ATOM     94  C   UNL A   1      46.906  35.063  28.891  1.00  0.00     0.200 A 
ATOM     95  F   UNL A   1      46.248  35.557  26.678  1.00  0.00    -0.200 F 
ATOM     96  F   UNL A   1      47.368  36.311  29.047  1.00  0.00    -0.200 F 
ENDBRANCH  63  86
ENDBRANCH  37  38
ENDBRANCH  29  32
ENDBRANCH  27  28
ENDBRANCH  26  27
ENDBRANCH  25  26
ENDBRANCH  24  25
ENDBRANCH   1  24
TORSDOF 20
ENDMDL
MODEL 3
REMARK VINA RESULT:     -11.3      0.848      7.498
REMARK SMILES COCCN(CC(=O)NCCCCCCNC(=O)c1ccc(-c2c3nc(c(-c4c(F)c(F)c(F)c(F)c4F)c4ccc([nH]4)c(-c4c(F)c(F)c(F)c(F)c4F)c4nc(c(-c5c(F)c(F)c(F)c(F)c5F)c5ccc2[nH]5)C=C4)C=C3)cc1)C(=O)c1cccc(N)c1
REMARK SMILES IDX 11 1 10 2 9 3 7 4 8 5 6 7 5 8 4 9 3 10 2 11 1 12 82 13 83 14
REMARK SMILES IDX 84 15 85 16 90 17 86 18 88 19 87 20 89 21 12 24 13 25 14 26
REMARK SMILES IDX 15 27 16 28 17 29 18 31 19 32 20 33 81 34 21 35 80 36 22 37
REMARK SMILES IDX 23 38 24 39 74 40 25 41 79 42 73 43 75 44 26 45 78 46 72 47
REMARK SMILES IDX 71 48 27 50 59 51 39 52 58 53 40 54 43 55 57 56 76 57 41 58
REMARK SMILES IDX 42 59 56 61 77 62 44 63 28 64 29 65 37 66 30 67 31 68 35 69
REMARK SMILES IDX 38 70 32 71 33 72 36 73 34 74 60 75 61 76 69 77 62 78 63 79
REMARK SMILES IDX 67 80 70 81 64 82 65 83 68 84 66 85 45 86 46 87 54 88 47 89
REMARK SMILES IDX 48 90 52 91 55 92 49 93 50 94 53 95 51 96
REMARK H PARENT 9 6 89 22 89 23 16 30 75 49 43 60
REMARK Flexibility Score: inf
ROOT
ATOM      1  C   UNL A   1      31.689  28.712  27.561  1.00  0.00     0.021 C 
ENDROOT
BRANCH   1   2
ATOM      2  C   UNL A   1      31.825  27.599  26.523  1.00  0.00     0.116 C 
BRANCH   2   3
ATOM      3  N   UNL A   1      31.436  26.296  27.010  1.00  0.00    -0.355 N 
ATOM      4  C   UNL A   1      31.496  25.076  26.404  1.00  0.00     0.239 C 
ATOM      5  O   UNL A   1      31.394  24.089  27.142  1.00  0.00    -0.273 OA
ATOM      6  H   UNL A   1      31.069  26.287  27.923  1.00  0.00     0.163 HD
BRANCH   4   7
ATOM      7  C   UNL A   1      31.811  24.893  24.903  1.00  0.00     0.219 C 
BRANCH   7   8
ATOM      8  N   UNL A   1      33.222  24.913  24.493  1.00  0.00    -0.327 N 
BRANCH   8   9
ATOM      9  C   UNL A   1      33.822  26.218  24.157  1.00  0.00     0.149 C 
BRANCH   9  10
ATOM     10  C   UNL A   1      33.530  26.737  22.739  1.00  0.00     0.181 C 
BRANCH  10  11
ATOM     11  O   UNL A   1      33.719  25.730  21.751  1.00  0.00    -0.383 OA
ATOM     12  C   UNL A   1      32.594  25.559  20.904  1.00  0.00     0.194 C 
ENDBRANCH  10  11
ENDBRANCH   9  10
ENDBRANCH   8   9
BRANCH   8  13
ATOM     13  C   UNL A   1      34.074  23.800  24.555  1.00  0.00     0.254 C 
ATOM     14  O   UNL A   1      35.284  23.893  24.746  1.00  0.00    -0.269 OA
BRANCH  13  15
ATOM     15  C   UNL A   1      33.527  22.427  24.456  1.00  0.00     0.042 A 
ATOM     16  C   UNL A   1      32.900  22.059  23.261  1.00  0.00     0.014 A 
ATOM     17  C   UNL A   1      33.530  21.544  25.537  1.00  0.00     0.039 A 
ATOM     18  C   UNL A   1      32.326  20.796  23.139  1.00  0.00     0.003 A 
ATOM     19  C   UNL A   1      33.034  20.246  25.396  1.00  0.00     0.032 A 
ATOM     20  C   UNL A   1      32.394  19.897  24.204  1.00  0.00     0.025 A 
BRANCH  19  21
ATOM     21  N   UNL A   1      33.040  19.372  26.474  1.00  0.00    -0.399 N 
ATOM     22  H   UNL A   1      32.501  19.572  27.274  1.00  0.00     0.156 HD
ATOM     23  H   UNL A   1      33.582  18.551  26.440  1.00  0.00     0.156 HD
ENDBRANCH  19  21
ENDBRANCH  13  15
ENDBRANCH   8  13
ENDBRANCH   7   8
ENDBRANCH   4   7
ENDBRANCH   2   3
ENDBRANCH   1   2
BRANCH   1  24
ATOM     24  C   UNL A   1      32.325  30.045  27.159  1.00  0.00     0.002 C 
BRANCH  24  25
ATOM     25  C   UNL A   1      31.498  30.901  26.195  1.00  0.00     0.002 C 
BRANCH  25  26
ATOM     26  C   UNL A   1      31.406  32.384  26.558  1.00  0.00     0.021 C 
BRANCH  26  27
ATOM     27  C   UNL A   1      32.625  32.932  27.293  1.00  0.00     0.116 C 
BRANCH  27  28
ATOM     28  N   UNL A   1      32.457  34.332  27.655  1.00  0.00    -0.352 N 
ATOM     29  C   UNL A   1      33.047  35.048  28.666  1.00  0.00     0.251 C 
ATOM     30  H   UNL A   1      31.828  34.839  27.092  1.00  0.00     0.163 HD
ATOM     31  O   UNL A   1      32.626  36.163  28.967  1.00  0.00    -0.269 OA
BRANCH  29  32
ATOM     32  C   UNL A   1      34.180  34.465  29.412  1.00  0.00     0.039 A 
ATOM     33  C   UNL A   1      33.936  33.830  30.632  1.00  0.00     0.014 A 
ATOM     34  C   UNL A   1      35.479  34.536  28.902  1.00  0.00     0.014 A 
ATOM     35  C   UNL A   1      34.984  33.193  31.302  1.00  0.00     0.010 A 
ATOM     36  C   UNL A   1      36.507  33.840  29.532  1.00  0.00     0.010 A 
ATOM     37  C   UNL A   1      36.268  33.153  30.732  1.00  0.00    -0.014 A 
BRANCH  37  38
ATOM     38  C   UNL A   1      37.367  32.372  31.354  1.00  0.00     0.031 A 
ATOM     39  C   UNL A   1      37.883  32.742  32.715  1.00  0.00     0.074 A 
ATOM     40  C   UNL A   1      37.960  31.387  30.651  1.00  0.00     0.049 A 
ATOM     41  N   UNL A   1      38.905  32.258  33.373  1.00  0.00    -0.248 NA
ATOM     42  C   UNL A   1      37.168  33.817  33.421  1.00  0.00     0.031 C 
ATOM     43  C   UNL A   1      37.573  30.959  29.306  1.00  0.00     0.029 A 
ATOM     44  N   UNL A   1      39.027  30.581  30.961  1.00  0.00    -0.354 N 
ATOM     45  C   UNL A   1      38.963  32.975  34.561  1.00  0.00     0.074 A 
ATOM     46  C   UNL A   1      37.905  33.960  34.513  1.00  0.00     0.031 C 
ATOM     47  C   UNL A   1      38.380  29.962  28.912  1.00  0.00     0.029 A 
ATOM     48  C   UNL A   1      39.373  29.714  29.952  1.00  0.00     0.049 A 
ATOM     49  H   UNL A   1      39.498  30.619  31.825  1.00  0.00     0.167 HD
ATOM     50  C   UNL A   1      39.813  32.812  35.603  1.00  0.00     0.037 A 
ATOM     51  C   UNL A   1      40.391  28.836  29.867  1.00  0.00     0.037 A 
ATOM     52  C   UNL A   1      40.857  31.821  35.649  1.00  0.00     0.049 A 
ATOM     53  C   UNL A   1      41.347  28.705  31.021  1.00  0.00     0.074 A 
ATOM     54  C   UNL A   1      41.730  31.536  36.685  1.00  0.00     0.029 A 
ATOM     55  N   UNL A   1      41.177  30.960  34.608  1.00  0.00    -0.354 N 
ATOM     56  N   UNL A   1      41.349  29.338  32.170  1.00  0.00    -0.248 NA
ATOM     57  C   UNL A   1      42.444  27.738  30.869  1.00  0.00     0.031 C 
ATOM     58  C   UNL A   1      42.618  30.547  36.248  1.00  0.00     0.029 A 
ATOM     59  C   UNL A   1      42.259  30.170  34.964  1.00  0.00     0.049 A 
ATOM     60  H   UNL A   1      40.705  30.917  33.745  1.00  0.00     0.167 HD
ATOM     61  C   UNL A   1      42.426  28.830  32.884  1.00  0.00     0.074 A 
ATOM     62  C   UNL A   1      43.045  27.824  32.047  1.00  0.00     0.031 C 
ATOM     63  C   UNL A   1      42.863  29.168  34.122  1.00  0.00     0.037 A 
BRANCH  50  64
ATOM     64  C   UNL A   1      39.657  33.730  36.781  1.00  0.00     0.064 A 
ATOM     65  C   UNL A   1      40.283  34.986  36.826  1.00  0.00     0.173 A 
ATOM     66  C   UNL A   1      38.832  33.371  37.858  1.00  0.00     0.173 A 
ATOM     67  F   UNL A   1      41.088  35.375  35.825  1.00  0.00    -0.203 F 
ATOM     68  C   UNL A   1      40.115  35.833  37.919  1.00  0.00     0.198 A 
ATOM     69  C   UNL A   1      38.640  34.236  38.933  1.00  0.00     0.198 A 
ATOM     70  F   UNL A   1      38.203  32.187  37.864  1.00  0.00    -0.203 F 
ATOM     71  F   UNL A   1      40.764  37.004  37.961  1.00  0.00    -0.200 F 
ATOM     72  C   UNL A   1      39.288  35.460  38.967  1.00  0.00     0.200 A 
ATOM     73  F   UNL A   1      37.825  33.881  39.938  1.00  0.00    -0.200 F 
ATOM     74  F   UNL A   1      39.118  36.282  40.013  1.00  0.00    -0.200 F 
ENDBRANCH  50  64
BRANCH  51  75
ATOM     75  C   UNL A   1      40.561  28.012  28.640  1.00  0.00     0.064 A 
ATOM     76  C   UNL A   1      41.353  28.461  27.574  1.00  0.00     0.173 A 
ATOM     77  C   UNL A   1      39.932  26.765  28.503  1.00  0.00     0.173 A 
ATOM     78  F   UNL A   1      41.959  29.656  27.648  1.00  0.00    -0.203 F 
ATOM     79  C   UNL A   1      41.491  27.707  26.411  1.00  0.00     0.198 A 
ATOM     80  C   UNL A   1      40.098  25.997  27.352  1.00  0.00     0.198 A 
ATOM     81  F   UNL A   1      39.167  26.285  29.494  1.00  0.00    -0.203 F 
ATOM     82  F   UNL A   1      42.213  28.185  25.387  1.00  0.00    -0.200 F 
ATOM     83  C   UNL A   1      40.869  26.473  26.303  1.00  0.00     0.200 A 
ATOM     84  F   UNL A   1      39.508  24.797  27.259  1.00  0.00    -0.200 F 
ATOM     85  F   UNL A   1      41.006  25.746  25.186  1.00  0.00    -0.200 F 
ENDBRANCH  51  75
BRANCH  63  86
ATOM     86  C   UNL A   1      44.051  28.427  34.664  1.00  0.00     0.064 A 
ATOM     87  C   UNL A   1      43.911  27.211  35.349  1.00  0.00     0.173 A 
ATOM     88  C   UNL A   1      45.351  28.910  34.442  1.00  0.00     0.173 A 
ATOM     89  F   UNL A   1      42.691  26.714  35.601  1.00  0.00    -0.203 F 
ATOM     90  C   UNL A   1      45.027  26.516  35.808  1.00  0.00     0.198 A 
ATOM     91  C   UNL A   1      46.464  28.196  34.874  1.00  0.00     0.198 A 
ATOM     92  F   UNL A   1      45.541  30.066  33.788  1.00  0.00    -0.203 F 
ATOM     93  F   UNL A   1      44.868  25.378  36.498  1.00  0.00    -0.200 F 
ATOM     94  C   UNL A   1      46.301  27.003  35.562  1.00  0.00     0.200 A 
ATOM     95  F   UNL A   1      47.695  28.661  34.621  1.00  0.00    -0.200 F 
ATOM     96  F   UNL A   1      47.374  26.325  35.991  1.00  0.00    -0.200 F 
ENDBRANCH  63  86
ENDBRANCH  37  38
ENDBRANCH  29  32
ENDBRANCH  27  28
ENDBRANCH  26  27
ENDBRANCH  25  26
ENDBRANCH  24  25
ENDBRANCH   1  24
TORSDOF 20
ENDMDL
