MODEL 1
REMARK VINA RESULT:     -11.3      0.000      0.000
REMARK SMILES COc1cccc(O[C@@H](C)c2nnc(SCC(=O)NCCCCCCNC(=O)c3ccc(-c4c5nc(c(-c6c(F)c(F)c(F)c(F)c6F)c6ccc([nH]6)c(-c6c(F)c(F)c(F)c(F)c6F)c6nc(c(-c7c(F)c(F)c(F)c(F)c7F)c7ccc4[nH]7)C=C6)C=C5)cc3)n2C)c1
REMARK SMILES IDX 20 1 19 2 17 3 18 4 16 6 15 7 14 8 11 9 12 10 92 11 13 12
REMARK SMILES IDX 93 13 9 14 10 15 8 16 7 17 3 18 4 19 94 20 5 21 6 22 2 23
REMARK SMILES IDX 1 24 21 25 22 26 23 27 24 28 25 29 26 30 27 31 28 33 29 34
REMARK SMILES IDX 30 35 91 36 31 37 90 38 32 39 33 40 34 41 84 42 35 43 89 44
REMARK SMILES IDX 83 45 85 46 36 47 88 48 82 49 81 50 37 52 69 53 49 54 68 55
REMARK SMILES IDX 50 56 53 57 67 58 86 59 51 60 52 61 66 63 87 64 54 65 38 66
REMARK SMILES IDX 39 67 47 68 40 69 41 70 45 71 48 72 42 73 43 74 46 75 44 76
REMARK SMILES IDX 70 77 71 78 79 79 72 80 73 81 77 82 80 83 74 84 75 85 78 86
REMARK SMILES IDX 76 87 55 88 56 89 64 90 57 91 58 92 62 93 65 94 59 95 60 96
REMARK SMILES IDX 63 97 61 98
REMARK H PARENT 19 5 26 32 85 51 53 62
REMARK Flexibility Score: inf
ROOT
ATOM      1  C   UNL A   1      34.974  29.535  27.613  1.00  0.00     0.116 C 
ENDROOT
BRANCH   1   2
ATOM      2  N   UNL A   1      33.568  29.349  27.906  1.00  0.00    -0.355 N 
ATOM      3  C   UNL A   1      32.647  28.591  27.257  1.00  0.00     0.230 C 
ATOM      4  O   UNL A   1      31.476  28.644  27.638  1.00  0.00    -0.274 OA
ATOM      5  H   UNL A   1      33.231  29.844  28.688  1.00  0.00     0.163 HD
BRANCH   3   6
ATOM      6  C   UNL A   1      33.062  27.658  26.147  1.00  0.00     0.178 C 
BRANCH   6   7
ATOM      7  S   UNL A   1      31.827  26.478  25.597  1.00  0.00    -0.076 SA
BRANCH   7   8
ATOM      8  C   UNL A   1      32.175  24.940  26.303  1.00  0.00     0.191 A 
ATOM      9  C   UNL A   1      32.671  22.804  26.412  1.00  0.00     0.174 A 
ATOM     10  N   UNL A   1      31.695  23.061  27.268  1.00  0.00    -0.130 NA
ATOM     11  N   UNL A   1      33.094  24.012  25.878  1.00  0.00    -0.306 N 
ATOM     12  N   UNL A   1      31.376  24.388  27.186  1.00  0.00    -0.123 NA
ATOM     13  C   UNL A   1      34.263  24.246  25.075  1.00  0.00     0.154 C 
BRANCH   9  14
ATOM     14  C   UNL A   1      33.176  21.410  26.149  1.00  0.00     0.238 C 
ATOM     15  C   UNL A   1      34.644  21.174  25.839  1.00  0.00     0.062 C 
BRANCH  14  16
ATOM     16  O   UNL A   1      32.307  20.690  25.249  1.00  0.00    -0.483 OA
BRANCH  16  17
ATOM     17  C   UNL A   1      32.539  19.428  24.788  1.00  0.00     0.124 A 
ATOM     18  C   UNL A   1      33.108  17.068  24.932  1.00  0.00     0.122 A 
ATOM     19  C   UNL A   1      33.089  16.971  23.543  1.00  0.00     0.046 A 
ATOM     20  C   UNL A   1      32.846  18.299  25.543  1.00  0.00     0.092 A 
ATOM     21  C   UNL A   1      32.774  18.087  22.773  1.00  0.00     0.008 A 
ATOM     22  C   UNL A   1      32.500  19.306  23.396  1.00  0.00     0.047 A 
BRANCH  18  23
ATOM     23  O   UNL A   1      33.446  15.917  25.593  1.00  0.00    -0.497 OA
ATOM     24  C   UNL A   1      32.424  14.932  25.694  1.00  0.00     0.278 C 
ENDBRANCH  18  23
ENDBRANCH  16  17
ENDBRANCH  14  16
ENDBRANCH   9  14
ENDBRANCH   7   8
ENDBRANCH   6   7
ENDBRANCH   3   6
ENDBRANCH   1   2
BRANCH   1  25
ATOM     25  C   UNL A   1      35.373  31.005  27.727  1.00  0.00     0.021 C 
BRANCH  25  26
ATOM     26  C   UNL A   1      34.373  31.887  28.488  1.00  0.00     0.002 C 
BRANCH  26  27
ATOM     27  C   UNL A   1      34.473  33.390  28.211  1.00  0.00     0.002 C 
BRANCH  27  28
ATOM     28  C   UNL A   1      33.193  34.191  28.460  1.00  0.00     0.021 C 
BRANCH  28  29
ATOM     29  C   UNL A   1      33.405  35.588  29.032  1.00  0.00     0.116 C 
BRANCH  29  30
ATOM     30  N   UNL A   1      32.624  35.818  30.235  1.00  0.00    -0.352 N 
ATOM     31  C   UNL A   1      32.838  35.373  31.512  1.00  0.00     0.251 C 
ATOM     32  H   UNL A   1      31.822  36.377  30.114  1.00  0.00     0.163 HD
ATOM     33  O   UNL A   1      31.973  35.540  32.372  1.00  0.00    -0.269 OA
BRANCH  31  34
ATOM     34  C   UNL A   1      34.091  34.670  31.867  1.00  0.00     0.039 A 
ATOM     35  C   UNL A   1      34.017  33.326  32.247  1.00  0.00     0.014 A 
ATOM     36  C   UNL A   1      35.325  35.328  31.872  1.00  0.00     0.014 A 
ATOM     37  C   UNL A   1      35.181  32.633  32.590  1.00  0.00     0.010 A 
ATOM     38  C   UNL A   1      36.493  34.618  32.149  1.00  0.00     0.010 A 
ATOM     39  C   UNL A   1      36.431  33.267  32.525  1.00  0.00    -0.014 A 
BRANCH  39  40
ATOM     40  C   UNL A   1      37.674  32.533  32.872  1.00  0.00     0.031 A 
ATOM     41  C   UNL A   1      38.388  32.822  34.165  1.00  0.00     0.074 A 
ATOM     42  C   UNL A   1      38.181  31.634  32.008  1.00  0.00     0.049 A 
ATOM     43  N   UNL A   1      39.490  32.295  34.637  1.00  0.00    -0.248 NA
ATOM     44  C   UNL A   1      37.799  33.855  35.032  1.00  0.00     0.031 C 
ATOM     45  C   UNL A   1      37.609  31.299  30.703  1.00  0.00     0.029 A 
ATOM     46  N   UNL A   1      39.295  30.837  32.097  1.00  0.00    -0.354 N 
ATOM     47  C   UNL A   1      39.734  32.943  35.840  1.00  0.00     0.074 A 
ATOM     48  C   UNL A   1      38.692  33.933  36.007  1.00  0.00     0.031 C 
ATOM     49  C   UNL A   1      38.360  30.346  30.126  1.00  0.00     0.029 A 
ATOM     50  C   UNL A   1      39.479  30.023  31.006  1.00  0.00     0.049 A 
ATOM     51  H   UNL A   1      39.905  30.847  32.870  1.00  0.00     0.167 HD
ATOM     52  C   UNL A   1      40.726  32.719  36.735  1.00  0.00     0.037 A 
ATOM     53  C   UNL A   1      40.442  29.117  30.747  1.00  0.00     0.037 A 
ATOM     54  C   UNL A   1      41.736  31.705  36.589  1.00  0.00     0.049 A 
ATOM     55  C   UNL A   1      41.523  28.880  31.766  1.00  0.00     0.074 A 
ATOM     56  C   UNL A   1      42.728  31.342  37.482  1.00  0.00     0.029 A 
ATOM     57  N   UNL A   1      41.882  30.892  35.476  1.00  0.00    -0.354 N 
ATOM     58  N   UNL A   1      41.692  29.437  32.940  1.00  0.00    -0.248 NA
ATOM     59  C   UNL A   1      42.545  27.880  31.425  1.00  0.00     0.031 C 
ATOM     60  C   UNL A   1      43.501  30.336  36.892  1.00  0.00     0.029 A 
ATOM     61  C   UNL A   1      42.964  30.045  35.650  1.00  0.00     0.049 A 
ATOM     62  H   UNL A   1      41.303  30.913  34.680  1.00  0.00     0.167 HD
ATOM     63  C   UNL A   1      42.815  28.836  33.490  1.00  0.00     0.074 A 
ATOM     64  C   UNL A   1      43.283  27.861  32.526  1.00  0.00     0.031 C 
ATOM     65  C   UNL A   1      43.406  29.069  34.687  1.00  0.00     0.037 A 
BRANCH  52  66
ATOM     66  C   UNL A   1      40.766  33.582  37.962  1.00  0.00     0.064 A 
ATOM     67  C   UNL A   1      39.938  33.330  39.066  1.00  0.00     0.173 A 
ATOM     68  C   UNL A   1      41.684  34.639  38.056  1.00  0.00     0.173 A 
ATOM     69  F   UNL A   1      39.038  32.336  39.021  1.00  0.00    -0.203 F 
ATOM     70  C   UNL A   1      40.010  34.120  40.210  1.00  0.00     0.198 A 
ATOM     71  C   UNL A   1      41.772  35.411  39.212  1.00  0.00     0.198 A 
ATOM     72  F   UNL A   1      42.504  34.917  37.031  1.00  0.00    -0.203 F 
ATOM     73  F   UNL A   1      39.181  33.887  41.237  1.00  0.00    -0.200 F 
ATOM     74  C   UNL A   1      40.931  35.155  40.285  1.00  0.00     0.200 A 
ATOM     75  F   UNL A   1      42.671  36.402  39.288  1.00  0.00    -0.200 F 
ATOM     76  F   UNL A   1      41.006  35.908  41.391  1.00  0.00    -0.200 F 
ENDBRANCH  52  66
BRANCH  53  77
ATOM     77  C   UNL A   1      40.409  28.335  29.484  1.00  0.00     0.064 A 
ATOM     78  C   UNL A   1      39.670  27.147  29.397  1.00  0.00     0.173 A 
ATOM     79  C   UNL A   1      41.126  28.743  28.351  1.00  0.00     0.173 A 
ATOM     80  F   UNL A   1      38.986  26.705  30.462  1.00  0.00    -0.203 F 
ATOM     81  C   UNL A   1      39.668  26.384  28.231  1.00  0.00     0.198 A 
ATOM     82  C   UNL A   1      41.102  27.993  27.177  1.00  0.00     0.198 A 
ATOM     83  F   UNL A   1      41.846  29.873  28.383  1.00  0.00    -0.203 F 
ATOM     84  F   UNL A   1      38.990  25.228  28.190  1.00  0.00    -0.200 F 
ATOM     85  C   UNL A   1      40.381  26.810  27.120  1.00  0.00     0.200 A 
ATOM     86  F   UNL A   1      41.783  28.413  26.102  1.00  0.00    -0.200 F 
ATOM     87  F   UNL A   1      40.379  26.076  25.999  1.00  0.00    -0.200 F 
ENDBRANCH  53  77
BRANCH  65  88
ATOM     88  C   UNL A   1      44.601  28.232  35.039  1.00  0.00     0.064 A 
ATOM     89  C   UNL A   1      44.466  26.995  35.685  1.00  0.00     0.173 A 
ATOM     90  C   UNL A   1      45.891  28.657  34.689  1.00  0.00     0.173 A 
ATOM     91  F   UNL A   1      43.254  26.554  36.053  1.00  0.00    -0.203 F 
ATOM     92  C   UNL A   1      45.585  26.223  35.988  1.00  0.00     0.198 A 
ATOM     93  C   UNL A   1      47.004  27.870  34.970  1.00  0.00     0.198 A 
ATOM     94  F   UNL A   1      46.072  29.831  34.064  1.00  0.00    -0.203 F 
ATOM     95  F   UNL A   1      45.437  25.064  36.645  1.00  0.00    -0.200 F 
ATOM     96  C   UNL A   1      46.851  26.658  35.625  1.00  0.00     0.200 A 
ATOM     97  F   UNL A   1      48.225  28.285  34.607  1.00  0.00    -0.200 F 
ATOM     98  F   UNL A   1      47.925  25.909  35.913  1.00  0.00    -0.200 F 
ENDBRANCH  65  88
ENDBRANCH  39  40
ENDBRANCH  31  34
ENDBRANCH  29  30
ENDBRANCH  28  29
ENDBRANCH  27  28
ENDBRANCH  26  27
ENDBRANCH  25  26
ENDBRANCH   1  25
TORSDOF 19
ENDMDL
MODEL 2
REMARK VINA RESULT:     -11.0      2.159      3.008
REMARK SMILES COc1cccc(O[C@@H](C)c2nnc(SCC(=O)NCCCCCCNC(=O)c3ccc(-c4c5nc(c(-c6c(F)c(F)c(F)c(F)c6F)c6ccc([nH]6)c(-c6c(F)c(F)c(F)c(F)c6F)c6nc(c(-c7c(F)c(F)c(F)c(F)c7F)c7ccc4[nH]7)C=C6)C=C5)cc3)n2C)c1
REMARK SMILES IDX 20 1 19 2 17 3 18 4 16 6 15 7 14 8 11 9 12 10 92 11 13 12
REMARK SMILES IDX 93 13 9 14 10 15 8 16 7 17 3 18 4 19 94 20 5 21 6 22 2 23
REMARK SMILES IDX 1 24 21 25 22 26 23 27 24 28 25 29 26 30 27 31 28 33 29 34
REMARK SMILES IDX 30 35 91 36 31 37 90 38 32 39 33 40 34 41 84 42 35 43 89 44
REMARK SMILES IDX 83 45 85 46 36 47 88 48 82 49 81 50 37 52 69 53 49 54 68 55
REMARK SMILES IDX 50 56 53 57 67 58 86 59 51 60 52 61 66 63 87 64 54 65 38 66
REMARK SMILES IDX 39 67 47 68 40 69 41 70 45 71 48 72 42 73 43 74 46 75 44 76
REMARK SMILES IDX 70 77 71 78 79 79 72 80 73 81 77 82 80 83 74 84 75 85 78 86
REMARK SMILES IDX 76 87 55 88 56 89 64 90 57 91 58 92 62 93 65 94 59 95 60 96
REMARK SMILES IDX 63 97 61 98
REMARK H PARENT 19 5 26 32 85 51 53 62
REMARK Flexibility Score: inf
ROOT
ATOM      1  C   UNL A   1      34.337  30.880  27.473  1.00  0.00     0.116 C 
ENDROOT
BRANCH   1   2
ATOM      2  N   UNL A   1      33.279  29.928  27.744  1.00  0.00    -0.355 N 
ATOM      3  C   UNL A   1      32.327  29.441  26.910  1.00  0.00     0.230 C 
ATOM      4  O   UNL A   1      31.468  28.690  27.380  1.00  0.00    -0.274 OA
ATOM      5  H   UNL A   1      33.247  29.587  28.667  1.00  0.00     0.163 HD
BRANCH   3   6
ATOM      6  C   UNL A   1      32.362  29.752  25.435  1.00  0.00     0.178 C 
BRANCH   6   7
ATOM      7  S   UNL A   1      30.927  29.251  24.481  1.00  0.00    -0.076 SA
BRANCH   7   8
ATOM      8  C   UNL A   1      31.235  27.699  23.787  1.00  0.00     0.191 A 
ATOM      9  C   UNL A   1      31.892  25.608  23.661  1.00  0.00     0.174 A 
ATOM     10  N   UNL A   1      32.319  26.256  22.589  1.00  0.00    -0.130 NA
ATOM     11  N   UNL A   1      31.078  26.471  24.380  1.00  0.00    -0.306 N 
ATOM     12  N   UNL A   1      31.924  27.562  22.678  1.00  0.00    -0.123 NA
ATOM     13  C   UNL A   1      30.227  26.140  25.491  1.00  0.00     0.154 C 
BRANCH   9  14
ATOM     14  C   UNL A   1      32.266  24.178  23.950  1.00  0.00     0.238 C 
ATOM     15  C   UNL A   1      31.188  23.116  24.073  1.00  0.00     0.062 C 
BRANCH  14  16
ATOM     16  O   UNL A   1      33.244  24.086  25.006  1.00  0.00    -0.483 OA
BRANCH  16  17
ATOM     17  C   UNL A   1      34.552  23.743  24.827  1.00  0.00     0.124 A 
ATOM     18  C   UNL A   1      36.902  23.524  25.409  1.00  0.00     0.122 A 
ATOM     19  C   UNL A   1      37.184  23.057  24.128  1.00  0.00     0.046 A 
ATOM     20  C   UNL A   1      35.591  23.876  25.744  1.00  0.00     0.092 A 
ATOM     21  C   UNL A   1      36.156  22.908  23.201  1.00  0.00     0.008 A 
ATOM     22  C   UNL A   1      34.848  23.249  23.553  1.00  0.00     0.047 A 
BRANCH  18  23
ATOM     23  O   UNL A   1      37.986  23.649  26.237  1.00  0.00    -0.497 OA
ATOM     24  C   UNL A   1      38.897  22.556  26.243  1.00  0.00     0.278 C 
ENDBRANCH  18  23
ENDBRANCH  16  17
ENDBRANCH  14  16
ENDBRANCH   9  14
ENDBRANCH   7   8
ENDBRANCH   6   7
ENDBRANCH   3   6
ENDBRANCH   1   2
BRANCH   1  25
ATOM     25  C   UNL A   1      34.295  32.049  28.455  1.00  0.00     0.021 C 
BRANCH  25  26
ATOM     26  C   UNL A   1      35.479  33.021  28.352  1.00  0.00     0.002 C 
BRANCH  26  27
ATOM     27  C   UNL A   1      35.150  34.494  28.609  1.00  0.00     0.002 C 
BRANCH  27  28
ATOM     28  C   UNL A   1      33.678  34.799  28.900  1.00  0.00     0.021 C 
BRANCH  28  29
ATOM     29  C   UNL A   1      33.405  36.186  29.471  1.00  0.00     0.116 C 
BRANCH  29  30
ATOM     30  N   UNL A   1      32.498  36.150  30.604  1.00  0.00    -0.352 N 
ATOM     31  C   UNL A   1      32.627  35.501  31.804  1.00  0.00     0.251 C 
ATOM     32  H   UNL A   1      31.669  36.668  30.494  1.00  0.00     0.163 HD
ATOM     33  O   UNL A   1      31.674  35.458  32.581  1.00  0.00    -0.269 OA
BRANCH  31  34
ATOM     34  C   UNL A   1      33.894  34.829  32.167  1.00  0.00     0.039 A 
ATOM     35  C   UNL A   1      33.876  33.451  32.400  1.00  0.00     0.014 A 
ATOM     36  C   UNL A   1      35.086  35.546  32.323  1.00  0.00     0.014 A 
ATOM     37  C   UNL A   1      35.055  32.786  32.747  1.00  0.00     0.010 A 
ATOM     38  C   UNL A   1      36.274  34.871  32.603  1.00  0.00     0.010 A 
ATOM     39  C   UNL A   1      36.268  33.487  32.832  1.00  0.00    -0.014 A 
BRANCH  39  40
ATOM     40  C   UNL A   1      37.528  32.785  33.184  1.00  0.00     0.031 A 
ATOM     41  C   UNL A   1      38.220  33.079  34.487  1.00  0.00     0.074 A 
ATOM     42  C   UNL A   1      38.069  31.910  32.315  1.00  0.00     0.049 A 
ATOM     43  N   UNL A   1      39.332  32.578  34.965  1.00  0.00    -0.248 NA
ATOM     44  C   UNL A   1      37.593  34.084  35.360  1.00  0.00     0.031 C 
ATOM     45  C   UNL A   1      37.520  31.574  31.001  1.00  0.00     0.029 A 
ATOM     46  N   UNL A   1      39.204  31.144  32.407  1.00  0.00    -0.354 N 
ATOM     47  C   UNL A   1      39.545  33.219  36.177  1.00  0.00     0.074 A 
ATOM     48  C   UNL A   1      38.473  34.176  36.345  1.00  0.00     0.031 C 
ATOM     49  C   UNL A   1      38.303  30.649  30.421  1.00  0.00     0.029 A 
ATOM     50  C   UNL A   1      39.423  30.348  31.309  1.00  0.00     0.049 A 
ATOM     51  H   UNL A   1      39.806  31.162  33.186  1.00  0.00     0.167 HD
ATOM     52  C   UNL A   1      40.534  33.013  37.080  1.00  0.00     0.037 A 
ATOM     53  C   UNL A   1      40.413  29.472  31.051  1.00  0.00     0.037 A 
ATOM     54  C   UNL A   1      41.573  32.030  36.934  1.00  0.00     0.049 A 
ATOM     55  C   UNL A   1      41.491  29.255  32.078  1.00  0.00     0.074 A 
ATOM     56  C   UNL A   1      42.567  31.685  37.833  1.00  0.00     0.029 A 
ATOM     57  N   UNL A   1      41.754  31.234  35.813  1.00  0.00    -0.354 N 
ATOM     58  N   UNL A   1      41.631  29.803  33.260  1.00  0.00    -0.248 NA
ATOM     59  C   UNL A   1      42.544  28.288  31.737  1.00  0.00     0.031 C 
ATOM     60  C   UNL A   1      43.374  30.708  37.240  1.00  0.00     0.029 A 
ATOM     61  C   UNL A   1      42.858  30.416  35.989  1.00  0.00     0.049 A 
ATOM     62  H   UNL A   1      41.182  31.248  35.012  1.00  0.00     0.167 HD
ATOM     63  C   UNL A   1      42.765  29.228  33.815  1.00  0.00     0.074 A 
ATOM     64  C   UNL A   1      43.271  28.278  32.845  1.00  0.00     0.031 C 
ATOM     65  C   UNL A   1      43.338  29.464  35.020  1.00  0.00     0.037 A 
BRANCH  52  66
ATOM     66  C   UNL A   1      40.537  33.862  38.318  1.00  0.00     0.064 A 
ATOM     67  C   UNL A   1      41.310  35.029  38.407  1.00  0.00     0.173 A 
ATOM     68  C   UNL A   1      39.714  33.534  39.406  1.00  0.00     0.173 A 
ATOM     69  F   UNL A   1      42.119  35.381  37.396  1.00  0.00    -0.203 F 
ATOM     70  C   UNL A   1      41.278  35.824  39.549  1.00  0.00     0.198 A 
ATOM     71  C   UNL A   1      39.664  34.345  40.537  1.00  0.00     0.198 A 
ATOM     72  F   UNL A   1      38.950  32.432  39.369  1.00  0.00    -0.203 F 
ATOM     73  F   UNL A   1      42.054  36.913  39.629  1.00  0.00    -0.200 F 
ATOM     74  C   UNL A   1      40.450  35.486  40.610  1.00  0.00     0.200 A 
ATOM     75  F   UNL A   1      38.854  34.024  41.555  1.00  0.00    -0.200 F 
ATOM     76  F   UNL A   1      40.411  36.258  41.705  1.00  0.00    -0.200 F 
ENDBRANCH  52  66
BRANCH  53  77
ATOM     77  C   UNL A   1      40.415  28.704  29.778  1.00  0.00     0.064 A 
ATOM     78  C   UNL A   1      41.091  29.191  28.650  1.00  0.00     0.173 A 
ATOM     79  C   UNL A   1      39.730  27.488  29.656  1.00  0.00     0.173 A 
ATOM     80  F   UNL A   1      41.741  30.362  28.713  1.00  0.00    -0.203 F 
ATOM     81  C   UNL A   1      41.062  28.500  27.441  1.00  0.00     0.198 A 
ATOM     82  C   UNL A   1      39.724  26.784  28.453  1.00  0.00     0.198 A 
ATOM     83  F   UNL A   1      39.071  26.979  30.706  1.00  0.00    -0.203 F 
ATOM     84  F   UNL A   1      41.676  29.011  26.365  1.00  0.00    -0.200 F 
ATOM     85  C   UNL A   1      40.382  27.295  27.344  1.00  0.00     0.200 A 
ATOM     86  F   UNL A   1      39.075  25.615  28.366  1.00  0.00    -0.200 F 
ATOM     87  F   UNL A   1      40.354  26.631  26.181  1.00  0.00    -0.200 F 
ENDBRANCH  53  77
BRANCH  65  88
ATOM     88  C   UNL A   1      44.552  28.658  35.375  1.00  0.00     0.064 A 
ATOM     89  C   UNL A   1      44.446  27.415  36.015  1.00  0.00     0.173 A 
ATOM     90  C   UNL A   1      45.832  29.118  35.034  1.00  0.00     0.173 A 
ATOM     91  F   UNL A   1      43.245  26.941  36.375  1.00  0.00    -0.203 F 
ATOM     92  C   UNL A   1      45.584  26.672  36.322  1.00  0.00     0.198 A 
ATOM     93  C   UNL A   1      46.964  28.360  35.318  1.00  0.00     0.198 A 
ATOM     94  F   UNL A   1      45.985  30.299  34.415  1.00  0.00    -0.203 F 
ATOM     95  F   UNL A   1      45.463  25.507  36.973  1.00  0.00    -0.200 F 
ATOM     96  C   UNL A   1      46.840  27.141  35.967  1.00  0.00     0.200 A 
ATOM     97  F   UNL A   1      48.176  28.809  34.964  1.00  0.00    -0.200 F 
ATOM     98  F   UNL A   1      47.932  26.420  36.258  1.00  0.00    -0.200 F 
ENDBRANCH  65  88
ENDBRANCH  39  40
ENDBRANCH  31  34
ENDBRANCH  29  30
ENDBRANCH  28  29
ENDBRANCH  27  28
ENDBRANCH  26  27
ENDBRANCH  25  26
ENDBRANCH   1  25
TORSDOF 19
ENDMDL
MODEL 3
REMARK VINA RESULT:     -10.9      1.302      7.388
REMARK SMILES COc1cccc(O[C@@H](C)c2nnc(SCC(=O)NCCCCCCNC(=O)c3ccc(-c4c5nc(c(-c6c(F)c(F)c(F)c(F)c6F)c6ccc([nH]6)c(-c6c(F)c(F)c(F)c(F)c6F)c6nc(c(-c7c(F)c(F)c(F)c(F)c7F)c7ccc4[nH]7)C=C6)C=C5)cc3)n2C)c1
REMARK SMILES IDX 20 1 19 2 17 3 18 4 16 6 15 7 14 8 11 9 12 10 92 11 13 12
REMARK SMILES IDX 93 13 9 14 10 15 8 16 7 17 3 18 4 19 94 20 5 21 6 22 2 23
REMARK SMILES IDX 1 24 21 25 22 26 23 27 24 28 25 29 26 30 27 31 28 33 29 34
REMARK SMILES IDX 30 35 91 36 31 37 90 38 32 39 33 40 34 41 84 42 35 43 89 44
REMARK SMILES IDX 83 45 85 46 36 47 88 48 82 49 81 50 37 52 69 53 49 54 68 55
REMARK SMILES IDX 50 56 53 57 67 58 86 59 51 60 52 61 66 63 87 64 54 65 38 66
REMARK SMILES IDX 39 67 47 68 40 69 41 70 45 71 48 72 42 73 43 74 46 75 44 76
REMARK SMILES IDX 70 77 71 78 79 79 72 80 73 81 77 82 80 83 74 84 75 85 78 86
REMARK SMILES IDX 76 87 55 88 56 89 64 90 57 91 58 92 62 93 65 94 59 95 60 96
REMARK SMILES IDX 63 97 61 98
REMARK H PARENT 19 5 26 32 85 51 53 62
REMARK Flexibility Score: inf
ROOT
ATOM      1  C   UNL A   1      34.493  30.183  27.560  1.00  0.00     0.116 C 
ENDROOT
BRANCH   1   2
ATOM      2  N   UNL A   1      33.145  30.484  27.123  1.00  0.00    -0.355 N 
ATOM      3  C   UNL A   1      32.548  30.217  25.934  1.00  0.00     0.230 C 
ATOM      4  O   UNL A   1      31.403  30.639  25.749  1.00  0.00    -0.274 OA
ATOM      5  H   UNL A   1      32.582  30.948  27.784  1.00  0.00     0.163 HD
BRANCH   3   6
ATOM      6  C   UNL A   1      33.239  29.369  24.897  1.00  0.00     0.178 C 
BRANCH   6   7
ATOM      7  S   UNL A   1      32.255  28.070  24.146  1.00  0.00    -0.076 SA
BRANCH   7   8
ATOM      8  C   UNL A   1      32.033  26.802  25.298  1.00  0.00     0.191 A 
ATOM      9  C   UNL A   1      31.529  24.814  26.081  1.00  0.00     0.174 A 
ATOM     10  N   UNL A   1      31.008  25.733  26.879  1.00  0.00    -0.130 NA
ATOM     11  N   UNL A   1      32.308  25.467  25.137  1.00  0.00    -0.306 N 
ATOM     12  N   UNL A   1      31.309  26.969  26.380  1.00  0.00    -0.123 NA
ATOM     13  C   UNL A   1      33.228  24.871  24.207  1.00  0.00     0.154 C 
BRANCH   9  14
ATOM     14  C   UNL A   1      31.276  23.341  26.263  1.00  0.00     0.238 C 
ATOM     15  C   UNL A   1      29.962  22.856  26.849  1.00  0.00     0.062 C 
BRANCH  14  16
ATOM     16  O   UNL A   1      32.413  22.673  26.851  1.00  0.00    -0.483 OA
BRANCH  16  17
ATOM     17  C   UNL A   1      33.258  21.839  26.180  1.00  0.00     0.124 A 
ATOM     18  C   UNL A   1      33.897  19.904  24.855  1.00  0.00     0.122 A 
ATOM     19  C   UNL A   1      35.240  20.241  24.996  1.00  0.00     0.046 A 
ATOM     20  C   UNL A   1      32.917  20.698  25.459  1.00  0.00     0.092 A 
ATOM     21  C   UNL A   1      35.599  21.385  25.704  1.00  0.00     0.008 A 
ATOM     22  C   UNL A   1      34.609  22.177  26.290  1.00  0.00     0.047 A 
BRANCH  18  23
ATOM     23  O   UNL A   1      33.654  18.752  24.155  1.00  0.00    -0.497 OA
ATOM     24  C   UNL A   1      34.653  17.743  24.249  1.00  0.00     0.278 C 
ENDBRANCH  18  23
ENDBRANCH  16  17
ENDBRANCH  14  16
ENDBRANCH   9  14
ENDBRANCH   7   8
ENDBRANCH   6   7
ENDBRANCH   3   6
ENDBRANCH   1   2
BRANCH   1  25
ATOM     25  C   UNL A   1      35.204  31.438  28.063  1.00  0.00     0.021 C 
BRANCH  25  26
ATOM     26  C   UNL A   1      34.361  32.332  28.983  1.00  0.00     0.002 C 
BRANCH  26  27
ATOM     27  C   UNL A   1      34.491  33.839  28.743  1.00  0.00     0.002 C 
BRANCH  27  28
ATOM     28  C   UNL A   1      33.179  34.627  28.779  1.00  0.00     0.021 C 
BRANCH  28  29
ATOM     29  C   UNL A   1      33.277  36.017  29.396  1.00  0.00     0.116 C 
BRANCH  29  30
ATOM     30  N   UNL A   1      32.392  36.180  30.536  1.00  0.00    -0.352 N 
ATOM     31  C   UNL A   1      32.516  35.698  31.812  1.00  0.00     0.251 C 
ATOM     32  H   UNL A   1      31.584  36.717  30.366  1.00  0.00     0.163 HD
ATOM     33  O   UNL A   1      31.578  35.808  32.601  1.00  0.00    -0.269 OA
BRANCH  31  34
ATOM     34  C   UNL A   1      33.759  35.025  32.248  1.00  0.00     0.039 A 
ATOM     35  C   UNL A   1      33.662  33.756  32.829  1.00  0.00     0.014 A 
ATOM     36  C   UNL A   1      35.008  35.643  32.131  1.00  0.00     0.014 A 
ATOM     37  C   UNL A   1      34.817  33.094  33.253  1.00  0.00     0.010 A 
ATOM     38  C   UNL A   1      36.165  34.953  32.492  1.00  0.00     0.010 A 
ATOM     39  C   UNL A   1      36.080  33.678  33.071  1.00  0.00    -0.014 A 
BRANCH  39  40
ATOM     40  C   UNL A   1      37.313  32.972  33.504  1.00  0.00     0.031 A 
ATOM     41  C   UNL A   1      37.940  31.931  32.618  1.00  0.00     0.074 A 
ATOM     42  C   UNL A   1      37.847  33.242  34.710  1.00  0.00     0.049 A 
ATOM     43  N   UNL A   1      39.007  31.201  32.826  1.00  0.00    -0.248 NA
ATOM     44  C   UNL A   1      37.268  31.656  31.337  1.00  0.00     0.031 C 
ATOM     45  C   UNL A   1      37.306  34.196  35.680  1.00  0.00     0.029 A 
ATOM     46  N   UNL A   1      38.964  32.737  35.327  1.00  0.00    -0.354 N 
ATOM     47  C   UNL A   1      39.122  30.373  31.718  1.00  0.00     0.074 A 
ATOM     48  C   UNL A   1      37.993  30.657  30.859  1.00  0.00     0.031 C 
ATOM     49  C   UNL A   1      38.108  34.227  36.758  1.00  0.00     0.029 A 
ATOM     50  C   UNL A   1      39.201  33.278  36.567  1.00  0.00     0.049 A 
ATOM     51  H   UNL A   1      39.542  32.052  34.920  1.00  0.00     0.167 HD
ATOM     52  C   UNL A   1      40.092  29.472  31.433  1.00  0.00     0.037 A 
ATOM     53  C   UNL A   1      40.191  33.037  37.448  1.00  0.00     0.037 A 
ATOM     54  C   UNL A   1      41.238  29.223  32.266  1.00  0.00     0.049 A 
ATOM     55  C   UNL A   1      41.262  32.040  37.099  1.00  0.00     0.074 A 
ATOM     56  C   UNL A   1      42.319  28.395  32.021  1.00  0.00     0.029 A 
ATOM     57  N   UNL A   1      41.449  29.799  33.509  1.00  0.00    -0.354 N 
ATOM     58  N   UNL A   1      41.407  31.329  36.007  1.00  0.00    -0.248 NA
ATOM     59  C   UNL A   1      42.314  31.820  38.102  1.00  0.00     0.031 C 
ATOM     60  C   UNL A   1      43.166  28.440  33.133  1.00  0.00     0.029 A 
ATOM     61  C   UNL A   1      42.632  29.327  34.053  1.00  0.00     0.049 A 
ATOM     62  H   UNL A   1      40.848  30.449  33.941  1.00  0.00     0.167 HD
ATOM     63  C   UNL A   1      42.577  30.603  36.178  1.00  0.00     0.074 A 
ATOM     64  C   UNL A   1      43.112  30.968  37.474  1.00  0.00     0.031 C 
ATOM     65  C   UNL A   1      43.158  29.713  35.337  1.00  0.00     0.037 A 
BRANCH  52  66
ATOM     66  C   UNL A   1      39.965  28.690  30.158  1.00  0.00     0.064 A 
ATOM     67  C   UNL A   1      40.498  29.161  28.950  1.00  0.00     0.173 A 
ATOM     68  C   UNL A   1      39.350  27.428  30.158  1.00  0.00     0.173 A 
ATOM     69  F   UNL A   1      41.087  30.365  28.896  1.00  0.00    -0.203 F 
ATOM     70  C   UNL A   1      40.399  28.409  27.782  1.00  0.00     0.198 A 
ATOM     71  C   UNL A   1      39.277  26.667  28.995  1.00  0.00     0.198 A 
ATOM     72  F   UNL A   1      38.831  26.928  31.290  1.00  0.00    -0.203 F 
ATOM     73  F   UNL A   1      40.881  28.896  26.630  1.00  0.00    -0.200 F 
ATOM     74  C   UNL A   1      39.797  27.160  27.806  1.00  0.00     0.200 A 
ATOM     75  F   UNL A   1      38.706  25.455  29.023  1.00  0.00    -0.200 F 
ATOM     76  F   UNL A   1      39.712  26.432  26.685  1.00  0.00    -0.200 F 
ENDBRANCH  52  66
BRANCH  53  77
ATOM     77  C   UNL A   1      40.240  33.779  38.735  1.00  0.00     0.064 A 
ATOM     78  C   UNL A   1      41.074  34.896  38.886  1.00  0.00     0.173 A 
ATOM     79  C   UNL A   1      39.476  33.379  39.840  1.00  0.00     0.173 A 
ATOM     80  F   UNL A   1      41.840  35.302  37.863  1.00  0.00    -0.203 F 
ATOM     81  C   UNL A   1      41.159  35.571  40.101  1.00  0.00     0.198 A 
ATOM     82  C   UNL A   1      39.543  34.072  41.048  1.00  0.00     0.198 A 
ATOM     83  F   UNL A   1      38.661  32.320  39.746  1.00  0.00    -0.203 F 
ATOM     84  F   UNL A   1      42.000  36.607  40.232  1.00  0.00    -0.200 F 
ATOM     85  C   UNL A   1      40.391  35.161  41.180  1.00  0.00     0.200 A 
ATOM     86  F   UNL A   1      38.790  33.680  42.085  1.00  0.00    -0.200 F 
ATOM     87  F   UNL A   1      40.473  35.811  42.349  1.00  0.00    -0.200 F 
ENDBRANCH  53  77
BRANCH  65  88
ATOM     88  C   UNL A   1      44.456  29.101  35.773  1.00  0.00     0.064 A 
ATOM     89  C   UNL A   1      44.496  27.893  36.485  1.00  0.00     0.173 A 
ATOM     90  C   UNL A   1      45.674  29.711  35.439  1.00  0.00     0.173 A 
ATOM     91  F   UNL A   1      43.357  27.281  36.841  1.00  0.00    -0.203 F 
ATOM     92  C   UNL A   1      45.712  27.330  36.867  1.00  0.00     0.198 A 
ATOM     93  C   UNL A   1      46.887  29.131  35.799  1.00  0.00     0.198 A 
ATOM     94  F   UNL A   1      45.689  30.864  34.753  1.00  0.00    -0.203 F 
ATOM     95  F   UNL A   1      45.726  26.199  37.584  1.00  0.00    -0.200 F 
ATOM     96  C   UNL A   1      46.905  27.945  36.518  1.00  0.00     0.200 A 
ATOM     97  F   UNL A   1      48.040  29.720  35.450  1.00  0.00    -0.200 F 
ATOM     98  F   UNL A   1      48.073  27.398  36.881  1.00  0.00    -0.200 F 
ENDBRANCH  65  88
ENDBRANCH  39  40
ENDBRANCH  31  34
ENDBRANCH  29  30
ENDBRANCH  28  29
ENDBRANCH  27  28
ENDBRANCH  26  27
ENDBRANCH  25  26
ENDBRANCH   1  25
TORSDOF 19
ENDMDL
