MODEL 1
REMARK VINA RESULT:     -12.7      0.000      0.000
REMARK SMILES C[C@H]1CC[C@@](NC(=O)N[C@H]2CCOC2)(C(=O)NCCCCCCNC(=O)c2ccc(-c3c4nc(c(-c5c(F)c(F)c(F)c(F)c5F)c5ccc([nH]5)c(-c5c(F)c(F)c(F)c(F)c5F)c5nc(c(-c6c(F)c(F)c(F)c(F)c6F)c6ccc3[nH]6)C=C5)C=C4)cc2)CC1
REMARK SMILES IDX 20 1 19 2 18 3 17 4 15 5 16 6 5 8 1 9 2 10 91 11 3 12 90 13
REMARK SMILES IDX 4 14 6 15 7 16 8 18 9 19 10 21 11 22 14 23 12 24 13 25 21 26
REMARK SMILES IDX 22 27 23 28 24 29 25 30 26 32 27 33 28 34 89 35 29 36 88 37
REMARK SMILES IDX 30 38 31 39 32 40 82 41 33 42 87 43 81 44 83 45 34 46 86 47
REMARK SMILES IDX 80 48 79 49 35 51 67 52 47 53 66 54 48 55 51 56 65 57 84 58
REMARK SMILES IDX 49 59 50 60 64 62 85 63 52 64 36 65 37 66 45 67 38 68 39 69
REMARK SMILES IDX 43 70 46 71 40 72 41 73 44 74 42 75 68 76 69 77 77 78 70 79
REMARK SMILES IDX 71 80 75 81 78 82 72 83 73 84 76 85 74 86 53 87 54 88 62 89
REMARK SMILES IDX 55 90 56 91 60 92 63 93 57 94 58 95 61 96 59 97
REMARK H PARENT 17 7 6 17 9 20 24 31 83 50 51 61
REMARK Flexibility Score: inf
ROOT
ATOM      1  C   UNL A   1      32.571  29.503  26.887  1.00  0.00     0.002 C 
ENDROOT
BRANCH   1   2
ATOM      2  C   UNL A   1      31.797  28.391  27.604  1.00  0.00     0.021 C 
BRANCH   2   3
ATOM      3  C   UNL A   1      31.257  27.346  26.640  1.00  0.00     0.116 C 
BRANCH   3   4
ATOM      4  N   UNL A   1      32.323  26.440  26.268  1.00  0.00    -0.354 N 
ATOM      5  C   UNL A   1      32.324  25.376  25.422  1.00  0.00     0.245 C 
ATOM      6  O   UNL A   1      33.423  24.841  25.243  1.00  0.00    -0.272 OA
ATOM      7  H   UNL A   1      33.189  26.625  26.698  1.00  0.00     0.163 HD
BRANCH   5   8
ATOM      8  C   UNL A   1      31.005  24.813  24.830  1.00  0.00     0.120 C 
ATOM      9  C   UNL A   1      32.963  26.630  21.576  1.00  0.00     0.007 C 
ATOM     10  C   UNL A   1      31.811  25.754  22.086  1.00  0.00    -0.014 C 
ATOM     11  C   UNL A   1      30.881  26.600  22.979  1.00  0.00     0.006 C 
ATOM     12  C   UNL A   1      32.384  24.475  22.716  1.00  0.00     0.006 C 
ATOM     13  C   UNL A   1      30.140  25.842  24.082  1.00  0.00     0.039 C 
ATOM     14  C   UNL A   1      31.445  23.810  23.722  1.00  0.00     0.039 C 
BRANCH   8  15
ATOM     15  N   UNL A   1      30.185  24.106  25.849  1.00  0.00    -0.324 N 
ATOM     16  C   UNL A   1      30.358  23.134  26.752  1.00  0.00     0.315 C 
ATOM     17  H   UNL A   1      29.261  24.446  25.861  1.00  0.00     0.166 HD
ATOM     18  O   UNL A   1      29.490  23.038  27.627  1.00  0.00    -0.249 OA
ATOM     19  N   UNL A   1      31.339  22.227  26.781  1.00  0.00    -0.333 N 
ATOM     20  H   UNL A   1      31.292  21.658  27.582  1.00  0.00     0.165 HD
BRANCH  19  21
ATOM     21  C   UNL A   1      32.453  21.874  25.928  1.00  0.00     0.112 C 
ATOM     22  C   UNL A   1      33.761  21.642  26.643  1.00  0.00     0.056 C 
ATOM     23  C   UNL A   1      32.324  20.575  25.133  1.00  0.00     0.185 C 
ATOM     24  C   UNL A   1      34.574  21.034  25.521  1.00  0.00     0.162 C 
ATOM     25  O   UNL A   1      33.671  20.173  24.806  1.00  0.00    -0.379 OA
ENDBRANCH  19  21
ENDBRANCH   8  15
ENDBRANCH   5   8
ENDBRANCH   3   4
ENDBRANCH   2   3
ENDBRANCH   1   2
BRANCH   1  26
ATOM     26  C   UNL A   1      31.712  30.378  25.969  1.00  0.00     0.002 C 
BRANCH  26  27
ATOM     27  C   UNL A   1      31.426  31.783  26.504  1.00  0.00     0.021 C 
BRANCH  27  28
ATOM     28  C   UNL A   1      32.612  32.450  27.191  1.00  0.00     0.116 C 
BRANCH  28  29
ATOM     29  N   UNL A   1      32.340  33.828  27.559  1.00  0.00    -0.352 N 
ATOM     30  C   UNL A   1      32.994  34.614  28.468  1.00  0.00     0.251 C 
ATOM     31  H   UNL A   1      31.584  34.255  27.092  1.00  0.00     0.163 HD
ATOM     32  O   UNL A   1      32.557  35.725  28.764  1.00  0.00    -0.269 OA
BRANCH  30  33
ATOM     33  C   UNL A   1      34.212  34.103  29.125  1.00  0.00     0.039 A 
ATOM     34  C   UNL A   1      34.067  33.202  30.180  1.00  0.00     0.014 A 
ATOM     35  C   UNL A   1      35.486  34.493  28.696  1.00  0.00     0.014 A 
ATOM     36  C   UNL A   1      35.202  32.659  30.779  1.00  0.00     0.010 A 
ATOM     37  C   UNL A   1      36.616  33.892  29.243  1.00  0.00     0.010 A 
ATOM     38  C   UNL A   1      36.485  32.977  30.297  1.00  0.00    -0.014 A 
BRANCH  38  39
ATOM     39  C   UNL A   1      37.680  32.337  30.898  1.00  0.00     0.031 A 
ATOM     40  C   UNL A   1      38.146  32.721  32.273  1.00  0.00     0.074 A 
ATOM     41  C   UNL A   1      38.344  31.402  30.193  1.00  0.00     0.049 A 
ATOM     42  N   UNL A   1      39.116  32.208  32.989  1.00  0.00    -0.248 NA
ATOM     43  C   UNL A   1      37.453  33.844  32.923  1.00  0.00     0.031 C 
ATOM     44  C   UNL A   1      38.028  30.998  28.821  1.00  0.00     0.029 A 
ATOM     45  N   UNL A   1      39.412  30.612  30.533  1.00  0.00    -0.354 N 
ATOM     46  C   UNL A   1      39.143  32.939  34.168  1.00  0.00     0.074 A 
ATOM     47  C   UNL A   1      38.142  33.976  34.046  1.00  0.00     0.031 C 
ATOM     48  C   UNL A   1      38.850  30.002  28.455  1.00  0.00     0.029 A 
ATOM     49  C   UNL A   1      39.766  29.717  29.554  1.00  0.00     0.049 A 
ATOM     50  H   UNL A   1      39.880  30.679  31.397  1.00  0.00     0.167 HD
ATOM     51  C   UNL A   1      39.914  32.745  35.265  1.00  0.00     0.037 A 
ATOM     52  C   UNL A   1      40.716  28.762  29.550  1.00  0.00     0.037 A 
ATOM     53  C   UNL A   1      40.901  31.702  35.384  1.00  0.00     0.049 A 
ATOM     54  C   UNL A   1      41.549  28.559  30.786  1.00  0.00     0.074 A 
ATOM     55  C   UNL A   1      41.693  31.382  36.472  1.00  0.00     0.029 A 
ATOM     56  N   UNL A   1      41.236  30.814  34.371  1.00  0.00    -0.354 N 
ATOM     57  N   UNL A   1      41.503  29.195  31.931  1.00  0.00    -0.248 NA
ATOM     58  C   UNL A   1      42.557  27.492  30.732  1.00  0.00     0.031 C 
ATOM     59  C   UNL A   1      42.544  30.335  36.100  1.00  0.00     0.029 A 
ATOM     60  C   UNL A   1      42.244  29.963  34.800  1.00  0.00     0.049 A 
ATOM     61  H   UNL A   1      40.819  30.791  33.479  1.00  0.00     0.167 HD
ATOM     62  C   UNL A   1      42.459  28.597  32.740  1.00  0.00     0.074 A 
ATOM     63  C   UNL A   1      43.046  27.523  31.963  1.00  0.00     0.031 C 
ATOM     64  C   UNL A   1      42.824  28.909  34.009  1.00  0.00     0.037 A 
BRANCH  51  65
ATOM     65  C   UNL A   1      39.715  33.675  36.428  1.00  0.00     0.064 A 
ATOM     66  C   UNL A   1      38.883  33.338  37.507  1.00  0.00     0.173 A 
ATOM     67  C   UNL A   1      40.392  34.903  36.483  1.00  0.00     0.173 A 
ATOM     68  F   UNL A   1      38.203  32.182  37.501  1.00  0.00    -0.203 F 
ATOM     69  C   UNL A   1      38.712  34.208  38.581  1.00  0.00     0.198 A 
ATOM     70  C   UNL A   1      40.244  35.756  37.574  1.00  0.00     0.198 A 
ATOM     71  F   UNL A   1      41.202  35.275  35.481  1.00  0.00    -0.203 F 
ATOM     72  F   UNL A   1      37.872  33.887  39.575  1.00  0.00    -0.200 F 
ATOM     73  C   UNL A   1      39.399  35.412  38.618  1.00  0.00     0.200 A 
ATOM     74  F   UNL A   1      40.918  36.914  37.614  1.00  0.00    -0.200 F 
ATOM     75  F   UNL A   1      39.240  36.244  39.656  1.00  0.00    -0.200 F 
ENDBRANCH  51  65
BRANCH  52  76
ATOM     76  C   UNL A   1      40.900  27.903  28.352  1.00  0.00     0.064 A 
ATOM     77  C   UNL A   1      41.717  28.311  27.288  1.00  0.00     0.173 A 
ATOM     78  C   UNL A   1      40.259  26.660  28.242  1.00  0.00     0.173 A 
ATOM     79  F   UNL A   1      42.337  29.499  27.337  1.00  0.00    -0.203 F 
ATOM     80  C   UNL A   1      41.866  27.521  26.149  1.00  0.00     0.198 A 
ATOM     81  C   UNL A   1      40.434  25.857  27.117  1.00  0.00     0.198 A 
ATOM     82  F   UNL A   1      39.473  26.220  29.234  1.00  0.00    -0.203 F 
ATOM     83  F   UNL A   1      42.612  27.959  25.126  1.00  0.00    -0.200 F 
ATOM     84  C   UNL A   1      41.229  26.292  26.068  1.00  0.00     0.200 A 
ATOM     85  F   UNL A   1      39.830  24.663  27.050  1.00  0.00    -0.200 F 
ATOM     86  F   UNL A   1      41.375  25.530  24.975  1.00  0.00    -0.200 F 
ENDBRANCH  52  76
BRANCH  64  87
ATOM     87  C   UNL A   1      43.900  28.065  34.632  1.00  0.00     0.064 A 
ATOM     88  C   UNL A   1      45.250  28.449  34.598  1.00  0.00     0.173 A 
ATOM     89  C   UNL A   1      43.578  26.859  35.272  1.00  0.00     0.173 A 
ATOM     90  F   UNL A   1      45.612  29.586  33.986  1.00  0.00    -0.203 F 
ATOM     91  C   UNL A   1      46.240  27.635  35.140  1.00  0.00     0.198 A 
ATOM     92  C   UNL A   1      44.567  26.065  35.846  1.00  0.00     0.198 A 
ATOM     93  F   UNL A   1      42.303  26.449  35.343  1.00  0.00    -0.203 F 
ATOM     94  F   UNL A   1      47.528  27.989  35.033  1.00  0.00    -0.200 F 
ATOM     95  C   UNL A   1      45.898  26.447  35.768  1.00  0.00     0.200 A 
ATOM     96  F   UNL A   1      44.234  24.925  36.466  1.00  0.00    -0.200 F 
ATOM     97  F   UNL A   1      46.853  25.663  36.286  1.00  0.00    -0.200 F 
ENDBRANCH  64  87
ENDBRANCH  38  39
ENDBRANCH  30  33
ENDBRANCH  28  29
ENDBRANCH  27  28
ENDBRANCH  26  27
ENDBRANCH   1  26
TORSDOF 15
ENDMDL
MODEL 2
REMARK VINA RESULT:     -12.7      0.121      1.579
REMARK SMILES C[C@H]1CC[C@@](NC(=O)N[C@H]2CCOC2)(C(=O)NCCCCCCNC(=O)c2ccc(-c3c4nc(c(-c5c(F)c(F)c(F)c(F)c5F)c5ccc([nH]5)c(-c5c(F)c(F)c(F)c(F)c5F)c5nc(c(-c6c(F)c(F)c(F)c(F)c6F)c6ccc3[nH]6)C=C5)C=C4)cc2)CC1
REMARK SMILES IDX 20 1 19 2 18 3 17 4 15 5 16 6 5 8 1 9 2 10 91 11 3 12 90 13
REMARK SMILES IDX 4 14 6 15 7 16 8 18 9 19 10 21 11 22 14 23 12 24 13 25 21 26
REMARK SMILES IDX 22 27 23 28 24 29 25 30 26 32 27 33 28 34 89 35 29 36 88 37
REMARK SMILES IDX 30 38 31 39 32 40 82 41 33 42 87 43 81 44 83 45 34 46 86 47
REMARK SMILES IDX 80 48 79 49 35 51 67 52 47 53 66 54 48 55 51 56 65 57 84 58
REMARK SMILES IDX 49 59 50 60 64 62 85 63 52 64 36 65 37 66 45 67 38 68 39 69
REMARK SMILES IDX 43 70 46 71 40 72 41 73 44 74 42 75 68 76 69 77 77 78 70 79
REMARK SMILES IDX 71 80 75 81 78 82 72 83 73 84 76 85 74 86 53 87 54 88 62 89
REMARK SMILES IDX 55 90 56 91 60 92 63 93 57 94 58 95 61 96 59 97
REMARK H PARENT 17 7 6 17 9 20 24 31 83 50 51 61
REMARK Flexibility Score: inf
ROOT
ATOM      1  C   UNL A   1      32.574  29.532  26.879  1.00  0.00     0.002 C 
ENDROOT
BRANCH   1   2
ATOM      2  C   UNL A   1      31.854  28.389  27.603  1.00  0.00     0.021 C 
BRANCH   2   3
ATOM      3  C   UNL A   1      31.325  27.336  26.642  1.00  0.00     0.116 C 
BRANCH   3   4
ATOM      4  N   UNL A   1      32.394  26.426  26.292  1.00  0.00    -0.354 N 
ATOM      5  C   UNL A   1      32.405  25.354  25.456  1.00  0.00     0.245 C 
ATOM      6  O   UNL A   1      33.505  24.817  25.295  1.00  0.00    -0.272 OA
ATOM      7  H   UNL A   1      33.255  26.614  26.731  1.00  0.00     0.163 HD
BRANCH   5   8
ATOM      8  C   UNL A   1      31.093  24.786  24.853  1.00  0.00     0.120 C 
ATOM      9  C   UNL A   1      33.038  26.670  21.630  1.00  0.00     0.007 C 
ATOM     10  C   UNL A   1      31.894  25.776  22.124  1.00  0.00    -0.014 C 
ATOM     11  C   UNL A   1      30.954  26.598  23.028  1.00  0.00     0.006 C 
ATOM     12  C   UNL A   1      32.479  24.493  22.737  1.00  0.00     0.006 C 
ATOM     13  C   UNL A   1      30.219  25.818  24.118  1.00  0.00     0.039 C 
ATOM     14  C   UNL A   1      31.545  23.804  23.732  1.00  0.00     0.039 C 
BRANCH   8  15
ATOM     15  N   UNL A   1      30.278  24.056  25.859  1.00  0.00    -0.324 N 
ATOM     16  C   UNL A   1      30.464  23.086  26.763  1.00  0.00     0.315 C 
ATOM     17  H   UNL A   1      29.346  24.373  25.862  1.00  0.00     0.166 HD
ATOM     18  O   UNL A   1      29.588  22.966  27.626  1.00  0.00    -0.249 OA
ATOM     19  N   UNL A   1      31.467  22.204  26.801  1.00  0.00    -0.333 N 
ATOM     20  H   UNL A   1      31.424  21.631  27.600  1.00  0.00     0.165 HD
BRANCH  19  21
ATOM     21  C   UNL A   1      32.599  21.880  25.961  1.00  0.00     0.112 C 
ATOM     22  C   UNL A   1      33.898  21.653  26.694  1.00  0.00     0.056 C 
ATOM     23  C   UNL A   1      32.502  20.595  25.141  1.00  0.00     0.185 C 
ATOM     24  C   UNL A   1      34.738  21.077  25.575  1.00  0.00     0.162 C 
ATOM     25  O   UNL A   1      33.859  20.216  24.830  1.00  0.00    -0.379 OA
ENDBRANCH  19  21
ENDBRANCH   8  15
ENDBRANCH   5   8
ENDBRANCH   3   4
ENDBRANCH   2   3
ENDBRANCH   1   2
BRANCH   1  26
ATOM     26  C   UNL A   1      31.667  30.381  25.983  1.00  0.00     0.002 C 
BRANCH  26  27
ATOM     27  C   UNL A   1      31.397  31.795  26.500  1.00  0.00     0.021 C 
BRANCH  27  28
ATOM     28  C   UNL A   1      32.593  32.464  27.168  1.00  0.00     0.116 C 
BRANCH  28  29
ATOM     29  N   UNL A   1      32.325  33.841  27.543  1.00  0.00    -0.352 N 
ATOM     30  C   UNL A   1      32.976  34.616  28.463  1.00  0.00     0.251 C 
ATOM     31  H   UNL A   1      31.575  34.274  27.074  1.00  0.00     0.163 HD
ATOM     32  O   UNL A   1      32.542  35.727  28.764  1.00  0.00    -0.269 OA
BRANCH  30  33
ATOM     33  C   UNL A   1      34.186  34.094  29.126  1.00  0.00     0.039 A 
ATOM     34  C   UNL A   1      34.028  33.192  30.178  1.00  0.00     0.014 A 
ATOM     35  C   UNL A   1      35.465  34.476  28.706  1.00  0.00     0.014 A 
ATOM     36  C   UNL A   1      35.156  32.639  30.782  1.00  0.00     0.010 A 
ATOM     37  C   UNL A   1      36.587  33.865  29.257  1.00  0.00     0.010 A 
ATOM     38  C   UNL A   1      36.443  32.948  30.308  1.00  0.00    -0.014 A 
BRANCH  38  39
ATOM     39  C   UNL A   1      37.630  32.297  30.914  1.00  0.00     0.031 A 
ATOM     40  C   UNL A   1      38.081  32.662  32.300  1.00  0.00     0.074 A 
ATOM     41  C   UNL A   1      38.301  31.370  30.205  1.00  0.00     0.049 A 
ATOM     42  N   UNL A   1      39.041  32.138  33.020  1.00  0.00    -0.248 NA
ATOM     43  C   UNL A   1      37.382  33.778  32.956  1.00  0.00     0.031 C 
ATOM     44  C   UNL A   1      37.999  30.985  28.824  1.00  0.00     0.029 A 
ATOM     45  N   UNL A   1      39.363  30.573  30.547  1.00  0.00    -0.354 N 
ATOM     46  C   UNL A   1      39.057  32.854  34.209  1.00  0.00     0.074 A 
ATOM     47  C   UNL A   1      38.059  33.894  34.089  1.00  0.00     0.031 C 
ATOM     48  C   UNL A   1      38.823  29.992  28.455  1.00  0.00     0.029 A 
ATOM     49  C   UNL A   1      39.726  29.690  29.560  1.00  0.00     0.049 A 
ATOM     50  H   UNL A   1      39.820  30.628  31.417  1.00  0.00     0.167 HD
ATOM     51  C   UNL A   1      39.814  32.643  35.312  1.00  0.00     0.037 A 
ATOM     52  C   UNL A   1      40.674  28.734  29.555  1.00  0.00     0.037 A 
ATOM     53  C   UNL A   1      40.797  31.596  35.428  1.00  0.00     0.049 A 
ATOM     54  C   UNL A   1      41.492  28.513  30.798  1.00  0.00     0.074 A 
ATOM     55  C   UNL A   1      41.576  31.260  36.521  1.00  0.00     0.029 A 
ATOM     56  N   UNL A   1      41.142  30.721  34.409  1.00  0.00    -0.354 N 
ATOM     57  N   UNL A   1      41.434  29.134  31.951  1.00  0.00    -0.248 NA
ATOM     58  C   UNL A   1      42.498  27.444  30.742  1.00  0.00     0.031 C 
ATOM     59  C   UNL A   1      42.430  30.217  36.146  1.00  0.00     0.029 A 
ATOM     60  C   UNL A   1      42.143  29.863  34.837  1.00  0.00     0.049 A 
ATOM     61  H   UNL A   1      40.736  30.711  33.511  1.00  0.00     0.167 HD
ATOM     62  C   UNL A   1      42.380  28.523  32.762  1.00  0.00     0.074 A 
ATOM     63  C   UNL A   1      42.973  27.458  31.978  1.00  0.00     0.031 C 
ATOM     64  C   UNL A   1      42.730  28.817  34.039  1.00  0.00     0.037 A 
BRANCH  51  65
ATOM     65  C   UNL A   1      39.604  33.558  36.485  1.00  0.00     0.064 A 
ATOM     66  C   UNL A   1      38.788  33.193  37.568  1.00  0.00     0.173 A 
ATOM     67  C   UNL A   1      40.253  34.801  36.545  1.00  0.00     0.173 A 
ATOM     68  F   UNL A   1      38.134  32.022  37.556  1.00  0.00    -0.203 F 
ATOM     69  C   UNL A   1      38.606  34.050  38.651  1.00  0.00     0.198 A 
ATOM     70  C   UNL A   1      40.095  35.641  37.645  1.00  0.00     0.198 A 
ATOM     71  F   UNL A   1      41.047  35.199  35.540  1.00  0.00    -0.203 F 
ATOM     72  F   UNL A   1      37.782  33.702  39.648  1.00  0.00    -0.200 F 
ATOM     73  C   UNL A   1      39.266  35.268  38.693  1.00  0.00     0.200 A 
ATOM     74  F   UNL A   1      40.743  36.813  37.690  1.00  0.00    -0.200 F 
ATOM     75  F   UNL A   1      39.098  36.088  39.739  1.00  0.00    -0.200 F 
ENDBRANCH  51  65
BRANCH  52  76
ATOM     76  C   UNL A   1      40.870  27.890  28.348  1.00  0.00     0.064 A 
ATOM     77  C   UNL A   1      40.219  26.654  28.217  1.00  0.00     0.173 A 
ATOM     78  C   UNL A   1      41.716  28.294  27.305  1.00  0.00     0.173 A 
ATOM     79  F   UNL A   1      39.415  26.214  29.195  1.00  0.00    -0.203 F 
ATOM     80  C   UNL A   1      40.426  25.845  27.101  1.00  0.00     0.198 A 
ATOM     81  C   UNL A   1      41.896  27.500  26.175  1.00  0.00     0.198 A 
ATOM     82  F   UNL A   1      42.356  29.470  27.377  1.00  0.00    -0.203 F 
ATOM     83  F   UNL A   1      39.831  24.647  27.025  1.00  0.00    -0.200 F 
ATOM     84  C   UNL A   1      41.260  26.273  26.078  1.00  0.00     0.200 A 
ATOM     85  F   UNL A   1      42.690  27.924  25.182  1.00  0.00    -0.200 F 
ATOM     86  F   UNL A   1      41.456  25.497  25.003  1.00  0.00    -0.200 F 
ENDBRANCH  52  76
BRANCH  64  87
ATOM     87  C   UNL A   1      43.797  27.963  34.664  1.00  0.00     0.064 A 
ATOM     88  C   UNL A   1      43.488  26.763  35.324  1.00  0.00     0.173 A 
ATOM     89  C   UNL A   1      45.145  28.348  34.603  1.00  0.00     0.173 A 
ATOM     90  F   UNL A   1      42.213  26.356  35.423  1.00  0.00    -0.203 F 
ATOM     91  C   UNL A   1      44.482  26.005  35.937  1.00  0.00     0.198 A 
ATOM     92  C   UNL A   1      46.141  27.569  35.185  1.00  0.00     0.198 A 
ATOM     93  F   UNL A   1      45.498  29.480  33.976  1.00  0.00    -0.203 F 
ATOM     94  F   UNL A   1      44.153  24.901  36.620  1.00  0.00    -0.200 F 
ATOM     95  C   UNL A   1      45.807  26.406  35.863  1.00  0.00     0.200 A 
ATOM     96  F   UNL A   1      47.423  27.949  35.100  1.00  0.00    -0.200 F 
ATOM     97  F   UNL A   1      46.763  25.678  36.456  1.00  0.00    -0.200 F 
ENDBRANCH  64  87
ENDBRANCH  38  39
ENDBRANCH  30  33
ENDBRANCH  28  29
ENDBRANCH  27  28
ENDBRANCH  26  27
ENDBRANCH   1  26
TORSDOF 15
ENDMDL
MODEL 3
REMARK VINA RESULT:     -12.5      1.072      2.346
REMARK SMILES C[C@H]1CC[C@@](NC(=O)N[C@H]2CCOC2)(C(=O)NCCCCCCNC(=O)c2ccc(-c3c4nc(c(-c5c(F)c(F)c(F)c(F)c5F)c5ccc([nH]5)c(-c5c(F)c(F)c(F)c(F)c5F)c5nc(c(-c6c(F)c(F)c(F)c(F)c6F)c6ccc3[nH]6)C=C5)C=C4)cc2)CC1
REMARK SMILES IDX 20 1 19 2 18 3 17 4 15 5 16 6 5 8 1 9 2 10 91 11 3 12 90 13
REMARK SMILES IDX 4 14 6 15 7 16 8 18 9 19 10 21 11 22 14 23 12 24 13 25 21 26
REMARK SMILES IDX 22 27 23 28 24 29 25 30 26 32 27 33 28 34 89 35 29 36 88 37
REMARK SMILES IDX 30 38 31 39 32 40 82 41 33 42 87 43 81 44 83 45 34 46 86 47
REMARK SMILES IDX 80 48 79 49 35 51 67 52 47 53 66 54 48 55 51 56 65 57 84 58
REMARK SMILES IDX 49 59 50 60 64 62 85 63 52 64 36 65 37 66 45 67 38 68 39 69
REMARK SMILES IDX 43 70 46 71 40 72 41 73 44 74 42 75 68 76 69 77 77 78 70 79
REMARK SMILES IDX 71 80 75 81 78 82 72 83 73 84 76 85 74 86 53 87 54 88 62 89
REMARK SMILES IDX 55 90 56 91 60 92 63 93 57 94 58 95 61 96 59 97
REMARK H PARENT 17 7 6 17 9 20 24 31 83 50 51 61
REMARK Flexibility Score: inf
ROOT
ATOM      1  C   UNL A   1      32.486  29.915  27.240  1.00  0.00     0.002 C 
ENDROOT
BRANCH   1   2
ATOM      2  C   UNL A   1      33.836  29.440  26.688  1.00  0.00     0.021 C 
BRANCH   2   3
ATOM      3  C   UNL A   1      33.881  27.934  26.484  1.00  0.00     0.116 C 
BRANCH   3   4
ATOM      4  N   UNL A   1      32.538  27.438  26.270  1.00  0.00    -0.354 N 
ATOM      5  C   UNL A   1      32.014  26.718  25.243  1.00  0.00     0.245 C 
ATOM      6  O   UNL A   1      30.839  26.366  25.386  1.00  0.00    -0.272 OA
ATOM      7  H   UNL A   1      31.899  27.659  26.986  1.00  0.00     0.163 HD
BRANCH   5   8
ATOM      8  C   UNL A   1      32.816  26.470  23.939  1.00  0.00     0.120 C 
ATOM      9  C   UNL A   1      29.468  28.722  22.738  1.00  0.00     0.007 C 
ATOM     10  C   UNL A   1      30.827  28.106  22.379  1.00  0.00    -0.014 C 
ATOM     11  C   UNL A   1      30.724  26.569  22.439  1.00  0.00     0.006 C 
ATOM     12  C   UNL A   1      31.922  28.750  23.243  1.00  0.00     0.006 C 
ATOM     13  C   UNL A   1      32.011  25.824  22.797  1.00  0.00     0.039 C 
ATOM     14  C   UNL A   1      33.174  27.886  23.398  1.00  0.00     0.039 C 
BRANCH   8  15
ATOM     15  N   UNL A   1      34.063  25.697  24.180  1.00  0.00    -0.324 N 
ATOM     16  C   UNL A   1      34.396  24.455  24.552  1.00  0.00     0.315 C 
ATOM     17  H   UNL A   1      34.862  26.250  24.024  1.00  0.00     0.166 HD
ATOM     18  O   UNL A   1      35.566  24.117  24.345  1.00  0.00    -0.249 OA
ATOM     19  N   UNL A   1      33.616  23.563  25.168  1.00  0.00    -0.333 N 
ATOM     20  H   UNL A   1      34.063  22.693  25.278  1.00  0.00     0.165 HD
BRANCH  19  21
ATOM     21  C   UNL A   1      32.276  23.556  25.714  1.00  0.00     0.112 C 
ATOM     22  C   UNL A   1      31.444  22.348  25.359  1.00  0.00     0.056 C 
ATOM     23  C   UNL A   1      32.154  23.552  27.237  1.00  0.00     0.185 C 
ATOM     24  C   UNL A   1      30.276  22.541  26.301  1.00  0.00     0.162 C 
ATOM     25  O   UNL A   1      30.843  23.026  27.531  1.00  0.00    -0.379 OA
ENDBRANCH  19  21
ENDBRANCH   8  15
ENDBRANCH   5   8
ENDBRANCH   3   4
ENDBRANCH   2   3
ENDBRANCH   1   2
BRANCH   1  26
ATOM     26  C   UNL A   1      31.655  30.736  26.249  1.00  0.00     0.002 C 
BRANCH  26  27
ATOM     27  C   UNL A   1      31.417  32.190  26.663  1.00  0.00     0.021 C 
BRANCH  27  28
ATOM     28  C   UNL A   1      32.644  32.895  27.229  1.00  0.00     0.116 C 
BRANCH  28  29
ATOM     29  N   UNL A   1      32.346  34.234  27.707  1.00  0.00    -0.352 N 
ATOM     30  C   UNL A   1      32.982  34.952  28.683  1.00  0.00     0.251 C 
ATOM     31  H   UNL A   1      31.586  34.685  27.272  1.00  0.00     0.163 HD
ATOM     32  O   UNL A   1      32.525  36.027  29.067  1.00  0.00    -0.269 OA
BRANCH  30  33
ATOM     33  C   UNL A   1      34.204  34.408  29.305  1.00  0.00     0.039 A 
ATOM     34  C   UNL A   1      34.076  33.652  30.470  1.00  0.00     0.014 A 
ATOM     35  C   UNL A   1      35.465  34.625  28.736  1.00  0.00     0.014 A 
ATOM     36  C   UNL A   1      35.208  33.078  31.043  1.00  0.00     0.010 A 
ATOM     37  C   UNL A   1      36.583  33.988  29.266  1.00  0.00     0.010 A 
ATOM     38  C   UNL A   1      36.467  33.217  30.431  1.00  0.00    -0.014 A 
BRANCH  38  39
ATOM     39  C   UNL A   1      37.651  32.540  31.014  1.00  0.00     0.031 A 
ATOM     40  C   UNL A   1      38.146  32.905  32.384  1.00  0.00     0.074 A 
ATOM     41  C   UNL A   1      38.280  31.590  30.297  1.00  0.00     0.049 A 
ATOM     42  N   UNL A   1      39.109  32.363  33.086  1.00  0.00    -0.248 NA
ATOM     43  C   UNL A   1      37.492  34.045  33.047  1.00  0.00     0.031 C 
ATOM     44  C   UNL A   1      37.935  31.201  28.928  1.00  0.00     0.029 A 
ATOM     45  N   UNL A   1      39.329  30.769  30.620  1.00  0.00    -0.354 N 
ATOM     46  C   UNL A   1      39.172  33.089  34.267  1.00  0.00     0.074 A 
ATOM     47  C   UNL A   1      38.200  34.153  34.162  1.00  0.00     0.031 C 
ATOM     48  C   UNL A   1      38.724  30.184  28.548  1.00  0.00     0.029 A 
ATOM     49  C   UNL A   1      39.646  29.868  29.633  1.00  0.00     0.049 A 
ATOM     50  H   UNL A   1      39.810  30.820  31.479  1.00  0.00     0.167 HD
ATOM     51  C   UNL A   1      39.951  32.868  35.353  1.00  0.00     0.037 A 
ATOM     52  C   UNL A   1      40.568  28.888  29.614  1.00  0.00     0.037 A 
ATOM     53  C   UNL A   1      40.910  31.797  35.455  1.00  0.00     0.049 A 
ATOM     54  C   UNL A   1      41.410  28.656  30.839  1.00  0.00     0.074 A 
ATOM     55  C   UNL A   1      41.707  31.451  36.532  1.00  0.00     0.029 A 
ATOM     56  N   UNL A   1      41.207  30.905  34.436  1.00  0.00    -0.354 N 
ATOM     57  N   UNL A   1      41.397  29.289  31.987  1.00  0.00    -0.248 NA
ATOM     58  C   UNL A   1      42.387  27.562  30.768  1.00  0.00     0.031 C 
ATOM     59  C   UNL A   1      42.523  30.382  36.146  1.00  0.00     0.029 A 
ATOM     60  C   UNL A   1      42.196  30.024  34.848  1.00  0.00     0.049 A 
ATOM     61  H   UNL A   1      40.778  30.897  33.549  1.00  0.00     0.167 HD
ATOM     62  C   UNL A   1      42.346  28.661  32.781  1.00  0.00     0.074 A 
ATOM     63  C   UNL A   1      42.893  27.574  31.992  1.00  0.00     0.031 C 
ATOM     64  C   UNL A   1      42.736  28.957  34.046  1.00  0.00     0.037 A 
BRANCH  51  65
ATOM     65  C   UNL A   1      39.794  33.799  36.522  1.00  0.00     0.064 A 
ATOM     66  C   UNL A   1      40.469  35.028  36.581  1.00  0.00     0.173 A 
ATOM     67  C   UNL A   1      38.931  33.475  37.581  1.00  0.00     0.173 A 
ATOM     68  F   UNL A   1      41.315  35.382  35.602  1.00  0.00    -0.203 F 
ATOM     69  C   UNL A   1      40.309  35.884  37.669  1.00  0.00     0.198 A 
ATOM     70  C   UNL A   1      38.748  34.349  38.651  1.00  0.00     0.198 A 
ATOM     71  F   UNL A   1      38.258  32.315  37.575  1.00  0.00    -0.203 F 
ATOM     72  F   UNL A   1      41.003  37.029  37.727  1.00  0.00    -0.200 F 
ATOM     73  C   UNL A   1      39.443  35.548  38.698  1.00  0.00     0.200 A 
ATOM     74  F   UNL A   1      37.902  34.027  39.639  1.00  0.00    -0.200 F 
ATOM     75  F   UNL A   1      39.284  36.376  39.739  1.00  0.00    -0.200 F 
ENDBRANCH  51  65
BRANCH  52  76
ATOM     76  C   UNL A   1      40.712  28.028  28.411  1.00  0.00     0.064 A 
ATOM     77  C   UNL A   1      40.071  26.783  28.331  1.00  0.00     0.173 A 
ATOM     78  C   UNL A   1      41.499  28.427  27.320  1.00  0.00     0.173 A 
ATOM     79  F   UNL A   1      39.324  26.348  29.355  1.00  0.00    -0.203 F 
ATOM     80  C   UNL A   1      40.231  25.960  27.217  1.00  0.00     0.198 A 
ATOM     81  C   UNL A   1      41.631  27.618  26.193  1.00  0.00     0.198 A 
ATOM     82  F   UNL A   1      42.126  29.611  27.342  1.00  0.00    -0.203 F 
ATOM     83  F   UNL A   1      39.649  24.754  27.189  1.00  0.00    -0.200 F 
ATOM     84  C   UNL A   1      41.006  26.382  26.147  1.00  0.00     0.200 A 
ATOM     85  F   UNL A   1      42.367  28.037  25.155  1.00  0.00    -0.200 F 
ATOM     86  F   UNL A   1      41.156  25.593  25.074  1.00  0.00    -0.200 F 
ENDBRANCH  52  76
BRANCH  64  87
ATOM     87  C   UNL A   1      43.795  28.081  34.652  1.00  0.00     0.064 A 
ATOM     88  C   UNL A   1      45.157  28.412  34.576  1.00  0.00     0.173 A 
ATOM     89  C   UNL A   1      43.445  26.896  35.318  1.00  0.00     0.173 A 
ATOM     90  F   UNL A   1      45.546  29.526  33.939  1.00  0.00    -0.203 F 
ATOM     91  C   UNL A   1      46.131  27.567  35.104  1.00  0.00     0.198 A 
ATOM     92  C   UNL A   1      44.419  26.073  35.877  1.00  0.00     0.198 A 
ATOM     93  F   UNL A   1      42.158  26.537  35.429  1.00  0.00    -0.203 F 
ATOM     94  F   UNL A   1      47.428  27.870  34.956  1.00  0.00    -0.200 F 
ATOM     95  C   UNL A   1      45.761  26.402  35.757  1.00  0.00     0.200 A 
ATOM     96  F   UNL A   1      44.060  24.955  36.522  1.00  0.00    -0.200 F 
ATOM     97  F   UNL A   1      46.699  25.589  36.261  1.00  0.00    -0.200 F 
ENDBRANCH  64  87
ENDBRANCH  38  39
ENDBRANCH  30  33
ENDBRANCH  28  29
ENDBRANCH  27  28
ENDBRANCH  26  27
ENDBRANCH   1  26
TORSDOF 15
ENDMDL
