MODEL 1
REMARK VINA RESULT:      -9.6      0.000      0.000
REMARK SMILES CN(C)C(=O)C[NH+]1CCN(c2cc(C(=O)NCCCCCCNC(=O)c3ccc(-c4c5nc(c(-c6c(F)c(F)c(F)c(F)c6F)c6ccc([nH]6)c(-c6c(F)c(F)c(F)c(F)c6F)c6nc(c(-c7c(F)c(F)c(F)c(F)c7F)c7ccc4[nH]7)C=C6)C=C5)cc3)c3cc(NC(=O)c4cccc(Cl)c4)ccc3n2)CC1
REMARK SMILES IDX 19 1 18 2 17 3 16 4 14 5 15 6 13 8 11 9 12 10 105 11 104 12
REMARK SMILES IDX 89 13 103 14 90 15 102 16 91 17 10 18 7 19 8 20 107 21 9 23
REMARK SMILES IDX 106 24 6 25 4 26 1 27 2 28 3 29 5 30 92 31 93 32 94 34 95 35
REMARK SMILES IDX 96 36 101 37 97 38 99 39 98 40 100 41 20 42 21 43 22 44
REMARK SMILES IDX 23 45 24 46 25 48 26 49 27 50 88 51 28 52 87 53 29 54 30 55
REMARK SMILES IDX 31 56 81 57 32 58 86 59 80 60 82 61 33 62 85 63 79 64 78 65
REMARK SMILES IDX 34 67 66 68 46 69 65 70 47 71 50 72 64 73 83 74 48 75 49 76
REMARK SMILES IDX 63 78 84 79 51 80 35 81 36 82 44 83 37 84 38 85 42 86 45 87
REMARK SMILES IDX 39 88 40 89 43 90 41 91 67 92 68 93 76 94 69 95 70 96 74 97
REMARK SMILES IDX 77 98 71 99 72 100 75 101 73 102 52 103 53 104 61 105 54 106
REMARK SMILES IDX 55 107 59 108 62 109 56 110 57 111 60 112 58 113
REMARK H PARENT 16 7 7 22 92 33 23 47 82 66 50 77
REMARK Flexibility Score: inf
ROOT
ATOM      1  C   UNL A   1      45.072  23.829  32.908  1.00  0.00     0.002 C 
ENDROOT
BRANCH   1   2
ATOM      2  C   UNL A   1      45.352  25.252  32.393  1.00  0.00     0.021 C 
BRANCH   2   3
ATOM      3  C   UNL A   1      45.706  25.455  30.917  1.00  0.00     0.116 C 
BRANCH   3   4
ATOM      4  N   UNL A   1      47.086  25.827  30.640  1.00  0.00    -0.352 N 
ATOM      5  C   UNL A   1      47.666  26.700  29.736  1.00  0.00     0.252 C 
ATOM      6  O   UNL A   1      48.892  26.824  29.795  1.00  0.00    -0.269 OA
ATOM      7  H   UNL A   1      47.739  25.364  31.213  1.00  0.00     0.163 HD
BRANCH   5   8
ATOM      8  C   UNL A   1      46.943  27.475  28.673  1.00  0.00     0.052 A 
ATOM      9  C   UNL A   1      45.688  29.501  28.182  1.00  0.00     0.130 A 
ATOM     10  C   UNL A   1      46.474  28.749  29.052  1.00  0.00     0.061 A 
ATOM     11  N   UNL A   1      45.460  29.055  26.931  1.00  0.00    -0.231 NA
ATOM     12  C   UNL A   1      45.884  27.846  26.548  1.00  0.00     0.074 A 
ATOM     13  C   UNL A   1      46.561  26.974  27.413  1.00  0.00     0.015 A 
ATOM     14  C   UNL A   1      45.596  27.428  25.255  1.00  0.00     0.031 A 
ATOM     15  C   UNL A   1      46.745  25.648  26.981  1.00  0.00     0.037 A 
ATOM     16  C   UNL A   1      45.881  26.132  24.812  1.00  0.00     0.028 A 
ATOM     17  C   UNL A   1      46.398  25.205  25.707  1.00  0.00     0.042 A 
BRANCH   9  18
ATOM     18  N   UNL A   1      45.066  30.688  28.539  1.00  0.00    -0.345 N 
ATOM     19  N   UNL A   1      43.907  33.141  29.747  1.00  0.00    -0.324 N 
ATOM     20  C   UNL A   1      44.700  33.162  28.504  1.00  0.00     0.284 C 
ATOM     21  C   UNL A   1      43.304  31.819  29.940  1.00  0.00     0.284 C 
ATOM     22  H   UNL A   1      43.132  33.794  29.627  1.00  0.00     0.348 HD
ATOM     23  C   UNL A   1      45.690  31.988  28.280  1.00  0.00     0.179 C 
ATOM     24  C   UNL A   1      44.206  30.583  29.731  1.00  0.00     0.179 C 
BRANCH  19  25
ATOM     25  C   UNL A   1      44.557  33.744  30.925  1.00  0.00     0.363 C 
BRANCH  25  26
ATOM     26  C   UNL A   1      43.624  34.013  32.112  1.00  0.00     0.277 C 
ATOM     27  C   UNL A   1      43.098  33.828  34.483  1.00  0.00     0.146 C 
ATOM     28  N   UNL A   1      43.858  33.380  33.326  1.00  0.00    -0.344 N 
ATOM     29  C   UNL A   1      44.617  32.153  33.498  1.00  0.00     0.146 C 
ATOM     30  O   UNL A   1      42.703  34.827  31.977  1.00  0.00    -0.268 OA
ENDBRANCH  25  26
ENDBRANCH  19  25
ENDBRANCH   9  18
BRANCH  17  31
ATOM     31  N   UNL A   1      46.585  23.876  25.279  1.00  0.00    -0.322 N 
ATOM     32  C   UNL A   1      45.945  22.714  25.669  1.00  0.00     0.255 C 
ATOM     33  H   UNL A   1      47.281  23.755  24.595  1.00  0.00     0.170 HD
ATOM     34  O   UNL A   1      46.461  21.617  25.464  1.00  0.00    -0.269 OA
BRANCH  32  35
ATOM     35  C   UNL A   1      44.610  22.771  26.313  1.00  0.00     0.041 A 
ATOM     36  C   UNL A   1      43.485  22.429  25.557  1.00  0.00     0.014 A 
ATOM     37  C   UNL A   1      44.481  23.052  27.677  1.00  0.00     0.034 A 
ATOM     38  C   UNL A   1      42.253  22.244  26.185  1.00  0.00     0.002 A 
ATOM     39  C   UNL A   1      43.245  22.872  28.296  1.00  0.00     0.041 A 
ATOM     40  C   UNL A   1      42.139  22.445  27.561  1.00  0.00     0.020 A 
ATOM     41  Cl  UNL A   1      43.099  23.125  29.990  1.00  0.00    -0.084 Cl
ENDBRANCH  32  35
ENDBRANCH  17  31
ENDBRANCH   5   8
ENDBRANCH   3   4
ENDBRANCH   2   3
ENDBRANCH   1   2
BRANCH   1  42
ATOM     42  C   UNL A   1      44.765  23.579  34.393  1.00  0.00     0.002 C 
BRANCH  42  43
ATOM     43  C   UNL A   1      45.917  23.308  35.360  1.00  0.00     0.021 C 
BRANCH  43  44
ATOM     44  C   UNL A   1      47.112  24.251  35.302  1.00  0.00     0.116 C 
BRANCH  44  45
ATOM     45  N   UNL A   1      47.258  25.064  36.499  1.00  0.00    -0.352 N 
ATOM     46  C   UNL A   1      46.696  26.272  36.840  1.00  0.00     0.251 C 
ATOM     47  H   UNL A   1      47.861  24.686  37.180  1.00  0.00     0.163 HD
ATOM     48  O   UNL A   1      47.083  26.847  37.855  1.00  0.00    -0.269 OA
BRANCH  46  49
ATOM     49  C   UNL A   1      45.635  26.908  36.016  1.00  0.00     0.039 A 
ATOM     50  C   UNL A   1      45.988  27.964  35.164  1.00  0.00     0.014 A 
ATOM     51  C   UNL A   1      44.291  26.546  36.130  1.00  0.00     0.014 A 
ATOM     52  C   UNL A   1      45.011  28.620  34.404  1.00  0.00     0.010 A 
ATOM     53  C   UNL A   1      43.327  27.151  35.322  1.00  0.00     0.010 A 
ATOM     54  C   UNL A   1      43.672  28.207  34.466  1.00  0.00    -0.014 A 
BRANCH  54  55
ATOM     55  C   UNL A   1      42.604  28.899  33.695  1.00  0.00     0.031 A 
ATOM     56  C   UNL A   1      41.747  29.934  34.373  1.00  0.00     0.074 A 
ATOM     57  C   UNL A   1      42.356  28.554  32.417  1.00  0.00     0.049 A 
ATOM     58  N   UNL A   1      40.689  30.562  33.924  1.00  0.00    -0.248 NA
ATOM     59  C   UNL A   1      42.112  30.287  35.753  1.00  0.00     0.031 C 
ATOM     60  C   UNL A   1      43.092  27.546  31.655  1.00  0.00     0.029 A 
ATOM     61  N   UNL A   1      41.399  29.002  31.540  1.00  0.00    -0.354 N 
ATOM     62  C   UNL A   1      40.249  31.360  34.973  1.00  0.00     0.074 A 
ATOM     63  C   UNL A   1      41.130  31.110  36.093  1.00  0.00     0.031 C 
ATOM     64  C   UNL A   1      42.564  27.456  30.423  1.00  0.00     0.029 A 
ATOM     65  C   UNL A   1      41.432  28.373  30.320  1.00  0.00     0.049 A 
ATOM     66  H   UNL A   1      40.749  29.707  31.764  1.00  0.00     0.167 HD
ATOM     67  C   UNL A   1      39.218  32.238  34.995  1.00  0.00     0.037 A 
ATOM     68  C   UNL A   1      40.631  28.509  29.245  1.00  0.00     0.037 A 
ATOM     69  C   UNL A   1      38.368  32.519  33.868  1.00  0.00     0.049 A 
ATOM     70  C   UNL A   1      39.494  29.494  29.292  1.00  0.00     0.074 A 
ATOM     71  C   UNL A   1      37.345  33.444  33.766  1.00  0.00     0.029 A 
ATOM     72  N   UNL A   1      38.449  31.875  32.641  1.00  0.00    -0.354 N 
ATOM     73  N   UNL A   1      39.120  30.280  30.271  1.00  0.00    -0.248 NA
ATOM     74  C   UNL A   1      38.668  29.611  28.082  1.00  0.00     0.031 C 
ATOM     75  C   UNL A   1      36.780  33.334  32.490  1.00  0.00     0.029 A 
ATOM     76  C   UNL A   1      37.478  32.368  31.784  1.00  0.00     0.049 A 
ATOM     77  H   UNL A   1      39.099  31.172  32.414  1.00  0.00     0.167 HD
ATOM     78  C   UNL A   1      38.029  30.994  29.795  1.00  0.00     0.074 A 
ATOM     79  C   UNL A   1      37.812  30.562  28.430  1.00  0.00     0.031 C 
ATOM     80  C   UNL A   1      37.274  31.922  30.431  1.00  0.00     0.037 A 
BRANCH  67  81
ATOM     81  C   UNL A   1      38.949  32.963  36.281  1.00  0.00     0.064 A 
ATOM     82  C   UNL A   1      38.222  32.368  37.324  1.00  0.00     0.173 A 
ATOM     83  C   UNL A   1      39.453  34.256  36.488  1.00  0.00     0.173 A 
ATOM     84  F   UNL A   1      37.709  31.138  37.172  1.00  0.00    -0.203 F 
ATOM     85  C   UNL A   1      37.986  33.052  38.514  1.00  0.00     0.198 A 
ATOM     86  C   UNL A   1      39.238  34.925  37.690  1.00  0.00     0.198 A 
ATOM     87  F   UNL A   1      40.160  34.868  35.526  1.00  0.00    -0.203 F 
ATOM     88  F   UNL A   1      37.248  32.481  39.477  1.00  0.00    -0.200 F 
ATOM     89  C   UNL A   1      38.498  34.327  38.699  1.00  0.00     0.200 A 
ATOM     90  F   UNL A   1      39.744  36.153  37.871  1.00  0.00    -0.200 F 
ATOM     91  F   UNL A   1      38.274  34.981  39.846  1.00  0.00    -0.200 F 
ENDBRANCH  67  81
BRANCH  68  92
ATOM     92  C   UNL A   1      40.885  27.699  28.026  1.00  0.00     0.064 A 
ATOM     93  C   UNL A   1      40.297  26.436  27.868  1.00  0.00     0.173 A 
ATOM     94  C   UNL A   1      41.712  28.168  26.996  1.00  0.00     0.173 A 
ATOM     95  F   UNL A   1      39.520  25.933  28.838  1.00  0.00    -0.203 F 
ATOM     96  C   UNL A   1      40.540  25.667  26.731  1.00  0.00     0.198 A 
ATOM     97  C   UNL A   1      41.933  27.410  25.849  1.00  0.00     0.198 A 
ATOM     98  F   UNL A   1      42.299  29.370  27.100  1.00  0.00    -0.203 F 
ATOM     99  F   UNL A   1      39.998  24.447  26.623  1.00  0.00    -0.200 F 
ATOM    100  C   UNL A   1      41.351  26.157  25.719  1.00  0.00     0.200 A 
ATOM    101  F   UNL A   1      42.712  27.890  24.869  1.00  0.00    -0.200 F 
ATOM    102  F   UNL A   1      41.580  25.420  24.625  1.00  0.00    -0.200 F 
ENDBRANCH  68  92
BRANCH  80 103
ATOM    103  C   UNL A   1      36.149  32.539  29.654  1.00  0.00     0.064 A 
ATOM    104  C   UNL A   1      36.172  33.890  29.283  1.00  0.00     0.173 A 
ATOM    105  C   UNL A   1      35.057  31.760  29.241  1.00  0.00     0.173 A 
ATOM    106  F   UNL A   1      37.187  34.678  29.668  1.00  0.00    -0.203 F 
ATOM    107  C   UNL A   1      35.132  34.447  28.543  1.00  0.00     0.198 A 
ATOM    108  C   UNL A   1      34.032  32.313  28.480  1.00  0.00     0.198 A 
ATOM    109  F   UNL A   1      34.992  30.460  29.566  1.00  0.00    -0.203 F 
ATOM    110  F   UNL A   1      35.155  35.750  28.233  1.00  0.00    -0.200 F 
ATOM    111  C   UNL A   1      34.067  33.656  28.136  1.00  0.00     0.200 A 
ATOM    112  F   UNL A   1      33.008  31.546  28.078  1.00  0.00    -0.200 F 
ATOM    113  F   UNL A   1      33.070  34.192  27.418  1.00  0.00    -0.200 F 
ENDBRANCH  80 103
ENDBRANCH  54  55
ENDBRANCH  46  49
ENDBRANCH  44  45
ENDBRANCH  43  44
ENDBRANCH  42  43
ENDBRANCH   1  42
TORSDOF 18
ENDMDL
MODEL 2
REMARK VINA RESULT:      -9.4      1.430      2.321
REMARK SMILES CN(C)C(=O)C[NH+]1CCN(c2cc(C(=O)NCCCCCCNC(=O)c3ccc(-c4c5nc(c(-c6c(F)c(F)c(F)c(F)c6F)c6ccc([nH]6)c(-c6c(F)c(F)c(F)c(F)c6F)c6nc(c(-c7c(F)c(F)c(F)c(F)c7F)c7ccc4[nH]7)C=C6)C=C5)cc3)c3cc(NC(=O)c4cccc(Cl)c4)ccc3n2)CC1
REMARK SMILES IDX 19 1 18 2 17 3 16 4 14 5 15 6 13 8 11 9 12 10 105 11 104 12
REMARK SMILES IDX 89 13 103 14 90 15 102 16 91 17 10 18 7 19 8 20 107 21 9 23
REMARK SMILES IDX 106 24 6 25 4 26 1 27 2 28 3 29 5 30 92 31 93 32 94 34 95 35
REMARK SMILES IDX 96 36 101 37 97 38 99 39 98 40 100 41 20 42 21 43 22 44
REMARK SMILES IDX 23 45 24 46 25 48 26 49 27 50 88 51 28 52 87 53 29 54 30 55
REMARK SMILES IDX 31 56 81 57 32 58 86 59 80 60 82 61 33 62 85 63 79 64 78 65
REMARK SMILES IDX 34 67 66 68 46 69 65 70 47 71 50 72 64 73 83 74 48 75 49 76
REMARK SMILES IDX 63 78 84 79 51 80 35 81 36 82 44 83 37 84 38 85 42 86 45 87
REMARK SMILES IDX 39 88 40 89 43 90 41 91 67 92 68 93 76 94 69 95 70 96 74 97
REMARK SMILES IDX 77 98 71 99 72 100 75 101 73 102 52 103 53 104 61 105 54 106
REMARK SMILES IDX 55 107 59 108 62 109 56 110 57 111 60 112 58 113
REMARK H PARENT 16 7 7 22 92 33 23 47 82 66 50 77
REMARK Flexibility Score: inf
ROOT
ATOM      1  C   UNL A   1      45.258  23.582  33.137  1.00  0.00     0.002 C 
ENDROOT
BRANCH   1   2
ATOM      2  C   UNL A   1      45.251  25.080  32.787  1.00  0.00     0.021 C 
BRANCH   2   3
ATOM      3  C   UNL A   1      46.382  25.651  31.926  1.00  0.00     0.116 C 
BRANCH   3   4
ATOM      4  N   UNL A   1      47.224  26.652  32.565  1.00  0.00    -0.352 N 
ATOM      5  C   UNL A   1      47.423  28.002  32.338  1.00  0.00     0.252 C 
ATOM      6  O   UNL A   1      48.188  28.586  33.111  1.00  0.00    -0.269 OA
ATOM      7  H   UNL A   1      47.760  26.295  33.309  1.00  0.00     0.163 HD
BRANCH   5   8
ATOM      8  C   UNL A   1      46.823  28.806  31.222  1.00  0.00     0.052 A 
ATOM      9  C   UNL A   1      45.064  30.370  30.607  1.00  0.00     0.130 A 
ATOM     10  C   UNL A   1      45.769  29.670  31.582  1.00  0.00     0.061 A 
ATOM     11  N   UNL A   1      45.456  30.303  29.319  1.00  0.00    -0.231 NA
ATOM     12  C   UNL A   1      46.444  29.484  28.948  1.00  0.00     0.074 A 
ATOM     13  C   UNL A   1      47.110  28.644  29.852  1.00  0.00     0.015 A 
ATOM     14  C   UNL A   1      46.788  29.436  27.603  1.00  0.00     0.031 A 
ATOM     15  C   UNL A   1      47.959  27.659  29.316  1.00  0.00     0.037 A 
ATOM     16  C   UNL A   1      47.714  28.514  27.104  1.00  0.00     0.028 A 
ATOM     17  C   UNL A   1      48.257  27.565  27.958  1.00  0.00     0.042 A 
BRANCH   9  18
ATOM     18  N   UNL A   1      43.924  31.115  30.869  1.00  0.00    -0.345 N 
ATOM     19  N   UNL A   1      41.788  33.080  31.501  1.00  0.00    -0.324 N 
ATOM     20  C   UNL A   1      41.749  32.216  30.307  1.00  0.00     0.284 C 
ATOM     21  C   UNL A   1      42.612  32.462  32.546  1.00  0.00     0.284 C 
ATOM     22  H   UNL A   1      40.840  33.127  31.876  1.00  0.00     0.348 HD
ATOM     23  C   UNL A   1      43.106  31.670  29.787  1.00  0.00     0.179 C 
ATOM     24  C   UNL A   1      43.979  31.880  32.127  1.00  0.00     0.179 C 
BRANCH  19  25
ATOM     25  C   UNL A   1      42.022  34.513  31.243  1.00  0.00     0.363 C 
BRANCH  25  26
ATOM     26  C   UNL A   1      41.889  34.935  29.776  1.00  0.00     0.277 C 
ATOM     27  C   UNL A   1      42.862  35.290  27.571  1.00  0.00     0.146 C 
ATOM     28  N   UNL A   1      43.030  35.114  29.005  1.00  0.00    -0.344 N 
ATOM     29  C   UNL A   1      44.360  35.379  29.529  1.00  0.00     0.146 C 
ATOM     30  O   UNL A   1      40.759  35.066  29.291  1.00  0.00    -0.268 OA
ENDBRANCH  25  26
ENDBRANCH  19  25
ENDBRANCH   9  18
BRANCH  17  31
ATOM     31  N   UNL A   1      49.109  26.577  27.427  1.00  0.00    -0.322 N 
ATOM     32  C   UNL A   1      48.860  25.251  27.122  1.00  0.00     0.255 C 
ATOM     33  H   UNL A   1      50.027  26.878  27.242  1.00  0.00     0.170 HD
ATOM     34  O   UNL A   1      49.786  24.452  27.003  1.00  0.00    -0.269 OA
BRANCH  32  35
ATOM     35  C   UNL A   1      47.471  24.779  26.903  1.00  0.00     0.041 A 
ATOM     36  C   UNL A   1      47.032  24.569  25.592  1.00  0.00     0.014 A 
ATOM     37  C   UNL A   1      46.647  24.442  27.982  1.00  0.00     0.034 A 
ATOM     38  C   UNL A   1      45.826  23.908  25.358  1.00  0.00     0.002 A 
ATOM     39  C   UNL A   1      45.440  23.789  27.739  1.00  0.00     0.041 A 
ATOM     40  C   UNL A   1      45.040  23.498  26.435  1.00  0.00     0.020 A 
ATOM     41  Cl  UNL A   1      44.464  23.287  29.063  1.00  0.00    -0.084 Cl
ENDBRANCH  32  35
ENDBRANCH  17  31
ENDBRANCH   5   8
ENDBRANCH   3   4
ENDBRANCH   2   3
ENDBRANCH   1   2
BRANCH   1  42
ATOM     42  C   UNL A   1      45.112  23.116  34.594  1.00  0.00     0.002 C 
BRANCH  42  43
ATOM     43  C   UNL A   1      46.365  22.935  35.452  1.00  0.00     0.021 C 
BRANCH  43  44
ATOM     44  C   UNL A   1      47.319  24.119  35.549  1.00  0.00     0.116 C 
BRANCH  44  45
ATOM     45  N   UNL A   1      47.259  24.798  36.833  1.00  0.00    -0.352 N 
ATOM     46  C   UNL A   1      46.547  25.906  37.232  1.00  0.00     0.251 C 
ATOM     47  H   UNL A   1      47.823  24.399  37.535  1.00  0.00     0.163 HD
ATOM     48  O   UNL A   1      46.768  26.392  38.339  1.00  0.00    -0.269 OA
BRANCH  46  49
ATOM     49  C   UNL A   1      45.519  26.537  36.363  1.00  0.00     0.039 A 
ATOM     50  C   UNL A   1      45.849  27.716  35.680  1.00  0.00     0.014 A 
ATOM     51  C   UNL A   1      44.216  26.042  36.279  1.00  0.00     0.014 A 
ATOM     52  C   UNL A   1      44.895  28.366  34.886  1.00  0.00     0.010 A 
ATOM     53  C   UNL A   1      43.285  26.650  35.434  1.00  0.00     0.010 A 
ATOM     54  C   UNL A   1      43.608  27.829  34.745  1.00  0.00    -0.014 A 
BRANCH  54  55
ATOM     55  C   UNL A   1      42.561  28.508  33.934  1.00  0.00     0.031 A 
ATOM     56  C   UNL A   1      41.599  29.454  34.601  1.00  0.00     0.074 A 
ATOM     57  C   UNL A   1      42.427  28.227  32.624  1.00  0.00     0.049 A 
ATOM     58  N   UNL A   1      40.543  30.051  34.108  1.00  0.00    -0.248 NA
ATOM     59  C   UNL A   1      41.842  29.743  36.022  1.00  0.00     0.031 C 
ATOM     60  C   UNL A   1      43.273  27.306  31.866  1.00  0.00     0.029 A 
ATOM     61  N   UNL A   1      41.513  28.675  31.702  1.00  0.00    -0.354 N 
ATOM     62  C   UNL A   1      39.982  30.762  35.162  1.00  0.00     0.074 A 
ATOM     63  C   UNL A   1      40.792  30.491  36.331  1.00  0.00     0.031 C 
ATOM     64  C   UNL A   1      42.843  27.261  30.594  1.00  0.00     0.029 A 
ATOM     65  C   UNL A   1      41.671  28.122  30.455  1.00  0.00     0.049 A 
ATOM     66  H   UNL A   1      40.810  29.331  31.915  1.00  0.00     0.167 HD
ATOM     67  C   UNL A   1      38.904  31.580  35.154  1.00  0.00     0.037 A 
ATOM     68  C   UNL A   1      40.945  28.280  29.332  1.00  0.00     0.037 A 
ATOM     69  C   UNL A   1      38.125  31.883  33.982  1.00  0.00     0.049 A 
ATOM     70  C   UNL A   1      39.753  29.199  29.346  1.00  0.00     0.074 A 
ATOM     71  C   UNL A   1      37.060  32.758  33.854  1.00  0.00     0.029 A 
ATOM     72  N   UNL A   1      38.331  31.318  32.732  1.00  0.00    -0.354 N 
ATOM     73  N   UNL A   1      39.264  29.905  30.336  1.00  0.00    -0.248 NA
ATOM     74  C   UNL A   1      39.012  29.343  28.085  1.00  0.00     0.031 C 
ATOM     75  C   UNL A   1      36.598  32.694  32.535  1.00  0.00     0.029 A 
ATOM     76  C   UNL A   1      37.400  31.809  31.832  1.00  0.00     0.049 A 
ATOM     77  H   UNL A   1      39.036  30.665  32.517  1.00  0.00     0.167 HD
ATOM     78  C   UNL A   1      38.172  30.587  29.817  1.00  0.00     0.074 A 
ATOM     79  C   UNL A   1      38.081  30.226  28.418  1.00  0.00     0.031 C 
ATOM     80  C   UNL A   1      37.321  31.435  30.445  1.00  0.00     0.037 A 
BRANCH  67  81
ATOM     81  C   UNL A   1      38.501  32.213  36.454  1.00  0.00     0.064 A 
ATOM     82  C   UNL A   1      37.782  31.501  37.427  1.00  0.00     0.173 A 
ATOM     83  C   UNL A   1      38.867  33.535  36.746  1.00  0.00     0.173 A 
ATOM     84  F   UNL A   1      37.398  30.238  37.193  1.00  0.00    -0.203 F 
ATOM     85  C   UNL A   1      37.420  32.100  38.631  1.00  0.00     0.198 A 
ATOM     86  C   UNL A   1      38.527  34.122  37.962  1.00  0.00     0.198 A 
ATOM     87  F   UNL A   1      39.561  34.258  35.853  1.00  0.00    -0.203 F 
ATOM     88  F   UNL A   1      36.692  31.417  39.525  1.00  0.00    -0.200 F 
ATOM     89  C   UNL A   1      37.797  33.407  38.901  1.00  0.00     0.200 A 
ATOM     90  F   UNL A   1      38.903  35.381  38.226  1.00  0.00    -0.200 F 
ATOM     91  F   UNL A   1      37.452  33.980  40.062  1.00  0.00    -0.200 F 
ENDBRANCH  67  81
BRANCH  68  92
ATOM     92  C   UNL A   1      41.333  27.558  28.092  1.00  0.00     0.064 A 
ATOM     93  C   UNL A   1      42.389  28.019  27.294  1.00  0.00     0.173 A 
ATOM     94  C   UNL A   1      40.662  26.397  27.682  1.00  0.00     0.173 A 
ATOM     95  F   UNL A   1      43.043  29.140  27.631  1.00  0.00    -0.203 F 
ATOM     96  C   UNL A   1      42.751  27.352  26.125  1.00  0.00     0.198 A 
ATOM     97  C   UNL A   1      41.041  25.717  26.527  1.00  0.00     0.198 A 
ATOM     98  F   UNL A   1      39.643  25.917  28.410  1.00  0.00    -0.203 F 
ATOM     99  F   UNL A   1      43.738  27.836  25.360  1.00  0.00    -0.200 F 
ATOM    100  C   UNL A   1      42.082  26.199  25.746  1.00  0.00     0.200 A 
ATOM    101  F   UNL A   1      40.397  24.598  26.168  1.00  0.00    -0.200 F 
ATOM    102  F   UNL A   1      42.434  25.555  24.625  1.00  0.00    -0.200 F 
ENDBRANCH  68  92
BRANCH  80 103
ATOM    103  C   UNL A   1      36.222  32.036  29.619  1.00  0.00     0.064 A 
ATOM    104  C   UNL A   1      36.204  33.404  29.314  1.00  0.00     0.173 A 
ATOM    105  C   UNL A   1      35.202  31.229  29.094  1.00  0.00     0.173 A 
ATOM    106  F   UNL A   1      37.150  34.218  29.807  1.00  0.00    -0.203 F 
ATOM    107  C   UNL A   1      35.191  33.948  28.529  1.00  0.00     0.198 A 
ATOM    108  C   UNL A   1      34.205  31.771  28.288  1.00  0.00     0.198 A 
ATOM    109  F   UNL A   1      35.180  29.913  29.352  1.00  0.00    -0.203 F 
ATOM    110  F   UNL A   1      35.170  35.265  28.282  1.00  0.00    -0.200 F 
ATOM    111  C   UNL A   1      34.197  33.130  28.011  1.00  0.00     0.200 A 
ATOM    112  F   UNL A   1      33.251  30.979  27.780  1.00  0.00    -0.200 F 
ATOM    113  F   UNL A   1      33.226  33.654  27.250  1.00  0.00    -0.200 F 
ENDBRANCH  80 103
ENDBRANCH  54  55
ENDBRANCH  46  49
ENDBRANCH  44  45
ENDBRANCH  43  44
ENDBRANCH  42  43
ENDBRANCH   1  42
TORSDOF 18
ENDMDL
MODEL 3
REMARK VINA RESULT:      -9.4      0.813      2.075
REMARK SMILES CN(C)C(=O)C[NH+]1CCN(c2cc(C(=O)NCCCCCCNC(=O)c3ccc(-c4c5nc(c(-c6c(F)c(F)c(F)c(F)c6F)c6ccc([nH]6)c(-c6c(F)c(F)c(F)c(F)c6F)c6nc(c(-c7c(F)c(F)c(F)c(F)c7F)c7ccc4[nH]7)C=C6)C=C5)cc3)c3cc(NC(=O)c4cccc(Cl)c4)ccc3n2)CC1
REMARK SMILES IDX 19 1 18 2 17 3 16 4 14 5 15 6 13 8 11 9 12 10 105 11 104 12
REMARK SMILES IDX 89 13 103 14 90 15 102 16 91 17 10 18 7 19 8 20 107 21 9 23
REMARK SMILES IDX 106 24 6 25 4 26 1 27 2 28 3 29 5 30 92 31 93 32 94 34 95 35
REMARK SMILES IDX 96 36 101 37 97 38 99 39 98 40 100 41 20 42 21 43 22 44
REMARK SMILES IDX 23 45 24 46 25 48 26 49 27 50 88 51 28 52 87 53 29 54 30 55
REMARK SMILES IDX 31 56 81 57 32 58 86 59 80 60 82 61 33 62 85 63 79 64 78 65
REMARK SMILES IDX 34 67 66 68 46 69 65 70 47 71 50 72 64 73 83 74 48 75 49 76
REMARK SMILES IDX 63 78 84 79 51 80 35 81 36 82 44 83 37 84 38 85 42 86 45 87
REMARK SMILES IDX 39 88 40 89 43 90 41 91 67 92 68 93 76 94 69 95 70 96 74 97
REMARK SMILES IDX 77 98 71 99 72 100 75 101 73 102 52 103 53 104 61 105 54 106
REMARK SMILES IDX 55 107 59 108 62 109 56 110 57 111 60 112 58 113
REMARK H PARENT 16 7 7 22 92 33 23 47 82 66 50 77
REMARK Flexibility Score: inf
ROOT
ATOM      1  C   UNL A   1      44.973  23.720  33.009  1.00  0.00     0.002 C 
ENDROOT
BRANCH   1   2
ATOM      2  C   UNL A   1      45.398  25.102  32.485  1.00  0.00     0.021 C 
BRANCH   2   3
ATOM      3  C   UNL A   1      45.744  25.264  31.001  1.00  0.00     0.116 C 
BRANCH   3   4
ATOM      4  N   UNL A   1      47.136  25.569  30.703  1.00  0.00    -0.352 N 
ATOM      5  C   UNL A   1      47.743  26.467  29.842  1.00  0.00     0.252 C 
ATOM      6  O   UNL A   1      48.975  26.511  29.867  1.00  0.00    -0.269 OA
ATOM      7  H   UNL A   1      47.775  25.027  31.220  1.00  0.00     0.163 HD
BRANCH   5   8
ATOM      8  C   UNL A   1      47.039  27.359  28.861  1.00  0.00     0.052 A 
ATOM      9  C   UNL A   1      45.790  29.428  28.581  1.00  0.00     0.130 A 
ATOM     10  C   UNL A   1      46.560  28.582  29.375  1.00  0.00     0.061 A 
ATOM     11  N   UNL A   1      45.586  29.129  27.283  1.00  0.00    -0.231 NA
ATOM     12  C   UNL A   1      46.019  27.971  26.773  1.00  0.00     0.074 A 
ATOM     13  C   UNL A   1      46.681  27.006  27.545  1.00  0.00     0.015 A 
ATOM     14  C   UNL A   1      45.756  27.704  25.436  1.00  0.00     0.031 A 
ATOM     15  C   UNL A   1      46.875  25.738  26.968  1.00  0.00     0.037 A 
ATOM     16  C   UNL A   1      46.052  26.466  24.853  1.00  0.00     0.028 A 
ATOM     17  C   UNL A   1      46.553  25.443  25.645  1.00  0.00     0.042 A 
BRANCH   9  18
ATOM     18  N   UNL A   1      45.159  30.567  29.060  1.00  0.00    -0.345 N 
ATOM     19  N   UNL A   1      44.201  33.242  29.924  1.00  0.00    -0.324 N 
ATOM     20  C   UNL A   1      43.371  32.315  29.133  1.00  0.00     0.284 C 
ATOM     21  C   UNL A   1      45.213  32.496  30.679  1.00  0.00     0.284 C 
ATOM     22  H   UNL A   1      43.593  33.680  30.617  1.00  0.00     0.348 HD
ATOM     23  C   UNL A   1      44.118  31.248  28.287  1.00  0.00     0.179 C 
ATOM     24  C   UNL A   1      46.005  31.405  29.929  1.00  0.00     0.179 C 
BRANCH  19  25
ATOM     25  C   UNL A   1      44.668  34.444  29.210  1.00  0.00     0.363 C 
BRANCH  25  26
ATOM     26  C   UNL A   1      43.779  34.891  28.045  1.00  0.00     0.277 C 
ATOM     27  C   UNL A   1      43.159  34.802  25.691  1.00  0.00     0.146 C 
ATOM     28  N   UNL A   1      44.134  34.563  26.743  1.00  0.00    -0.344 N 
ATOM     29  C   UNL A   1      45.477  34.223  26.303  1.00  0.00     0.146 C 
ATOM     30  O   UNL A   1      42.732  35.501  28.291  1.00  0.00    -0.268 OA
ENDBRANCH  25  26
ENDBRANCH  19  25
ENDBRANCH   9  18
BRANCH  17  31
ATOM     31  N   UNL A   1      46.750  24.172  25.072  1.00  0.00    -0.322 N 
ATOM     32  C   UNL A   1      46.099  22.975  25.308  1.00  0.00     0.255 C 
ATOM     33  H   UNL A   1      47.464  24.128  24.397  1.00  0.00     0.170 HD
ATOM     34  O   UNL A   1      46.619  21.907  24.992  1.00  0.00    -0.269 OA
BRANCH  32  35
ATOM     35  C   UNL A   1      44.747  22.963  25.919  1.00  0.00     0.041 A 
ATOM     36  C   UNL A   1      43.659  22.568  25.134  1.00  0.00     0.014 A 
ATOM     37  C   UNL A   1      44.571  23.231  27.281  1.00  0.00     0.034 A 
ATOM     38  C   UNL A   1      42.423  22.319  25.731  1.00  0.00     0.002 A 
ATOM     39  C   UNL A   1      43.331  22.987  27.867  1.00  0.00     0.041 A 
ATOM     40  C   UNL A   1      42.265  22.509  27.104  1.00  0.00     0.020 A 
ATOM     41  Cl  UNL A   1      43.130  23.224  29.558  1.00  0.00    -0.084 Cl
ENDBRANCH  32  35
ENDBRANCH  17  31
ENDBRANCH   5   8
ENDBRANCH   3   4
ENDBRANCH   2   3
ENDBRANCH   1   2
BRANCH   1  42
ATOM     42  C   UNL A   1      44.655  23.510  34.498  1.00  0.00     0.002 C 
BRANCH  42  43
ATOM     43  C   UNL A   1      45.801  23.267  35.481  1.00  0.00     0.021 C 
BRANCH  43  44
ATOM     44  C   UNL A   1      47.053  24.119  35.316  1.00  0.00     0.116 C 
BRANCH  44  45
ATOM     45  N   UNL A   1      47.292  25.008  36.441  1.00  0.00    -0.352 N 
ATOM     46  C   UNL A   1      46.802  26.265  36.714  1.00  0.00     0.251 C 
ATOM     47  H   UNL A   1      47.908  24.652  37.121  1.00  0.00     0.163 HD
ATOM     48  O   UNL A   1      47.262  26.892  37.665  1.00  0.00    -0.269 OA
BRANCH  46  49
ATOM     49  C   UNL A   1      45.734  26.890  35.891  1.00  0.00     0.039 A 
ATOM     50  C   UNL A   1      46.087  27.904  34.990  1.00  0.00     0.014 A 
ATOM     51  C   UNL A   1      44.386  26.561  36.053  1.00  0.00     0.014 A 
ATOM     52  C   UNL A   1      45.104  28.550  34.228  1.00  0.00     0.010 A 
ATOM     53  C   UNL A   1      43.415  27.155  35.245  1.00  0.00     0.010 A 
ATOM     54  C   UNL A   1      43.760  28.169  34.339  1.00  0.00    -0.014 A 
BRANCH  54  55
ATOM     55  C   UNL A   1      42.687  28.852  33.567  1.00  0.00     0.031 A 
ATOM     56  C   UNL A   1      41.831  29.891  34.240  1.00  0.00     0.074 A 
ATOM     57  C   UNL A   1      42.433  28.497  32.293  1.00  0.00     0.049 A 
ATOM     58  N   UNL A   1      40.770  30.514  33.791  1.00  0.00    -0.248 NA
ATOM     59  C   UNL A   1      42.202  30.256  35.616  1.00  0.00     0.031 C 
ATOM     60  C   UNL A   1      43.168  27.483  31.536  1.00  0.00     0.029 A 
ATOM     61  N   UNL A   1      41.472  28.936  31.416  1.00  0.00    -0.354 N 
ATOM     62  C   UNL A   1      40.333  31.320  34.835  1.00  0.00     0.074 A 
ATOM     63  C   UNL A   1      41.219  31.080  35.953  1.00  0.00     0.031 C 
ATOM     64  C   UNL A   1      42.635  27.382  30.307  1.00  0.00     0.029 A 
ATOM     65  C   UNL A   1      41.501  28.296  30.202  1.00  0.00     0.049 A 
ATOM     66  H   UNL A   1      40.822  29.641  31.638  1.00  0.00     0.167 HD
ATOM     67  C   UNL A   1      39.300  32.195  34.854  1.00  0.00     0.037 A 
ATOM     68  C   UNL A   1      40.695  28.422  29.129  1.00  0.00     0.037 A 
ATOM     69  C   UNL A   1      38.445  32.465  33.729  1.00  0.00     0.049 A 
ATOM     70  C   UNL A   1      39.556  29.406  29.173  1.00  0.00     0.074 A 
ATOM     71  C   UNL A   1      37.419  33.388  33.624  1.00  0.00     0.029 A 
ATOM     72  N   UNL A   1      38.521  31.812  32.507  1.00  0.00    -0.354 N 
ATOM     73  N   UNL A   1      39.185  30.199  30.148  1.00  0.00    -0.248 NA
ATOM     74  C   UNL A   1      38.724  29.510  27.966  1.00  0.00     0.031 C 
ATOM     75  C   UNL A   1      36.849  33.267  32.352  1.00  0.00     0.029 A 
ATOM     76  C   UNL A   1      37.546  32.296  31.651  1.00  0.00     0.049 A 
ATOM     77  H   UNL A   1      39.172  31.108  32.283  1.00  0.00     0.167 HD
ATOM     78  C   UNL A   1      38.091  30.907  29.670  1.00  0.00     0.074 A 
ATOM     79  C   UNL A   1      37.868  30.463  28.310  1.00  0.00     0.031 C 
ATOM     80  C   UNL A   1      37.337  31.839  30.302  1.00  0.00     0.037 A 
BRANCH  67  81
ATOM     81  C   UNL A   1      39.036  32.931  36.136  1.00  0.00     0.064 A 
ATOM     82  C   UNL A   1      39.523  34.228  36.354  1.00  0.00     0.173 A 
ATOM     83  C   UNL A   1      38.257  32.344  37.146  1.00  0.00     0.173 A 
ATOM     84  F   UNL A   1      40.282  34.829  35.425  1.00  0.00    -0.203 F 
ATOM     85  C   UNL A   1      39.265  34.900  37.547  1.00  0.00     0.198 A 
ATOM     86  C   UNL A   1      37.979  33.030  38.325  1.00  0.00     0.198 A 
ATOM     87  F   UNL A   1      37.761  31.108  36.985  1.00  0.00    -0.203 F 
ATOM     88  F   UNL A   1      39.781  36.120  37.752  1.00  0.00    -0.200 F 
ATOM     89  C   UNL A   1      38.489  34.303  38.529  1.00  0.00     0.200 A 
ATOM     90  F   UNL A   1      37.218  32.456  39.268  1.00  0.00    -0.200 F 
ATOM     91  F   UNL A   1      38.238  34.953  39.673  1.00  0.00    -0.200 F 
ENDBRANCH  67  81
BRANCH  68  92
ATOM     92  C   UNL A   1      40.944  27.603  27.915  1.00  0.00     0.064 A 
ATOM     93  C   UNL A   1      40.356  26.339  27.769  1.00  0.00     0.173 A 
ATOM     94  C   UNL A   1      41.769  28.063  26.880  1.00  0.00     0.173 A 
ATOM     95  F   UNL A   1      39.581  25.844  28.745  1.00  0.00    -0.203 F 
ATOM     96  C   UNL A   1      40.595  25.561  26.637  1.00  0.00     0.198 A 
ATOM     97  C   UNL A   1      41.987  27.296  25.738  1.00  0.00     0.198 A 
ATOM     98  F   UNL A   1      42.358  29.265  26.973  1.00  0.00    -0.203 F 
ATOM     99  F   UNL A   1      40.052  24.340  26.541  1.00  0.00    -0.200 F 
ATOM    100  C   UNL A   1      41.403  26.043  25.620  1.00  0.00     0.200 A 
ATOM    101  F   UNL A   1      42.763  27.768  24.752  1.00  0.00    -0.200 F 
ATOM    102  F   UNL A   1      41.628  25.297  24.530  1.00  0.00    -0.200 F 
ENDBRANCH  68  92
BRANCH  80 103
ATOM    103  C   UNL A   1      36.207  32.447  29.525  1.00  0.00     0.064 A 
ATOM    104  C   UNL A   1      35.085  31.693  29.156  1.00  0.00     0.173 A 
ATOM    105  C   UNL A   1      36.228  33.808  29.183  1.00  0.00     0.173 A 
ATOM    106  F   UNL A   1      35.026  30.384  29.448  1.00  0.00    -0.203 F 
ATOM    107  C   UNL A   1      34.032  32.273  28.455  1.00  0.00     0.198 A 
ATOM    108  C   UNL A   1      35.163  34.391  28.504  1.00  0.00     0.198 A 
ATOM    109  F   UNL A   1      37.278  34.573  29.519  1.00  0.00    -0.203 F 
ATOM    110  F   UNL A   1      32.986  31.525  28.077  1.00  0.00    -0.200 F 
ATOM    111  C   UNL A   1      34.069  33.623  28.135  1.00  0.00     0.200 A 
ATOM    112  F   UNL A   1      35.195  35.697  28.205  1.00  0.00    -0.200 F 
ATOM    113  F   UNL A   1      33.052  34.182  27.465  1.00  0.00    -0.200 F 
ENDBRANCH  80 103
ENDBRANCH  54  55
ENDBRANCH  46  49
ENDBRANCH  44  45
ENDBRANCH  43  44
ENDBRANCH  42  43
ENDBRANCH   1  42
TORSDOF 18
ENDMDL
