MODEL 1
REMARK VINA RESULT:     -13.4      0.000      0.000
REMARK SMILES N#Cc1cccnc1N1CC[NH+]([C@@H](C(=O)NCCCCCCNC(=O)c2ccc(-c3c4nc(c(-c5c(F)c(F)c(F)c(F)c5F)c5ccc([nH]5)c(-c5c(F)c(F)c(F)c(F)c5F)c5nc(c(-c6c(F)c(F)c(F)c(F)c6F)c6ccc3[nH]6)C=C5)C=C4)cc2)c2c[nH]c3cc(CO)ccc23)CC1
REMARK SMILES IDX 19 1 18 2 17 3 16 4 14 5 15 6 13 8 12 9 9 10 10 11 101 12
REMARK SMILES IDX 11 13 100 14 8 16 3 17 4 18 5 19 7 20 6 21 2 22 1 23 89 24
REMARK SMILES IDX 90 25 99 26 91 27 92 28 98 29 93 31 97 32 94 33 95 34 96 35
REMARK SMILES IDX 20 37 21 38 22 39 23 40 24 41 25 43 26 44 27 45 88 46 28 47
REMARK SMILES IDX 87 48 29 49 30 50 31 51 81 52 32 53 86 54 80 55 82 56 33 57
REMARK SMILES IDX 85 58 79 59 78 60 34 62 66 63 46 64 65 65 47 66 50 67 64 68
REMARK SMILES IDX 83 69 48 70 49 71 63 73 84 74 51 75 35 76 36 77 44 78 37 79
REMARK SMILES IDX 38 80 42 81 45 82 39 83 40 84 43 85 41 86 67 87 68 88 76 89
REMARK SMILES IDX 69 90 70 91 74 92 77 93 71 94 72 95 75 96 73 97 52 98 53 99
REMARK SMILES IDX 61 100 54 101 55 102 59 103 62 104 56 105 57 106 60 107
REMARK SMILES IDX 58 108
REMARK H PARENT 16 7 12 15 91 30 96 36 23 42 82 61 50 72
REMARK Flexibility Score: inf
ROOT
ATOM      1  C   UNL A   1      32.896  30.123  26.370  1.00  0.00     0.002 C 
ENDROOT
BRANCH   1   2
ATOM      2  C   UNL A   1      32.767  29.158  27.565  1.00  0.00     0.021 C 
BRANCH   2   3
ATOM      3  C   UNL A   1      32.296  27.704  27.258  1.00  0.00     0.116 C 
BRANCH   3   4
ATOM      4  N   UNL A   1      32.925  27.045  26.107  1.00  0.00    -0.351 N 
ATOM      5  C   UNL A   1      32.543  26.358  24.976  1.00  0.00     0.283 C 
ATOM      6  O   UNL A   1      33.497  26.074  24.238  1.00  0.00    -0.268 OA
ATOM      7  H   UNL A   1      33.906  27.114  26.159  1.00  0.00     0.163 HD
BRANCH   5   8
ATOM      8  C   UNL A   1      31.065  26.024  24.586  1.00  0.00     0.307 C 
BRANCH   8   9
ATOM      9  N   UNL A   1      30.561  24.601  24.776  1.00  0.00    -0.318 N 
ATOM     10  N   UNL A   1      32.687  22.537  24.764  1.00  0.00    -0.344 N 
ATOM     11  C   UNL A   1      32.217  23.147  23.516  1.00  0.00     0.179 C 
ATOM     12  C   UNL A   1      32.427  23.344  25.965  1.00  0.00     0.179 C 
ATOM     13  C   UNL A   1      30.760  23.580  23.728  1.00  0.00     0.284 C 
ATOM     14  C   UNL A   1      30.985  23.921  26.000  1.00  0.00     0.284 C 
ATOM     15  H   UNL A   1      29.583  24.888  24.774  1.00  0.00     0.349 HD
BRANCH  10  16
ATOM     16  C   UNL A   1      33.975  21.996  24.730  1.00  0.00     0.146 A 
ATOM     17  C   UNL A   1      34.180  20.619  24.885  1.00  0.00     0.095 A 
ATOM     18  C   UNL A   1      35.485  20.126  24.950  1.00  0.00     0.025 A 
ATOM     19  C   UNL A   1      36.554  21.007  24.865  1.00  0.00     0.022 A 
ATOM     20  N   UNL A   1      35.022  22.848  24.610  1.00  0.00    -0.238 NA
ATOM     21  C   UNL A   1      36.274  22.349  24.692  1.00  0.00     0.113 A 
BRANCH  17  22
ATOM     22  C   UNL A   1      33.074  19.702  24.991  1.00  0.00     0.103 C 
ATOM     23  N   UNL A   1      32.193  18.981  25.139  1.00  0.00    -0.192 NA
ENDBRANCH  17  22
ENDBRANCH  10  16
ENDBRANCH   8   9
BRANCH   8  24
ATOM     24  C   UNL A   1      30.620  26.582  23.184  1.00  0.00     0.044 A 
ATOM     25  C   UNL A   1      31.485  26.731  22.102  1.00  0.00     0.094 A 
ATOM     26  C   UNL A   1      29.629  27.593  22.882  1.00  0.00     0.009 A 
ATOM     27  N   UNL A   1      31.580  28.099  21.957  1.00  0.00    -0.361 N 
ATOM     28  C   UNL A   1      30.390  28.656  22.376  1.00  0.00     0.046 A 
ATOM     29  C   UNL A   1      28.280  27.851  23.186  1.00  0.00     0.011 A 
ATOM     30  H   UNL A   1      32.361  28.591  21.616  1.00  0.00     0.166 HD
ATOM     31  C   UNL A   1      29.995  29.995  22.508  1.00  0.00     0.032 A 
ATOM     32  C   UNL A   1      27.819  29.176  23.188  1.00  0.00     0.007 A 
ATOM     33  C   UNL A   1      28.713  30.242  23.019  1.00  0.00    -0.021 A 
BRANCH  33  34
ATOM     34  C   UNL A   1      28.328  31.627  23.477  1.00  0.00     0.191 C 
BRANCH  34  35
ATOM     35  O   UNL A   1      26.953  31.684  23.861  1.00  0.00    -0.392 OA
ATOM     36  H   UNL A   1      26.610  30.784  23.972  1.00  0.00     0.211 HD
ENDBRANCH  34  35
ENDBRANCH  33  34
ENDBRANCH   8  24
ENDBRANCH   5   8
ENDBRANCH   3   4
ENDBRANCH   2   3
ENDBRANCH   1   2
BRANCH   1  37
ATOM     37  C   UNL A   1      31.593  30.816  25.964  1.00  0.00     0.002 C 
BRANCH  37  38
ATOM     38  C   UNL A   1      31.358  32.195  26.587  1.00  0.00     0.021 C 
BRANCH  38  39
ATOM     39  C   UNL A   1      32.558  32.791  27.318  1.00  0.00     0.116 C 
BRANCH  39  40
ATOM     40  N   UNL A   1      32.377  34.210  27.594  1.00  0.00    -0.352 N 
ATOM     41  C   UNL A   1      32.963  34.976  28.575  1.00  0.00     0.251 C 
ATOM     42  H   UNL A   1      31.752  34.685  26.999  1.00  0.00     0.163 HD
ATOM     43  O   UNL A   1      32.530  36.091  28.843  1.00  0.00    -0.269 OA
BRANCH  41  44
ATOM     44  C   UNL A   1      34.122  34.437  29.317  1.00  0.00     0.039 A 
ATOM     45  C   UNL A   1      33.919  33.809  30.548  1.00  0.00     0.014 A 
ATOM     46  C   UNL A   1      35.410  34.549  28.786  1.00  0.00     0.014 A 
ATOM     47  C   UNL A   1      35.005  33.241  31.220  1.00  0.00     0.010 A 
ATOM     48  C   UNL A   1      36.477  33.919  29.420  1.00  0.00     0.010 A 
ATOM     49  C   UNL A   1      36.288  33.264  30.648  1.00  0.00    -0.014 A 
BRANCH  49  50
ATOM     50  C   UNL A   1      37.445  32.623  31.324  1.00  0.00     0.031 A 
ATOM     51  C   UNL A   1      38.162  31.476  30.667  1.00  0.00     0.074 A 
ATOM     52  C   UNL A   1      37.819  33.037  32.551  1.00  0.00     0.049 A 
ATOM     53  N   UNL A   1      39.150  30.746  31.120  1.00  0.00    -0.248 NA
ATOM     54  C   UNL A   1      37.688  31.079  29.331  1.00  0.00     0.031 C 
ATOM     55  C   UNL A   1      37.174  34.106  33.315  1.00  0.00     0.029 A 
ATOM     56  N   UNL A   1      38.824  32.599  33.378  1.00  0.00    -0.354 N 
ATOM     57  C   UNL A   1      39.412  29.809  30.127  1.00  0.00     0.074 A 
ATOM     58  C   UNL A   1      38.437  30.016  29.081  1.00  0.00     0.031 C 
ATOM     59  C   UNL A   1      37.808  34.251  34.490  1.00  0.00     0.029 A 
ATOM     60  C   UNL A   1      38.876  33.261  34.581  1.00  0.00     0.049 A 
ATOM     61  H   UNL A   1      39.448  31.878  33.132  1.00  0.00     0.167 HD
ATOM     62  C   UNL A   1      40.397  28.881  30.080  1.00  0.00     0.037 A 
ATOM     63  C   UNL A   1      39.686  33.079  35.643  1.00  0.00     0.037 A 
ATOM     64  C   UNL A   1      41.370  28.679  31.121  1.00  0.00     0.049 A 
ATOM     65  C   UNL A   1      40.756  32.021  35.575  1.00  0.00     0.074 A 
ATOM     66  C   UNL A   1      42.426  27.786  31.155  1.00  0.00     0.029 A 
ATOM     67  N   UNL A   1      41.403  29.382  32.317  1.00  0.00    -0.354 N 
ATOM     68  N   UNL A   1      41.035  31.185  34.605  1.00  0.00    -0.248 NA
ATOM     69  C   UNL A   1      41.633  31.890  36.748  1.00  0.00     0.031 C 
ATOM     70  C   UNL A   1      43.068  27.913  32.391  1.00  0.00     0.029 A 
ATOM     71  C   UNL A   1      42.450  28.930  33.103  1.00  0.00     0.049 A 
ATOM     72  H   UNL A   1      40.775  30.097  32.569  1.00  0.00     0.167 HD
ATOM     73  C   UNL A   1      42.133  30.451  35.035  1.00  0.00     0.074 A 
ATOM     74  C   UNL A   1      42.482  30.954  36.347  1.00  0.00     0.031 C 
ATOM     75  C   UNL A   1      42.792  29.449  34.403  1.00  0.00     0.037 A 
BRANCH  62  76
ATOM     76  C   UNL A   1      40.478  28.017  28.852  1.00  0.00     0.064 A 
ATOM     77  C   UNL A   1      39.781  26.802  28.764  1.00  0.00     0.173 A 
ATOM     78  C   UNL A   1      41.225  28.425  27.736  1.00  0.00     0.173 A 
ATOM     79  F   UNL A   1      39.060  26.360  29.805  1.00  0.00    -0.203 F 
ATOM     80  C   UNL A   1      39.852  26.015  27.618  1.00  0.00     0.198 A 
ATOM     81  C   UNL A   1      41.266  27.652  26.580  1.00  0.00     0.198 A 
ATOM     82  F   UNL A   1      41.906  29.581  27.763  1.00  0.00    -0.203 F 
ATOM     83  F   UNL A   1      39.217  24.835  27.578  1.00  0.00    -0.200 F 
ATOM     84  C   UNL A   1      40.587  26.444  26.524  1.00  0.00     0.200 A 
ATOM     85  F   UNL A   1      41.964  28.075  25.517  1.00  0.00    -0.200 F 
ATOM     86  F   UNL A   1      40.645  25.690  25.417  1.00  0.00    -0.200 F 
ENDBRANCH  62  76
BRANCH  63  87
ATOM     87  C   UNL A   1      39.520  33.919  36.860  1.00  0.00     0.064 A 
ATOM     88  C   UNL A   1      38.768  33.470  37.955  1.00  0.00     0.173 A 
ATOM     89  C   UNL A   1      40.092  35.197  36.945  1.00  0.00     0.173 A 
ATOM     90  F   UNL A   1      38.185  32.263  37.916  1.00  0.00    -0.203 F 
ATOM     91  C   UNL A   1      38.568  34.278  39.073  1.00  0.00     0.198 A 
ATOM     92  C   UNL A   1      39.919  35.991  38.077  1.00  0.00     0.198 A 
ATOM     93  F   UNL A   1      40.826  35.675  35.929  1.00  0.00    -0.203 F 
ATOM     94  F   UNL A   1      37.795  33.847  40.079  1.00  0.00    -0.200 F 
ATOM     95  C   UNL A   1      39.148  35.536  39.135  1.00  0.00     0.200 A 
ATOM     96  F   UNL A   1      40.497  37.199  38.140  1.00  0.00    -0.200 F 
ATOM     97  F   UNL A   1      38.956  36.313  40.210  1.00  0.00    -0.200 F 
ENDBRANCH  63  87
BRANCH  75  98
ATOM     98  C   UNL A   1      43.983  28.857  35.101  1.00  0.00     0.064 A 
ATOM     99  C   UNL A   1      45.277  29.366  34.915  1.00  0.00     0.173 A 
ATOM    100  C   UNL A   1      43.819  27.792  36.002  1.00  0.00     0.173 A 
ATOM    101  F   UNL A   1      45.490  30.373  34.055  1.00  0.00    -0.203 F 
ATOM    102  C   UNL A   1      46.366  28.810  35.581  1.00  0.00     0.198 A 
ATOM    103  C   UNL A   1      44.905  27.263  36.692  1.00  0.00     0.198 A 
ATOM    104  F   UNL A   1      42.601  27.275  36.223  1.00  0.00    -0.203 F 
ATOM    105  F   UNL A   1      47.601  29.276  35.347  1.00  0.00    -0.200 F 
ATOM    106  C   UNL A   1      46.179  27.765  36.475  1.00  0.00     0.200 A 
ATOM    107  F   UNL A   1      44.719  26.266  37.567  1.00  0.00    -0.200 F 
ATOM    108  F   UNL A   1      47.228  27.239  37.121  1.00  0.00    -0.200 F 
ENDBRANCH  75  98
ENDBRANCH  49  50
ENDBRANCH  41  44
ENDBRANCH  39  40
ENDBRANCH  38  39
ENDBRANCH  37  38
ENDBRANCH   1  37
TORSDOF 19
ENDMDL
MODEL 2
REMARK VINA RESULT:     -13.3      5.179     11.181
REMARK SMILES N#Cc1cccnc1N1CC[NH+]([C@@H](C(=O)NCCCCCCNC(=O)c2ccc(-c3c4nc(c(-c5c(F)c(F)c(F)c(F)c5F)c5ccc([nH]5)c(-c5c(F)c(F)c(F)c(F)c5F)c5nc(c(-c6c(F)c(F)c(F)c(F)c6F)c6ccc3[nH]6)C=C5)C=C4)cc2)c2c[nH]c3cc(CO)ccc23)CC1
REMARK SMILES IDX 19 1 18 2 17 3 16 4 14 5 15 6 13 8 12 9 9 10 10 11 101 12
REMARK SMILES IDX 11 13 100 14 8 16 3 17 4 18 5 19 7 20 6 21 2 22 1 23 89 24
REMARK SMILES IDX 90 25 99 26 91 27 92 28 98 29 93 31 97 32 94 33 95 34 96 35
REMARK SMILES IDX 20 37 21 38 22 39 23 40 24 41 25 43 26 44 27 45 88 46 28 47
REMARK SMILES IDX 87 48 29 49 30 50 31 51 81 52 32 53 86 54 80 55 82 56 33 57
REMARK SMILES IDX 85 58 79 59 78 60 34 62 66 63 46 64 65 65 47 66 50 67 64 68
REMARK SMILES IDX 83 69 48 70 49 71 63 73 84 74 51 75 35 76 36 77 44 78 37 79
REMARK SMILES IDX 38 80 42 81 45 82 39 83 40 84 43 85 41 86 67 87 68 88 76 89
REMARK SMILES IDX 69 90 70 91 74 92 77 93 71 94 72 95 75 96 73 97 52 98 53 99
REMARK SMILES IDX 61 100 54 101 55 102 59 103 62 104 56 105 57 106 60 107
REMARK SMILES IDX 58 108
REMARK H PARENT 16 7 12 15 91 30 96 36 23 42 82 61 50 72
REMARK Flexibility Score: inf
ROOT
ATOM      1  C   UNL A   1      36.089  21.130  24.916  1.00  0.00     0.002 C 
ENDROOT
BRANCH   1   2
ATOM      2  C   UNL A   1      36.747  22.120  23.935  1.00  0.00     0.021 C 
BRANCH   2   3
ATOM      3  C   UNL A   1      36.724  23.629  24.326  1.00  0.00     0.116 C 
BRANCH   3   4
ATOM      4  N   UNL A   1      35.572  24.080  25.116  1.00  0.00    -0.351 N 
ATOM      5  C   UNL A   1      34.197  24.026  25.058  1.00  0.00     0.283 C 
ATOM      6  O   UNL A   1      33.653  24.498  26.066  1.00  0.00    -0.268 OA
ATOM      7  H   UNL A   1      35.869  24.563  25.921  1.00  0.00     0.163 HD
BRANCH   5   8
ATOM      8  C   UNL A   1      33.372  23.371  23.901  1.00  0.00     0.307 C 
BRANCH   8   9
ATOM      9  N   UNL A   1      32.787  24.268  22.821  1.00  0.00    -0.318 N 
ATOM     10  N   UNL A   1      32.017  26.972  23.757  1.00  0.00    -0.344 N 
ATOM     11  C   UNL A   1      31.178  25.802  24.044  1.00  0.00     0.179 C 
ATOM     12  C   UNL A   1      33.420  26.648  23.460  1.00  0.00     0.179 C 
ATOM     13  C   UNL A   1      31.406  24.778  22.924  1.00  0.00     0.284 C 
ATOM     14  C   UNL A   1      33.565  25.457  22.473  1.00  0.00     0.284 C 
ATOM     15  H   UNL A   1      32.813  23.531  22.117  1.00  0.00     0.349 HD
BRANCH  10  16
ATOM     16  C   UNL A   1      31.871  28.054  24.628  1.00  0.00     0.146 A 
ATOM     17  C   UNL A   1      31.167  29.200  24.238  1.00  0.00     0.095 A 
ATOM     18  C   UNL A   1      31.130  30.304  25.094  1.00  0.00     0.025 A 
ATOM     19  C   UNL A   1      31.794  30.247  26.312  1.00  0.00     0.022 A 
ATOM     20  N   UNL A   1      32.487  27.989  25.834  1.00  0.00    -0.238 NA
ATOM     21  C   UNL A   1      32.451  29.075  26.637  1.00  0.00     0.113 A 
BRANCH  17  22
ATOM     22  C   UNL A   1      30.492  29.271  22.968  1.00  0.00     0.103 C 
ATOM     23  N   UNL A   1      29.900  29.309  21.985  1.00  0.00    -0.192 NA
ENDBRANCH  17  22
ENDBRANCH  10  16
ENDBRANCH   8   9
BRANCH   8  24
ATOM     24  C   UNL A   1      32.306  22.317  24.377  1.00  0.00     0.044 A 
ATOM     25  C   UNL A   1      31.739  22.312  25.650  1.00  0.00     0.094 A 
ATOM     26  C   UNL A   1      32.191  20.918  24.022  1.00  0.00     0.009 A 
ATOM     27  N   UNL A   1      32.258  21.170  26.224  1.00  0.00    -0.361 N 
ATOM     28  C   UNL A   1      32.481  20.251  25.221  1.00  0.00     0.046 A 
ATOM     29  C   UNL A   1      32.135  20.143  22.848  1.00  0.00     0.011 A 
ATOM     30  H   UNL A   1      32.438  21.036  27.183  1.00  0.00     0.166 HD
ATOM     31  C   UNL A   1      33.064  18.977  25.251  1.00  0.00     0.032 A 
ATOM     32  C   UNL A   1      32.581  18.814  22.883  1.00  0.00     0.007 A 
ATOM     33  C   UNL A   1      33.197  18.299  24.031  1.00  0.00    -0.021 A 
BRANCH  33  34
ATOM     34  C   UNL A   1      34.077  17.076  23.929  1.00  0.00     0.191 C 
BRANCH  34  35
ATOM     35  O   UNL A   1      34.121  16.578  22.590  1.00  0.00    -0.392 OA
ATOM     36  H   UNL A   1      33.658  15.727  22.547  1.00  0.00     0.211 HD
ENDBRANCH  34  35
ENDBRANCH  33  34
ENDBRANCH   8  24
ENDBRANCH   5   8
ENDBRANCH   3   4
ENDBRANCH   2   3
ENDBRANCH   1   2
BRANCH   1  37
ATOM     37  C   UNL A   1      36.802  19.781  25.038  1.00  0.00     0.002 C 
BRANCH  37  38
ATOM     38  C   UNL A   1      38.294  19.789  24.691  1.00  0.00     0.021 C 
BRANCH  38  39
ATOM     39  C   UNL A   1      39.232  20.067  25.864  1.00  0.00     0.116 C 
BRANCH  39  40
ATOM     40  N   UNL A   1      40.233  19.021  26.019  1.00  0.00    -0.352 N 
ATOM     41  C   UNL A   1      41.597  19.150  26.141  1.00  0.00     0.251 C 
ATOM     42  H   UNL A   1      39.888  18.099  26.040  1.00  0.00     0.163 HD
ATOM     43  O   UNL A   1      42.333  18.178  26.014  1.00  0.00    -0.269 OA
BRANCH  41  44
ATOM     44  C   UNL A   1      42.176  20.481  26.418  1.00  0.00     0.039 A 
ATOM     45  C   UNL A   1      42.619  21.273  25.356  1.00  0.00     0.014 A 
ATOM     46  C   UNL A   1      42.272  20.946  27.733  1.00  0.00     0.014 A 
ATOM     47  C   UNL A   1      43.105  22.558  25.611  1.00  0.00     0.010 A 
ATOM     48  C   UNL A   1      42.688  22.251  27.976  1.00  0.00     0.010 A 
ATOM     49  C   UNL A   1      43.116  23.070  26.919  1.00  0.00    -0.014 A 
BRANCH  49  50
ATOM     50  C   UNL A   1      43.585  24.451  27.203  1.00  0.00     0.031 A 
ATOM     51  C   UNL A   1      42.619  25.484  27.714  1.00  0.00     0.074 A 
ATOM     52  C   UNL A   1      44.865  24.790  26.953  1.00  0.00     0.049 A 
ATOM     53  N   UNL A   1      42.817  26.755  27.962  1.00  0.00    -0.248 NA
ATOM     54  C   UNL A   1      41.238  25.036  27.954  1.00  0.00     0.031 C 
ATOM     55  C   UNL A   1      45.886  23.893  26.411  1.00  0.00     0.029 A 
ATOM     56  N   UNL A   1      45.523  25.986  27.108  1.00  0.00    -0.354 N 
ATOM     57  C   UNL A   1      41.591  27.253  28.385  1.00  0.00     0.074 A 
ATOM     58  C   UNL A   1      40.639  26.168  28.293  1.00  0.00     0.031 C 
ATOM     59  C   UNL A   1      47.044  24.564  26.293  1.00  0.00     0.029 A 
ATOM     60  C   UNL A   1      46.838  25.947  26.713  1.00  0.00     0.049 A 
ATOM     61  H   UNL A   1      45.092  26.794  27.468  1.00  0.00     0.167 HD
ATOM     62  C   UNL A   1      41.292  28.494  28.838  1.00  0.00     0.037 A 
ATOM     63  C   UNL A   1      47.769  26.921  26.679  1.00  0.00     0.037 A 
ATOM     64  C   UNL A   1      42.242  29.571  28.932  1.00  0.00     0.049 A 
ATOM     65  C   UNL A   1      47.403  28.300  27.163  1.00  0.00     0.074 A 
ATOM     66  C   UNL A   1      42.046  30.856  29.407  1.00  0.00     0.029 A 
ATOM     67  N   UNL A   1      43.571  29.487  28.540  1.00  0.00    -0.354 N 
ATOM     68  N   UNL A   1      46.257  28.741  27.621  1.00  0.00    -0.248 NA
ATOM     69  C   UNL A   1      48.467  29.315  27.136  1.00  0.00     0.031 C 
ATOM     70  C   UNL A   1      43.242  31.565  29.256  1.00  0.00     0.029 A 
ATOM     71  C   UNL A   1      44.201  30.704  28.745  1.00  0.00     0.049 A 
ATOM     72  H   UNL A   1      44.001  28.682  28.171  1.00  0.00     0.167 HD
ATOM     73  C   UNL A   1      46.468  30.070  27.964  1.00  0.00     0.074 A 
ATOM     74  C   UNL A   1      47.857  30.359  27.679  1.00  0.00     0.031 C 
ATOM     75  C   UNL A   1      45.589  30.972  28.466  1.00  0.00     0.037 A 
BRANCH  62  76
ATOM     76  C   UNL A   1      39.879  28.750  29.279  1.00  0.00     0.064 A 
ATOM     77  C   UNL A   1      38.909  29.231  28.385  1.00  0.00     0.173 A 
ATOM     78  C   UNL A   1      39.476  28.474  30.594  1.00  0.00     0.173 A 
ATOM     79  F   UNL A   1      39.242  29.520  27.118  1.00  0.00    -0.203 F 
ATOM     80  C   UNL A   1      37.598  29.454  28.799  1.00  0.00     0.198 A 
ATOM     81  C   UNL A   1      38.156  28.666  30.996  1.00  0.00     0.198 A 
ATOM     82  F   UNL A   1      40.359  28.006  31.489  1.00  0.00    -0.203 F 
ATOM     83  F   UNL A   1      36.703  29.961  27.940  1.00  0.00    -0.200 F 
ATOM     84  C   UNL A   1      37.221  29.163  30.101  1.00  0.00     0.200 A 
ATOM     85  F   UNL A   1      37.789  28.369  32.250  1.00  0.00    -0.200 F 
ATOM     86  F   UNL A   1      35.956  29.367  30.494  1.00  0.00    -0.200 F 
ENDBRANCH  62  76
BRANCH  63  87
ATOM     87  C   UNL A   1      49.137  26.629  26.171  1.00  0.00     0.064 A 
ATOM     88  C   UNL A   1      50.121  26.087  27.009  1.00  0.00     0.173 A 
ATOM     89  C   UNL A   1      49.494  26.907  24.844  1.00  0.00     0.173 A 
ATOM     90  F   UNL A   1      49.836  25.821  28.292  1.00  0.00    -0.203 F 
ATOM     91  C   UNL A   1      51.418  25.864  26.548  1.00  0.00     0.198 A 
ATOM     92  C   UNL A   1      50.781  26.652  24.375  1.00  0.00     0.198 A 
ATOM     93  F   UNL A   1      48.590  27.421  23.997  1.00  0.00    -0.203 F 
ATOM     94  F   UNL A   1      52.355  25.402  27.387  1.00  0.00    -0.200 F 
ATOM     95  C   UNL A   1      51.746  26.142  25.230  1.00  0.00     0.200 A 
ATOM     96  F   UNL A   1      51.088  26.905  23.095  1.00  0.00    -0.200 F 
ATOM     97  F   UNL A   1      52.992  25.927  24.787  1.00  0.00    -0.200 F 
ENDBRANCH  63  87
BRANCH  75  98
ATOM     98  C   UNL A   1      46.113  32.344  28.781  1.00  0.00     0.064 A 
ATOM     99  C   UNL A   1      46.075  33.385  27.839  1.00  0.00     0.173 A 
ATOM    100  C   UNL A   1      46.622  32.633  30.057  1.00  0.00     0.173 A 
ATOM    101  F   UNL A   1      45.611  33.158  26.601  1.00  0.00    -0.203 F 
ATOM    102  C   UNL A   1      46.555  34.652  28.155  1.00  0.00     0.198 A 
ATOM    103  C   UNL A   1      47.068  33.911  30.380  1.00  0.00     0.198 A 
ATOM    104  F   UNL A   1      46.672  31.677  30.997  1.00  0.00    -0.203 F 
ATOM    105  F   UNL A   1      46.559  35.615  27.223  1.00  0.00    -0.200 F 
ATOM    106  C   UNL A   1      47.044  34.918  29.426  1.00  0.00     0.200 A 
ATOM    107  F   UNL A   1      47.524  34.168  31.613  1.00  0.00    -0.200 F 
ATOM    108  F   UNL A   1      47.497  36.141  29.729  1.00  0.00    -0.200 F 
ENDBRANCH  75  98
ENDBRANCH  49  50
ENDBRANCH  41  44
ENDBRANCH  39  40
ENDBRANCH  38  39
ENDBRANCH  37  38
ENDBRANCH   1  37
TORSDOF 19
ENDMDL
MODEL 3
REMARK VINA RESULT:     -13.3      4.942      9.915
REMARK SMILES N#Cc1cccnc1N1CC[NH+]([C@@H](C(=O)NCCCCCCNC(=O)c2ccc(-c3c4nc(c(-c5c(F)c(F)c(F)c(F)c5F)c5ccc([nH]5)c(-c5c(F)c(F)c(F)c(F)c5F)c5nc(c(-c6c(F)c(F)c(F)c(F)c6F)c6ccc3[nH]6)C=C5)C=C4)cc2)c2c[nH]c3cc(CO)ccc23)CC1
REMARK SMILES IDX 19 1 18 2 17 3 16 4 14 5 15 6 13 8 12 9 9 10 10 11 101 12
REMARK SMILES IDX 11 13 100 14 8 16 3 17 4 18 5 19 7 20 6 21 2 22 1 23 89 24
REMARK SMILES IDX 90 25 99 26 91 27 92 28 98 29 93 31 97 32 94 33 95 34 96 35
REMARK SMILES IDX 20 37 21 38 22 39 23 40 24 41 25 43 26 44 27 45 88 46 28 47
REMARK SMILES IDX 87 48 29 49 30 50 31 51 81 52 32 53 86 54 80 55 82 56 33 57
REMARK SMILES IDX 85 58 79 59 78 60 34 62 66 63 46 64 65 65 47 66 50 67 64 68
REMARK SMILES IDX 83 69 48 70 49 71 63 73 84 74 51 75 35 76 36 77 44 78 37 79
REMARK SMILES IDX 38 80 42 81 45 82 39 83 40 84 43 85 41 86 67 87 68 88 76 89
REMARK SMILES IDX 69 90 70 91 74 92 77 93 71 94 72 95 75 96 73 97 52 98 53 99
REMARK SMILES IDX 61 100 54 101 55 102 59 103 62 104 56 105 57 106 60 107
REMARK SMILES IDX 58 108
REMARK H PARENT 16 7 12 15 91 30 96 36 23 42 82 61 50 72
REMARK Flexibility Score: inf
ROOT
ATOM      1  C   UNL A   1      36.036  21.130  24.957  1.00  0.00     0.002 C 
ENDROOT
BRANCH   1   2
ATOM      2  C   UNL A   1      36.657  22.113  23.945  1.00  0.00     0.021 C 
BRANCH   2   3
ATOM      3  C   UNL A   1      36.693  23.619  24.346  1.00  0.00     0.116 C 
BRANCH   3   4
ATOM      4  N   UNL A   1      35.604  24.089  25.210  1.00  0.00    -0.351 N 
ATOM      5  C   UNL A   1      34.227  24.143  25.199  1.00  0.00     0.283 C 
ATOM      6  O   UNL A   1      33.752  24.570  26.260  1.00  0.00    -0.268 OA
ATOM      7  H   UNL A   1      35.961  24.480  26.040  1.00  0.00     0.163 HD
BRANCH   5   8
ATOM      8  C   UNL A   1      33.320  23.649  24.024  1.00  0.00     0.307 C 
BRANCH   8   9
ATOM      9  N   UNL A   1      32.712  24.680  23.085  1.00  0.00    -0.318 N 
ATOM     10  N   UNL A   1      32.316  27.356  24.294  1.00  0.00    -0.344 N 
ATOM     11  C   UNL A   1      31.403  26.247  24.592  1.00  0.00     0.179 C 
ATOM     12  C   UNL A   1      33.640  26.934  23.815  1.00  0.00     0.179 C 
ATOM     13  C   UNL A   1      31.406  25.302  23.383  1.00  0.00     0.284 C 
ATOM     14  C   UNL A   1      33.561  25.819  22.736  1.00  0.00     0.284 C 
ATOM     15  H   UNL A   1      32.589  24.004  22.332  1.00  0.00     0.349 HD
BRANCH  10  16
ATOM     16  C   UNL A   1      32.372  28.372  25.252  1.00  0.00     0.146 A 
ATOM     17  C   UNL A   1      31.565  29.511  25.138  1.00  0.00     0.095 A 
ATOM     18  C   UNL A   1      31.721  30.553  26.055  1.00  0.00     0.025 A 
ATOM     19  C   UNL A   1      32.675  30.445  27.057  1.00  0.00     0.022 A 
ATOM     20  N   UNL A   1      33.277  28.255  26.254  1.00  0.00    -0.238 NA
ATOM     21  C   UNL A   1      33.421  29.283  27.118  1.00  0.00     0.113 A 
BRANCH  17  22
ATOM     22  C   UNL A   1      30.585  29.636  24.089  1.00  0.00     0.103 C 
ATOM     23  N   UNL A   1      29.810  29.673  23.244  1.00  0.00    -0.192 NA
ENDBRANCH  17  22
ENDBRANCH  10  16
ENDBRANCH   8   9
BRANCH   8  24
ATOM     24  C   UNL A   1      32.242  22.580  24.438  1.00  0.00     0.044 A 
ATOM     25  C   UNL A   1      31.634  22.542  25.691  1.00  0.00     0.094 A 
ATOM     26  C   UNL A   1      32.143  21.191  24.046  1.00  0.00     0.009 A 
ATOM     27  N   UNL A   1      32.137  21.388  26.254  1.00  0.00    -0.361 N 
ATOM     28  C   UNL A   1      32.396  20.495  25.236  1.00  0.00     0.046 A 
ATOM     29  C   UNL A   1      32.127  20.446  22.852  1.00  0.00     0.011 A 
ATOM     30  H   UNL A   1      32.287  21.231  27.214  1.00  0.00     0.166 HD
ATOM     31  C   UNL A   1      32.981  19.221  25.253  1.00  0.00     0.032 A 
ATOM     32  C   UNL A   1      32.577  19.117  22.868  1.00  0.00     0.007 A 
ATOM     33  C   UNL A   1      33.156  18.574  24.022  1.00  0.00    -0.021 A 
BRANCH  33  34
ATOM     34  C   UNL A   1      34.043  17.357  23.918  1.00  0.00     0.191 C 
BRANCH  34  35
ATOM     35  O   UNL A   1      33.975  16.774  22.615  1.00  0.00    -0.392 OA
ATOM     36  H   UNL A   1      33.346  17.273  22.070  1.00  0.00     0.211 HD
ENDBRANCH  34  35
ENDBRANCH  33  34
ENDBRANCH   8  24
ENDBRANCH   5   8
ENDBRANCH   3   4
ENDBRANCH   2   3
ENDBRANCH   1   2
BRANCH   1  37
ATOM     37  C   UNL A   1      36.699  19.752  25.000  1.00  0.00     0.002 C 
BRANCH  37  38
ATOM     38  C   UNL A   1      38.193  19.727  24.665  1.00  0.00     0.021 C 
BRANCH  38  39
ATOM     39  C   UNL A   1      39.123  20.098  25.817  1.00  0.00     0.116 C 
BRANCH  39  40
ATOM     40  N   UNL A   1      40.193  19.124  25.988  1.00  0.00    -0.352 N 
ATOM     41  C   UNL A   1      41.541  19.346  26.138  1.00  0.00     0.251 C 
ATOM     42  H   UNL A   1      39.912  18.179  25.997  1.00  0.00     0.163 HD
ATOM     43  O   UNL A   1      42.346  18.429  26.022  1.00  0.00    -0.269 OA
BRANCH  41  44
ATOM     44  C   UNL A   1      42.020  20.713  26.433  1.00  0.00     0.039 A 
ATOM     45  C   UNL A   1      42.283  21.593  25.381  1.00  0.00     0.014 A 
ATOM     46  C   UNL A   1      42.202  21.123  27.757  1.00  0.00     0.014 A 
ATOM     47  C   UNL A   1      42.671  22.905  25.659  1.00  0.00     0.010 A 
ATOM     48  C   UNL A   1      42.518  22.450  28.033  1.00  0.00     0.010 A 
ATOM     49  C   UNL A   1      42.763  23.354  26.987  1.00  0.00    -0.014 A 
BRANCH  49  50
ATOM     50  C   UNL A   1      43.130  24.759  27.302  1.00  0.00     0.031 A 
ATOM     51  C   UNL A   1      44.542  25.235  27.095  1.00  0.00     0.074 A 
ATOM     52  C   UNL A   1      42.208  25.593  27.822  1.00  0.00     0.049 A 
ATOM     53  N   UNL A   1      45.074  26.400  27.367  1.00  0.00    -0.248 NA
ATOM     54  C   UNL A   1      45.490  24.261  26.531  1.00  0.00     0.031 C 
ATOM     55  C   UNL A   1      40.818  25.239  28.116  1.00  0.00     0.029 A 
ATOM     56  N   UNL A   1      42.304  26.907  28.210  1.00  0.00    -0.354 N 
ATOM     57  C   UNL A   1      46.412  26.297  27.007  1.00  0.00     0.074 A 
ATOM     58  C   UNL A   1      46.628  24.938  26.564  1.00  0.00     0.031 C 
ATOM     59  C   UNL A   1      40.189  26.312  28.623  1.00  0.00     0.029 A 
ATOM     60  C   UNL A   1      41.137  27.416  28.727  1.00  0.00     0.049 A 
ATOM     61  H   UNL A   1      43.131  27.434  28.126  1.00  0.00     0.167 HD
ATOM     62  C   UNL A   1      47.366  27.258  27.015  1.00  0.00     0.037 A 
ATOM     63  C   UNL A   1      40.867  28.633  29.241  1.00  0.00     0.037 A 
ATOM     64  C   UNL A   1      47.148  28.612  27.452  1.00  0.00     0.049 A 
ATOM     65  C   UNL A   1      41.954  29.676  29.263  1.00  0.00     0.074 A 
ATOM     66  C   UNL A   1      48.041  29.668  27.471  1.00  0.00     0.029 A 
ATOM     67  N   UNL A   1      45.946  29.095  27.951  1.00  0.00    -0.354 N 
ATOM     68  N   UNL A   1      43.198  29.585  28.860  1.00  0.00    -0.248 NA
ATOM     69  C   UNL A   1      41.595  30.995  29.803  1.00  0.00     0.031 C 
ATOM     70  C   UNL A   1      47.396  30.777  28.027  1.00  0.00     0.029 A 
ATOM     71  C   UNL A   1      46.082  30.430  28.297  1.00  0.00     0.049 A 
ATOM     72  H   UNL A   1      45.121  28.568  28.045  1.00  0.00     0.167 HD
ATOM     73  C   UNL A   1      43.760  30.838  29.069  1.00  0.00     0.074 A 
ATOM     74  C   UNL A   1      42.716  31.678  29.616  1.00  0.00     0.031 C 
ATOM     75  C   UNL A   1      45.028  31.255  28.831  1.00  0.00     0.037 A 
BRANCH  62  76
ATOM     76  C   UNL A   1      48.736  26.880  26.525  1.00  0.00     0.064 A 
ATOM     77  C   UNL A   1      49.698  26.335  27.389  1.00  0.00     0.173 A 
ATOM     78  C   UNL A   1      49.079  27.024  25.172  1.00  0.00     0.173 A 
ATOM     79  F   UNL A   1      49.426  26.184  28.695  1.00  0.00    -0.203 F 
ATOM     80  C   UNL A   1      50.960  25.976  26.924  1.00  0.00     0.198 A 
ATOM     81  C   UNL A   1      50.330  26.632  24.704  1.00  0.00     0.198 A 
ATOM     82  F   UNL A   1      48.195  27.534  24.300  1.00  0.00    -0.203 F 
ATOM     83  F   UNL A   1      51.878  25.504  27.779  1.00  0.00    -0.200 F 
ATOM     84  C   UNL A   1      51.272  26.117  25.580  1.00  0.00     0.200 A 
ATOM     85  F   UNL A   1      50.625  26.754  23.402  1.00  0.00    -0.200 F 
ATOM     86  F   UNL A   1      52.484  25.760  25.132  1.00  0.00    -0.200 F 
ENDBRANCH  62  76
BRANCH  63  87
ATOM     87  C   UNL A   1      39.511  28.934  29.773  1.00  0.00     0.064 A 
ATOM     88  C   UNL A   1      38.527  29.519  28.964  1.00  0.00     0.173 A 
ATOM     89  C   UNL A   1      39.178  28.665  31.109  1.00  0.00     0.173 A 
ATOM     90  F   UNL A   1      38.801  29.814  27.685  1.00  0.00    -0.203 F 
ATOM     91  C   UNL A   1      37.274  29.851  29.478  1.00  0.00     0.198 A 
ATOM     92  C   UNL A   1      37.914  28.965  31.612  1.00  0.00     0.198 A 
ATOM     93  F   UNL A   1      40.079  28.101  31.927  1.00  0.00    -0.203 F 
ATOM     94  F   UNL A   1      36.374  30.464  28.697  1.00  0.00    -0.200 F 
ATOM     95  C   UNL A   1      36.966  29.569  30.800  1.00  0.00     0.200 A 
ATOM     96  F   UNL A   1      37.615  28.675  32.886  1.00  0.00    -0.200 F 
ATOM     97  F   UNL A   1      35.762  29.888  31.293  1.00  0.00    -0.200 F 
ENDBRANCH  63  87
BRANCH  75  98
ATOM     98  C   UNL A   1      45.347  32.694  29.122  1.00  0.00     0.064 A 
ATOM     99  C   UNL A   1      45.143  33.704  28.168  1.00  0.00     0.173 A 
ATOM    100  C   UNL A   1      45.824  33.073  30.386  1.00  0.00     0.173 A 
ATOM    101  F   UNL A   1      44.703  33.394  26.940  1.00  0.00    -0.203 F 
ATOM    102  C   UNL A   1      45.434  35.034  28.461  1.00  0.00     0.198 A 
ATOM    103  C   UNL A   1      46.079  34.407  30.687  1.00  0.00     0.198 A 
ATOM    104  F   UNL A   1      46.027  32.149  31.337  1.00  0.00    -0.203 F 
ATOM    105  F   UNL A   1      45.283  35.973  27.518  1.00  0.00    -0.200 F 
ATOM    106  C   UNL A   1      45.894  35.386  29.723  1.00  0.00     0.200 A 
ATOM    107  F   UNL A   1      46.507  34.747  31.911  1.00  0.00    -0.200 F 
ATOM    108  F   UNL A   1      46.164  36.667  30.004  1.00  0.00    -0.200 F 
ENDBRANCH  75  98
ENDBRANCH  49  50
ENDBRANCH  41  44
ENDBRANCH  39  40
ENDBRANCH  38  39
ENDBRANCH  37  38
ENDBRANCH   1  37
TORSDOF 19
ENDMDL
