MODEL 1
REMARK VINA RESULT:     -13.4      0.000      0.000
REMARK SMILES Cc1ccc(F)cc1NS(=O)(=O)c1ccc(C(=O)NCCCCCCNC(=O)c2ccc(-c3c4nc(c(-c5c(F)c(F)c(F)c(F)c5F)c5ccc([nH]5)c(-c5c(F)c(F)c(F)c(F)c5F)c5nc(c(-c6c(F)c(F)c(F)c(F)c6F)c6ccc3[nH]6)C=C5)C=C4)cc2)cc1
REMARK SMILES IDX 22 1 21 2 20 3 19 4 17 5 18 6 16 8 13 9 14 10 93 11 15 12
REMARK SMILES IDX 92 13 10 14 11 15 12 16 9 17 8 19 1 20 2 21 3 22 4 23 7 24
REMARK SMILES IDX 5 25 6 26 23 27 24 28 25 29 26 30 27 31 28 33 29 34 30 35
REMARK SMILES IDX 91 36 31 37 90 38 32 39 33 40 34 41 84 42 35 43 89 44 83 45
REMARK SMILES IDX 85 46 36 47 88 48 82 49 81 50 37 52 69 53 49 54 68 55 50 56
REMARK SMILES IDX 53 57 67 58 86 59 51 60 52 61 66 63 87 64 54 65 38 66 39 67
REMARK SMILES IDX 47 68 40 69 41 70 45 71 48 72 42 73 43 74 46 75 44 76 70 77
REMARK SMILES IDX 71 78 79 79 72 80 73 81 77 82 80 83 74 84 75 85 78 86 76 87
REMARK SMILES IDX 55 88 56 89 64 90 57 91 58 92 62 93 65 94 59 95 60 96 63 97
REMARK SMILES IDX 61 98
REMARK H PARENT 19 7 9 18 26 32 85 51 53 62
REMARK Flexibility Score: inf
ROOT
ATOM      1  C   UNL A   1      31.660  28.942  24.951  1.00  0.00     0.002 C 
ENDROOT
BRANCH   1   2
ATOM      2  C   UNL A   1      30.972  29.256  23.617  1.00  0.00     0.021 C 
BRANCH   2   3
ATOM      3  C   UNL A   1      30.702  28.007  22.782  1.00  0.00     0.116 C 
BRANCH   3   4
ATOM      4  N   UNL A   1      31.871  27.693  21.990  1.00  0.00    -0.352 N 
ATOM      5  C   UNL A   1      32.730  26.638  22.084  1.00  0.00     0.251 C 
ATOM      6  O   UNL A   1      33.662  26.536  21.294  1.00  0.00    -0.269 OA
ATOM      7  H   UNL A   1      32.077  28.338  21.275  1.00  0.00     0.163 HD
BRANCH   5   8
ATOM      8  C   UNL A   1      32.501  25.579  23.086  1.00  0.00     0.039 A 
ATOM      9  C   UNL A   1      31.992  23.749  25.111  1.00  0.00     0.087 A 
ATOM     10  C   UNL A   1      32.780  24.874  25.378  1.00  0.00     0.023 A 
ATOM     11  C   UNL A   1      31.545  23.478  23.812  1.00  0.00     0.023 A 
ATOM     12  C   UNL A   1      32.998  25.809  24.372  1.00  0.00     0.015 A 
ATOM     13  C   UNL A   1      31.784  24.408  22.799  1.00  0.00     0.015 A 
BRANCH   9  14
ATOM     14  S   UNL A   1      31.537  22.681  26.450  1.00  0.00     0.261 S 
ATOM     15  O   UNL A   1      30.442  21.856  25.993  1.00  0.00    -0.201 OA
ATOM     16  O   UNL A   1      31.380  23.505  27.635  1.00  0.00    -0.201 OA
BRANCH  14  17
ATOM     17  N   UNL A   1      32.850  21.630  26.788  1.00  0.00    -0.279 N 
ATOM     18  H   UNL A   1      32.722  20.895  27.431  1.00  0.00     0.180 HD
BRANCH  17  19
ATOM     19  C   UNL A   1      34.139  21.792  26.153  1.00  0.00     0.055 A 
ATOM     20  C   UNL A   1      33.920  19.647  24.727  1.00  0.00     0.046 C 
ATOM     21  C   UNL A   1      34.603  20.922  25.144  1.00  0.00    -0.027 A 
ATOM     22  C   UNL A   1      35.868  21.163  24.556  1.00  0.00     0.008 A 
ATOM     23  C   UNL A   1      36.675  22.210  24.987  1.00  0.00     0.039 A 
ATOM     24  C   UNL A   1      35.025  22.747  26.662  1.00  0.00     0.066 A 
ATOM     25  C   UNL A   1      36.255  22.976  26.057  1.00  0.00     0.125 A 
ATOM     26  F   UNL A   1      37.047  23.949  26.525  1.00  0.00    -0.207 F 
ENDBRANCH  17  19
ENDBRANCH  14  17
ENDBRANCH   9  14
ENDBRANCH   5   8
ENDBRANCH   3   4
ENDBRANCH   2   3
ENDBRANCH   1   2
BRANCH   1  27
ATOM     27  C   UNL A   1      33.119  29.422  25.048  1.00  0.00     0.002 C 
BRANCH  27  28
ATOM     28  C   UNL A   1      34.011  28.623  26.010  1.00  0.00     0.021 C 
BRANCH  28  29
ATOM     29  C   UNL A   1      33.718  28.962  27.452  1.00  0.00     0.116 C 
BRANCH  29  30
ATOM     30  N   UNL A   1      33.914  30.388  27.696  1.00  0.00    -0.352 N 
ATOM     31  C   UNL A   1      34.887  30.982  28.463  1.00  0.00     0.251 C 
ATOM     32  H   UNL A   1      33.273  30.995  27.258  1.00  0.00     0.163 HD
ATOM     33  O   UNL A   1      34.740  32.102  28.929  1.00  0.00    -0.269 OA
BRANCH  31  34
ATOM     34  C   UNL A   1      36.135  30.239  28.673  1.00  0.00     0.039 A 
ATOM     35  C   UNL A   1      36.382  29.518  29.847  1.00  0.00     0.014 A 
ATOM     36  C   UNL A   1      37.092  30.328  27.667  1.00  0.00     0.014 A 
ATOM     37  C   UNL A   1      37.612  28.885  30.000  1.00  0.00     0.010 A 
ATOM     38  C   UNL A   1      38.195  29.540  27.720  1.00  0.00     0.010 A 
ATOM     39  C   UNL A   1      38.505  28.922  28.929  1.00  0.00    -0.014 A 
BRANCH  39  40
ATOM     40  C   UNL A   1      39.869  28.447  28.958  1.00  0.00     0.031 A 
ATOM     41  C   UNL A   1      40.169  27.060  28.634  1.00  0.00     0.074 A 
ATOM     42  C   UNL A   1      40.805  29.418  29.067  1.00  0.00     0.049 A 
ATOM     43  N   UNL A   1      41.233  26.457  29.018  1.00  0.00    -0.248 NA
ATOM     44  C   UNL A   1      39.276  26.223  27.843  1.00  0.00     0.031 C 
ATOM     45  C   UNL A   1      42.228  29.392  28.792  1.00  0.00     0.029 A 
ATOM     46  N   UNL A   1      40.585  30.711  29.572  1.00  0.00    -0.354 N 
ATOM     47  C   UNL A   1      41.350  25.328  28.242  1.00  0.00     0.074 A 
ATOM     48  C   UNL A   1      40.042  25.142  27.654  1.00  0.00     0.031 C 
ATOM     49  C   UNL A   1      42.797  30.444  29.415  1.00  0.00     0.029 A 
ATOM     50  C   UNL A   1      41.770  31.077  30.230  1.00  0.00     0.049 A 
ATOM     51  H   UNL A   1      39.765  31.250  29.485  1.00  0.00     0.167 HD
ATOM     52  C   UNL A   1      42.599  24.817  28.037  1.00  0.00     0.037 A 
ATOM     53  C   UNL A   1      41.732  31.130  31.597  1.00  0.00     0.037 A 
ATOM     54  C   UNL A   1      43.603  25.645  28.722  1.00  0.00     0.049 A 
ATOM     55  C   UNL A   1      42.527  30.014  32.244  1.00  0.00     0.074 A 
ATOM     56  C   UNL A   1      44.494  26.622  28.306  1.00  0.00     0.029 A 
ATOM     57  N   UNL A   1      43.515  25.789  30.095  1.00  0.00    -0.354 N 
ATOM     58  N   UNL A   1      43.074  29.029  31.584  1.00  0.00    -0.248 NA
ATOM     59  C   UNL A   1      42.731  29.890  33.682  1.00  0.00     0.031 C 
ATOM     60  C   UNL A   1      44.944  27.339  29.458  1.00  0.00     0.029 A 
ATOM     61  C   UNL A   1      44.335  26.791  30.572  1.00  0.00     0.049 A 
ATOM     62  H   UNL A   1      42.934  25.238  30.669  1.00  0.00     0.167 HD
ATOM     63  C   UNL A   1      43.687  28.163  32.444  1.00  0.00     0.074 A 
ATOM     64  C   UNL A   1      43.418  28.735  33.755  1.00  0.00     0.031 C 
ATOM     65  C   UNL A   1      44.347  27.046  32.007  1.00  0.00     0.037 A 
BRANCH  52  66
ATOM     66  C   UNL A   1      42.949  23.764  27.009  1.00  0.00     0.064 A 
ATOM     67  C   UNL A   1      42.682  22.400  27.262  1.00  0.00     0.173 A 
ATOM     68  C   UNL A   1      43.546  24.018  25.759  1.00  0.00     0.173 A 
ATOM     69  F   UNL A   1      42.023  22.005  28.358  1.00  0.00    -0.203 F 
ATOM     70  C   UNL A   1      43.074  21.379  26.393  1.00  0.00     0.198 A 
ATOM     71  C   UNL A   1      43.980  22.993  24.908  1.00  0.00     0.198 A 
ATOM     72  F   UNL A   1      43.675  25.261  25.283  1.00  0.00    -0.203 F 
ATOM     73  F   UNL A   1      42.792  20.104  26.697  1.00  0.00    -0.200 F 
ATOM     74  C   UNL A   1      43.749  21.672  25.228  1.00  0.00     0.200 A 
ATOM     75  F   UNL A   1      44.612  23.301  23.766  1.00  0.00    -0.200 F 
ATOM     76  F   UNL A   1      44.148  20.692  24.408  1.00  0.00    -0.200 F 
ENDBRANCH  52  66
BRANCH  53  77
ATOM     77  C   UNL A   1      40.422  31.697  32.072  1.00  0.00     0.064 A 
ATOM     78  C   UNL A   1      39.539  30.805  32.721  1.00  0.00     0.173 A 
ATOM     79  C   UNL A   1      40.268  33.063  32.353  1.00  0.00     0.173 A 
ATOM     80  F   UNL A   1      39.628  29.485  32.484  1.00  0.00    -0.203 F 
ATOM     81  C   UNL A   1      38.682  31.235  33.733  1.00  0.00     0.198 A 
ATOM     82  C   UNL A   1      39.376  33.493  33.344  1.00  0.00     0.198 A 
ATOM     83  F   UNL A   1      41.060  33.969  31.765  1.00  0.00    -0.203 F 
ATOM     84  F   UNL A   1      37.983  30.338  34.445  1.00  0.00    -0.200 F 
ATOM     85  C   UNL A   1      38.627  32.576  34.068  1.00  0.00     0.200 A 
ATOM     86  F   UNL A   1      39.303  34.796  33.653  1.00  0.00    -0.200 F 
ATOM     87  F   UNL A   1      37.885  32.973  35.110  1.00  0.00    -0.200 F 
ENDBRANCH  53  77
BRANCH  65  88
ATOM     88  C   UNL A   1      45.039  26.052  32.908  1.00  0.00     0.064 A 
ATOM     89  C   UNL A   1      44.363  25.317  33.891  1.00  0.00     0.173 A 
ATOM     90  C   UNL A   1      46.443  25.862  32.871  1.00  0.00     0.173 A 
ATOM     91  F   UNL A   1      43.063  25.529  34.140  1.00  0.00    -0.203 F 
ATOM     92  C   UNL A   1      45.017  24.366  34.679  1.00  0.00     0.198 A 
ATOM     93  C   UNL A   1      47.102  24.958  33.697  1.00  0.00     0.198 A 
ATOM     94  F   UNL A   1      47.239  26.529  32.027  1.00  0.00    -0.203 F 
ATOM     95  F   UNL A   1      44.312  23.628  35.546  1.00  0.00    -0.200 F 
ATOM     96  C   UNL A   1      46.384  24.183  34.577  1.00  0.00     0.200 A 
ATOM     97  F   UNL A   1      48.435  24.838  33.616  1.00  0.00    -0.200 F 
ATOM     98  F   UNL A   1      47.009  23.270  35.331  1.00  0.00    -0.200 F 
ENDBRANCH  65  88
ENDBRANCH  39  40
ENDBRANCH  31  34
ENDBRANCH  29  30
ENDBRANCH  28  29
ENDBRANCH  27  28
ENDBRANCH   1  27
TORSDOF 16
ENDMDL
MODEL 2
REMARK VINA RESULT:     -13.3      3.424      9.458
REMARK SMILES Cc1ccc(F)cc1NS(=O)(=O)c1ccc(C(=O)NCCCCCCNC(=O)c2ccc(-c3c4nc(c(-c5c(F)c(F)c(F)c(F)c5F)c5ccc([nH]5)c(-c5c(F)c(F)c(F)c(F)c5F)c5nc(c(-c6c(F)c(F)c(F)c(F)c6F)c6ccc3[nH]6)C=C5)C=C4)cc2)cc1
REMARK SMILES IDX 22 1 21 2 20 3 19 4 17 5 18 6 16 8 13 9 14 10 93 11 15 12
REMARK SMILES IDX 92 13 10 14 11 15 12 16 9 17 8 19 1 20 2 21 3 22 4 23 7 24
REMARK SMILES IDX 5 25 6 26 23 27 24 28 25 29 26 30 27 31 28 33 29 34 30 35
REMARK SMILES IDX 91 36 31 37 90 38 32 39 33 40 34 41 84 42 35 43 89 44 83 45
REMARK SMILES IDX 85 46 36 47 88 48 82 49 81 50 37 52 69 53 49 54 68 55 50 56
REMARK SMILES IDX 53 57 67 58 86 59 51 60 52 61 66 63 87 64 54 65 38 66 39 67
REMARK SMILES IDX 47 68 40 69 41 70 45 71 48 72 42 73 43 74 46 75 44 76 70 77
REMARK SMILES IDX 71 78 79 79 72 80 73 81 77 82 80 83 74 84 75 85 78 86 76 87
REMARK SMILES IDX 55 88 56 89 64 90 57 91 58 92 62 93 65 94 59 95 60 96 63 97
REMARK SMILES IDX 61 98
REMARK H PARENT 19 7 9 18 26 32 85 51 53 62
REMARK Flexibility Score: inf
ROOT
ATOM      1  C   UNL A   1      34.331  22.873  23.558  1.00  0.00     0.002 C 
ENDROOT
BRANCH   1   2
ATOM      2  C   UNL A   1      33.101  21.957  23.507  1.00  0.00     0.021 C 
BRANCH   2   3
ATOM      3  C   UNL A   1      31.881  22.566  24.191  1.00  0.00     0.116 C 
BRANCH   3   4
ATOM      4  N   UNL A   1      32.010  22.427  25.624  1.00  0.00    -0.352 N 
ATOM      5  C   UNL A   1      32.201  23.381  26.579  1.00  0.00     0.251 C 
ATOM      6  O   UNL A   1      32.264  23.060  27.762  1.00  0.00    -0.269 OA
ATOM      7  H   UNL A   1      31.952  21.503  25.962  1.00  0.00     0.163 HD
BRANCH   5   8
ATOM      8  C   UNL A   1      32.258  24.807  26.205  1.00  0.00     0.039 A 
ATOM      9  C   UNL A   1      32.260  27.538  25.700  1.00  0.00     0.087 A 
ATOM     10  C   UNL A   1      31.060  26.896  26.026  1.00  0.00     0.023 A 
ATOM     11  C   UNL A   1      33.440  26.804  25.521  1.00  0.00     0.023 A 
ATOM     12  C   UNL A   1      31.070  25.536  26.319  1.00  0.00     0.015 A 
ATOM     13  C   UNL A   1      33.442  25.436  25.795  1.00  0.00     0.015 A 
BRANCH   9  14
ATOM     14  S   UNL A   1      32.277  29.303  25.546  1.00  0.00     0.261 S 
ATOM     15  O   UNL A   1      33.656  29.731  25.612  1.00  0.00    -0.201 OA
ATOM     16  O   UNL A   1      31.306  29.835  26.486  1.00  0.00    -0.201 OA
BRANCH  14  17
ATOM     17  N   UNL A   1      31.694  29.727  23.990  1.00  0.00    -0.279 N 
ATOM     18  H   UNL A   1      32.331  30.051  23.312  1.00  0.00     0.180 HD
BRANCH  17  19
ATOM     19  C   UNL A   1      30.294  29.620  23.645  1.00  0.00     0.055 A 
ATOM     20  C   UNL A   1      30.549  27.300  22.535  1.00  0.00     0.046 C 
ATOM     21  C   UNL A   1      29.746  28.467  23.043  1.00  0.00    -0.027 A 
ATOM     22  C   UNL A   1      28.361  28.432  22.758  1.00  0.00     0.008 A 
ATOM     23  C   UNL A   1      27.544  29.527  23.018  1.00  0.00     0.039 A 
ATOM     24  C   UNL A   1      29.482  30.752  23.766  1.00  0.00     0.066 A 
ATOM     25  C   UNL A   1      28.120  30.688  23.495  1.00  0.00     0.125 A 
ATOM     26  F   UNL A   1      27.359  31.772  23.693  1.00  0.00    -0.207 F 
ENDBRANCH  17  19
ENDBRANCH  14  17
ENDBRANCH   9  14
ENDBRANCH   5   8
ENDBRANCH   3   4
ENDBRANCH   2   3
ENDBRANCH   1   2
BRANCH   1  27
ATOM     27  C   UNL A   1      35.490  22.340  24.418  1.00  0.00     0.002 C 
BRANCH  27  28
ATOM     28  C   UNL A   1      36.809  23.119  24.297  1.00  0.00     0.021 C 
BRANCH  28  29
ATOM     29  C   UNL A   1      37.336  23.535  25.650  1.00  0.00     0.116 C 
BRANCH  29  30
ATOM     30  N   UNL A   1      38.497  22.731  26.018  1.00  0.00    -0.352 N 
ATOM     31  C   UNL A   1      39.745  23.177  26.380  1.00  0.00     0.251 C 
ATOM     32  H   UNL A   1      38.371  21.754  26.007  1.00  0.00     0.163 HD
ATOM     33  O   UNL A   1      40.734  22.466  26.278  1.00  0.00    -0.269 OA
BRANCH  31  34
ATOM     34  C   UNL A   1      39.848  24.531  26.936  1.00  0.00     0.039 A 
ATOM     35  C   UNL A   1      40.437  25.584  26.225  1.00  0.00     0.014 A 
ATOM     36  C   UNL A   1      39.381  24.712  28.234  1.00  0.00     0.014 A 
ATOM     37  C   UNL A   1      40.552  26.828  26.838  1.00  0.00     0.010 A 
ATOM     38  C   UNL A   1      39.296  25.965  28.747  1.00  0.00     0.010 A 
ATOM     39  C   UNL A   1      39.985  26.988  28.103  1.00  0.00    -0.014 A 
BRANCH  39  40
ATOM     40  C   UNL A   1      40.129  28.155  28.943  1.00  0.00     0.031 A 
ATOM     41  C   UNL A   1      39.148  29.229  28.880  1.00  0.00     0.074 A 
ATOM     42  C   UNL A   1      41.067  28.044  29.911  1.00  0.00     0.049 A 
ATOM     43  N   UNL A   1      39.391  30.432  29.250  1.00  0.00    -0.248 NA
ATOM     44  C   UNL A   1      37.794  29.033  28.379  1.00  0.00     0.031 C 
ATOM     45  C   UNL A   1      41.270  28.814  31.123  1.00  0.00     0.029 A 
ATOM     46  N   UNL A   1      42.151  27.148  29.899  1.00  0.00    -0.354 N 
ATOM     47  C   UNL A   1      38.173  31.053  29.395  1.00  0.00     0.074 A 
ATOM     48  C   UNL A   1      37.235  30.208  28.690  1.00  0.00     0.031 C 
ATOM     49  C   UNL A   1      42.531  28.603  31.551  1.00  0.00     0.029 A 
ATOM     50  C   UNL A   1      43.211  27.814  30.534  1.00  0.00     0.049 A 
ATOM     51  H   UNL A   1      42.164  26.238  29.520  1.00  0.00     0.167 HD
ATOM     52  C   UNL A   1      38.086  32.097  30.271  1.00  0.00     0.037 A 
ATOM     53  C   UNL A   1      44.250  28.224  29.744  1.00  0.00     0.037 A 
ATOM     54  C   UNL A   1      39.389  32.329  30.912  1.00  0.00     0.049 A 
ATOM     55  C   UNL A   1      44.302  29.730  29.588  1.00  0.00     0.074 A 
ATOM     56  C   UNL A   1      39.927  32.006  32.148  1.00  0.00     0.029 A 
ATOM     57  N   UNL A   1      40.472  32.645  30.112  1.00  0.00    -0.354 N 
ATOM     58  N   UNL A   1      43.385  30.543  30.037  1.00  0.00    -0.248 NA
ATOM     59  C   UNL A   1      45.360  30.438  28.877  1.00  0.00     0.031 C 
ATOM     60  C   UNL A   1      41.348  32.150  32.072  1.00  0.00     0.029 A 
ATOM     61  C   UNL A   1      41.669  32.570  30.794  1.00  0.00     0.049 A 
ATOM     62  H   UNL A   1      40.398  32.898  29.162  1.00  0.00     0.167 HD
ATOM     63  C   UNL A   1      43.691  31.833  29.709  1.00  0.00     0.074 A 
ATOM     64  C   UNL A   1      44.930  31.710  28.955  1.00  0.00     0.031 C 
ATOM     65  C   UNL A   1      42.894  32.887  30.071  1.00  0.00     0.037 A 
BRANCH  52  66
ATOM     66  C   UNL A   1      36.795  32.715  30.760  1.00  0.00     0.064 A 
ATOM     67  C   UNL A   1      36.078  33.617  29.942  1.00  0.00     0.173 A 
ATOM     68  C   UNL A   1      36.204  32.472  32.016  1.00  0.00     0.173 A 
ATOM     69  F   UNL A   1      36.452  33.871  28.682  1.00  0.00    -0.203 F 
ATOM     70  C   UNL A   1      34.936  34.292  30.381  1.00  0.00     0.198 A 
ATOM     71  C   UNL A   1      35.086  33.182  32.473  1.00  0.00     0.198 A 
ATOM     72  F   UNL A   1      36.642  31.498  32.820  1.00  0.00    -0.203 F 
ATOM     73  F   UNL A   1      34.306  35.137  29.553  1.00  0.00    -0.200 F 
ATOM     74  C   UNL A   1      34.456  34.097  31.658  1.00  0.00     0.200 A 
ATOM     75  F   UNL A   1      34.618  32.958  33.710  1.00  0.00    -0.200 F 
ATOM     76  F   UNL A   1      33.377  34.763  32.087  1.00  0.00    -0.200 F 
ENDBRANCH  52  66
BRANCH  53  77
ATOM     77  C   UNL A   1      44.554  27.197  28.687  1.00  0.00     0.064 A 
ATOM     78  C   UNL A   1      44.230  27.537  27.354  1.00  0.00     0.173 A 
ATOM     79  C   UNL A   1      45.543  26.219  28.871  1.00  0.00     0.173 A 
ATOM     80  F   UNL A   1      43.282  28.459  27.112  1.00  0.00    -0.203 F 
ATOM     81  C   UNL A   1      44.981  27.068  26.278  1.00  0.00     0.198 A 
ATOM     82  C   UNL A   1      46.268  25.720  27.782  1.00  0.00     0.198 A 
ATOM     83  F   UNL A   1      45.894  25.835  30.106  1.00  0.00    -0.203 F 
ATOM     84  F   UNL A   1      44.755  27.545  25.044  1.00  0.00    -0.200 F 
ATOM     85  C   UNL A   1      46.024  26.186  26.497  1.00  0.00     0.200 A 
ATOM     86  F   UNL A   1      47.264  24.847  27.989  1.00  0.00    -0.200 F 
ATOM     87  F   UNL A   1      46.812  25.819  25.477  1.00  0.00    -0.200 F 
ENDBRANCH  53  77
BRANCH  65  88
ATOM     88  C   UNL A   1      43.178  34.331  29.735  1.00  0.00     0.064 A 
ATOM     89  C   UNL A   1      43.296  35.330  30.711  1.00  0.00     0.173 A 
ATOM     90  C   UNL A   1      43.261  34.783  28.394  1.00  0.00     0.173 A 
ATOM     91  F   UNL A   1      43.071  35.062  32.005  1.00  0.00    -0.203 F 
ATOM     92  C   UNL A   1      43.610  36.650  30.378  1.00  0.00     0.198 A 
ATOM     93  C   UNL A   1      43.515  36.109  28.063  1.00  0.00     0.198 A 
ATOM     94  F   UNL A   1      43.115  33.964  27.346  1.00  0.00    -0.203 F 
ATOM     95  F   UNL A   1      43.796  37.551  31.351  1.00  0.00    -0.200 F 
ATOM     96  C   UNL A   1      43.725  37.037  29.055  1.00  0.00     0.200 A 
ATOM     97  F   UNL A   1      43.568  36.470  26.772  1.00  0.00    -0.200 F 
ATOM     98  F   UNL A   1      44.027  38.302  28.738  1.00  0.00    -0.200 F 
ENDBRANCH  65  88
ENDBRANCH  39  40
ENDBRANCH  31  34
ENDBRANCH  29  30
ENDBRANCH  28  29
ENDBRANCH  27  28
ENDBRANCH   1  27
TORSDOF 16
ENDMDL
MODEL 3
REMARK VINA RESULT:     -13.3      3.681      9.733
REMARK SMILES Cc1ccc(F)cc1NS(=O)(=O)c1ccc(C(=O)NCCCCCCNC(=O)c2ccc(-c3c4nc(c(-c5c(F)c(F)c(F)c(F)c5F)c5ccc([nH]5)c(-c5c(F)c(F)c(F)c(F)c5F)c5nc(c(-c6c(F)c(F)c(F)c(F)c6F)c6ccc3[nH]6)C=C5)C=C4)cc2)cc1
REMARK SMILES IDX 22 1 21 2 20 3 19 4 17 5 18 6 16 8 13 9 14 10 93 11 15 12
REMARK SMILES IDX 92 13 10 14 11 15 12 16 9 17 8 19 1 20 2 21 3 22 4 23 7 24
REMARK SMILES IDX 5 25 6 26 23 27 24 28 25 29 26 30 27 31 28 33 29 34 30 35
REMARK SMILES IDX 91 36 31 37 90 38 32 39 33 40 34 41 84 42 35 43 89 44 83 45
REMARK SMILES IDX 85 46 36 47 88 48 82 49 81 50 37 52 69 53 49 54 68 55 50 56
REMARK SMILES IDX 53 57 67 58 86 59 51 60 52 61 66 63 87 64 54 65 38 66 39 67
REMARK SMILES IDX 47 68 40 69 41 70 45 71 48 72 42 73 43 74 46 75 44 76 70 77
REMARK SMILES IDX 71 78 79 79 72 80 73 81 77 82 80 83 74 84 75 85 78 86 76 87
REMARK SMILES IDX 55 88 56 89 64 90 57 91 58 92 62 93 65 94 59 95 60 96 63 97
REMARK SMILES IDX 61 98
REMARK H PARENT 19 7 9 18 26 32 85 51 53 62
REMARK Flexibility Score: inf
ROOT
ATOM      1  C   UNL A   1      34.575  22.634  27.235  1.00  0.00     0.002 C 
ENDROOT
BRANCH   1   2
ATOM      2  C   UNL A   1      33.809  21.377  26.804  1.00  0.00     0.021 C 
BRANCH   2   3
ATOM      3  C   UNL A   1      32.656  21.684  25.853  1.00  0.00     0.116 C 
BRANCH   3   4
ATOM      4  N   UNL A   1      31.487  22.060  26.617  1.00  0.00    -0.352 N 
ATOM      5  C   UNL A   1      30.843  23.260  26.692  1.00  0.00     0.251 C 
ATOM      6  O   UNL A   1      29.840  23.374  27.389  1.00  0.00    -0.269 OA
ATOM      7  H   UNL A   1      31.096  21.341  27.165  1.00  0.00     0.163 HD
BRANCH   5   8
ATOM      8  C   UNL A   1      31.304  24.404  25.882  1.00  0.00     0.039 A 
ATOM      9  C   UNL A   1      31.972  26.542  24.241  1.00  0.00     0.087 A 
ATOM     10  C   UNL A   1      31.572  25.330  23.668  1.00  0.00     0.023 A 
ATOM     11  C   UNL A   1      32.142  26.659  25.627  1.00  0.00     0.023 A 
ATOM     12  C   UNL A   1      31.199  24.274  24.493  1.00  0.00     0.015 A 
ATOM     13  C   UNL A   1      31.787  25.590  26.451  1.00  0.00     0.015 A 
BRANCH   9  14
ATOM     14  S   UNL A   1      32.232  27.945  23.191  1.00  0.00     0.261 S 
ATOM     15  O   UNL A   1      33.420  27.687  22.410  1.00  0.00    -0.201 OA
ATOM     16  O   UNL A   1      32.153  29.135  24.020  1.00  0.00    -0.201 OA
BRANCH  14  17
ATOM     17  N   UNL A   1      30.923  28.061  22.089  1.00  0.00    -0.279 N 
ATOM     18  H   UNL A   1      30.933  27.509  21.274  1.00  0.00     0.180 HD
BRANCH  17  19
ATOM     19  C   UNL A   1      29.804  28.946  22.326  1.00  0.00     0.055 A 
ATOM     20  C   UNL A   1      28.423  27.170  23.599  1.00  0.00     0.046 C 
ATOM     21  C   UNL A   1      28.681  28.563  23.090  1.00  0.00    -0.027 A 
ATOM     22  C   UNL A   1      27.637  29.496  23.294  1.00  0.00     0.008 A 
ATOM     23  C   UNL A   1      27.679  30.761  22.719  1.00  0.00     0.039 A 
ATOM     24  C   UNL A   1      29.756  30.167  21.647  1.00  0.00     0.066 A 
ATOM     25  C   UNL A   1      28.728  31.074  21.877  1.00  0.00     0.125 A 
ATOM     26  F   UNL A   1      28.753  32.266  21.266  1.00  0.00    -0.207 F 
ENDBRANCH  17  19
ENDBRANCH  14  17
ENDBRANCH   9  14
ENDBRANCH   5   8
ENDBRANCH   3   4
ENDBRANCH   2   3
ENDBRANCH   1   2
BRANCH   1  27
ATOM     27  C   UNL A   1      35.109  23.488  26.073  1.00  0.00     0.002 C 
BRANCH  27  28
ATOM     28  C   UNL A   1      36.506  23.104  25.562  1.00  0.00     0.021 C 
BRANCH  28  29
ATOM     29  C   UNL A   1      37.560  24.074  26.039  1.00  0.00     0.116 C 
BRANCH  29  30
ATOM     30  N   UNL A   1      38.614  23.372  26.767  1.00  0.00    -0.352 N 
ATOM     31  C   UNL A   1      39.742  23.912  27.336  1.00  0.00     0.251 C 
ATOM     32  H   UNL A   1      38.503  22.398  26.860  1.00  0.00     0.163 HD
ATOM     33  O   UNL A   1      40.734  23.234  27.558  1.00  0.00    -0.269 OA
BRANCH  31  34
ATOM     34  C   UNL A   1      39.701  25.330  27.712  1.00  0.00     0.039 A 
ATOM     35  C   UNL A   1      40.125  26.341  26.842  1.00  0.00     0.014 A 
ATOM     36  C   UNL A   1      39.271  25.623  29.002  1.00  0.00     0.014 A 
ATOM     37  C   UNL A   1      40.113  27.660  27.288  1.00  0.00     0.010 A 
ATOM     38  C   UNL A   1      39.056  26.914  29.360  1.00  0.00     0.010 A 
ATOM     39  C   UNL A   1      39.586  27.917  28.554  1.00  0.00    -0.014 A 
BRANCH  39  40
ATOM     40  C   UNL A   1      39.621  29.192  29.232  1.00  0.00     0.031 A 
ATOM     41  C   UNL A   1      38.614  30.204  28.943  1.00  0.00     0.074 A 
ATOM     42  C   UNL A   1      40.479  29.255  30.276  1.00  0.00     0.049 A 
ATOM     43  N   UNL A   1      38.787  31.456  29.161  1.00  0.00    -0.248 NA
ATOM     44  C   UNL A   1      37.314  29.883  28.371  1.00  0.00     0.031 C 
ATOM     45  C   UNL A   1      40.555  30.192  31.381  1.00  0.00     0.029 A 
ATOM     46  N   UNL A   1      41.588  28.414  30.473  1.00  0.00    -0.354 N 
ATOM     47  C   UNL A   1      37.542  32.037  29.123  1.00  0.00     0.074 A 
ATOM     48  C   UNL A   1      36.693  31.065  28.471  1.00  0.00     0.031 C 
ATOM     49  C   UNL A   1      41.782  30.096  31.931  1.00  0.00     0.029 A 
ATOM     50  C   UNL A   1      42.570  29.206  31.090  1.00  0.00     0.049 A 
ATOM     51  H   UNL A   1      41.662  27.463  30.227  1.00  0.00     0.167 HD
ATOM     52  C   UNL A   1      37.348  33.186  29.835  1.00  0.00     0.037 A 
ATOM     53  C   UNL A   1      43.657  29.549  30.334  1.00  0.00     0.037 A 
ATOM     54  C   UNL A   1      38.586  33.559  30.537  1.00  0.00     0.049 A 
ATOM     55  C   UNL A   1      43.673  31.021  29.974  1.00  0.00     0.074 A 
ATOM     56  C   UNL A   1      39.029  33.431  31.844  1.00  0.00     0.029 A 
ATOM     57  N   UNL A   1      39.721  33.811  29.787  1.00  0.00    -0.354 N 
ATOM     58  N   UNL A   1      42.696  31.847  30.233  1.00  0.00    -0.248 NA
ATOM     59  C   UNL A   1      44.763  31.671  29.257  1.00  0.00     0.031 C 
ATOM     60  C   UNL A   1      40.446  33.625  31.859  1.00  0.00     0.029 A 
ATOM     61  C   UNL A   1      40.859  33.881  30.565  1.00  0.00     0.049 A 
ATOM     62  H   UNL A   1      39.717  33.928  28.809  1.00  0.00     0.167 HD
ATOM     63  C   UNL A   1      42.986  33.092  29.753  1.00  0.00     0.074 A 
ATOM     64  C   UNL A   1      44.287  32.922  29.123  1.00  0.00     0.031 C 
ATOM     65  C   UNL A   1      42.128  34.150  29.902  1.00  0.00     0.037 A 
BRANCH  52  66
ATOM     66  C   UNL A   1      36.002  33.809  30.131  1.00  0.00     0.064 A 
ATOM     67  C   UNL A   1      35.209  34.331  29.085  1.00  0.00     0.173 A 
ATOM     68  C   UNL A   1      35.428  33.929  31.412  1.00  0.00     0.173 A 
ATOM     69  F   UNL A   1      35.565  34.200  27.802  1.00  0.00    -0.203 F 
ATOM     70  C   UNL A   1      34.006  35.004  29.313  1.00  0.00     0.198 A 
ATOM     71  C   UNL A   1      34.246  34.643  31.646  1.00  0.00     0.198 A 
ATOM     72  F   UNL A   1      35.951  33.308  32.475  1.00  0.00    -0.203 F 
ATOM     73  F   UNL A   1      33.305  35.478  28.272  1.00  0.00    -0.200 F 
ATOM     74  C   UNL A   1      33.537  35.186  30.595  1.00  0.00     0.200 A 
ATOM     75  F   UNL A   1      33.793  34.786  32.900  1.00  0.00    -0.200 F 
ATOM     76  F   UNL A   1      32.398  35.854  30.815  1.00  0.00    -0.200 F 
ENDBRANCH  52  66
BRANCH  53  77
ATOM     77  C   UNL A   1      44.081  28.402  29.457  1.00  0.00     0.064 A 
ATOM     78  C   UNL A   1      44.371  27.179  30.103  1.00  0.00     0.173 A 
ATOM     79  C   UNL A   1      43.724  28.337  28.102  1.00  0.00     0.173 A 
ATOM     80  F   UNL A   1      44.731  27.176  31.398  1.00  0.00    -0.203 F 
ATOM     81  C   UNL A   1      44.132  25.953  29.484  1.00  0.00     0.198 A 
ATOM     82  C   UNL A   1      43.524  27.102  27.473  1.00  0.00     0.198 A 
ATOM     83  F   UNL A   1      43.448  29.458  27.420  1.00  0.00    -0.203 F 
ATOM     84  F   UNL A   1      44.254  24.814  30.183  1.00  0.00    -0.200 F 
ATOM     85  C   UNL A   1      43.674  25.916  28.179  1.00  0.00     0.200 A 
ATOM     86  F   UNL A   1      43.104  27.064  26.200  1.00  0.00    -0.200 F 
ATOM     87  F   UNL A   1      43.344  24.744  27.621  1.00  0.00    -0.200 F 
ENDBRANCH  53  77
BRANCH  65  88
ATOM     88  C   UNL A   1      42.393  35.545  29.391  1.00  0.00     0.064 A 
ATOM     89  C   UNL A   1      41.897  36.014  28.167  1.00  0.00     0.173 A 
ATOM     90  C   UNL A   1      43.236  36.448  30.086  1.00  0.00     0.173 A 
ATOM     91  F   UNL A   1      41.226  35.203  27.337  1.00  0.00    -0.203 F 
ATOM     92  C   UNL A   1      42.113  37.327  27.740  1.00  0.00     0.198 A 
ATOM     93  C   UNL A   1      43.499  37.735  29.631  1.00  0.00     0.198 A 
ATOM     94  F   UNL A   1      43.832  36.133  31.243  1.00  0.00    -0.203 F 
ATOM     95  F   UNL A   1      41.547  37.754  26.604  1.00  0.00    -0.200 F 
ATOM     96  C   UNL A   1      42.908  38.188  28.475  1.00  0.00     0.200 A 
ATOM     97  F   UNL A   1      44.317  38.532  30.334  1.00  0.00    -0.200 F 
ATOM     98  F   UNL A   1      43.113  39.446  28.065  1.00  0.00    -0.200 F 
ENDBRANCH  65  88
ENDBRANCH  39  40
ENDBRANCH  31  34
ENDBRANCH  29  30
ENDBRANCH  28  29
ENDBRANCH  27  28
ENDBRANCH   1  27
TORSDOF 16
ENDMDL
