MODEL 1
REMARK VINA RESULT:     -12.9      0.000      0.000
REMARK SMILES CC1(C)CCN(c2nc3c(cc2C(=O)NCCCCCCNC(=O)c2ccc(-c4c5nc(c(-c6c(F)c(F)c(F)c(F)c6F)c6ccc([nH]6)c(-c6c(F)c(F)c(F)c(F)c6F)c6nc(c(-c7c(F)c(F)c(F)c(F)c7F)c7ccc4[nH]7)C=C6)C=C5)cc2)CCC3)C1
REMARK SMILES IDX 19 1 18 2 17 3 16 4 15 5 13 6 14 7 12 9 7 10 8 11 9 12 11 13
REMARK SMILES IDX 10 14 90 15 88 16 89 17 6 18 1 19 2 20 3 21 4 22 91 23 5 24
REMARK SMILES IDX 20 25 21 26 22 27 23 28 24 30 25 31 26 32 87 33 27 34 86 35
REMARK SMILES IDX 28 36 29 37 30 38 80 39 31 40 85 41 79 42 81 43 32 44 84 45
REMARK SMILES IDX 78 46 77 47 33 49 65 50 45 51 64 52 46 53 49 54 63 55 82 56
REMARK SMILES IDX 47 57 48 58 62 60 83 61 50 62 34 63 35 64 43 65 36 66 37 67
REMARK SMILES IDX 41 68 44 69 38 70 39 71 42 72 40 73 66 74 67 75 75 76 68 77
REMARK SMILES IDX 69 78 73 79 76 80 70 81 71 82 74 83 72 84 51 85 52 86 60 87
REMARK SMILES IDX 53 88 54 89 58 90 61 91 55 92 56 93 59 94 57 95
REMARK H PARENT 15 8 22 29 81 48 49 59
REMARK Flexibility Score: inf
ROOT
ATOM      1  C   UNL A   1      31.425  30.691  26.186  1.00  0.00     0.002 C 
ENDROOT
BRANCH   1   2
ATOM      2  C   UNL A   1      32.409  29.806  26.958  1.00  0.00     0.002 C 
BRANCH   2   3
ATOM      3  C   UNL A   1      33.627  29.234  26.220  1.00  0.00     0.021 C 
BRANCH   3   4
ATOM      4  C   UNL A   1      33.666  27.730  25.953  1.00  0.00     0.116 C 
BRANCH   4   5
ATOM      5  N   UNL A   1      33.988  27.335  24.603  1.00  0.00    -0.352 N 
ATOM      6  C   UNL A   1      33.170  27.234  23.498  1.00  0.00     0.255 C 
ATOM      7  O   UNL A   1      33.725  26.993  22.422  1.00  0.00    -0.269 OA
ATOM      8  H   UNL A   1      34.932  27.102  24.449  1.00  0.00     0.163 HD
BRANCH   6   9
ATOM      9  C   UNL A   1      31.675  27.298  23.515  1.00  0.00     0.082 A 
ATOM     10  C   UNL A   1      30.771  26.297  23.939  1.00  0.00     0.141 A 
ATOM     11  N   UNL A   1      29.418  26.480  23.898  1.00  0.00    -0.235 NA
ATOM     12  C   UNL A   1      28.966  27.671  23.491  1.00  0.00     0.046 A 
ATOM     13  C   UNL A   1      31.140  28.541  23.101  1.00  0.00     0.023 A 
ATOM     14  C   UNL A   1      29.772  28.721  23.095  1.00  0.00    -0.025 A 
ATOM     15  C   UNL A   1      27.519  28.070  23.501  1.00  0.00     0.057 C 
ATOM     16  C   UNL A   1      28.962  29.936  22.789  1.00  0.00     0.038 C 
ATOM     17  C   UNL A   1      27.558  29.330  22.626  1.00  0.00     0.011 C 
BRANCH  10  18
ATOM     18  N   UNL A   1      31.163  25.094  24.483  1.00  0.00    -0.355 N 
ATOM     19  C   UNL A   1      29.900  23.004  26.876  1.00  0.00     0.013 C 
ATOM     20  C   UNL A   1      31.206  23.450  26.205  1.00  0.00    -0.016 C 
ATOM     21  C   UNL A   1      32.389  23.043  27.088  1.00  0.00     0.013 C 
ATOM     22  C   UNL A   1      31.292  22.818  24.798  1.00  0.00     0.030 C 
ATOM     23  C   UNL A   1      31.215  24.983  25.938  1.00  0.00     0.124 C 
ATOM     24  C   UNL A   1      30.655  23.866  23.896  1.00  0.00     0.119 C 
ENDBRANCH  10  18
ENDBRANCH   6   9
ENDBRANCH   4   5
ENDBRANCH   3   4
ENDBRANCH   2   3
ENDBRANCH   1   2
BRANCH   1  25
ATOM     25  C   UNL A   1      31.403  32.188  26.501  1.00  0.00     0.021 C 
BRANCH  25  26
ATOM     26  C   UNL A   1      32.559  32.762  27.310  1.00  0.00     0.116 C 
BRANCH  26  27
ATOM     27  N   UNL A   1      32.380  34.167  27.619  1.00  0.00    -0.352 N 
ATOM     28  C   UNL A   1      32.978  34.960  28.561  1.00  0.00     0.251 C 
ATOM     29  H   UNL A   1      31.716  34.628  27.056  1.00  0.00     0.163 HD
ATOM     30  O   UNL A   1      32.528  36.097  28.752  1.00  0.00    -0.269 OA
BRANCH  28  31
ATOM     31  C   UNL A   1      34.146  34.517  29.363  1.00  0.00     0.039 A 
ATOM     32  C   UNL A   1      35.417  34.578  28.772  1.00  0.00     0.014 A 
ATOM     33  C   UNL A   1      34.006  33.920  30.619  1.00  0.00     0.014 A 
ATOM     34  C   UNL A   1      36.536  34.057  29.432  1.00  0.00     0.010 A 
ATOM     35  C   UNL A   1      35.132  33.437  31.298  1.00  0.00     0.010 A 
ATOM     36  C   UNL A   1      36.402  33.476  30.700  1.00  0.00    -0.014 A 
BRANCH  36  37
ATOM     37  C   UNL A   1      37.550  32.806  31.367  1.00  0.00     0.031 A 
ATOM     38  C   UNL A   1      38.246  31.668  30.670  1.00  0.00     0.074 A 
ATOM     39  C   UNL A   1      37.953  33.182  32.596  1.00  0.00     0.049 A 
ATOM     40  N   UNL A   1      39.174  30.859  31.120  1.00  0.00    -0.248 NA
ATOM     41  C   UNL A   1      37.834  31.394  29.284  1.00  0.00     0.031 C 
ATOM     42  C   UNL A   1      37.381  34.277  33.376  1.00  0.00     0.029 A 
ATOM     43  N   UNL A   1      38.933  32.667  33.410  1.00  0.00    -0.354 N 
ATOM     44  C   UNL A   1      39.442  29.976  30.082  1.00  0.00     0.074 A 
ATOM     45  C   UNL A   1      38.563  30.328  28.987  1.00  0.00     0.031 C 
ATOM     46  C   UNL A   1      38.013  34.348  34.560  1.00  0.00     0.029 A 
ATOM     47  C   UNL A   1      39.010  33.282  34.636  1.00  0.00     0.049 A 
ATOM     48  H   UNL A   1      39.524  31.928  33.140  1.00  0.00     0.167 HD
ATOM     49  C   UNL A   1      40.348  28.972  30.039  1.00  0.00     0.037 A 
ATOM     50  C   UNL A   1      39.781  33.003  35.706  1.00  0.00     0.037 A 
ATOM     51  C   UNL A   1      41.245  28.633  31.111  1.00  0.00     0.049 A 
ATOM     52  C   UNL A   1      40.760  31.859  35.641  1.00  0.00     0.074 A 
ATOM     53  C   UNL A   1      42.212  27.641  31.148  1.00  0.00     0.029 A 
ATOM     54  N   UNL A   1      41.294  29.284  32.334  1.00  0.00    -0.354 N 
ATOM     55  N   UNL A   1      41.005  31.032  34.654  1.00  0.00    -0.248 NA
ATOM     56  C   UNL A   1      41.569  31.609  36.844  1.00  0.00     0.031 C 
ATOM     57  C   UNL A   1      42.825  27.673  32.403  1.00  0.00     0.029 A 
ATOM     58  C   UNL A   1      42.268  28.709  33.135  1.00  0.00     0.049 A 
ATOM     59  H   UNL A   1      40.723  30.042  32.594  1.00  0.00     0.167 HD
ATOM     60  C   UNL A   1      42.005  30.181  35.108  1.00  0.00     0.074 A 
ATOM     61  C   UNL A   1      42.336  30.601  36.451  1.00  0.00     0.031 C 
ATOM     62  C   UNL A   1      42.593  29.141  34.467  1.00  0.00     0.037 A 
BRANCH  49  63
ATOM     63  C   UNL A   1      40.426  28.153  28.786  1.00  0.00     0.064 A 
ATOM     64  C   UNL A   1      41.245  28.537  27.715  1.00  0.00     0.173 A 
ATOM     65  C   UNL A   1      39.741  26.933  28.689  1.00  0.00     0.173 A 
ATOM     66  F   UNL A   1      41.911  29.701  27.758  1.00  0.00    -0.203 F 
ATOM     67  C   UNL A   1      41.371  27.731  26.587  1.00  0.00     0.198 A 
ATOM     68  C   UNL A   1      39.886  26.119  27.569  1.00  0.00     0.198 A 
ATOM     69  F   UNL A   1      38.951  26.520  29.691  1.00  0.00    -0.203 F 
ATOM     70  F   UNL A   1      42.143  28.126  25.565  1.00  0.00    -0.200 F 
ATOM     71  C   UNL A   1      40.700  26.518  26.519  1.00  0.00     0.200 A 
ATOM     72  F   UNL A   1      39.246  24.943  27.510  1.00  0.00    -0.200 F 
ATOM     73  F   UNL A   1      40.836  25.734  25.441  1.00  0.00    -0.200 F 
ENDBRANCH  49  63
BRANCH  50  74
ATOM     74  C   UNL A   1      39.656  33.811  36.946  1.00  0.00     0.064 A 
ATOM     75  C   UNL A   1      38.798  33.414  37.981  1.00  0.00     0.173 A 
ATOM     76  C   UNL A   1      40.361  35.013  37.106  1.00  0.00     0.173 A 
ATOM     77  F   UNL A   1      38.081  32.288  37.859  1.00  0.00    -0.203 F 
ATOM     78  C   UNL A   1      38.634  34.199  39.121  1.00  0.00     0.198 A 
ATOM     79  C   UNL A   1      40.216  35.784  38.258  1.00  0.00     0.198 A 
ATOM     80  F   UNL A   1      41.191  35.438  36.142  1.00  0.00    -0.203 F 
ATOM     81  F   UNL A   1      37.770  33.821  40.073  1.00  0.00    -0.200 F 
ATOM     82  C   UNL A   1      39.347  35.380  39.260  1.00  0.00     0.200 A 
ATOM     83  F   UNL A   1      40.911  36.921  38.391  1.00  0.00    -0.200 F 
ATOM     84  F   UNL A   1      39.187  36.136  40.354  1.00  0.00    -0.200 F 
ENDBRANCH  50  74
BRANCH  62  85
ATOM     85  C   UNL A   1      43.670  28.397  35.200  1.00  0.00     0.064 A 
ATOM     86  C   UNL A   1      45.015  28.781  35.111  1.00  0.00     0.173 A 
ATOM     87  C   UNL A   1      43.346  27.320  36.040  1.00  0.00     0.173 A 
ATOM     88  F   UNL A   1      45.375  29.796  34.310  1.00  0.00    -0.203 F 
ATOM     89  C   UNL A   1      46.000  28.102  35.821  1.00  0.00     0.198 A 
ATOM     90  C   UNL A   1      44.331  26.660  36.768  1.00  0.00     0.198 A 
ATOM     91  F   UNL A   1      42.072  26.920  36.165  1.00  0.00    -0.203 F 
ATOM     92  F   UNL A   1      47.286  28.462  35.692  1.00  0.00    -0.200 F 
ATOM     93  C   UNL A   1      45.658  27.047  36.654  1.00  0.00     0.200 A 
ATOM     94  F   UNL A   1      43.996  25.649  37.581  1.00  0.00    -0.200 F 
ATOM     95  F   UNL A   1      46.608  26.401  37.344  1.00  0.00    -0.200 F 
ENDBRANCH  62  85
ENDBRANCH  36  37
ENDBRANCH  28  31
ENDBRANCH  26  27
ENDBRANCH  25  26
ENDBRANCH   1  25
TORSDOF 14
ENDMDL
MODEL 2
REMARK VINA RESULT:     -12.8      1.823      7.790
REMARK SMILES CC1(C)CCN(c2nc3c(cc2C(=O)NCCCCCCNC(=O)c2ccc(-c4c5nc(c(-c6c(F)c(F)c(F)c(F)c6F)c6ccc([nH]6)c(-c6c(F)c(F)c(F)c(F)c6F)c6nc(c(-c7c(F)c(F)c(F)c(F)c7F)c7ccc4[nH]7)C=C6)C=C5)cc2)CCC3)C1
REMARK SMILES IDX 19 1 18 2 17 3 16 4 15 5 13 6 14 7 12 9 7 10 8 11 9 12 11 13
REMARK SMILES IDX 10 14 90 15 88 16 89 17 6 18 1 19 2 20 3 21 4 22 91 23 5 24
REMARK SMILES IDX 20 25 21 26 22 27 23 28 24 30 25 31 26 32 87 33 27 34 86 35
REMARK SMILES IDX 28 36 29 37 30 38 80 39 31 40 85 41 79 42 81 43 32 44 84 45
REMARK SMILES IDX 78 46 77 47 33 49 65 50 45 51 64 52 46 53 49 54 63 55 82 56
REMARK SMILES IDX 47 57 48 58 62 60 83 61 50 62 34 63 35 64 43 65 36 66 37 67
REMARK SMILES IDX 41 68 44 69 38 70 39 71 42 72 40 73 66 74 67 75 75 76 68 77
REMARK SMILES IDX 69 78 73 79 76 80 70 81 71 82 74 83 72 84 51 85 52 86 60 87
REMARK SMILES IDX 53 88 54 89 58 90 61 91 55 92 56 93 59 94 57 95
REMARK H PARENT 15 8 22 29 81 48 49 59
REMARK Flexibility Score: inf
ROOT
ATOM      1  C   UNL A   1      34.313  33.352  28.331  1.00  0.00     0.002 C 
ENDROOT
BRANCH   1   2
ATOM      2  C   UNL A   1      34.105  31.861  28.617  1.00  0.00     0.002 C 
BRANCH   2   3
ATOM      3  C   UNL A   1      34.679  30.831  27.636  1.00  0.00     0.021 C 
BRANCH   3   4
ATOM      4  C   UNL A   1      33.713  30.114  26.696  1.00  0.00     0.116 C 
BRANCH   4   5
ATOM      5  N   UNL A   1      32.546  29.530  27.312  1.00  0.00    -0.352 N 
ATOM      6  C   UNL A   1      31.954  28.305  27.088  1.00  0.00     0.255 C 
ATOM      7  O   UNL A   1      31.030  27.992  27.845  1.00  0.00    -0.269 OA
ATOM      8  H   UNL A   1      32.108  30.089  27.993  1.00  0.00     0.163 HD
BRANCH   6   9
ATOM      9  C   UNL A   1      32.274  27.378  25.956  1.00  0.00     0.082 A 
ATOM     10  C   UNL A   1      31.598  27.257  24.721  1.00  0.00     0.141 A 
ATOM     11  N   UNL A   1      31.990  26.362  23.767  1.00  0.00    -0.235 NA
ATOM     12  C   UNL A   1      33.082  25.630  24.016  1.00  0.00     0.046 A 
ATOM     13  C   UNL A   1      33.427  26.585  26.162  1.00  0.00     0.023 A 
ATOM     14  C   UNL A   1      33.829  25.707  25.175  1.00  0.00    -0.025 A 
ATOM     15  C   UNL A   1      33.709  24.692  23.026  1.00  0.00     0.057 C 
ATOM     16  C   UNL A   1      35.032  24.829  25.100  1.00  0.00     0.038 C 
ATOM     17  C   UNL A   1      34.653  23.897  23.937  1.00  0.00     0.011 C 
BRANCH  10  18
ATOM     18  N   UNL A   1      30.542  28.058  24.345  1.00  0.00    -0.355 N 
ATOM     19  C   UNL A   1      29.884  30.078  21.667  1.00  0.00     0.013 C 
ATOM     20  C   UNL A   1      29.569  29.877  23.155  1.00  0.00    -0.016 C 
ATOM     21  C   UNL A   1      28.992  31.175  23.726  1.00  0.00     0.013 C 
ATOM     22  C   UNL A   1      28.589  28.693  23.308  1.00  0.00     0.030 C 
ATOM     23  C   UNL A   1      30.832  29.434  23.949  1.00  0.00     0.124 C 
ATOM     24  C   UNL A   1      29.505  27.492  23.500  1.00  0.00     0.119 C 
ENDBRANCH  10  18
ENDBRANCH   6   9
ENDBRANCH   4   5
ENDBRANCH   3   4
ENDBRANCH   2   3
ENDBRANCH   1   2
BRANCH   1  25
ATOM     25  C   UNL A   1      33.128  34.298  28.536  1.00  0.00     0.021 C 
BRANCH  25  26
ATOM     26  C   UNL A   1      33.425  35.724  28.981  1.00  0.00     0.116 C 
BRANCH  26  27
ATOM     27  N   UNL A   1      32.578  36.153  30.077  1.00  0.00    -0.352 N 
ATOM     28  C   UNL A   1      32.606  35.835  31.408  1.00  0.00     0.251 C 
ATOM     29  H   UNL A   1      31.862  36.778  29.820  1.00  0.00     0.163 HD
ATOM     30  O   UNL A   1      31.661  36.192  32.124  1.00  0.00    -0.269 OA
BRANCH  28  31
ATOM     31  C   UNL A   1      33.722  35.083  32.033  1.00  0.00     0.039 A 
ATOM     32  C   UNL A   1      34.997  35.669  32.035  1.00  0.00     0.014 A 
ATOM     33  C   UNL A   1      33.575  33.770  32.490  1.00  0.00     0.014 A 
ATOM     34  C   UNL A   1      36.110  34.955  32.495  1.00  0.00     0.010 A 
ATOM     35  C   UNL A   1      34.680  33.071  32.991  1.00  0.00     0.010 A 
ATOM     36  C   UNL A   1      35.961  33.645  32.972  1.00  0.00    -0.014 A 
BRANCH  36  37
ATOM     37  C   UNL A   1      37.141  32.823  33.350  1.00  0.00     0.031 A 
ATOM     38  C   UNL A   1      37.841  33.093  34.655  1.00  0.00     0.074 A 
ATOM     39  C   UNL A   1      37.609  31.864  32.529  1.00  0.00     0.049 A 
ATOM     40  N   UNL A   1      38.959  32.593  35.119  1.00  0.00    -0.248 NA
ATOM     41  C   UNL A   1      37.203  34.068  35.555  1.00  0.00     0.031 C 
ATOM     42  C   UNL A   1      37.019  31.485  31.247  1.00  0.00     0.029 A 
ATOM     43  N   UNL A   1      38.704  31.042  32.650  1.00  0.00    -0.354 N 
ATOM     44  C   UNL A   1      39.165  33.201  36.351  1.00  0.00     0.074 A 
ATOM     45  C   UNL A   1      38.072  34.128  36.554  1.00  0.00     0.031 C 
ATOM     46  C   UNL A   1      37.763  30.513  30.693  1.00  0.00     0.029 A 
ATOM     47  C   UNL A   1      38.900  30.223  31.564  1.00  0.00     0.049 A 
ATOM     48  H   UNL A   1      39.292  31.040  33.439  1.00  0.00     0.167 HD
ATOM     49  C   UNL A   1      40.166  32.998  37.238  1.00  0.00     0.037 A 
ATOM     50  C   UNL A   1      39.895  29.355  31.294  1.00  0.00     0.037 A 
ATOM     51  C   UNL A   1      41.241  32.059  37.057  1.00  0.00     0.049 A 
ATOM     52  C   UNL A   1      41.014  29.170  32.286  1.00  0.00     0.074 A 
ATOM     53  C   UNL A   1      42.290  31.771  37.916  1.00  0.00     0.029 A 
ATOM     54  N   UNL A   1      41.399  31.245  35.947  1.00  0.00    -0.354 N 
ATOM     55  N   UNL A   1      41.197  29.751  33.447  1.00  0.00    -0.248 NA
ATOM     56  C   UNL A   1      42.068  28.209  31.928  1.00  0.00     0.031 C 
ATOM     57  C   UNL A   1      43.099  30.806  37.311  1.00  0.00     0.029 A 
ATOM     58  C   UNL A   1      42.534  30.464  36.094  1.00  0.00     0.049 A 
ATOM     59  H   UNL A   1      40.795  31.226  35.170  1.00  0.00     0.167 HD
ATOM     60  C   UNL A   1      42.369  29.213  33.963  1.00  0.00     0.074 A 
ATOM     61  C   UNL A   1      42.846  28.246  33.000  1.00  0.00     0.031 C 
ATOM     62  C   UNL A   1      42.994  29.499  35.131  1.00  0.00     0.037 A 
BRANCH  49  63
ATOM     63  C   UNL A   1      40.157  33.805  38.501  1.00  0.00     0.064 A 
ATOM     64  C   UNL A   1      40.909  34.982  38.619  1.00  0.00     0.173 A 
ATOM     65  C   UNL A   1      39.325  33.442  39.571  1.00  0.00     0.173 A 
ATOM     66  F   UNL A   1      41.727  35.362  37.627  1.00  0.00    -0.203 F 
ATOM     67  C   UNL A   1      40.834  35.765  39.767  1.00  0.00     0.198 A 
ATOM     68  C   UNL A   1      39.236  34.239  40.709  1.00  0.00     0.198 A 
ATOM     69  F   UNL A   1      38.582  32.328  39.502  1.00  0.00    -0.203 F 
ATOM     70  F   UNL A   1      41.577  36.876  39.869  1.00  0.00    -0.200 F 
ATOM     71  C   UNL A   1      39.990  35.399  40.807  1.00  0.00     0.200 A 
ATOM     72  F   UNL A   1      38.412  33.890  41.707  1.00  0.00    -0.200 F 
ATOM     73  F   UNL A   1      39.905  36.164  41.904  1.00  0.00    -0.200 F 
ENDBRANCH  49  63
BRANCH  50  74
ATOM     74  C   UNL A   1      39.895  28.595  30.017  1.00  0.00     0.064 A 
ATOM     75  C   UNL A   1      39.343  27.309  29.944  1.00  0.00     0.173 A 
ATOM     76  C   UNL A   1      40.480  29.122  28.857  1.00  0.00     0.173 A 
ATOM     77  F   UNL A   1      38.801  26.752  31.037  1.00  0.00    -0.203 F 
ATOM     78  C   UNL A   1      39.393  26.570  28.764  1.00  0.00     0.198 A 
ATOM     79  C   UNL A   1      40.507  28.393  27.670  1.00  0.00     0.198 A 
ATOM     80  F   UNL A   1      41.026  30.347  28.876  1.00  0.00    -0.203 F 
ATOM     81  F   UNL A   1      38.903  25.323  28.735  1.00  0.00    -0.200 F 
ATOM     82  C   UNL A   1      39.971  27.114  27.626  1.00  0.00     0.200 A 
ATOM     83  F   UNL A   1      41.059  28.925  26.571  1.00  0.00    -0.200 F 
ATOM     84  F   UNL A   1      40.022  26.403  26.493  1.00  0.00    -0.200 F 
ENDBRANCH  50  74
BRANCH  62  85
ATOM     85  C   UNL A   1      44.252  28.744  35.446  1.00  0.00     0.064 A 
ATOM     86  C   UNL A   1      45.509  29.216  35.044  1.00  0.00     0.173 A 
ATOM     87  C   UNL A   1      44.202  27.563  36.202  1.00  0.00     0.173 A 
ATOM     88  F   UNL A   1      45.605  30.334  34.308  1.00  0.00    -0.203 F 
ATOM     89  C   UNL A   1      46.670  28.523  35.371  1.00  0.00     0.198 A 
ATOM     90  C   UNL A   1      45.368  26.886  36.547  1.00  0.00     0.198 A 
ATOM     91  F   UNL A   1      43.023  27.074  36.616  1.00  0.00    -0.203 F 
ATOM     92  F   UNL A   1      47.859  28.973  34.944  1.00  0.00    -0.200 F 
ATOM     93  C   UNL A   1      46.601  27.363  36.128  1.00  0.00     0.200 A 
ATOM     94  F   UNL A   1      45.298  25.771  37.289  1.00  0.00    -0.200 F 
ATOM     95  F   UNL A   1      47.721  26.702  36.448  1.00  0.00    -0.200 F 
ENDBRANCH  62  85
ENDBRANCH  36  37
ENDBRANCH  28  31
ENDBRANCH  26  27
ENDBRANCH  25  26
ENDBRANCH   1  25
TORSDOF 14
ENDMDL
MODEL 3
REMARK VINA RESULT:     -12.8      0.447      1.640
REMARK SMILES CC1(C)CCN(c2nc3c(cc2C(=O)NCCCCCCNC(=O)c2ccc(-c4c5nc(c(-c6c(F)c(F)c(F)c(F)c6F)c6ccc([nH]6)c(-c6c(F)c(F)c(F)c(F)c6F)c6nc(c(-c7c(F)c(F)c(F)c(F)c7F)c7ccc4[nH]7)C=C6)C=C5)cc2)CCC3)C1
REMARK SMILES IDX 19 1 18 2 17 3 16 4 15 5 13 6 14 7 12 9 7 10 8 11 9 12 11 13
REMARK SMILES IDX 10 14 90 15 88 16 89 17 6 18 1 19 2 20 3 21 4 22 91 23 5 24
REMARK SMILES IDX 20 25 21 26 22 27 23 28 24 30 25 31 26 32 87 33 27 34 86 35
REMARK SMILES IDX 28 36 29 37 30 38 80 39 31 40 85 41 79 42 81 43 32 44 84 45
REMARK SMILES IDX 78 46 77 47 33 49 65 50 45 51 64 52 46 53 49 54 63 55 82 56
REMARK SMILES IDX 47 57 48 58 62 60 83 61 50 62 34 63 35 64 43 65 36 66 37 67
REMARK SMILES IDX 41 68 44 69 38 70 39 71 42 72 40 73 66 74 67 75 75 76 68 77
REMARK SMILES IDX 69 78 73 79 76 80 70 81 71 82 74 83 72 84 51 85 52 86 60 87
REMARK SMILES IDX 53 88 54 89 58 90 61 91 55 92 56 93 59 94 57 95
REMARK H PARENT 15 8 22 29 81 48 49 59
REMARK Flexibility Score: inf
ROOT
ATOM      1  C   UNL A   1      31.620  30.417  25.873  1.00  0.00     0.002 C 
ENDROOT
BRANCH   1   2
ATOM      2  C   UNL A   1      32.328  29.307  26.656  1.00  0.00     0.002 C 
BRANCH   2   3
ATOM      3  C   UNL A   1      33.474  28.540  25.982  1.00  0.00     0.021 C 
BRANCH   3   4
ATOM      4  C   UNL A   1      34.012  29.070  24.654  1.00  0.00     0.116 C 
BRANCH   4   5
ATOM      5  N   UNL A   1      34.175  28.096  23.602  1.00  0.00    -0.352 N 
ATOM      6  C   UNL A   1      33.236  27.562  22.745  1.00  0.00     0.255 C 
ATOM      7  O   UNL A   1      33.663  26.834  21.844  1.00  0.00    -0.269 OA
ATOM      8  H   UNL A   1      35.093  27.763  23.479  1.00  0.00     0.163 HD
BRANCH   6   9
ATOM      9  C   UNL A   1      31.752  27.715  22.876  1.00  0.00     0.082 A 
ATOM     10  C   UNL A   1      30.835  26.803  23.445  1.00  0.00     0.141 A 
ATOM     11  N   UNL A   1      29.496  27.062  23.498  1.00  0.00    -0.235 NA
ATOM     12  C   UNL A   1      29.075  28.247  23.039  1.00  0.00     0.046 A 
ATOM     13  C   UNL A   1      31.253  28.955  22.413  1.00  0.00     0.023 A 
ATOM     14  C   UNL A   1      29.900  29.215  22.503  1.00  0.00    -0.025 A 
ATOM     15  C   UNL A   1      27.658  28.730  23.135  1.00  0.00     0.057 C 
ATOM     16  C   UNL A   1      29.134  30.452  22.171  1.00  0.00     0.038 C 
ATOM     17  C   UNL A   1      27.690  29.920  22.167  1.00  0.00     0.011 C 
BRANCH  10  18
ATOM     18  N   UNL A   1      31.207  25.620  24.046  1.00  0.00    -0.355 N 
ATOM     19  C   UNL A   1      29.962  23.719  26.600  1.00  0.00     0.013 C 
ATOM     20  C   UNL A   1      31.258  24.078  25.860  1.00  0.00    -0.016 C 
ATOM     21  C   UNL A   1      32.457  23.682  26.725  1.00  0.00     0.013 C 
ATOM     22  C   UNL A   1      31.272  23.363  24.491  1.00  0.00     0.030 C 
ATOM     23  C   UNL A   1      31.308  25.592  25.503  1.00  0.00     0.124 C 
ATOM     24  C   UNL A   1      30.638  24.379  23.550  1.00  0.00     0.119 C 
ENDBRANCH  10  18
ENDBRANCH   6   9
ENDBRANCH   4   5
ENDBRANCH   3   4
ENDBRANCH   2   3
ENDBRANCH   1   2
BRANCH   1  25
ATOM     25  C   UNL A   1      31.403  31.763  26.566  1.00  0.00     0.021 C 
BRANCH  25  26
ATOM     26  C   UNL A   1      32.601  32.410  27.251  1.00  0.00     0.116 C 
BRANCH  26  27
ATOM     27  N   UNL A   1      32.407  33.826  27.492  1.00  0.00    -0.352 N 
ATOM     28  C   UNL A   1      32.990  34.669  28.400  1.00  0.00     0.251 C 
ATOM     29  H   UNL A   1      31.743  34.254  26.904  1.00  0.00     0.163 HD
ATOM     30  O   UNL A   1      32.528  35.810  28.534  1.00  0.00    -0.269 OA
BRANCH  28  31
ATOM     31  C   UNL A   1      34.156  34.276  29.230  1.00  0.00     0.039 A 
ATOM     32  C   UNL A   1      35.431  34.331  28.649  1.00  0.00     0.014 A 
ATOM     33  C   UNL A   1      34.012  33.728  30.508  1.00  0.00     0.014 A 
ATOM     34  C   UNL A   1      36.551  33.853  29.339  1.00  0.00     0.010 A 
ATOM     35  C   UNL A   1      35.138  33.290  31.216  1.00  0.00     0.010 A 
ATOM     36  C   UNL A   1      36.413  33.322  30.629  1.00  0.00    -0.014 A 
BRANCH  36  37
ATOM     37  C   UNL A   1      37.563  32.696  31.334  1.00  0.00     0.031 A 
ATOM     38  C   UNL A   1      38.304  31.563  30.675  1.00  0.00     0.074 A 
ATOM     39  C   UNL A   1      37.930  33.107  32.563  1.00  0.00     0.049 A 
ATOM     40  N   UNL A   1      39.242  30.789  31.160  1.00  0.00    -0.248 NA
ATOM     41  C   UNL A   1      37.928  31.251  29.286  1.00  0.00     0.031 C 
ATOM     42  C   UNL A   1      37.313  34.202  33.308  1.00  0.00     0.029 A 
ATOM     43  N   UNL A   1      38.906  32.635  33.407  1.00  0.00    -0.354 N 
ATOM     44  C   UNL A   1      39.556  29.893  30.146  1.00  0.00     0.074 A 
ATOM     45  C   UNL A   1      38.692  30.200  29.027  1.00  0.00     0.031 C 
ATOM     46  C   UNL A   1      37.917  34.313  34.503  1.00  0.00     0.029 A 
ATOM     47  C   UNL A   1      38.940  33.276  34.622  1.00  0.00     0.049 A 
ATOM     48  H   UNL A   1      39.522  31.907  33.165  1.00  0.00     0.167 HD
ATOM     49  C   UNL A   1      40.489  28.912  30.143  1.00  0.00     0.037 A 
ATOM     50  C   UNL A   1      39.695  33.038  35.713  1.00  0.00     0.037 A 
ATOM     51  C   UNL A   1      41.371  28.619  31.241  1.00  0.00     0.049 A 
ATOM     52  C   UNL A   1      40.705  31.919  35.693  1.00  0.00     0.074 A 
ATOM     53  C   UNL A   1      42.362  27.654  31.318  1.00  0.00     0.029 A 
ATOM     54  N   UNL A   1      41.377  29.295  32.450  1.00  0.00    -0.354 N 
ATOM     55  N   UNL A   1      40.992  31.080  34.728  1.00  0.00    -0.248 NA
ATOM     56  C   UNL A   1      41.494  31.715  36.916  1.00  0.00     0.031 C 
ATOM     57  C   UNL A   1      42.947  27.727  32.584  1.00  0.00     0.029 A 
ATOM     58  C   UNL A   1      42.348  28.762  33.283  1.00  0.00     0.049 A 
ATOM     59  H   UNL A   1      40.780  30.043  32.683  1.00  0.00     0.167 HD
ATOM     60  C   UNL A   1      42.004  30.265  35.220  1.00  0.00     0.074 A 
ATOM     61  C   UNL A   1      42.295  30.721  36.561  1.00  0.00     0.031 C 
ATOM     62  C   UNL A   1      42.633  29.229  34.613  1.00  0.00     0.037 A 
BRANCH  49  63
ATOM     63  C   UNL A   1      40.615  28.071  28.909  1.00  0.00     0.064 A 
ATOM     64  C   UNL A   1      39.877  26.888  28.755  1.00  0.00     0.173 A 
ATOM     65  C   UNL A   1      41.417  28.493  27.839  1.00  0.00     0.173 A 
ATOM     66  F   UNL A   1      39.105  26.439  29.756  1.00  0.00    -0.203 F 
ATOM     67  C   UNL A   1      39.943  26.155  27.574  1.00  0.00     0.198 A 
ATOM     68  C   UNL A   1      41.464  27.769  26.651  1.00  0.00     0.198 A 
ATOM     69  F   UNL A   1      42.137  29.621  27.937  1.00  0.00    -0.203 F 
ATOM     70  F   UNL A   1      39.246  25.016  27.453  1.00  0.00    -0.200 F 
ATOM     71  C   UNL A   1      40.728  26.600  26.519  1.00  0.00     0.200 A 
ATOM     72  F   UNL A   1      42.214  28.206  25.630  1.00  0.00    -0.200 F 
ATOM     73  F   UNL A   1      40.776  25.903  25.376  1.00  0.00    -0.200 F 
ENDBRANCH  49  63
BRANCH  50  74
ATOM     74  C   UNL A   1      39.522  33.867  36.934  1.00  0.00     0.064 A 
ATOM     75  C   UNL A   1      40.205  35.082  37.083  1.00  0.00     0.173 A 
ATOM     76  C   UNL A   1      38.703  33.444  37.990  1.00  0.00     0.173 A 
ATOM     77  F   UNL A   1      41.024  35.512  36.111  1.00  0.00    -0.203 F 
ATOM     78  C   UNL A   1      40.091  35.834  38.250  1.00  0.00     0.198 A 
ATOM     79  C   UNL A   1      38.569  34.209  39.147  1.00  0.00     0.198 A 
ATOM     80  F   UNL A   1      38.032  32.286  37.899  1.00  0.00    -0.203 F 
ATOM     81  F   UNL A   1      40.793  36.966  38.387  1.00  0.00    -0.200 F 
ATOM     82  C   UNL A   1      39.269  35.399  39.280  1.00  0.00     0.200 A 
ATOM     83  F   UNL A   1      37.769  33.789  40.137  1.00  0.00    -0.200 F 
ATOM     84  F   UNL A   1      39.162  36.119  40.404  1.00  0.00    -0.200 F 
ENDBRANCH  50  74
BRANCH  62  85
ATOM     85  C   UNL A   1      43.713  28.528  35.382  1.00  0.00     0.064 A 
ATOM     86  C   UNL A   1      45.058  28.903  35.263  1.00  0.00     0.173 A 
ATOM     87  C   UNL A   1      43.392  27.505  36.288  1.00  0.00     0.173 A 
ATOM     88  F   UNL A   1      45.415  29.867  34.400  1.00  0.00    -0.203 F 
ATOM     89  C   UNL A   1      46.046  28.267  36.007  1.00  0.00     0.198 A 
ATOM     90  C   UNL A   1      44.381  26.888  37.049  1.00  0.00     0.198 A 
ATOM     91  F   UNL A   1      42.118  27.115  36.445  1.00  0.00    -0.203 F 
ATOM     92  F   UNL A   1      47.331  28.616  35.849  1.00  0.00    -0.200 F 
ATOM     93  C   UNL A   1      45.707  27.265  36.905  1.00  0.00     0.200 A 
ATOM     94  F   UNL A   1      44.049  25.928  37.924  1.00  0.00    -0.200 F 
ATOM     95  F   UNL A   1      46.660  26.659  37.626  1.00  0.00    -0.200 F 
ENDBRANCH  62  85
ENDBRANCH  36  37
ENDBRANCH  28  31
ENDBRANCH  26  27
ENDBRANCH  25  26
ENDBRANCH   1  25
TORSDOF 14
ENDMDL
