MODEL 1
REMARK VINA RESULT:     -13.0      0.000      0.000
REMARK SMILES Nc1ccc(-c2cc(Cl)cc3c2O[C@H](C(F)(F)F)C(C(=O)NCCCCCCNC(=O)c2ccc(-c4c5nc(c(-c6c(F)c(F)c(F)c(F)c6F)c6ccc([nH]6)c(-c6c(F)c(F)c(F)c(F)c6F)c6nc(c(-c7c(F)c(F)c(F)c(F)c7F)c7ccc4[nH]7)C=C6)C=C5)cc2)=C3)cc1
REMARK SMILES IDX 25 1 24 2 23 3 22 4 20 5 21 6 19 8 6 9 7 10 12 11 8 12 11 13
REMARK SMILES IDX 13 14 9 15 10 16 95 17 14 18 5 19 2 20 3 21 97 22 4 23 96 24
REMARK SMILES IDX 1 25 15 28 16 29 17 30 18 31 26 32 27 33 28 34 29 35 30 36
REMARK SMILES IDX 31 38 32 39 33 40 94 41 34 42 93 43 35 44 36 45 37 46 87 47
REMARK SMILES IDX 38 48 92 49 86 50 88 51 39 52 91 53 85 54 84 55 40 57 72 58
REMARK SMILES IDX 52 59 71 60 53 61 56 62 70 63 89 64 54 65 55 66 69 68 90 69
REMARK SMILES IDX 57 70 41 71 42 72 50 73 43 74 44 75 48 76 51 77 45 78 46 79
REMARK SMILES IDX 49 80 47 81 73 82 74 83 82 84 75 85 76 86 80 87 83 88 77 89
REMARK SMILES IDX 78 90 81 91 79 92 58 93 59 94 67 95 60 96 61 97 65 98 68 99
REMARK SMILES IDX 62 100 63 101 66 102 64 103
REMARK H PARENT 22 7 1 26 1 27 29 37 88 56 56 67
REMARK Flexibility Score: inf
ROOT
ATOM      1  C   UNL A   1      33.020  28.853  23.384  1.00  0.00     0.002 C 
ENDROOT
BRANCH   1   2
ATOM      2  C   UNL A   1      32.899  27.340  23.173  1.00  0.00     0.021 C 
BRANCH   2   3
ATOM      3  C   UNL A   1      31.465  26.817  23.230  1.00  0.00     0.116 C 
BRANCH   3   4
ATOM      4  N   UNL A   1      31.037  26.560  24.595  1.00  0.00    -0.352 N 
ATOM      5  C   UNL A   1      31.290  25.649  25.565  1.00  0.00     0.251 C 
ATOM      6  O   UNL A   1      30.699  25.843  26.632  1.00  0.00    -0.270 OA
ATOM      7  H   UNL A   1      30.386  27.232  24.897  1.00  0.00     0.163 HD
BRANCH   5   8
ATOM      8  C   UNL A   1      32.200  24.472  25.435  1.00  0.00     0.067 C 
ATOM      9  C   UNL A   1      34.840  21.186  25.272  1.00  0.00     0.026 A 
ATOM     10  C   UNL A   1      36.209  21.408  25.473  1.00  0.00     0.033 A 
ATOM     11  C   UNL A   1      33.966  22.286  25.388  1.00  0.00     0.135 A 
ATOM     12  C   UNL A   1      36.678  22.689  25.773  1.00  0.00     0.042 A 
ATOM     13  C   UNL A   1      34.434  23.572  25.679  1.00  0.00     0.019 A 
ATOM     14  O   UNL A   1      32.627  22.031  25.276  1.00  0.00    -0.475 OA
ATOM     15  Cl  UNL A   1      38.364  22.937  26.025  1.00  0.00    -0.084 Cl
ATOM     16  C   UNL A   1      35.801  23.771  25.874  1.00  0.00     0.032 A 
ATOM     17  C   UNL A   1      33.479  24.670  25.807  1.00  0.00     0.025 C 
ATOM     18  C   UNL A   1      31.774  23.136  24.901  1.00  0.00     0.314 C 
BRANCH   9  19
ATOM     19  C   UNL A   1      34.325  19.845  24.943  1.00  0.00    -0.014 A 
ATOM     20  C   UNL A   1      33.340  17.226  24.491  1.00  0.00     0.031 A 
ATOM     21  C   UNL A   1      32.474  18.259  24.849  1.00  0.00     0.026 A 
ATOM     22  C   UNL A   1      34.703  17.507  24.377  1.00  0.00     0.026 A 
ATOM     23  C   UNL A   1      32.957  19.555  25.056  1.00  0.00     0.011 A 
ATOM     24  C   UNL A   1      35.192  18.803  24.588  1.00  0.00     0.011 A 
BRANCH  20  25
ATOM     25  N   UNL A   1      32.875  15.926  24.382  1.00  0.00    -0.399 N 
ATOM     26  H   UNL A   1      33.014  15.423  23.547  1.00  0.00     0.156 HD
ATOM     27  H   UNL A   1      32.408  15.506  25.140  1.00  0.00     0.156 HD
ENDBRANCH  20  25
ENDBRANCH   9  19
BRANCH  18  28
ATOM     28  C   UNL A   1      31.577  23.131  23.375  1.00  0.00     0.429 C 
ATOM     29  F   UNL A   1      31.645  21.866  22.889  1.00  0.00    -0.167 F 
ATOM     30  F   UNL A   1      30.369  23.615  23.004  1.00  0.00    -0.167 F 
ATOM     31  F   UNL A   1      32.512  23.863  22.727  1.00  0.00    -0.167 F 
ENDBRANCH  18  28
ENDBRANCH   5   8
ENDBRANCH   3   4
ENDBRANCH   2   3
ENDBRANCH   1   2
BRANCH   1  32
ATOM     32  C   UNL A   1      33.201  29.307  24.840  1.00  0.00     0.002 C 
BRANCH  32  33
ATOM     33  C   UNL A   1      33.955  28.336  25.751  1.00  0.00     0.021 C 
BRANCH  33  34
ATOM     34  C   UNL A   1      33.675  28.500  27.239  1.00  0.00     0.116 C 
BRANCH  34  35
ATOM     35  N   UNL A   1      33.630  29.895  27.649  1.00  0.00    -0.352 N 
ATOM     36  C   UNL A   1      34.597  30.654  28.258  1.00  0.00     0.251 C 
ATOM     37  H   UNL A   1      32.783  30.362  27.462  1.00  0.00     0.163 HD
ATOM     38  O   UNL A   1      34.338  31.781  28.670  1.00  0.00    -0.269 OA
BRANCH  36  39
ATOM     39  C   UNL A   1      35.952  30.095  28.450  1.00  0.00     0.039 A 
ATOM     40  C   UNL A   1      36.309  29.489  29.657  1.00  0.00     0.014 A 
ATOM     41  C   UNL A   1      36.884  30.201  27.413  1.00  0.00     0.014 A 
ATOM     42  C   UNL A   1      37.635  29.138  29.884  1.00  0.00     0.010 A 
ATOM     43  C   UNL A   1      38.199  29.774  27.616  1.00  0.00     0.010 A 
ATOM     44  C   UNL A   1      38.596  29.284  28.870  1.00  0.00    -0.014 A 
BRANCH  44  45
ATOM     45  C   UNL A   1      40.011  28.932  29.149  1.00  0.00     0.031 A 
ATOM     46  C   UNL A   1      40.849  29.785  30.060  1.00  0.00     0.074 A 
ATOM     47  C   UNL A   1      40.521  27.800  28.630  1.00  0.00     0.049 A 
ATOM     48  N   UNL A   1      42.088  29.613  30.446  1.00  0.00    -0.248 NA
ATOM     49  C   UNL A   1      40.214  30.993  30.610  1.00  0.00     0.031 C 
ATOM     50  C   UNL A   1      39.799  26.882  27.750  1.00  0.00     0.029 A 
ATOM     51  N   UNL A   1      41.749  27.211  28.792  1.00  0.00    -0.354 N 
ATOM     52  C   UNL A   1      42.384  30.690  31.270  1.00  0.00     0.074 A 
ATOM     53  C   UNL A   1      41.208  31.532  31.303  1.00  0.00     0.031 C 
ATOM     54  C   UNL A   1      40.571  25.815  27.501  1.00  0.00     0.029 A 
ATOM     55  C   UNL A   1      41.864  26.002  28.153  1.00  0.00     0.049 A 
ATOM     56  H   UNL A   1      42.477  27.617  29.315  1.00  0.00     0.167 HD
ATOM     57  C   UNL A   1      43.528  30.945  31.951  1.00  0.00     0.037 A 
ATOM     58  C   UNL A   1      42.895  25.140  28.097  1.00  0.00     0.037 A 
ATOM     59  C   UNL A   1      44.693  30.099  31.928  1.00  0.00     0.049 A 
ATOM     60  C   UNL A   1      44.173  25.475  28.810  1.00  0.00     0.074 A 
ATOM     61  C   UNL A   1      45.895  30.266  32.592  1.00  0.00     0.029 A 
ATOM     62  N   UNL A   1      44.800  28.922  31.200  1.00  0.00    -0.354 N 
ATOM     63  N   UNL A   1      44.443  26.499  29.579  1.00  0.00    -0.248 NA
ATOM     64  C   UNL A   1      45.293  24.541  28.632  1.00  0.00     0.031 C 
ATOM     65  C   UNL A   1      46.744  29.214  32.234  1.00  0.00     0.029 A 
ATOM     66  C   UNL A   1      46.056  28.365  31.381  1.00  0.00     0.049 A 
ATOM     67  H   UNL A   1      44.088  28.539  30.637  1.00  0.00     0.167 HD
ATOM     68  C   UNL A   1      45.759  26.336  29.983  1.00  0.00     0.074 A 
ATOM     69  C   UNL A   1      46.228  25.099  29.390  1.00  0.00     0.031 C 
ATOM     70  C   UNL A   1      46.512  27.141  30.773  1.00  0.00     0.037 A 
BRANCH  57  71
ATOM     71  C   UNL A   1      43.578  32.201  32.773  1.00  0.00     0.064 A 
ATOM     72  C   UNL A   1      44.029  33.415  32.231  1.00  0.00     0.173 A 
ATOM     73  C   UNL A   1      43.141  32.199  34.105  1.00  0.00     0.173 A 
ATOM     74  F   UNL A   1      44.470  33.466  30.966  1.00  0.00    -0.203 F 
ATOM     75  C   UNL A   1      44.066  34.574  33.003  1.00  0.00     0.198 A 
ATOM     76  C   UNL A   1      43.153  33.366  34.866  1.00  0.00     0.198 A 
ATOM     77  F   UNL A   1      42.694  31.068  34.670  1.00  0.00    -0.203 F 
ATOM     78  F   UNL A   1      44.544  35.711  32.477  1.00  0.00    -0.200 F 
ATOM     79  C   UNL A   1      43.622  34.550  34.316  1.00  0.00     0.200 A 
ATOM     80  F   UNL A   1      42.715  33.345  36.131  1.00  0.00    -0.200 F 
ATOM     81  F   UNL A   1      43.655  35.668  35.056  1.00  0.00    -0.200 F 
ENDBRANCH  57  71
BRANCH  58  82
ATOM     82  C   UNL A   1      42.735  23.869  27.348  1.00  0.00     0.064 A 
ATOM     83  C   UNL A   1      43.165  23.764  26.020  1.00  0.00     0.173 A 
ATOM     84  C   UNL A   1      42.216  22.719  27.962  1.00  0.00     0.173 A 
ATOM     85  F   UNL A   1      43.653  24.841  25.386  1.00  0.00    -0.203 F 
ATOM     86  C   UNL A   1      43.091  22.553  25.335  1.00  0.00     0.198 A 
ATOM     87  C   UNL A   1      42.164  21.504  27.285  1.00  0.00     0.198 A 
ATOM     88  F   UNL A   1      41.795  22.771  29.235  1.00  0.00    -0.203 F 
ATOM     89  F   UNL A   1      43.499  22.480  24.060  1.00  0.00    -0.200 F 
ATOM     90  C   UNL A   1      42.602  21.421  25.971  1.00  0.00     0.200 A 
ATOM     91  F   UNL A   1      41.707  20.410  27.909  1.00  0.00    -0.200 F 
ATOM     92  F   UNL A   1      42.555  20.251  25.321  1.00  0.00    -0.200 F 
ENDBRANCH  58  82
BRANCH  70  93
ATOM     93  C   UNL A   1      47.925  26.716  31.041  1.00  0.00     0.064 A 
ATOM     94  C   UNL A   1      48.246  25.907  32.141  1.00  0.00     0.173 A 
ATOM     95  C   UNL A   1      48.957  27.071  30.159  1.00  0.00     0.173 A 
ATOM     96  F   UNL A   1      47.296  25.557  33.020  1.00  0.00    -0.203 F 
ATOM     97  C   UNL A   1      49.553  25.478  32.353  1.00  0.00     0.198 A 
ATOM     98  C   UNL A   1      50.257  26.618  30.362  1.00  0.00     0.198 A 
ATOM     99  F   UNL A   1      48.698  27.838  29.090  1.00  0.00    -0.203 F 
ATOM    100  F   UNL A   1      49.844  24.731  33.429  1.00  0.00    -0.200 F 
ATOM    101  C   UNL A   1      50.555  25.826  31.460  1.00  0.00     0.200 A 
ATOM    102  F   UNL A   1      51.223  26.946  29.491  1.00  0.00    -0.200 F 
ATOM    103  F   UNL A   1      51.810  25.401  31.660  1.00  0.00    -0.200 F 
ENDBRANCH  70  93
ENDBRANCH  44  45
ENDBRANCH  36  39
ENDBRANCH  34  35
ENDBRANCH  33  34
ENDBRANCH  32  33
ENDBRANCH   1  32
TORSDOF 16
ENDMDL
MODEL 2
REMARK VINA RESULT:     -12.7      4.090      9.032
REMARK SMILES Nc1ccc(-c2cc(Cl)cc3c2O[C@H](C(F)(F)F)C(C(=O)NCCCCCCNC(=O)c2ccc(-c4c5nc(c(-c6c(F)c(F)c(F)c(F)c6F)c6ccc([nH]6)c(-c6c(F)c(F)c(F)c(F)c6F)c6nc(c(-c7c(F)c(F)c(F)c(F)c7F)c7ccc4[nH]7)C=C6)C=C5)cc2)=C3)cc1
REMARK SMILES IDX 25 1 24 2 23 3 22 4 20 5 21 6 19 8 6 9 7 10 12 11 8 12 11 13
REMARK SMILES IDX 13 14 9 15 10 16 95 17 14 18 5 19 2 20 3 21 97 22 4 23 96 24
REMARK SMILES IDX 1 25 15 28 16 29 17 30 18 31 26 32 27 33 28 34 29 35 30 36
REMARK SMILES IDX 31 38 32 39 33 40 94 41 34 42 93 43 35 44 36 45 37 46 87 47
REMARK SMILES IDX 38 48 92 49 86 50 88 51 39 52 91 53 85 54 84 55 40 57 72 58
REMARK SMILES IDX 52 59 71 60 53 61 56 62 70 63 89 64 54 65 55 66 69 68 90 69
REMARK SMILES IDX 57 70 41 71 42 72 50 73 43 74 44 75 48 76 51 77 45 78 46 79
REMARK SMILES IDX 49 80 47 81 73 82 74 83 82 84 75 85 76 86 80 87 83 88 77 89
REMARK SMILES IDX 78 90 81 91 79 92 58 93 59 94 67 95 60 96 61 97 65 98 68 99
REMARK SMILES IDX 62 100 63 101 66 102 64 103
REMARK H PARENT 22 7 1 26 1 27 29 37 88 56 56 67
REMARK Flexibility Score: inf
ROOT
ATOM      1  C   UNL A   1      35.320  32.023  27.999  1.00  0.00     0.002 C 
ENDROOT
BRANCH   1   2
ATOM      2  C   UNL A   1      35.648  30.555  28.288  1.00  0.00     0.021 C 
BRANCH   2   3
ATOM      3  C   UNL A   1      35.099  29.579  27.250  1.00  0.00     0.116 C 
BRANCH   3   4
ATOM      4  N   UNL A   1      33.905  30.093  26.601  1.00  0.00    -0.352 N 
ATOM      5  C   UNL A   1      32.960  29.636  25.746  1.00  0.00     0.251 C 
ATOM      6  O   UNL A   1      32.067  30.445  25.472  1.00  0.00    -0.270 OA
ATOM      7  H   UNL A   1      33.736  31.029  26.854  1.00  0.00     0.163 HD
BRANCH   5   8
ATOM      8  C   UNL A   1      32.928  28.274  25.133  1.00  0.00     0.067 C 
ATOM      9  C   UNL A   1      33.010  24.486  23.281  1.00  0.00     0.026 A 
ATOM     10  C   UNL A   1      32.898  24.413  21.886  1.00  0.00     0.033 A 
ATOM     11  C   UNL A   1      33.039  25.763  23.877  1.00  0.00     0.135 A 
ATOM     12  C   UNL A   1      32.813  25.580  21.124  1.00  0.00     0.042 A 
ATOM     13  C   UNL A   1      32.945  26.934  23.118  1.00  0.00     0.019 A 
ATOM     14  O   UNL A   1      33.239  25.813  25.230  1.00  0.00    -0.475 OA
ATOM     15  Cl  UNL A   1      32.685  25.467  19.410  1.00  0.00    -0.084 Cl
ATOM     16  C   UNL A   1      32.832  26.837  21.730  1.00  0.00     0.032 A 
ATOM     17  C   UNL A   1      33.001  28.229  23.789  1.00  0.00     0.025 C 
ATOM     18  C   UNL A   1      32.793  27.003  25.918  1.00  0.00     0.314 C 
BRANCH   9  19
ATOM     19  C   UNL A   1      33.090  23.266  24.104  1.00  0.00    -0.014 A 
ATOM     20  C   UNL A   1      33.230  20.821  25.531  1.00  0.00     0.031 A 
ATOM     21  C   UNL A   1      34.373  21.374  24.954  1.00  0.00     0.026 A 
ATOM     22  C   UNL A   1      32.014  21.490  25.375  1.00  0.00     0.026 A 
ATOM     23  C   UNL A   1      34.308  22.589  24.264  1.00  0.00     0.011 A 
ATOM     24  C   UNL A   1      31.943  22.705  24.681  1.00  0.00     0.011 A 
BRANCH  20  25
ATOM     25  N   UNL A   1      33.278  19.573  26.129  1.00  0.00    -0.399 N 
ATOM     26  H   UNL A   1      33.975  19.373  26.794  1.00  0.00     0.156 HD
ATOM     27  H   UNL A   1      32.614  18.887  25.888  1.00  0.00     0.156 HD
ENDBRANCH  20  25
ENDBRANCH   9  19
BRANCH  18  28
ATOM     28  C   UNL A   1      31.370  26.775  26.458  1.00  0.00     0.429 C 
ATOM     29  F   UNL A   1      31.218  25.493  26.876  1.00  0.00    -0.167 F 
ATOM     30  F   UNL A   1      31.087  27.557  27.526  1.00  0.00    -0.167 F 
ATOM     31  F   UNL A   1      30.416  27.012  25.530  1.00  0.00    -0.167 F 
ENDBRANCH  18  28
ENDBRANCH   5   8
ENDBRANCH   3   4
ENDBRANCH   2   3
ENDBRANCH   1   2
BRANCH   1  32
ATOM     32  C   UNL A   1      34.550  32.762  29.105  1.00  0.00     0.002 C 
BRANCH  32  33
ATOM     33  C   UNL A   1      33.563  33.830  28.627  1.00  0.00     0.021 C 
BRANCH  33  34
ATOM     34  C   UNL A   1      33.859  35.243  29.115  1.00  0.00     0.116 C 
BRANCH  34  35
ATOM     35  N   UNL A   1      32.903  35.702  30.109  1.00  0.00    -0.352 N 
ATOM     36  C   UNL A   1      32.899  35.505  31.468  1.00  0.00     0.251 C 
ATOM     37  H   UNL A   1      32.150  36.231  29.758  1.00  0.00     0.163 HD
ATOM     38  O   UNL A   1      31.931  35.841  32.143  1.00  0.00    -0.269 OA
BRANCH  36  39
ATOM     39  C   UNL A   1      34.056  34.853  32.116  1.00  0.00     0.039 A 
ATOM     40  C   UNL A   1      35.296  35.494  32.173  1.00  0.00     0.014 A 
ATOM     41  C   UNL A   1      33.901  33.572  32.653  1.00  0.00     0.014 A 
ATOM     42  C   UNL A   1      36.412  34.795  32.618  1.00  0.00     0.010 A 
ATOM     43  C   UNL A   1      35.009  32.899  33.174  1.00  0.00     0.010 A 
ATOM     44  C   UNL A   1      36.283  33.487  33.116  1.00  0.00    -0.014 A 
BRANCH  44  45
ATOM     45  C   UNL A   1      37.495  32.750  33.554  1.00  0.00     0.031 A 
ATOM     46  C   UNL A   1      38.150  31.743  32.651  1.00  0.00     0.074 A 
ATOM     47  C   UNL A   1      38.044  33.041  34.747  1.00  0.00     0.049 A 
ATOM     48  N   UNL A   1      39.231  31.033  32.851  1.00  0.00    -0.248 NA
ATOM     49  C   UNL A   1      37.505  31.498  31.351  1.00  0.00     0.031 C 
ATOM     50  C   UNL A   1      37.511  34.013  35.702  1.00  0.00     0.029 A 
ATOM     51  N   UNL A   1      39.186  32.575  35.348  1.00  0.00    -0.354 N 
ATOM     52  C   UNL A   1      39.391  30.252  31.713  1.00  0.00     0.074 A 
ATOM     53  C   UNL A   1      38.276  30.547  30.840  1.00  0.00     0.031 C 
ATOM     54  C   UNL A   1      38.356  34.120  36.736  1.00  0.00     0.029 A 
ATOM     55  C   UNL A   1      39.457  33.181  36.549  1.00  0.00     0.049 A 
ATOM     56  H   UNL A   1      39.754  31.874  34.956  1.00  0.00     0.167 HD
ATOM     57  C   UNL A   1      40.386  29.381  31.419  1.00  0.00     0.037 A 
ATOM     58  C   UNL A   1      40.479  33.000  37.406  1.00  0.00     0.037 A 
ATOM     59  C   UNL A   1      41.501  29.099  32.284  1.00  0.00     0.049 A 
ATOM     60  C   UNL A   1      41.536  31.984  37.085  1.00  0.00     0.074 A 
ATOM     61  C   UNL A   1      42.565  28.240  32.070  1.00  0.00     0.029 A 
ATOM     62  N   UNL A   1      41.697  29.671  33.533  1.00  0.00    -0.354 N 
ATOM     63  N   UNL A   1      41.672  31.247  36.011  1.00  0.00    -0.248 NA
ATOM     64  C   UNL A   1      42.572  31.764  38.103  1.00  0.00     0.031 C 
ATOM     65  C   UNL A   1      43.382  28.262  33.205  1.00  0.00     0.029 A 
ATOM     66  C   UNL A   1      42.853  29.169  34.110  1.00  0.00     0.049 A 
ATOM     67  H   UNL A   1      41.102  30.339  33.948  1.00  0.00     0.167 HD
ATOM     68  C   UNL A   1      42.808  30.479  36.217  1.00  0.00     0.074 A 
ATOM     69  C   UNL A   1      43.338  30.855  37.513  1.00  0.00     0.031 C 
ATOM     70  C   UNL A   1      43.360  29.543  35.406  1.00  0.00     0.037 A 
BRANCH  57  71
ATOM     71  C   UNL A   1      40.306  28.658  30.105  1.00  0.00     0.064 A 
ATOM     72  C   UNL A   1      40.945  29.150  28.956  1.00  0.00     0.173 A 
ATOM     73  C   UNL A   1      39.611  27.445  30.000  1.00  0.00     0.173 A 
ATOM     74  F   UNL A   1      41.612  30.313  29.001  1.00  0.00    -0.203 F 
ATOM     75  C   UNL A   1      40.868  28.466  27.745  1.00  0.00     0.198 A 
ATOM     76  C   UNL A   1      39.558  26.750  28.794  1.00  0.00     0.198 A 
ATOM     77  F   UNL A   1      38.987  26.927  31.069  1.00  0.00    -0.203 F 
ATOM     78  F   UNL A   1      41.448  28.979  26.651  1.00  0.00    -0.200 F 
ATOM     79  C   UNL A   1      40.181  27.265  27.666  1.00  0.00     0.200 A 
ATOM     80  F   UNL A   1      38.903  25.584  28.721  1.00  0.00    -0.200 F 
ATOM     81  F   UNL A   1      40.110  26.607  26.500  1.00  0.00    -0.200 F 
ENDBRANCH  57  71
BRANCH  58  82
ATOM     82  C   UNL A   1      40.545  33.825  38.638  1.00  0.00     0.064 A 
ATOM     83  C   UNL A   1      41.269  35.023  38.655  1.00  0.00     0.173 A 
ATOM     84  C   UNL A   1      39.835  33.471  39.794  1.00  0.00     0.173 A 
ATOM     85  F   UNL A   1      41.978  35.394  37.579  1.00  0.00    -0.203 F 
ATOM     86  C   UNL A   1      41.272  35.843  39.782  1.00  0.00     0.198 A 
ATOM     87  C   UNL A   1      39.818  34.302  40.911  1.00  0.00     0.198 A 
ATOM     88  F   UNL A   1      39.123  32.334  39.822  1.00  0.00    -0.203 F 
ATOM     89  F   UNL A   1      41.982  36.980  39.779  1.00  0.00    -0.200 F 
ATOM     90  C   UNL A   1      40.537  35.488  40.904  1.00  0.00     0.200 A 
ATOM     91  F   UNL A   1      39.094  33.964  41.985  1.00  0.00    -0.200 F 
ATOM     92  F   UNL A   1      40.520  36.289  41.977  1.00  0.00    -0.200 F 
ENDBRANCH  58  82
BRANCH  70  93
ATOM     93  C   UNL A   1      44.599  28.854  35.892  1.00  0.00     0.064 A 
ATOM     94  C   UNL A   1      45.873  29.386  35.645  1.00  0.00     0.173 A 
ATOM     95  C   UNL A   1      44.511  27.685  36.663  1.00  0.00     0.173 A 
ATOM     96  F   UNL A   1      46.008  30.492  34.899  1.00  0.00    -0.203 F 
ATOM     97  C   UNL A   1      47.015  28.766  36.143  1.00  0.00     0.198 A 
ATOM     98  C   UNL A   1      45.653  27.082  37.181  1.00  0.00     0.198 A 
ATOM     99  F   UNL A   1      43.314  27.141  36.932  1.00  0.00    -0.203 F 
ATOM    100  F   UNL A   1      48.225  29.273  35.868  1.00  0.00    -0.200 F 
ATOM    101  C   UNL A   1      46.904  27.620  36.917  1.00  0.00     0.200 A 
ATOM    102  F   UNL A   1      45.544  25.982  37.938  1.00  0.00    -0.200 F 
ATOM    103  F   UNL A   1      48.004  27.031  37.406  1.00  0.00    -0.200 F 
ENDBRANCH  70  93
ENDBRANCH  44  45
ENDBRANCH  36  39
ENDBRANCH  34  35
ENDBRANCH  33  34
ENDBRANCH  32  33
ENDBRANCH   1  32
TORSDOF 16
ENDMDL
MODEL 3
REMARK VINA RESULT:     -12.5      3.979      6.149
REMARK SMILES Nc1ccc(-c2cc(Cl)cc3c2O[C@H](C(F)(F)F)C(C(=O)NCCCCCCNC(=O)c2ccc(-c4c5nc(c(-c6c(F)c(F)c(F)c(F)c6F)c6ccc([nH]6)c(-c6c(F)c(F)c(F)c(F)c6F)c6nc(c(-c7c(F)c(F)c(F)c(F)c7F)c7ccc4[nH]7)C=C6)C=C5)cc2)=C3)cc1
REMARK SMILES IDX 25 1 24 2 23 3 22 4 20 5 21 6 19 8 6 9 7 10 12 11 8 12 11 13
REMARK SMILES IDX 13 14 9 15 10 16 95 17 14 18 5 19 2 20 3 21 97 22 4 23 96 24
REMARK SMILES IDX 1 25 15 28 16 29 17 30 18 31 26 32 27 33 28 34 29 35 30 36
REMARK SMILES IDX 31 38 32 39 33 40 94 41 34 42 93 43 35 44 36 45 37 46 87 47
REMARK SMILES IDX 38 48 92 49 86 50 88 51 39 52 91 53 85 54 84 55 40 57 72 58
REMARK SMILES IDX 52 59 71 60 53 61 56 62 70 63 89 64 54 65 55 66 69 68 90 69
REMARK SMILES IDX 57 70 41 71 42 72 50 73 43 74 44 75 48 76 51 77 45 78 46 79
REMARK SMILES IDX 49 80 47 81 73 82 74 83 82 84 75 85 76 86 80 87 83 88 77 89
REMARK SMILES IDX 78 90 81 91 79 92 58 93 59 94 67 95 60 96 61 97 65 98 68 99
REMARK SMILES IDX 62 100 63 101 66 102 64 103
REMARK H PARENT 22 7 1 26 1 27 29 37 88 56 56 67
REMARK Flexibility Score: inf
ROOT
ATOM      1  C   UNL A   1      35.072  32.203  27.947  1.00  0.00     0.002 C 
ENDROOT
BRANCH   1   2
ATOM      2  C   UNL A   1      35.442  30.746  28.240  1.00  0.00     0.021 C 
BRANCH   2   3
ATOM      3  C   UNL A   1      34.943  29.754  27.191  1.00  0.00     0.116 C 
BRANCH   3   4
ATOM      4  N   UNL A   1      33.727  30.216  26.545  1.00  0.00    -0.352 N 
ATOM      5  C   UNL A   1      32.790  29.714  25.706  1.00  0.00     0.251 C 
ATOM      6  O   UNL A   1      31.868  30.487  25.427  1.00  0.00    -0.270 OA
ATOM      7  H   UNL A   1      33.528  31.150  26.783  1.00  0.00     0.163 HD
BRANCH   5   8
ATOM      8  C   UNL A   1      32.799  28.341  25.116  1.00  0.00     0.067 C 
ATOM      9  C   UNL A   1      32.996  24.524  23.332  1.00  0.00     0.026 A 
ATOM     10  C   UNL A   1      32.899  24.424  21.937  1.00  0.00     0.033 A 
ATOM     11  C   UNL A   1      32.987  25.812  23.906  1.00  0.00     0.135 A 
ATOM     12  C   UNL A   1      32.791  25.576  21.154  1.00  0.00     0.042 A 
ATOM     13  C   UNL A   1      32.869  26.966  23.125  1.00  0.00     0.019 A 
ATOM     14  O   UNL A   1      33.173  25.890  25.259  1.00  0.00    -0.475 OA
ATOM     15  Cl  UNL A   1      32.681  25.430  19.442  1.00  0.00    -0.084 Cl
ATOM     16  C   UNL A   1      32.772  26.844  21.738  1.00  0.00     0.032 A 
ATOM     17  C   UNL A   1      32.886  28.275  23.774  1.00  0.00     0.025 C 
ATOM     18  C   UNL A   1      32.690  27.080  25.922  1.00  0.00     0.314 C 
BRANCH   9  19
ATOM     19  C   UNL A   1      33.100  23.322  24.177  1.00  0.00    -0.014 A 
ATOM     20  C   UNL A   1      33.252  20.907  25.654  1.00  0.00     0.031 A 
ATOM     21  C   UNL A   1      34.331  21.337  24.881  1.00  0.00     0.026 A 
ATOM     22  C   UNL A   1      32.092  21.684  25.669  1.00  0.00     0.026 A 
ATOM     23  C   UNL A   1      34.262  22.536  24.165  1.00  0.00     0.011 A 
ATOM     24  C   UNL A   1      32.017  22.884  24.950  1.00  0.00     0.011 A 
BRANCH  20  25
ATOM     25  N   UNL A   1      33.285  19.674  26.282  1.00  0.00    -0.399 N 
ATOM     26  H   UNL A   1      33.526  19.614  27.235  1.00  0.00     0.156 HD
ATOM     27  H   UNL A   1      33.068  18.858  25.776  1.00  0.00     0.156 HD
ENDBRANCH  20  25
ENDBRANCH   9  19
BRANCH  18  28
ATOM     28  C   UNL A   1      31.269  26.824  26.454  1.00  0.00     0.429 C 
ATOM     29  F   UNL A   1      31.141  25.542  26.878  1.00  0.00    -0.167 F 
ATOM     30  F   UNL A   1      30.961  27.606  27.515  1.00  0.00    -0.167 F 
ATOM     31  F   UNL A   1      30.316  27.036  25.518  1.00  0.00    -0.167 F 
ENDBRANCH  18  28
ENDBRANCH   5   8
ENDBRANCH   3   4
ENDBRANCH   2   3
ENDBRANCH   1   2
BRANCH   1  32
ATOM     32  C   UNL A   1      34.569  33.015  29.150  1.00  0.00     0.002 C 
BRANCH  32  33
ATOM     33  C   UNL A   1      33.375  33.934  28.878  1.00  0.00     0.021 C 
BRANCH  33  34
ATOM     34  C   UNL A   1      33.526  35.357  29.403  1.00  0.00     0.116 C 
BRANCH  34  35
ATOM     35  N   UNL A   1      32.608  35.652  30.491  1.00  0.00    -0.352 N 
ATOM     36  C   UNL A   1      32.715  35.352  31.826  1.00  0.00     0.251 C 
ATOM     37  H   UNL A   1      31.791  36.137  30.232  1.00  0.00     0.163 HD
ATOM     38  O   UNL A   1      31.772  35.547  32.586  1.00  0.00    -0.269 OA
BRANCH  36  39
ATOM     39  C   UNL A   1      33.965  34.757  32.344  1.00  0.00     0.039 A 
ATOM     40  C   UNL A   1      35.163  35.473  32.307  1.00  0.00     0.014 A 
ATOM     41  C   UNL A   1      33.938  33.455  32.851  1.00  0.00     0.014 A 
ATOM     42  C   UNL A   1      36.356  34.834  32.625  1.00  0.00     0.010 A 
ATOM     43  C   UNL A   1      35.129  32.840  33.246  1.00  0.00     0.010 A 
ATOM     44  C   UNL A   1      36.353  33.508  33.090  1.00  0.00    -0.014 A 
BRANCH  44  45
ATOM     45  C   UNL A   1      37.644  32.837  33.392  1.00  0.00     0.031 A 
ATOM     46  C   UNL A   1      38.345  33.075  34.700  1.00  0.00     0.074 A 
ATOM     47  C   UNL A   1      38.150  31.960  32.507  1.00  0.00     0.049 A 
ATOM     48  N   UNL A   1      39.456  32.550  35.149  1.00  0.00    -0.248 NA
ATOM     49  C   UNL A   1      37.716  34.030  35.627  1.00  0.00     0.031 C 
ATOM     50  C   UNL A   1      37.550  31.631  31.214  1.00  0.00     0.029 A 
ATOM     51  N   UNL A   1      39.261  31.159  32.572  1.00  0.00    -0.354 N 
ATOM     52  C   UNL A   1      39.667  33.115  36.400  1.00  0.00     0.074 A 
ATOM     53  C   UNL A   1      38.588  34.052  36.627  1.00  0.00     0.031 C 
ATOM     54  C   UNL A   1      38.261  30.653  30.636  1.00  0.00     0.029 A 
ATOM     55  C   UNL A   1      39.401  30.328  31.488  1.00  0.00     0.049 A 
ATOM     56  H   UNL A   1      39.898  31.178  33.323  1.00  0.00     0.167 HD
ATOM     57  C   UNL A   1      40.661  32.863  37.285  1.00  0.00     0.037 A 
ATOM     58  C   UNL A   1      40.343  29.408  31.210  1.00  0.00     0.037 A 
ATOM     59  C   UNL A   1      41.728  31.922  37.063  1.00  0.00     0.049 A 
ATOM     60  C   UNL A   1      41.468  29.192  32.179  1.00  0.00     0.074 A 
ATOM     61  C   UNL A   1      42.776  31.589  37.904  1.00  0.00     0.029 A 
ATOM     62  N   UNL A   1      41.882  31.159  35.914  1.00  0.00    -0.354 N 
ATOM     63  N   UNL A   1      41.660  29.737  33.354  1.00  0.00    -0.248 NA
ATOM     64  C   UNL A   1      42.515  28.244  31.775  1.00  0.00     0.031 C 
ATOM     65  C   UNL A   1      43.586  30.657  37.247  1.00  0.00     0.029 A 
ATOM     66  C   UNL A   1      43.019  30.374  36.015  1.00  0.00     0.049 A 
ATOM     67  H   UNL A   1      41.271  31.174  35.141  1.00  0.00     0.167 HD
ATOM     68  C   UNL A   1      42.844  29.200  33.835  1.00  0.00     0.074 A 
ATOM     69  C   UNL A   1      43.317  28.266  32.832  1.00  0.00     0.031 C 
ATOM     70  C   UNL A   1      43.484  29.460  35.002  1.00  0.00     0.037 A 
BRANCH  57  71
ATOM     71  C   UNL A   1      40.649  33.631  38.576  1.00  0.00     0.064 A 
ATOM     72  C   UNL A   1      39.838  33.241  39.654  1.00  0.00     0.173 A 
ATOM     73  C   UNL A   1      41.481  34.746  38.751  1.00  0.00     0.173 A 
ATOM     74  F   UNL A   1      39.015  32.189  39.533  1.00  0.00    -0.203 F 
ATOM     75  C   UNL A   1      39.841  33.958  40.848  1.00  0.00     0.198 A 
ATOM     76  C   UNL A   1      41.501  35.445  39.956  1.00  0.00     0.198 A 
ATOM     77  F   UNL A   1      42.281  35.156  37.756  1.00  0.00    -0.203 F 
ATOM     78  F   UNL A   1      39.023  33.595  41.847  1.00  0.00    -0.200 F 
ATOM     79  C   UNL A   1      40.676  35.054  41.001  1.00  0.00     0.200 A 
ATOM     80  F   UNL A   1      42.316  36.497  40.106  1.00  0.00    -0.200 F 
ATOM     81  F   UNL A   1      40.679  35.741  42.152  1.00  0.00    -0.200 F 
ENDBRANCH  57  71
BRANCH  58  82
ATOM     82  C   UNL A   1      40.232  28.615  29.960  1.00  0.00     0.064 A 
ATOM     83  C   UNL A   1      40.840  29.057  28.779  1.00  0.00     0.173 A 
ATOM     84  C   UNL A   1      39.580  27.374  29.938  1.00  0.00     0.173 A 
ATOM     85  F   UNL A   1      41.460  30.246  28.748  1.00  0.00    -0.203 F 
ATOM     86  C   UNL A   1      40.808  28.280  27.622  1.00  0.00     0.198 A 
ATOM     87  C   UNL A   1      39.568  26.588  28.789  1.00  0.00     0.198 A 
ATOM     88  F   UNL A   1      38.986  26.908  31.047  1.00  0.00    -0.203 F 
ATOM     89  F   UNL A   1      41.388  28.730  26.500  1.00  0.00    -0.200 F 
ATOM     90  C   UNL A   1      40.183  27.042  27.631  1.00  0.00     0.200 A 
ATOM     91  F   UNL A   1      38.979  25.386  28.807  1.00  0.00    -0.200 F 
ATOM     92  F   UNL A   1      40.175  26.285  26.526  1.00  0.00    -0.200 F 
ENDBRANCH  58  82
BRANCH  70  93
ATOM     93  C   UNL A   1      44.767  28.729  35.262  1.00  0.00     0.064 A 
ATOM     94  C   UNL A   1      46.005  29.283  34.907  1.00  0.00     0.173 A 
ATOM     95  C   UNL A   1      44.763  27.493  35.926  1.00  0.00     0.173 A 
ATOM     96  F   UNL A   1      46.058  30.455  34.256  1.00  0.00    -0.203 F 
ATOM     97  C   UNL A   1      47.194  28.620  35.198  1.00  0.00     0.198 A 
ATOM     98  C   UNL A   1      45.955  26.845  36.237  1.00  0.00     0.198 A 
ATOM     99  F   UNL A   1      43.604  26.925  36.291  1.00  0.00    -0.203 F 
ATOM    100  F   UNL A   1      48.366  29.152  34.821  1.00  0.00    -0.200 F 
ATOM    101  C   UNL A   1      47.169  27.406  35.869  1.00  0.00     0.200 A 
ATOM    102  F   UNL A   1      45.929  25.678  36.897  1.00  0.00    -0.200 F 
ATOM    103  F   UNL A   1      48.315  26.775  36.159  1.00  0.00    -0.200 F 
ENDBRANCH  70  93
ENDBRANCH  44  45
ENDBRANCH  36  39
ENDBRANCH  34  35
ENDBRANCH  33  34
ENDBRANCH  32  33
ENDBRANCH   1  32
TORSDOF 16
ENDMDL
