MODEL 1
REMARK VINA RESULT:     -12.3      0.000      0.000
REMARK SMILES C[C@@H]1CN(C(=O)NC[C@@H]2CC[C@H](C(=O)NCCCCCCNC(=O)c3ccc(-c4c5nc(c(-c6c(F)c(F)c(F)c(F)c6F)c6ccc([nH]6)c(-c6c(F)c(F)c(F)c(F)c6F)c6nc(c(-c7c(F)c(F)c(F)c(F)c7F)c7ccc4[nH]7)C=C6)C=C5)cc3)O2)CC(C)(C)O1
REMARK SMILES IDX 18 1 17 2 16 3 15 4 13 5 14 6 12 8 9 9 10 10 88 11 11 12
REMARK SMILES IDX 8 13 7 14 5 15 6 16 4 18 1 19 2 20 3 21 93 22 90 23 89 24
REMARK SMILES IDX 91 25 92 26 19 27 20 28 21 29 22 30 23 31 24 33 25 34 26 35
REMARK SMILES IDX 87 36 27 37 86 38 28 39 29 40 30 41 80 42 31 43 85 44 79 45
REMARK SMILES IDX 81 46 32 47 84 48 78 49 77 50 33 52 65 53 45 54 64 55 46 56
REMARK SMILES IDX 49 57 63 58 82 59 47 60 48 61 62 63 83 64 50 65 34 66 35 67
REMARK SMILES IDX 43 68 36 69 37 70 41 71 44 72 38 73 39 74 42 75 40 76 66 77
REMARK SMILES IDX 67 78 75 79 68 80 69 81 73 82 76 83 70 84 71 85 74 86 72 87
REMARK SMILES IDX 51 88 52 89 60 90 53 91 54 92 58 93 61 94 55 95 56 96 59 97
REMARK SMILES IDX 57 98
REMARK H PARENT 15 7 7 17 22 32 81 51 49 62
REMARK Flexibility Score: inf
ROOT
ATOM      1  C   UNL A   1      32.488  30.001  26.553  1.00  0.00     0.002 C 
ENDROOT
BRANCH   1   2
ATOM      2  C   UNL A   1      32.003  28.741  27.268  1.00  0.00     0.021 C 
BRANCH   2   3
ATOM      3  C   UNL A   1      32.187  27.467  26.453  1.00  0.00     0.116 C 
BRANCH   3   4
ATOM      4  N   UNL A   1      31.274  26.418  26.838  1.00  0.00    -0.354 N 
ATOM      5  C   UNL A   1      30.434  25.682  26.048  1.00  0.00     0.249 C 
ATOM      6  O   UNL A   1      29.738  24.820  26.593  1.00  0.00    -0.272 OA
ATOM      7  H   UNL A   1      31.251  26.204  27.799  1.00  0.00     0.163 HD
BRANCH   5   8
ATOM      8  C   UNL A   1      30.328  25.941  24.528  1.00  0.00     0.207 C 
ATOM      9  C   UNL A   1      31.845  26.161  22.750  1.00  0.00     0.138 C 
ATOM     10  C   UNL A   1      31.460  27.577  23.148  1.00  0.00     0.037 C 
ATOM     11  O   UNL A   1      31.365  25.295  23.794  1.00  0.00    -0.363 OA
ATOM     12  C   UNL A   1      30.329  27.411  24.141  1.00  0.00     0.045 C 
BRANCH   9  13
ATOM     13  C   UNL A   1      33.366  25.958  22.612  1.00  0.00     0.149 C 
BRANCH  13  14
ATOM     14  N   UNL A   1      33.947  25.622  23.903  1.00  0.00    -0.335 N 
ATOM     15  C   UNL A   1      34.558  24.620  24.535  1.00  0.00     0.317 C 
ATOM     16  O   UNL A   1      34.775  24.832  25.734  1.00  0.00    -0.249 OA
ATOM     17  H   UNL A   1      33.861  26.391  24.511  1.00  0.00     0.165 HD
BRANCH  15  18
ATOM     18  N   UNL A   1      34.948  23.468  23.940  1.00  0.00    -0.319 N 
ATOM     19  C   UNL A   1      37.545  22.817  25.558  1.00  0.00     0.040 C 
ATOM     20  C   UNL A   1      36.965  22.139  24.316  1.00  0.00     0.135 C 
ATOM     21  C   UNL A   1      36.228  23.089  23.361  1.00  0.00     0.153 C 
ATOM     22  O   UNL A   1      36.157  20.997  24.651  1.00  0.00    -0.369 OA
ATOM     23  C   UNL A   1      34.779  21.245  25.018  1.00  0.00     0.081 C 
ATOM     24  C   UNL A   1      34.092  22.293  24.104  1.00  0.00     0.156 C 
ATOM     25  C   UNL A   1      34.673  21.636  26.498  1.00  0.00     0.044 C 
ATOM     26  C   UNL A   1      34.074  19.895  24.822  1.00  0.00     0.044 C 
ENDBRANCH  15  18
ENDBRANCH  13  14
ENDBRANCH   9  13
ENDBRANCH   5   8
ENDBRANCH   3   4
ENDBRANCH   2   3
ENDBRANCH   1   2
BRANCH   1  27
ATOM     27  C   UNL A   1      31.379  30.856  25.925  1.00  0.00     0.002 C 
BRANCH  27  28
ATOM     28  C   UNL A   1      31.248  32.283  26.470  1.00  0.00     0.021 C 
BRANCH  28  29
ATOM     29  C   UNL A   1      32.476  32.805  27.211  1.00  0.00     0.116 C 
BRANCH  29  30
ATOM     30  N   UNL A   1      32.330  34.197  27.605  1.00  0.00    -0.352 N 
ATOM     31  C   UNL A   1      32.977  34.910  28.581  1.00  0.00     0.251 C 
ATOM     32  H   UNL A   1      31.663  34.706  27.091  1.00  0.00     0.163 HD
ATOM     33  O   UNL A   1      32.577  36.026  28.892  1.00  0.00    -0.269 OA
BRANCH  31  34
ATOM     34  C   UNL A   1      34.153  34.337  29.268  1.00  0.00     0.039 A 
ATOM     35  C   UNL A   1      33.957  33.616  30.449  1.00  0.00     0.014 A 
ATOM     36  C   UNL A   1      35.446  34.542  28.777  1.00  0.00     0.014 A 
ATOM     37  C   UNL A   1      35.051  33.057  31.112  1.00  0.00     0.010 A 
ATOM     38  C   UNL A   1      36.529  33.928  29.401  1.00  0.00     0.010 A 
ATOM     39  C   UNL A   1      36.344  33.186  30.577  1.00  0.00    -0.014 A 
BRANCH  39  40
ATOM     40  C   UNL A   1      37.513  32.559  31.242  1.00  0.00     0.031 A 
ATOM     41  C   UNL A   1      38.255  31.438  30.569  1.00  0.00     0.074 A 
ATOM     42  C   UNL A   1      37.871  32.961  32.477  1.00  0.00     0.049 A 
ATOM     43  N   UNL A   1      39.252  30.718  31.016  1.00  0.00    -0.248 NA
ATOM     44  C   UNL A   1      37.794  31.055  29.225  1.00  0.00     0.031 C 
ATOM     45  C   UNL A   1      37.205  34.011  33.248  1.00  0.00     0.029 A 
ATOM     46  N   UNL A   1      38.877  32.528  33.303  1.00  0.00    -0.354 N 
ATOM     47  C   UNL A   1      39.530  29.795  30.017  1.00  0.00     0.074 A 
ATOM     48  C   UNL A   1      38.561  30.008  28.963  1.00  0.00     0.031 C 
ATOM     49  C   UNL A   1      37.833  34.155  34.427  1.00  0.00     0.029 A 
ATOM     50  C   UNL A   1      38.920  33.186  34.508  1.00  0.00     0.049 A 
ATOM     51  H   UNL A   1      39.508  31.814  33.056  1.00  0.00     0.167 HD
ATOM     52  C   UNL A   1      40.520  28.871  29.970  1.00  0.00     0.037 A 
ATOM     53  C   UNL A   1      39.741  33.019  35.563  1.00  0.00     0.037 A 
ATOM     54  C   UNL A   1      41.497  28.678  31.010  1.00  0.00     0.049 A 
ATOM     55  C   UNL A   1      40.825  31.978  35.489  1.00  0.00     0.074 A 
ATOM     56  C   UNL A   1      42.568  27.804  31.038  1.00  0.00     0.029 A 
ATOM     57  N   UNL A   1      41.518  29.376  32.210  1.00  0.00    -0.354 N 
ATOM     58  N   UNL A   1      41.117  31.152  34.514  1.00  0.00    -0.248 NA
ATOM     59  C   UNL A   1      41.701  31.853  36.663  1.00  0.00     0.031 C 
ATOM     60  C   UNL A   1      43.212  27.939  32.273  1.00  0.00     0.029 A 
ATOM     61  C   UNL A   1      42.573  28.935  32.993  1.00  0.00     0.049 A 
ATOM     62  H   UNL A   1      40.878  30.079  32.467  1.00  0.00     0.167 HD
ATOM     63  C   UNL A   1      42.225  30.433  34.941  1.00  0.00     0.074 A 
ATOM     64  C   UNL A   1      42.562  30.930  36.258  1.00  0.00     0.031 C 
ATOM     65  C   UNL A   1      42.901  29.449  34.299  1.00  0.00     0.037 A 
BRANCH  52  66
ATOM     66  C   UNL A   1      40.598  27.998  28.750  1.00  0.00     0.064 A 
ATOM     67  C   UNL A   1      39.907  26.779  28.673  1.00  0.00     0.173 A 
ATOM     68  C   UNL A   1      41.343  28.400  27.631  1.00  0.00     0.173 A 
ATOM     69  F   UNL A   1      39.191  26.342  29.720  1.00  0.00    -0.203 F 
ATOM     70  C   UNL A   1      39.985  25.980  27.535  1.00  0.00     0.198 A 
ATOM     71  C   UNL A   1      41.392  27.615  26.482  1.00  0.00     0.198 A 
ATOM     72  F   UNL A   1      42.018  29.560  27.648  1.00  0.00    -0.203 F 
ATOM     73  F   UNL A   1      39.360  24.796  27.505  1.00  0.00    -0.200 F 
ATOM     74  C   UNL A   1      40.721  26.402  26.438  1.00  0.00     0.200 A 
ATOM     75  F   UNL A   1      42.093  28.029  25.417  1.00  0.00    -0.200 F 
ATOM     76  F   UNL A   1      40.789  25.636  25.340  1.00  0.00    -0.200 F 
ENDBRANCH  52  66
BRANCH  53  77
ATOM     77  C   UNL A   1      39.586  33.874  36.768  1.00  0.00     0.064 A 
ATOM     78  C   UNL A   1      38.811  33.449  37.856  1.00  0.00     0.173 A 
ATOM     79  C   UNL A   1      40.198  35.132  36.856  1.00  0.00     0.173 A 
ATOM     80  F   UNL A   1      38.189  32.261  37.811  1.00  0.00    -0.203 F 
ATOM     81  C   UNL A   1      38.635  34.259  38.976  1.00  0.00     0.198 A 
ATOM     82  C   UNL A   1      40.046  35.930  37.989  1.00  0.00     0.198 A 
ATOM     83  F   UNL A   1      40.955  35.584  35.844  1.00  0.00    -0.203 F 
ATOM     84  F   UNL A   1      37.849  33.848  39.980  1.00  0.00    -0.200 F 
ATOM     85  C   UNL A   1      39.257  35.496  39.044  1.00  0.00     0.200 A 
ATOM     86  F   UNL A   1      40.659  37.119  38.054  1.00  0.00    -0.200 F 
ATOM     87  F   UNL A   1      39.089  36.274  40.120  1.00  0.00    -0.200 F 
ENDBRANCH  53  77
BRANCH  65  88
ATOM     88  C   UNL A   1      44.099  28.872  34.996  1.00  0.00     0.064 A 
ATOM     89  C   UNL A   1      43.997  27.751  35.832  1.00  0.00     0.173 A 
ATOM     90  C   UNL A   1      45.372  29.427  34.794  1.00  0.00     0.173 A 
ATOM     91  F   UNL A   1      42.800  27.192  36.070  1.00  0.00    -0.203 F 
ATOM     92  C   UNL A   1      45.121  27.224  36.463  1.00  0.00     0.198 A 
ATOM     93  C   UNL A   1      46.498  28.879  35.401  1.00  0.00     0.198 A 
ATOM     94  F   UNL A   1      45.525  30.496  33.997  1.00  0.00    -0.203 F 
ATOM     95  F   UNL A   1      44.992  26.183  37.297  1.00  0.00    -0.200 F 
ATOM     96  C   UNL A   1      46.371  27.783  36.240  1.00  0.00     0.200 A 
ATOM     97  F   UNL A   1      47.707  29.412  35.173  1.00  0.00    -0.200 F 
ATOM     98  F   UNL A   1      47.453  27.270  36.843  1.00  0.00    -0.200 F 
ENDBRANCH  65  88
ENDBRANCH  39  40
ENDBRANCH  31  34
ENDBRANCH  29  30
ENDBRANCH  28  29
ENDBRANCH  27  28
ENDBRANCH   1  27
TORSDOF 16
ENDMDL
MODEL 2
REMARK VINA RESULT:     -12.3      1.762      7.589
REMARK SMILES C[C@@H]1CN(C(=O)NC[C@@H]2CC[C@H](C(=O)NCCCCCCNC(=O)c3ccc(-c4c5nc(c(-c6c(F)c(F)c(F)c(F)c6F)c6ccc([nH]6)c(-c6c(F)c(F)c(F)c(F)c6F)c6nc(c(-c7c(F)c(F)c(F)c(F)c7F)c7ccc4[nH]7)C=C6)C=C5)cc3)O2)CC(C)(C)O1
REMARK SMILES IDX 18 1 17 2 16 3 15 4 13 5 14 6 12 8 9 9 10 10 88 11 11 12
REMARK SMILES IDX 8 13 7 14 5 15 6 16 4 18 1 19 2 20 3 21 93 22 90 23 89 24
REMARK SMILES IDX 91 25 92 26 19 27 20 28 21 29 22 30 23 31 24 33 25 34 26 35
REMARK SMILES IDX 87 36 27 37 86 38 28 39 29 40 30 41 80 42 31 43 85 44 79 45
REMARK SMILES IDX 81 46 32 47 84 48 78 49 77 50 33 52 65 53 45 54 64 55 46 56
REMARK SMILES IDX 49 57 63 58 82 59 47 60 48 61 62 63 83 64 50 65 34 66 35 67
REMARK SMILES IDX 43 68 36 69 37 70 41 71 44 72 38 73 39 74 42 75 40 76 66 77
REMARK SMILES IDX 67 78 75 79 68 80 69 81 73 82 76 83 70 84 71 85 74 86 72 87
REMARK SMILES IDX 51 88 52 89 60 90 53 91 54 92 58 93 61 94 55 95 56 96 59 97
REMARK SMILES IDX 57 98
REMARK H PARENT 15 7 7 17 22 32 81 51 49 62
REMARK Flexibility Score: inf
ROOT
ATOM      1  C   UNL A   1      34.541  32.862  29.271  1.00  0.00     0.002 C 
ENDROOT
BRANCH   1   2
ATOM      2  C   UNL A   1      34.884  31.814  28.214  1.00  0.00     0.021 C 
BRANCH   2   3
ATOM      3  C   UNL A   1      33.663  31.126  27.617  1.00  0.00     0.116 C 
BRANCH   3   4
ATOM      4  N   UNL A   1      33.806  29.691  27.551  1.00  0.00    -0.354 N 
ATOM      5  C   UNL A   1      33.411  28.837  26.557  1.00  0.00     0.249 C 
ATOM      6  O   UNL A   1      33.643  27.634  26.706  1.00  0.00    -0.272 OA
ATOM      7  H   UNL A   1      34.246  29.270  28.324  1.00  0.00     0.163 HD
BRANCH   5   8
ATOM      8  C   UNL A   1      32.665  29.352  25.305  1.00  0.00     0.207 C 
ATOM      9  C   UNL A   1      30.966  28.535  23.906  1.00  0.00     0.138 C 
ATOM     10  C   UNL A   1      32.273  28.269  23.175  1.00  0.00     0.037 C 
ATOM     11  O   UNL A   1      31.315  28.899  25.254  1.00  0.00    -0.363 OA
ATOM     12  C   UNL A   1      33.329  28.990  23.987  1.00  0.00     0.045 C 
BRANCH   9  13
ATOM     13  C   UNL A   1      30.036  27.308  23.958  1.00  0.00     0.149 C 
BRANCH  13  14
ATOM     14  N   UNL A   1      30.406  26.445  25.070  1.00  0.00    -0.335 N 
ATOM     15  C   UNL A   1      31.189  25.405  25.358  1.00  0.00     0.317 C 
ATOM     16  O   UNL A   1      31.049  24.967  26.507  1.00  0.00    -0.249 OA
ATOM     17  H   UNL A   1      29.917  26.723  25.878  1.00  0.00     0.165 HD
BRANCH  15  18
ATOM     18  N   UNL A   1      32.091  24.869  24.502  1.00  0.00    -0.319 N 
ATOM     19  C   UNL A   1      34.146  23.629  26.509  1.00  0.00     0.040 C 
ATOM     20  C   UNL A   1      34.218  23.766  24.987  1.00  0.00     0.135 C 
ATOM     21  C   UNL A   1      33.535  25.025  24.432  1.00  0.00     0.153 C 
ATOM     22  O   UNL A   1      33.761  22.578  24.315  1.00  0.00    -0.369 OA
ATOM     23  C   UNL A   1      32.334  22.435  24.120  1.00  0.00     0.081 C 
ATOM     24  C   UNL A   1      31.653  23.752  23.665  1.00  0.00     0.156 C 
ATOM     25  C   UNL A   1      31.669  21.865  25.379  1.00  0.00     0.044 C 
ATOM     26  C   UNL A   1      32.197  21.404  22.990  1.00  0.00     0.044 C 
ENDBRANCH  15  18
ENDBRANCH  13  14
ENDBRANCH   9  13
ENDBRANCH   5   8
ENDBRANCH   3   4
ENDBRANCH   2   3
ENDBRANCH   1   2
BRANCH   1  27
ATOM     27  C   UNL A   1      34.461  34.304  28.751  1.00  0.00     0.002 C 
BRANCH  27  28
ATOM     28  C   UNL A   1      33.135  35.030  29.001  1.00  0.00     0.021 C 
BRANCH  28  29
ATOM     29  C   UNL A   1      33.258  36.367  29.727  1.00  0.00     0.116 C 
BRANCH  29  30
ATOM     30  N   UNL A   1      32.424  36.426  30.916  1.00  0.00    -0.352 N 
ATOM     31  C   UNL A   1      32.541  35.761  32.109  1.00  0.00     0.251 C 
ATOM     32  H   UNL A   1      31.656  37.038  30.854  1.00  0.00     0.163 HD
ATOM     33  O   UNL A   1      31.625  35.798  32.924  1.00  0.00    -0.269 OA
BRANCH  31  34
ATOM     34  C   UNL A   1      33.763  34.991  32.418  1.00  0.00     0.039 A 
ATOM     35  C   UNL A   1      35.006  35.608  32.252  1.00  0.00     0.014 A 
ATOM     36  C   UNL A   1      33.690  33.657  32.829  1.00  0.00     0.014 A 
ATOM     37  C   UNL A   1      36.175  34.903  32.545  1.00  0.00     0.010 A 
ATOM     38  C   UNL A   1      34.853  32.977  33.186  1.00  0.00     0.010 A 
ATOM     39  C   UNL A   1      36.106  33.591  33.041  1.00  0.00    -0.014 A 
BRANCH  39  40
ATOM     40  C   UNL A   1      37.336  32.843  33.404  1.00  0.00     0.031 A 
ATOM     41  C   UNL A   1      38.055  33.146  34.688  1.00  0.00     0.074 A 
ATOM     42  C   UNL A   1      37.837  31.932  32.547  1.00  0.00     0.049 A 
ATOM     43  N   UNL A   1      39.178  32.653  35.146  1.00  0.00    -0.248 NA
ATOM     44  C   UNL A   1      37.444  34.161  35.562  1.00  0.00     0.031 C 
ATOM     45  C   UNL A   1      37.252  31.579  31.253  1.00  0.00     0.029 A 
ATOM     46  N   UNL A   1      38.956  31.143  32.633  1.00  0.00    -0.354 N 
ATOM     47  C   UNL A   1      39.412  33.303  36.351  1.00  0.00     0.074 A 
ATOM     48  C   UNL A   1      38.345  34.265  36.527  1.00  0.00     0.031 C 
ATOM     49  C   UNL A   1      38.005  30.629  30.675  1.00  0.00     0.029 A 
ATOM     50  C   UNL A   1      39.143  30.333  31.539  1.00  0.00     0.049 A 
ATOM     51  H   UNL A   1      39.567  31.155  33.405  1.00  0.00     0.167 HD
ATOM     52  C   UNL A   1      40.411  33.097  37.243  1.00  0.00     0.037 A 
ATOM     53  C   UNL A   1      40.127  29.457  31.263  1.00  0.00     0.037 A 
ATOM     54  C   UNL A   1      41.457  32.122  37.074  1.00  0.00     0.049 A 
ATOM     55  C   UNL A   1      41.231  29.255  32.265  1.00  0.00     0.074 A 
ATOM     56  C   UNL A   1      42.487  31.802  37.941  1.00  0.00     0.029 A 
ATOM     57  N   UNL A   1      41.604  31.308  35.960  1.00  0.00    -0.354 N 
ATOM     58  N   UNL A   1      41.410  29.830  33.429  1.00  0.00    -0.248 NA
ATOM     59  C   UNL A   1      42.268  28.273  31.917  1.00  0.00     0.031 C 
ATOM     60  C   UNL A   1      43.284  30.827  37.331  1.00  0.00     0.029 A 
ATOM     61  C   UNL A   1      42.721  30.501  36.109  1.00  0.00     0.049 A 
ATOM     62  H   UNL A   1      41.004  31.305  35.179  1.00  0.00     0.167 HD
ATOM     63  C   UNL A   1      42.556  29.261  33.966  1.00  0.00     0.074 A 
ATOM     64  C   UNL A   1      43.025  28.284  33.005  1.00  0.00     0.031 C 
ATOM     65  C   UNL A   1      43.166  29.525  35.147  1.00  0.00     0.037 A 
BRANCH  52  66
ATOM     66  C   UNL A   1      40.419  33.942  38.485  1.00  0.00     0.064 A 
ATOM     67  C   UNL A   1      41.126  35.153  38.544  1.00  0.00     0.173 A 
ATOM     68  C   UNL A   1      39.684  33.556  39.615  1.00  0.00     0.173 A 
ATOM     69  F   UNL A   1      41.854  35.562  37.495  1.00  0.00    -0.203 F 
ATOM     70  C   UNL A   1      41.122  35.930  39.701  1.00  0.00     0.198 A 
ATOM     71  C   UNL A   1      39.656  34.351  40.759  1.00  0.00     0.198 A 
ATOM     72  F   UNL A   1      38.986  32.410  39.610  1.00  0.00    -0.203 F 
ATOM     73  F   UNL A   1      41.846  37.055  39.753  1.00  0.00    -0.200 F 
ATOM     74  C   UNL A   1      40.382  35.531  40.804  1.00  0.00     0.200 A 
ATOM     75  F   UNL A   1      38.930  33.972  41.819  1.00  0.00    -0.200 F 
ATOM     76  F   UNL A   1      40.373  36.284  41.913  1.00  0.00    -0.200 F 
ENDBRANCH  52  66
BRANCH  53  77
ATOM     77  C   UNL A   1      40.099  28.684  29.994  1.00  0.00     0.064 A 
ATOM     78  C   UNL A   1      39.494  27.421  29.934  1.00  0.00     0.173 A 
ATOM     79  C   UNL A   1      40.682  29.184  28.821  1.00  0.00     0.173 A 
ATOM     80  F   UNL A   1      38.941  26.892  31.036  1.00  0.00    -0.203 F 
ATOM     81  C   UNL A   1      39.493  26.677  28.756  1.00  0.00     0.198 A 
ATOM     82  C   UNL A   1      40.655  28.452  27.635  1.00  0.00     0.198 A 
ATOM     83  F   UNL A   1      41.270  30.390  28.823  1.00  0.00    -0.203 F 
ATOM     84  F   UNL A   1      38.951  25.453  28.741  1.00  0.00    -0.200 F 
ATOM     85  C   UNL A   1      40.069  27.195  27.606  1.00  0.00     0.200 A 
ATOM     86  F   UNL A   1      41.202  28.963  26.523  1.00  0.00    -0.200 F 
ATOM     87  F   UNL A   1      40.067  26.481  26.473  1.00  0.00    -0.200 F 
ENDBRANCH  53  77
BRANCH  65  88
ATOM     88  C   UNL A   1      44.386  28.716  35.486  1.00  0.00     0.064 A 
ATOM     89  C   UNL A   1      44.295  27.495  36.167  1.00  0.00     0.173 A 
ATOM     90  C   UNL A   1      45.658  29.156  35.090  1.00  0.00     0.173 A 
ATOM     91  F   UNL A   1      43.102  27.038  36.580  1.00  0.00    -0.203 F 
ATOM     92  C   UNL A   1      45.436  26.755  36.465  1.00  0.00     0.198 A 
ATOM     93  C   UNL A   1      46.795  28.399  35.362  1.00  0.00     0.198 A 
ATOM     94  F   UNL A   1      45.799  30.315  34.430  1.00  0.00    -0.203 F 
ATOM     95  F   UNL A   1      45.330  25.614  37.160  1.00  0.00    -0.200 F 
ATOM     96  C   UNL A   1      46.684  27.203  36.054  1.00  0.00     0.200 A 
ATOM     97  F   UNL A   1      47.997  28.827  34.953  1.00  0.00    -0.200 F 
ATOM     98  F   UNL A   1      47.781  26.486  36.336  1.00  0.00    -0.200 F 
ENDBRANCH  65  88
ENDBRANCH  39  40
ENDBRANCH  31  34
ENDBRANCH  29  30
ENDBRANCH  28  29
ENDBRANCH  27  28
ENDBRANCH   1  27
TORSDOF 16
ENDMDL
MODEL 3
REMARK VINA RESULT:     -12.2      1.705      7.787
REMARK SMILES C[C@@H]1CN(C(=O)NC[C@@H]2CC[C@H](C(=O)NCCCCCCNC(=O)c3ccc(-c4c5nc(c(-c6c(F)c(F)c(F)c(F)c6F)c6ccc([nH]6)c(-c6c(F)c(F)c(F)c(F)c6F)c6nc(c(-c7c(F)c(F)c(F)c(F)c7F)c7ccc4[nH]7)C=C6)C=C5)cc3)O2)CC(C)(C)O1
REMARK SMILES IDX 18 1 17 2 16 3 15 4 13 5 14 6 12 8 9 9 10 10 88 11 11 12
REMARK SMILES IDX 8 13 7 14 5 15 6 16 4 18 1 19 2 20 3 21 93 22 90 23 89 24
REMARK SMILES IDX 91 25 92 26 19 27 20 28 21 29 22 30 23 31 24 33 25 34 26 35
REMARK SMILES IDX 87 36 27 37 86 38 28 39 29 40 30 41 80 42 31 43 85 44 79 45
REMARK SMILES IDX 81 46 32 47 84 48 78 49 77 50 33 52 65 53 45 54 64 55 46 56
REMARK SMILES IDX 49 57 63 58 82 59 47 60 48 61 62 63 83 64 50 65 34 66 35 67
REMARK SMILES IDX 43 68 36 69 37 70 41 71 44 72 38 73 39 74 42 75 40 76 66 77
REMARK SMILES IDX 67 78 75 79 68 80 69 81 73 82 76 83 70 84 71 85 74 86 72 87
REMARK SMILES IDX 51 88 52 89 60 90 53 91 54 92 58 93 61 94 55 95 56 96 59 97
REMARK SMILES IDX 57 98
REMARK H PARENT 15 7 7 17 22 32 81 51 49 62
REMARK Flexibility Score: inf
ROOT
ATOM      1  C   UNL A   1      35.055  33.420  29.008  1.00  0.00     0.002 C 
ENDROOT
BRANCH   1   2
ATOM      2  C   UNL A   1      35.687  32.410  28.053  1.00  0.00     0.021 C 
BRANCH   2   3
ATOM      3  C   UNL A   1      34.861  31.144  27.867  1.00  0.00     0.116 C 
BRANCH   3   4
ATOM      4  N   UNL A   1      33.541  31.408  27.346  1.00  0.00    -0.354 N 
ATOM      5  C   UNL A   1      32.602  30.516  26.907  1.00  0.00     0.249 C 
ATOM      6  O   UNL A   1      31.524  30.965  26.505  1.00  0.00    -0.272 OA
ATOM      7  H   UNL A   1      33.283  32.356  27.299  1.00  0.00     0.163 HD
BRANCH   5   8
ATOM      8  C   UNL A   1      32.887  28.997  26.877  1.00  0.00     0.207 C 
ATOM      9  C   UNL A   1      32.412  27.225  25.412  1.00  0.00     0.138 C 
ATOM     10  C   UNL A   1      31.376  27.138  26.523  1.00  0.00     0.037 C 
ATOM     11  O   UNL A   1      33.059  28.503  25.552  1.00  0.00    -0.363 OA
ATOM     12  C   UNL A   1      31.827  28.146  27.559  1.00  0.00     0.045 C 
BRANCH   9  13
ATOM     13  C   UNL A   1      31.803  27.140  24.001  1.00  0.00     0.149 C 
BRANCH  13  14
ATOM     14  N   UNL A   1      32.511  26.146  23.207  1.00  0.00    -0.335 N 
ATOM     15  C   UNL A   1      33.321  25.097  23.344  1.00  0.00     0.317 C 
ATOM     16  O   UNL A   1      33.738  24.634  22.275  1.00  0.00    -0.249 OA
ATOM     17  H   UNL A   1      32.330  26.300  22.252  1.00  0.00     0.165 HD
BRANCH  15  18
ATOM     18  N   UNL A   1      33.655  24.541  24.533  1.00  0.00    -0.319 N 
ATOM     19  C   UNL A   1      33.349  21.499  23.870  1.00  0.00     0.040 C 
ATOM     20  C   UNL A   1      33.617  22.192  25.207  1.00  0.00     0.135 C 
ATOM     21  C   UNL A   1      32.951  23.568  25.352  1.00  0.00     0.153 C 
ATOM     22  O   UNL A   1      35.022  22.251  25.513  1.00  0.00    -0.369 OA
ATOM     23  C   UNL A   1      35.782  23.336  24.929  1.00  0.00     0.081 C 
ATOM     24  C   UNL A   1      35.036  24.695  24.991  1.00  0.00     0.156 C 
ATOM     25  C   UNL A   1      36.205  22.992  23.495  1.00  0.00     0.044 C 
ATOM     26  C   UNL A   1      37.045  23.437  25.796  1.00  0.00     0.044 C 
ENDBRANCH  15  18
ENDBRANCH  13  14
ENDBRANCH   9  13
ENDBRANCH   5   8
ENDBRANCH   3   4
ENDBRANCH   2   3
ENDBRANCH   1   2
BRANCH   1  27
ATOM     27  C   UNL A   1      34.580  34.724  28.352  1.00  0.00     0.002 C 
BRANCH  27  28
ATOM     28  C   UNL A   1      33.238  35.271  28.851  1.00  0.00     0.021 C 
BRANCH  28  29
ATOM     29  C   UNL A   1      33.338  36.495  29.757  1.00  0.00     0.116 C 
BRANCH  29  30
ATOM     30  N   UNL A   1      32.429  36.418  30.889  1.00  0.00    -0.352 N 
ATOM     31  C   UNL A   1      32.496  35.650  32.023  1.00  0.00     0.251 C 
ATOM     32  H   UNL A   1      31.643  37.007  30.831  1.00  0.00     0.163 HD
ATOM     33  O   UNL A   1      31.530  35.582  32.776  1.00  0.00    -0.269 OA
BRANCH  31  34
ATOM     34  C   UNL A   1      33.726  34.896  32.342  1.00  0.00     0.039 A 
ATOM     35  C   UNL A   1      34.960  35.537  32.214  1.00  0.00     0.014 A 
ATOM     36  C   UNL A   1      33.668  33.552  32.725  1.00  0.00     0.014 A 
ATOM     37  C   UNL A   1      36.136  34.847  32.518  1.00  0.00     0.010 A 
ATOM     38  C   UNL A   1      34.835  32.886  33.092  1.00  0.00     0.010 A 
ATOM     39  C   UNL A   1      36.079  33.524  32.986  1.00  0.00    -0.014 A 
BRANCH  39  40
ATOM     40  C   UNL A   1      37.314  32.791  33.360  1.00  0.00     0.031 A 
ATOM     41  C   UNL A   1      38.022  33.106  34.648  1.00  0.00     0.074 A 
ATOM     42  C   UNL A   1      37.831  31.882  32.510  1.00  0.00     0.049 A 
ATOM     43  N   UNL A   1      39.147  32.627  35.115  1.00  0.00    -0.248 NA
ATOM     44  C   UNL A   1      37.394  34.118  35.514  1.00  0.00     0.031 C 
ATOM     45  C   UNL A   1      37.258  31.519  31.213  1.00  0.00     0.029 A 
ATOM     46  N   UNL A   1      38.958  31.105  32.606  1.00  0.00    -0.354 N 
ATOM     47  C   UNL A   1      39.366  33.283  36.319  1.00  0.00     0.074 A 
ATOM     48  C   UNL A   1      38.288  34.235  36.485  1.00  0.00     0.031 C 
ATOM     49  C   UNL A   1      38.026  30.575  30.643  1.00  0.00     0.029 A 
ATOM     50  C   UNL A   1      39.161  30.293  31.516  1.00  0.00     0.049 A 
ATOM     51  H   UNL A   1      39.563  31.127  33.382  1.00  0.00     0.167 HD
ATOM     52  C   UNL A   1      40.362  33.091  37.218  1.00  0.00     0.037 A 
ATOM     53  C   UNL A   1      40.156  29.427  31.250  1.00  0.00     0.037 A 
ATOM     54  C   UNL A   1      41.419  32.127  37.060  1.00  0.00     0.049 A 
ATOM     55  C   UNL A   1      41.255  29.240  32.260  1.00  0.00     0.074 A 
ATOM     56  C   UNL A   1      42.447  31.821  37.934  1.00  0.00     0.029 A 
ATOM     57  N   UNL A   1      41.582  31.311  35.949  1.00  0.00    -0.354 N 
ATOM     58  N   UNL A   1      41.420  29.822  33.423  1.00  0.00    -0.248 NA
ATOM     59  C   UNL A   1      42.305  28.268  31.922  1.00  0.00     0.031 C 
ATOM     60  C   UNL A   1      43.258  30.852  37.334  1.00  0.00     0.029 A 
ATOM     61  C   UNL A   1      42.706  30.516  36.109  1.00  0.00     0.049 A 
ATOM     62  H   UNL A   1      40.987  31.299  35.165  1.00  0.00     0.167 HD
ATOM     63  C   UNL A   1      42.569  29.267  33.969  1.00  0.00     0.074 A 
ATOM     64  C   UNL A   1      43.054  28.291  33.016  1.00  0.00     0.031 C 
ATOM     65  C   UNL A   1      43.169  29.541  35.153  1.00  0.00     0.037 A 
BRANCH  52  66
ATOM     66  C   UNL A   1      40.352  33.941  38.457  1.00  0.00     0.064 A 
ATOM     67  C   UNL A   1      41.044  35.161  38.516  1.00  0.00     0.173 A 
ATOM     68  C   UNL A   1      39.616  33.550  39.585  1.00  0.00     0.173 A 
ATOM     69  F   UNL A   1      41.773  35.575  37.469  1.00  0.00    -0.203 F 
ATOM     70  C   UNL A   1      41.024  35.942  39.670  1.00  0.00     0.198 A 
ATOM     71  C   UNL A   1      39.572  34.349  40.725  1.00  0.00     0.198 A 
ATOM     72  F   UNL A   1      38.932  32.396  39.580  1.00  0.00    -0.203 F 
ATOM     73  F   UNL A   1      41.734  37.076  39.721  1.00  0.00    -0.200 F 
ATOM     74  C   UNL A   1      40.283  35.538  40.769  1.00  0.00     0.200 A 
ATOM     75  F   UNL A   1      38.845  33.965  41.783  1.00  0.00    -0.200 F 
ATOM     76  F   UNL A   1      40.259  36.294  41.876  1.00  0.00    -0.200 F 
ENDBRANCH  52  66
BRANCH  53  77
ATOM     77  C   UNL A   1      40.145  28.649  29.983  1.00  0.00     0.064 A 
ATOM     78  C   UNL A   1      40.745  29.157  28.823  1.00  0.00     0.173 A 
ATOM     79  C   UNL A   1      39.530  27.392  29.902  1.00  0.00     0.173 A 
ATOM     80  F   UNL A   1      41.328  30.365  28.846  1.00  0.00    -0.203 F 
ATOM     81  C   UNL A   1      40.711  28.448  27.624  1.00  0.00     0.198 A 
ATOM     82  C   UNL A   1      39.522  26.670  28.710  1.00  0.00     0.198 A 
ATOM     83  F   UNL A   1      38.946  26.858  30.986  1.00  0.00    -0.203 F 
ATOM     84  F   UNL A   1      41.250  28.981  26.519  1.00  0.00    -0.200 F 
ATOM     85  C   UNL A   1      40.104  27.203  27.570  1.00  0.00     0.200 A 
ATOM     86  F   UNL A   1      38.945  25.461  28.666  1.00  0.00    -0.200 F 
ATOM     87  F   UNL A   1      40.072  26.521  26.418  1.00  0.00    -0.200 F 
ENDBRANCH  53  77
BRANCH  65  88
ATOM     88  C   UNL A   1      44.394  28.747  35.503  1.00  0.00     0.064 A 
ATOM     89  C   UNL A   1      45.679  29.180  35.149  1.00  0.00     0.173 A 
ATOM     90  C   UNL A   1      44.280  27.555  36.235  1.00  0.00     0.173 A 
ATOM     91  F   UNL A   1      45.841  30.306  34.435  1.00  0.00    -0.203 F 
ATOM     92  C   UNL A   1      46.805  28.435  35.490  1.00  0.00     0.198 A 
ATOM     93  C   UNL A   1      45.410  26.829  36.602  1.00  0.00     0.198 A 
ATOM     94  F   UNL A   1      43.073  27.101  36.605  1.00  0.00    -0.203 F 
ATOM     95  F   UNL A   1      48.020  28.842  35.098  1.00  0.00    -0.200 F 
ATOM     96  C   UNL A   1      46.670  27.264  36.223  1.00  0.00     0.200 A 
ATOM     97  F   UNL A   1      45.278  25.706  37.323  1.00  0.00    -0.200 F 
ATOM     98  F   UNL A   1      47.755  26.552  36.557  1.00  0.00    -0.200 F 
ENDBRANCH  65  88
ENDBRANCH  39  40
ENDBRANCH  31  34
ENDBRANCH  29  30
ENDBRANCH  28  29
ENDBRANCH  27  28
ENDBRANCH   1  27
TORSDOF 16
ENDMDL
