MODEL 1
REMARK VINA RESULT:     -10.8      0.000      0.000
REMARK SMILES CCCc1nsc(N2CCO[C@H](CC(=O)NCCCCCCNC(=O)c3ccc(-c4c5nc(c(-c6c(F)c(F)c(F)c(F)c6F)c6ccc([nH]6)c(-c6c(F)c(F)c(F)c(F)c6F)c6nc(c(-c7c(F)c(F)c(F)c(F)c7F)c7ccc4[nH]7)C=C6)C=C5)cc3)C2)n1
REMARK SMILES IDX 18 1 17 2 16 3 14 4 15 5 13 7 12 8 8 9 9 10 89 11 10 12
REMARK SMILES IDX 11 13 7 14 4 15 5 16 90 17 6 18 3 19 2 20 1 21 19 22 20 23
REMARK SMILES IDX 21 24 22 25 23 26 24 27 25 29 26 30 27 31 88 32 28 33 87 34
REMARK SMILES IDX 29 35 30 36 31 37 81 38 32 39 86 40 80 41 82 42 33 43 85 44
REMARK SMILES IDX 79 45 78 46 34 48 66 49 46 50 65 51 47 52 50 53 64 54 83 55
REMARK SMILES IDX 48 56 49 57 63 59 84 60 51 61 35 62 36 63 44 64 37 65 38 66
REMARK SMILES IDX 42 67 45 68 39 69 40 70 43 71 41 72 67 73 68 74 76 75 69 76
REMARK SMILES IDX 70 77 74 78 77 79 71 80 72 81 75 82 73 83 52 84 53 85 61 86
REMARK SMILES IDX 54 87 55 88 59 89 62 90 56 91 57 92 60 93 58 94
REMARK H PARENT 16 6 23 28 82 47 50 58
REMARK Flexibility Score: inf
ROOT
ATOM      1  C   UNL A   1      39.562  23.119  26.513  1.00  0.00     0.021 C 
ENDROOT
BRANCH   1   2
ATOM      2  C   UNL A   1      38.133  23.633  26.316  1.00  0.00     0.116 C 
BRANCH   2   3
ATOM      3  N   UNL A   1      37.720  23.544  24.928  1.00  0.00    -0.356 N 
ATOM      4  C   UNL A   1      36.822  22.711  24.334  1.00  0.00     0.222 C 
ATOM      5  O   UNL A   1      36.674  22.782  23.112  1.00  0.00    -0.275 OA
ATOM      6  H   UNL A   1      38.157  24.185  24.322  1.00  0.00     0.163 HD
BRANCH   4   7
ATOM      7  C   UNL A   1      36.032  21.709  25.147  1.00  0.00     0.133 C 
BRANCH   7   8
ATOM      8  C   UNL A   1      35.068  22.440  26.087  1.00  0.00     0.147 C 
ATOM      9  N   UNL A   1      32.937  21.191  25.790  1.00  0.00    -0.342 N 
ATOM     10  C   UNL A   1      32.325  22.364  25.175  1.00  0.00     0.147 C 
ATOM     11  C   UNL A   1      34.017  21.491  26.731  1.00  0.00     0.151 C 
ATOM     12  C   UNL A   1      33.408  23.211  24.513  1.00  0.00     0.182 C 
ATOM     13  O   UNL A   1      34.441  23.574  25.445  1.00  0.00    -0.374 OA
BRANCH   9  14
ATOM     14  C   UNL A   1      32.762  19.964  25.236  1.00  0.00     0.205 A 
ATOM     15  C   UNL A   1      32.587  17.771  25.020  1.00  0.00     0.144 A 
ATOM     16  N   UNL A   1      32.382  18.023  23.726  1.00  0.00    -0.174 NA
ATOM     17  N   UNL A   1      32.833  18.824  25.895  1.00  0.00    -0.203 NA
ATOM     18  S   UNL A   1      32.465  19.676  23.550  1.00  0.00     0.004 S 
BRANCH  15  19
ATOM     19  C   UNL A   1      32.459  16.379  25.545  1.00  0.00     0.078 C 
BRANCH  19  20
ATOM     20  C   UNL A   1      33.623  15.453  25.189  1.00  0.00     0.005 C 
ATOM     21  C   UNL A   1      34.962  16.173  25.142  1.00  0.00     0.004 C 
ENDBRANCH  19  20
ENDBRANCH  15  19
ENDBRANCH   9  14
ENDBRANCH   7   8
ENDBRANCH   4   7
ENDBRANCH   2   3
ENDBRANCH   1   2
BRANCH   1  22
ATOM     22  C   UNL A   1      39.686  21.598  26.377  1.00  0.00     0.002 C 
BRANCH  22  23
ATOM     23  C   UNL A   1      41.119  21.059  26.462  1.00  0.00     0.002 C 
BRANCH  23  24
ATOM     24  C   UNL A   1      41.298  19.588  26.074  1.00  0.00     0.021 C 
BRANCH  24  25
ATOM     25  C   UNL A   1      42.646  18.974  26.446  1.00  0.00     0.116 C 
BRANCH  25  26
ATOM     26  N   UNL A   1      43.480  18.732  25.280  1.00  0.00    -0.352 N 
ATOM     27  C   UNL A   1      44.211  19.599  24.508  1.00  0.00     0.251 C 
ATOM     28  H   UNL A   1      43.529  17.789  24.998  1.00  0.00     0.163 HD
ATOM     29  O   UNL A   1      44.680  19.215  23.441  1.00  0.00    -0.269 OA
BRANCH  27  30
ATOM     30  C   UNL A   1      44.436  20.996  24.941  1.00  0.00     0.039 A 
ATOM     31  C   UNL A   1      43.961  22.033  24.131  1.00  0.00     0.014 A 
ATOM     32  C   UNL A   1      45.165  21.292  26.096  1.00  0.00     0.014 A 
ATOM     33  C   UNL A   1      44.173  23.362  24.503  1.00  0.00     0.010 A 
ATOM     34  C   UNL A   1      45.322  22.617  26.499  1.00  0.00     0.010 A 
ATOM     35  C   UNL A   1      44.835  23.666  25.703  1.00  0.00    -0.014 A 
BRANCH  35  36
ATOM     36  C   UNL A   1      45.031  25.073  26.136  1.00  0.00     0.031 A 
ATOM     37  C   UNL A   1      46.390  25.711  26.047  1.00  0.00     0.074 A 
ATOM     38  C   UNL A   1      44.000  25.753  26.672  1.00  0.00     0.049 A 
ATOM     39  N   UNL A   1      46.775  26.898  26.442  1.00  0.00    -0.248 NA
ATOM     40  C   UNL A   1      47.466  24.895  25.462  1.00  0.00     0.031 C 
ATOM     41  C   UNL A   1      42.646  25.228  26.858  1.00  0.00     0.029 A 
ATOM     42  N   UNL A   1      43.932  27.029  27.173  1.00  0.00    -0.354 N 
ATOM     43  C   UNL A   1      48.136  26.963  26.176  1.00  0.00     0.074 A 
ATOM     44  C   UNL A   1      48.520  25.683  25.620  1.00  0.00     0.031 C 
ATOM     45  C   UNL A   1      41.880  26.175  27.422  1.00  0.00     0.029 A 
ATOM     46  C   UNL A   1      42.695  27.362  27.666  1.00  0.00     0.049 A 
ATOM     47  H   UNL A   1      44.698  27.647  27.178  1.00  0.00     0.167 HD
ATOM     48  C   UNL A   1      48.984  28.003  26.363  1.00  0.00     0.037 A 
ATOM     49  C   UNL A   1      42.267  28.495  28.257  1.00  0.00     0.037 A 
ATOM     50  C   UNL A   1      48.589  29.290  26.874  1.00  0.00     0.049 A 
ATOM     51  C   UNL A   1      43.225  29.642  28.427  1.00  0.00     0.074 A 
ATOM     52  C   UNL A   1      49.357  30.433  27.017  1.00  0.00     0.029 A 
ATOM     53  N   UNL A   1      47.317  29.603  27.326  1.00  0.00    -0.354 N 
ATOM     54  N   UNL A   1      44.490  29.720  28.095  1.00  0.00    -0.248 NA
ATOM     55  C   UNL A   1      42.691  30.865  29.044  1.00  0.00     0.031 C 
ATOM     56  C   UNL A   1      48.559  31.426  27.595  1.00  0.00     0.029 A 
ATOM     57  C   UNL A   1      47.283  30.916  27.770  1.00  0.00     0.049 A 
ATOM     58  H   UNL A   1      46.550  28.984  27.331  1.00  0.00     0.167 HD
ATOM     59  C   UNL A   1      44.897  31.003  28.435  1.00  0.00     0.074 A 
ATOM     60  C   UNL A   1      43.739  31.675  28.986  1.00  0.00     0.031 C 
ATOM     61  C   UNL A   1      46.119  31.573  28.304  1.00  0.00     0.037 A 
BRANCH  48  62
ATOM     62  C   UNL A   1      50.428  27.799  26.011  1.00  0.00     0.064 A 
ATOM     63  C   UNL A   1      50.900  27.973  24.701  1.00  0.00     0.173 A 
ATOM     64  C   UNL A   1      51.363  27.481  27.008  1.00  0.00     0.173 A 
ATOM     65  F   UNL A   1      50.046  28.269  23.710  1.00  0.00    -0.203 F 
ATOM     66  C   UNL A   1      52.250  27.814  24.399  1.00  0.00     0.198 A 
ATOM     67  C   UNL A   1      52.716  27.350  26.707  1.00  0.00     0.198 A 
ATOM     68  F   UNL A   1      50.966  27.310  28.278  1.00  0.00    -0.203 F 
ATOM     69  F   UNL A   1      52.672  27.946  23.134  1.00  0.00    -0.200 F 
ATOM     70  C   UNL A   1      53.158  27.511  25.403  1.00  0.00     0.200 A 
ATOM     71  F   UNL A   1      53.593  27.069  27.682  1.00  0.00    -0.200 F 
ATOM     72  F   UNL A   1      54.458  27.369  25.112  1.00  0.00    -0.200 F 
ENDBRANCH  48  62
BRANCH  49  73
ATOM     73  C   UNL A   1      40.858  28.608  28.715  1.00  0.00     0.064 A 
ATOM     74  C   UNL A   1      40.498  28.265  30.026  1.00  0.00     0.173 A 
ATOM     75  C   UNL A   1      39.843  29.046  27.853  1.00  0.00     0.173 A 
ATOM     76  F   UNL A   1      41.430  27.821  30.882  1.00  0.00    -0.203 F 
ATOM     77  C   UNL A   1      39.172  28.330  30.448  1.00  0.00     0.198 A 
ATOM     78  C   UNL A   1      38.523  29.138  28.284  1.00  0.00     0.198 A 
ATOM     79  F   UNL A   1      40.138  29.392  26.591  1.00  0.00    -0.203 F 
ATOM     80  F   UNL A   1      38.847  27.948  31.690  1.00  0.00    -0.200 F 
ATOM     81  C   UNL A   1      38.186  28.771  29.579  1.00  0.00     0.200 A 
ATOM     82  F   UNL A   1      37.575  29.578  27.445  1.00  0.00    -0.200 F 
ATOM     83  F   UNL A   1      36.911  28.834  29.984  1.00  0.00    -0.200 F 
ENDBRANCH  49  73
BRANCH  61  84
ATOM     84  C   UNL A   1      46.258  33.005  28.729  1.00  0.00     0.064 A 
ATOM     85  C   UNL A   1      46.643  33.351  30.033  1.00  0.00     0.173 A 
ATOM     86  C   UNL A   1      46.035  34.042  27.811  1.00  0.00     0.173 A 
ATOM     87  F   UNL A   1      46.851  32.395  30.951  1.00  0.00    -0.203 F 
ATOM     88  C   UNL A   1      46.776  34.685  30.407  1.00  0.00     0.198 A 
ATOM     89  C   UNL A   1      46.198  35.374  28.182  1.00  0.00     0.198 A 
ATOM     90  F   UNL A   1      45.671  33.762  26.550  1.00  0.00    -0.203 F 
ATOM     91  F   UNL A   1      47.099  34.995  31.671  1.00  0.00    -0.200 F 
ATOM     92  C   UNL A   1      46.559  35.694  29.481  1.00  0.00     0.200 A 
ATOM     93  F   UNL A   1      46.000  36.347  27.282  1.00  0.00    -0.200 F 
ATOM     94  F   UNL A   1      46.693  36.978  29.843  1.00  0.00    -0.200 F 
ENDBRANCH  61  84
ENDBRANCH  35  36
ENDBRANCH  27  30
ENDBRANCH  25  26
ENDBRANCH  24  25
ENDBRANCH  23  24
ENDBRANCH  22  23
ENDBRANCH   1  22
TORSDOF 17
ENDMDL
MODEL 2
REMARK VINA RESULT:     -10.8      6.166     10.826
REMARK SMILES CCCc1nsc(N2CCO[C@H](CC(=O)NCCCCCCNC(=O)c3ccc(-c4c5nc(c(-c6c(F)c(F)c(F)c(F)c6F)c6ccc([nH]6)c(-c6c(F)c(F)c(F)c(F)c6F)c6nc(c(-c7c(F)c(F)c(F)c(F)c7F)c7ccc4[nH]7)C=C6)C=C5)cc3)C2)n1
REMARK SMILES IDX 18 1 17 2 16 3 14 4 15 5 13 7 12 8 8 9 9 10 89 11 10 12
REMARK SMILES IDX 11 13 7 14 4 15 5 16 90 17 6 18 3 19 2 20 1 21 19 22 20 23
REMARK SMILES IDX 21 24 22 25 23 26 24 27 25 29 26 30 27 31 88 32 28 33 87 34
REMARK SMILES IDX 29 35 30 36 31 37 81 38 32 39 86 40 80 41 82 42 33 43 85 44
REMARK SMILES IDX 79 45 78 46 34 48 66 49 46 50 65 51 47 52 50 53 64 54 83 55
REMARK SMILES IDX 48 56 49 57 63 59 84 60 51 61 35 62 36 63 44 64 37 65 38 66
REMARK SMILES IDX 42 67 45 68 39 69 40 70 43 71 41 72 67 73 68 74 76 75 69 76
REMARK SMILES IDX 70 77 74 78 77 79 71 80 72 81 75 82 73 83 52 84 53 85 61 86
REMARK SMILES IDX 54 87 55 88 59 89 62 90 56 91 57 92 60 93 58 94
REMARK H PARENT 16 6 23 28 82 47 50 58
REMARK Flexibility Score: inf
ROOT
ATOM      1  C   UNL A   1      31.970  28.880  27.354  1.00  0.00     0.021 C 
ENDROOT
BRANCH   1   2
ATOM      2  C   UNL A   1      32.059  27.502  26.690  1.00  0.00     0.116 C 
BRANCH   2   3
ATOM      3  N   UNL A   1      30.815  26.766  26.821  1.00  0.00    -0.356 N 
ATOM      4  C   UNL A   1      30.483  25.524  26.377  1.00  0.00     0.222 C 
ATOM      5  O   UNL A   1      29.332  25.122  26.558  1.00  0.00    -0.275 OA
ATOM      6  H   UNL A   1      30.101  27.239  27.306  1.00  0.00     0.163 HD
BRANCH   4   7
ATOM      7  C   UNL A   1      31.496  24.656  25.661  1.00  0.00     0.133 C 
BRANCH   7   8
ATOM      8  C   UNL A   1      31.289  24.748  24.146  1.00  0.00     0.147 C 
ATOM      9  N   UNL A   1      33.060  23.253  23.242  1.00  0.00    -0.342 N 
ATOM     10  C   UNL A   1      33.737  24.401  22.646  1.00  0.00     0.147 C 
ATOM     11  C   UNL A   1      31.616  23.418  23.409  1.00  0.00     0.151 C 
ATOM     12  C   UNL A   1      33.418  25.654  23.457  1.00  0.00     0.182 C 
ATOM     13  O   UNL A   1      32.000  25.867  23.569  1.00  0.00    -0.374 OA
BRANCH   9  14
ATOM     14  C   UNL A   1      33.778  22.315  23.912  1.00  0.00     0.205 A 
ATOM     15  C   UNL A   1      35.489  21.174  24.723  1.00  0.00     0.144 A 
ATOM     16  N   UNL A   1      34.563  20.389  25.278  1.00  0.00    -0.174 NA
ATOM     17  N   UNL A   1      35.094  22.244  23.927  1.00  0.00    -0.203 NA
ATOM     18  S   UNL A   1      33.086  21.010  24.826  1.00  0.00     0.004 S 
BRANCH  15  19
ATOM     19  C   UNL A   1      36.935  20.965  25.030  1.00  0.00     0.078 C 
BRANCH  19  20
ATOM     20  C   UNL A   1      37.698  22.238  25.400  1.00  0.00     0.005 C 
ATOM     21  C   UNL A   1      39.029  21.957  26.080  1.00  0.00     0.004 C 
ENDBRANCH  19  20
ENDBRANCH  15  19
ENDBRANCH   9  14
ENDBRANCH   7   8
ENDBRANCH   4   7
ENDBRANCH   2   3
ENDBRANCH   1   2
BRANCH   1  22
ATOM     22  C   UNL A   1      32.446  30.022  26.451  1.00  0.00     0.002 C 
BRANCH  22  23
ATOM     23  C   UNL A   1      31.330  30.923  25.909  1.00  0.00     0.002 C 
BRANCH  23  24
ATOM     24  C   UNL A   1      31.233  32.314  26.545  1.00  0.00     0.021 C 
BRANCH  24  25
ATOM     25  C   UNL A   1      32.516  32.824  27.197  1.00  0.00     0.116 C 
BRANCH  25  26
ATOM     26  N   UNL A   1      32.398  34.204  27.637  1.00  0.00    -0.352 N 
ATOM     27  C   UNL A   1      33.039  34.879  28.645  1.00  0.00     0.251 C 
ATOM     28  H   UNL A   1      31.752  34.745  27.127  1.00  0.00     0.163 HD
ATOM     29  O   UNL A   1      32.639  35.989  28.983  1.00  0.00    -0.269 OA
BRANCH  27  30
ATOM     30  C   UNL A   1      34.204  34.284  29.336  1.00  0.00     0.039 A 
ATOM     31  C   UNL A   1      33.978  33.484  30.461  1.00  0.00     0.014 A 
ATOM     32  C   UNL A   1      35.512  34.560  28.928  1.00  0.00     0.014 A 
ATOM     33  C   UNL A   1      35.059  32.922  31.146  1.00  0.00     0.010 A 
ATOM     34  C   UNL A   1      36.586  33.948  29.574  1.00  0.00     0.010 A 
ATOM     35  C   UNL A   1      36.371  33.130  30.694  1.00  0.00    -0.014 A 
BRANCH  35  36
ATOM     36  C   UNL A   1      37.528  32.506  31.384  1.00  0.00     0.031 A 
ATOM     37  C   UNL A   1      38.240  31.337  30.762  1.00  0.00     0.074 A 
ATOM     38  C   UNL A   1      37.893  32.949  32.602  1.00  0.00     0.049 A 
ATOM     39  N   UNL A   1      39.220  30.613  31.242  1.00  0.00    -0.248 NA
ATOM     40  C   UNL A   1      37.771  30.905  29.435  1.00  0.00     0.031 C 
ATOM     41  C   UNL A   1      37.250  34.043  33.332  1.00  0.00     0.029 A 
ATOM     42  N   UNL A   1      38.887  32.524  33.449  1.00  0.00    -0.354 N 
ATOM     43  C   UNL A   1      39.467  29.630  30.292  1.00  0.00     0.074 A 
ATOM     44  C   UNL A   1      38.511  29.826  29.224  1.00  0.00     0.031 C 
ATOM     45  C   UNL A   1      37.869  34.209  34.511  1.00  0.00     0.029 A 
ATOM     46  C   UNL A   1      38.933  33.216  34.634  1.00  0.00     0.049 A 
ATOM     47  H   UNL A   1      39.507  31.793  33.227  1.00  0.00     0.167 HD
ATOM     48  C   UNL A   1      40.417  28.665  30.304  1.00  0.00     0.037 A 
ATOM     49  C   UNL A   1      39.736  33.061  35.704  1.00  0.00     0.037 A 
ATOM     50  C   UNL A   1      41.395  28.502  31.347  1.00  0.00     0.049 A 
ATOM     51  C   UNL A   1      40.799  31.996  35.676  1.00  0.00     0.074 A 
ATOM     52  C   UNL A   1      42.452  27.609  31.407  1.00  0.00     0.029 A 
ATOM     53  N   UNL A   1      41.436  29.248  32.515  1.00  0.00    -0.354 N 
ATOM     54  N   UNL A   1      41.076  31.127  34.736  1.00  0.00    -0.248 NA
ATOM     55  C   UNL A   1      41.670  31.900  36.857  1.00  0.00     0.031 C 
ATOM     56  C   UNL A   1      43.107  27.787  32.630  1.00  0.00     0.029 A 
ATOM     57  C   UNL A   1      42.486  28.821  33.313  1.00  0.00     0.049 A 
ATOM     58  H   UNL A   1      40.811  29.974  32.744  1.00  0.00     0.167 HD
ATOM     59  C   UNL A   1      42.166  30.401  35.195  1.00  0.00     0.074 A 
ATOM     60  C   UNL A   1      42.510  30.941  36.494  1.00  0.00     0.031 C 
ATOM     61  C   UNL A   1      42.822  29.377  34.596  1.00  0.00     0.037 A 
BRANCH  48  62
ATOM     62  C   UNL A   1      40.452  27.705  29.151  1.00  0.00     0.064 A 
ATOM     63  C   UNL A   1      39.620  26.577  29.104  1.00  0.00     0.173 A 
ATOM     64  C   UNL A   1      41.290  27.949  28.051  1.00  0.00     0.173 A 
ATOM     65  F   UNL A   1      38.808  26.295  30.134  1.00  0.00    -0.203 F 
ATOM     66  C   UNL A   1      39.641  25.716  28.010  1.00  0.00     0.198 A 
ATOM     67  C   UNL A   1      41.288  27.101  26.947  1.00  0.00     0.198 A 
ATOM     68  F   UNL A   1      42.101  29.017  28.042  1.00  0.00    -0.203 F 
ATOM     69  F   UNL A   1      38.866  24.623  28.005  1.00  0.00    -0.200 F 
ATOM     70  C   UNL A   1      40.468  25.983  26.929  1.00  0.00     0.200 A 
ATOM     71  F   UNL A   1      42.079  27.368  25.898  1.00  0.00    -0.200 F 
ATOM     72  F   UNL A   1      40.479  25.159  25.872  1.00  0.00    -0.200 F 
ENDBRANCH  48  62
BRANCH  49  73
ATOM     73  C   UNL A   1      39.580  33.947  36.886  1.00  0.00     0.064 A 
ATOM     74  C   UNL A   1      38.826  33.541  37.996  1.00  0.00     0.173 A 
ATOM     75  C   UNL A   1      40.167  35.220  36.926  1.00  0.00     0.173 A 
ATOM     76  F   UNL A   1      38.228  32.341  37.996  1.00  0.00    -0.203 F 
ATOM     77  C   UNL A   1      38.643  34.386  39.088  1.00  0.00     0.198 A 
ATOM     78  C   UNL A   1      40.007  36.052  38.030  1.00  0.00     0.198 A 
ATOM     79  F   UNL A   1      40.903  35.652  35.891  1.00  0.00    -0.203 F 
ATOM     80  F   UNL A   1      37.875  33.993  40.115  1.00  0.00    -0.200 F 
ATOM     81  C   UNL A   1      39.237  35.638  39.108  1.00  0.00     0.200 A 
ATOM     82  F   UNL A   1      40.594  37.256  38.051  1.00  0.00    -0.200 F 
ATOM     83  F   UNL A   1      39.061  36.450  40.159  1.00  0.00    -0.200 F 
ENDBRANCH  49  73
BRANCH  61  84
ATOM     84  C   UNL A   1      44.002  28.800  35.322  1.00  0.00     0.064 A 
ATOM     85  C   UNL A   1      45.300  29.293  35.123  1.00  0.00     0.173 A 
ATOM     86  C   UNL A   1      43.825  27.765  36.251  1.00  0.00     0.173 A 
ATOM     87  F   UNL A   1      45.522  30.272  34.233  1.00  0.00    -0.203 F 
ATOM     88  C   UNL A   1      46.382  28.752  35.812  1.00  0.00     0.198 A 
ATOM     89  C   UNL A   1      44.906  27.247  36.960  1.00  0.00     0.198 A 
ATOM     90  F   UNL A   1      42.602  27.264  36.482  1.00  0.00    -0.203 F 
ATOM     91  F   UNL A   1      47.620  29.206  35.572  1.00  0.00    -0.200 F 
ATOM     92  C   UNL A   1      46.184  27.735  36.733  1.00  0.00     0.200 A 
ATOM     93  F   UNL A   1      44.711  26.272  37.858  1.00  0.00    -0.200 F 
ATOM     94  F   UNL A   1      47.226  27.219  37.399  1.00  0.00    -0.200 F 
ENDBRANCH  61  84
ENDBRANCH  35  36
ENDBRANCH  27  30
ENDBRANCH  25  26
ENDBRANCH  24  25
ENDBRANCH  23  24
ENDBRANCH  22  23
ENDBRANCH   1  22
TORSDOF 17
ENDMDL
MODEL 3
REMARK VINA RESULT:     -10.8      6.988     12.354
REMARK SMILES CCCc1nsc(N2CCO[C@H](CC(=O)NCCCCCCNC(=O)c3ccc(-c4c5nc(c(-c6c(F)c(F)c(F)c(F)c6F)c6ccc([nH]6)c(-c6c(F)c(F)c(F)c(F)c6F)c6nc(c(-c7c(F)c(F)c(F)c(F)c7F)c7ccc4[nH]7)C=C6)C=C5)cc3)C2)n1
REMARK SMILES IDX 18 1 17 2 16 3 14 4 15 5 13 7 12 8 8 9 9 10 89 11 10 12
REMARK SMILES IDX 11 13 7 14 4 15 5 16 90 17 6 18 3 19 2 20 1 21 19 22 20 23
REMARK SMILES IDX 21 24 22 25 23 26 24 27 25 29 26 30 27 31 88 32 28 33 87 34
REMARK SMILES IDX 29 35 30 36 31 37 81 38 32 39 86 40 80 41 82 42 33 43 85 44
REMARK SMILES IDX 79 45 78 46 34 48 66 49 46 50 65 51 47 52 50 53 64 54 83 55
REMARK SMILES IDX 48 56 49 57 63 59 84 60 51 61 35 62 36 63 44 64 37 65 38 66
REMARK SMILES IDX 42 67 45 68 39 69 40 70 43 71 41 72 67 73 68 74 76 75 69 76
REMARK SMILES IDX 70 77 74 78 77 79 71 80 72 81 75 82 73 83 52 84 53 85 61 86
REMARK SMILES IDX 54 87 55 88 59 89 62 90 56 91 57 92 60 93 58 94
REMARK H PARENT 16 6 23 28 82 47 50 58
REMARK Flexibility Score: inf
ROOT
ATOM      1  C   UNL A   1      34.646  31.657  28.403  1.00  0.00     0.021 C 
ENDROOT
BRANCH   1   2
ATOM      2  C   UNL A   1      33.725  31.059  27.336  1.00  0.00     0.116 C 
BRANCH   2   3
ATOM      3  N   UNL A   1      34.084  29.688  27.028  1.00  0.00    -0.356 N 
ATOM      4  C   UNL A   1      33.715  28.900  25.982  1.00  0.00     0.222 C 
ATOM      5  O   UNL A   1      34.106  27.731  25.959  1.00  0.00    -0.275 OA
ATOM      6  H   UNL A   1      34.689  29.260  27.677  1.00  0.00     0.163 HD
BRANCH   4   7
ATOM      7  C   UNL A   1      32.832  29.437  24.876  1.00  0.00     0.133 C 
BRANCH   7   8
ATOM      8  C   UNL A   1      31.371  29.059  25.141  1.00  0.00     0.147 C 
ATOM      9  N   UNL A   1      31.065  27.002  23.775  1.00  0.00    -0.342 N 
ATOM     10  C   UNL A   1      30.130  27.709  22.905  1.00  0.00     0.147 C 
ATOM     11  C   UNL A   1      31.135  27.522  25.142  1.00  0.00     0.151 C 
ATOM     12  C   UNL A   1      30.462  29.198  22.908  1.00  0.00     0.182 C 
ATOM     13  O   UNL A   1      30.465  29.738  24.241  1.00  0.00    -0.374 OA
BRANCH   9  14
ATOM     14  C   UNL A   1      32.027  26.210  23.237  1.00  0.00     0.205 A 
ATOM     15  C   UNL A   1      33.378  24.493  22.901  1.00  0.00     0.144 A 
ATOM     16  N   UNL A   1      33.856  25.207  21.881  1.00  0.00    -0.174 NA
ATOM     17  N   UNL A   1      32.376  25.028  23.704  1.00  0.00    -0.203 NA
ATOM     18  S   UNL A   1      33.005  26.637  21.867  1.00  0.00     0.004 S 
BRANCH  15  19
ATOM     19  C   UNL A   1      33.845  23.093  23.125  1.00  0.00     0.078 C 
BRANCH  19  20
ATOM     20  C   UNL A   1      35.294  22.972  23.599  1.00  0.00     0.005 C 
ATOM     21  C   UNL A   1      35.580  23.789  24.850  1.00  0.00     0.004 C 
ENDBRANCH  19  20
ENDBRANCH  15  19
ENDBRANCH   9  14
ENDBRANCH   7   8
ENDBRANCH   4   7
ENDBRANCH   2   3
ENDBRANCH   1   2
BRANCH   1  22
ATOM     22  C   UNL A   1      35.111  33.080  28.079  1.00  0.00     0.002 C 
BRANCH  22  23
ATOM     23  C   UNL A   1      34.817  34.119  29.168  1.00  0.00     0.002 C 
BRANCH  23  24
ATOM     24  C   UNL A   1      33.389  34.674  29.187  1.00  0.00     0.021 C 
BRANCH  24  25
ATOM     25  C   UNL A   1      33.263  36.137  29.605  1.00  0.00     0.116 C 
BRANCH  25  26
ATOM     26  N   UNL A   1      32.466  36.299  30.809  1.00  0.00    -0.352 N 
ATOM     27  C   UNL A   1      32.610  35.749  32.058  1.00  0.00     0.251 C 
ATOM     28  H   UNL A   1      31.694  36.903  30.714  1.00  0.00     0.163 HD
ATOM     29  O   UNL A   1      31.703  35.856  32.878  1.00  0.00    -0.269 OA
BRANCH  27  30
ATOM     30  C   UNL A   1      33.845  35.022  32.429  1.00  0.00     0.039 A 
ATOM     31  C   UNL A   1      33.742  33.679  32.809  1.00  0.00     0.014 A 
ATOM     32  C   UNL A   1      35.084  35.666  32.471  1.00  0.00     0.014 A 
ATOM     33  C   UNL A   1      34.887  32.971  33.182  1.00  0.00     0.010 A 
ATOM     34  C   UNL A   1      36.234  34.941  32.783  1.00  0.00     0.010 A 
ATOM     35  C   UNL A   1      36.146  33.589  33.149  1.00  0.00    -0.014 A 
BRANCH  35  36
ATOM     36  C   UNL A   1      37.379  32.839  33.500  1.00  0.00     0.031 A 
ATOM     37  C   UNL A   1      38.103  33.130  34.786  1.00  0.00     0.074 A 
ATOM     38  C   UNL A   1      37.882  31.943  32.630  1.00  0.00     0.049 A 
ATOM     39  N   UNL A   1      39.230  32.635  35.232  1.00  0.00    -0.248 NA
ATOM     40  C   UNL A   1      37.495  34.132  35.675  1.00  0.00     0.031 C 
ATOM     41  C   UNL A   1      37.299  31.608  31.329  1.00  0.00     0.029 A 
ATOM     42  N   UNL A   1      39.007  31.159  32.700  1.00  0.00    -0.354 N 
ATOM     43  C   UNL A   1      39.476  33.279  36.437  1.00  0.00     0.074 A 
ATOM     44  C   UNL A   1      38.402  34.229  36.636  1.00  0.00     0.031 C 
ATOM     45  C   UNL A   1      38.064  30.682  30.729  1.00  0.00     0.029 A 
ATOM     46  C   UNL A   1      39.207  30.381  31.588  1.00  0.00     0.049 A 
ATOM     47  H   UNL A   1      39.613  31.157  33.476  1.00  0.00     0.167 HD
ATOM     48  C   UNL A   1      40.497  33.083  37.306  1.00  0.00     0.037 A 
ATOM     49  C   UNL A   1      40.204  29.526  31.288  1.00  0.00     0.037 A 
ATOM     50  C   UNL A   1      41.539  32.106  37.126  1.00  0.00     0.049 A 
ATOM     51  C   UNL A   1      41.310  29.310  32.285  1.00  0.00     0.074 A 
ATOM     52  C   UNL A   1      42.566  31.773  37.992  1.00  0.00     0.029 A 
ATOM     53  N   UNL A   1      41.686  31.307  36.003  1.00  0.00    -0.354 N 
ATOM     54  N   UNL A   1      41.488  29.865  33.458  1.00  0.00    -0.248 NA
ATOM     55  C   UNL A   1      42.350  28.338  31.919  1.00  0.00     0.031 C 
ATOM     56  C   UNL A   1      43.360  30.800  37.374  1.00  0.00     0.029 A 
ATOM     57  C   UNL A   1      42.801  30.496  36.144  1.00  0.00     0.049 A 
ATOM     58  H   UNL A   1      41.086  31.314  35.221  1.00  0.00     0.167 HD
ATOM     59  C   UNL A   1      42.638  29.293  33.983  1.00  0.00     0.074 A 
ATOM     60  C   UNL A   1      43.110  28.335  33.005  1.00  0.00     0.031 C 
ATOM     61  C   UNL A   1      43.250  29.539  35.167  1.00  0.00     0.037 A 
BRANCH  48  62
ATOM     62  C   UNL A   1      40.541  33.940  38.537  1.00  0.00     0.064 A 
ATOM     63  C   UNL A   1      39.879  33.569  39.717  1.00  0.00     0.173 A 
ATOM     64  C   UNL A   1      41.303  35.119  38.554  1.00  0.00     0.173 A 
ATOM     65  F   UNL A   1      39.131  32.457  39.750  1.00  0.00    -0.203 F 
ATOM     66  C   UNL A   1      39.959  34.359  40.862  1.00  0.00     0.198 A 
ATOM     67  C   UNL A   1      41.403  35.891  39.708  1.00  0.00     0.198 A 
ATOM     68  F   UNL A   1      41.960  35.515  37.454  1.00  0.00    -0.203 F 
ATOM     69  F   UNL A   1      39.287  34.006  41.965  1.00  0.00    -0.200 F 
ATOM     70  C   UNL A   1      40.728  35.514  40.859  1.00  0.00     0.200 A 
ATOM     71  F   UNL A   1      42.156  37.000  39.706  1.00  0.00    -0.200 F 
ATOM     72  F   UNL A   1      40.812  36.267  41.964  1.00  0.00    -0.200 F 
ENDBRANCH  48  62
BRANCH  49  73
ATOM     73  C   UNL A   1      40.194  28.795  29.995  1.00  0.00     0.064 A 
ATOM     74  C   UNL A   1      39.535  27.564  29.870  1.00  0.00     0.173 A 
ATOM     75  C   UNL A   1      40.853  29.301  28.866  1.00  0.00     0.173 A 
ATOM     76  F   UNL A   1      38.908  27.029  30.927  1.00  0.00    -0.203 F 
ATOM     77  C   UNL A   1      39.558  26.855  28.671  1.00  0.00     0.198 A 
ATOM     78  C   UNL A   1      40.852  28.604  27.660  1.00  0.00     0.198 A 
ATOM     79  F   UNL A   1      41.494  30.477  28.933  1.00  0.00    -0.203 F 
ATOM     80  F   UNL A   1      38.963  25.657  28.592  1.00  0.00    -0.200 F 
ATOM     81  C   UNL A   1      40.212  27.377  27.566  1.00  0.00     0.200 A 
ATOM     82  F   UNL A   1      41.473  29.119  26.590  1.00  0.00    -0.200 F 
ATOM     83  F   UNL A   1      40.234  26.695  26.413  1.00  0.00    -0.200 F 
ENDBRANCH  49  73
BRANCH  61  84
ATOM     84  C   UNL A   1      44.475  28.734  35.487  1.00  0.00     0.064 A 
ATOM     85  C   UNL A   1      44.392  27.508  36.164  1.00  0.00     0.173 A 
ATOM     86  C   UNL A   1      45.742  29.179  35.082  1.00  0.00     0.173 A 
ATOM     87  F   UNL A   1      43.204  27.048  36.585  1.00  0.00    -0.203 F 
ATOM     88  C   UNL A   1      45.538  26.769  36.444  1.00  0.00     0.198 A 
ATOM     89  C   UNL A   1      46.882  28.423  35.339  1.00  0.00     0.198 A 
ATOM     90  F   UNL A   1      45.873  30.342  34.426  1.00  0.00    -0.203 F 
ATOM     91  F   UNL A   1      45.441  25.623  37.134  1.00  0.00    -0.200 F 
ATOM     92  C   UNL A   1      46.780  27.223  36.027  1.00  0.00     0.200 A 
ATOM     93  F   UNL A   1      48.080  28.857  34.925  1.00  0.00    -0.200 F 
ATOM     94  F   UNL A   1      47.881  26.507  36.294  1.00  0.00    -0.200 F 
ENDBRANCH  61  84
ENDBRANCH  35  36
ENDBRANCH  27  30
ENDBRANCH  25  26
ENDBRANCH  24  25
ENDBRANCH  23  24
ENDBRANCH  22  23
ENDBRANCH   1  22
TORSDOF 17
ENDMDL
