MODEL 1
REMARK VINA RESULT:     -13.1      0.000      0.000
REMARK SMILES CC(=O)N1CC2(CC[NH+](C3Cc4ccccc4C3)CC2)C[C@H]1C(=O)NCCCCCCNC(=O)c1ccc(-c2c3nc(c(-c4c(F)c(F)c(F)c(F)c4F)c4ccc([nH]4)c(-c4c(F)c(F)c(F)c(F)c4F)c4nc(c(-c5c(F)c(F)c(F)c(F)c5F)c5ccc2[nH]5)C=C4)C=C3)cc1
REMARK SMILES IDX 29 1 28 2 27 3 26 4 25 5 23 6 24 7 22 9 4 10 5 11 6 12 21 13
REMARK SMILES IDX 7 14 20 15 8 16 19 17 9 18 2 20 1 21 3 22 10 23 11 24 18 25
REMARK SMILES IDX 12 26 17 27 13 28 16 29 14 30 15 31 30 32 31 33 32 34 33 35
REMARK SMILES IDX 34 37 35 38 36 39 97 40 37 41 96 42 38 43 39 44 40 45 90 46
REMARK SMILES IDX 41 47 95 48 89 49 91 50 42 51 94 52 88 53 87 54 43 56 75 57
REMARK SMILES IDX 55 58 74 59 56 60 59 61 73 62 92 63 57 64 58 65 72 67 93 68
REMARK SMILES IDX 60 69 44 70 45 71 53 72 46 73 47 74 51 75 54 76 48 77 49 78
REMARK SMILES IDX 52 79 50 80 76 81 77 82 85 83 78 84 79 85 83 86 86 87 80 88
REMARK SMILES IDX 81 89 84 90 82 91 61 92 62 93 70 94 63 95 64 96 68 97 71 98
REMARK SMILES IDX 65 99 66 100 69 101 67 102
REMARK H PARENT 25 8 9 19 32 36 91 55 59 66
REMARK Flexibility Score: inf
ROOT
ATOM      1  C   UNL A   1      31.659  30.581  26.269  1.00  0.00     0.002 C 
ENDROOT
BRANCH   1   2
ATOM      2  C   UNL A   1      31.790  29.392  27.233  1.00  0.00     0.002 C 
BRANCH   2   3
ATOM      3  C   UNL A   1      32.510  28.157  26.692  1.00  0.00     0.021 C 
BRANCH   3   4
ATOM      4  C   UNL A   1      31.600  27.082  26.120  1.00  0.00     0.116 C 
BRANCH   4   5
ATOM      5  N   UNL A   1      30.700  27.483  25.077  1.00  0.00    -0.354 N 
ATOM      6  C   UNL A   1      30.659  27.005  23.795  1.00  0.00     0.242 C 
ATOM      7  O   UNL A   1      29.548  27.012  23.250  1.00  0.00    -0.273 OA
ATOM      8  H   UNL A   1      30.042  28.177  25.310  1.00  0.00     0.163 HD
BRANCH   6   9
ATOM      9  C   UNL A   1      31.867  26.308  23.088  1.00  0.00     0.175 C 
ATOM     10  N   UNL A   1      33.212  26.813  23.335  1.00  0.00    -0.330 N 
ATOM     11  C   UNL A   1      34.069  25.861  24.026  1.00  0.00     0.127 C 
ATOM     12  C   UNL A   1      33.333  24.503  24.009  1.00  0.00     0.001 C 
ATOM     13  C   UNL A   1      31.969  24.797  23.317  1.00  0.00     0.044 C 
ATOM     14  C   UNL A   1      33.076  23.889  25.406  1.00  0.00     0.070 C 
ATOM     15  C   UNL A   1      34.200  23.506  23.193  1.00  0.00     0.070 C 
ATOM     16  C   UNL A   1      34.351  23.448  26.103  1.00  0.00     0.263 C 
ATOM     17  C   UNL A   1      35.401  22.955  23.992  1.00  0.00     0.263 C 
ATOM     18  N   UNL A   1      35.089  22.452  25.336  1.00  0.00    -0.332 N 
ATOM     19  H   UNL A   1      35.966  22.336  25.844  1.00  0.00     0.348 HD
BRANCH  10  20
ATOM     20  C   UNL A   1      33.610  27.977  22.708  1.00  0.00     0.220 C 
ATOM     21  C   UNL A   1      33.583  29.237  23.532  1.00  0.00     0.114 C 
ATOM     22  O   UNL A   1      34.028  27.993  21.552  1.00  0.00    -0.275 OA
ENDBRANCH  10  20
BRANCH  18  23
ATOM     23  C   UNL A   1      34.597  21.055  25.378  1.00  0.00     0.192 C 
ATOM     24  C   UNL A   1      33.275  20.739  24.609  1.00  0.00     0.101 C 
ATOM     25  C   UNL A   1      35.583  19.908  25.024  1.00  0.00     0.101 C 
ATOM     26  C   UNL A   1      33.389  19.269  24.336  1.00  0.00    -0.039 A 
ATOM     27  C   UNL A   1      34.686  18.811  24.558  1.00  0.00    -0.039 A 
ATOM     28  C   UNL A   1      32.422  18.428  23.811  1.00  0.00     0.004 A 
ATOM     29  C   UNL A   1      35.055  17.511  24.251  1.00  0.00     0.004 A 
ATOM     30  C   UNL A   1      32.780  17.112  23.506  1.00  0.00     0.000 A 
ATOM     31  C   UNL A   1      34.089  16.658  23.722  1.00  0.00     0.000 A 
ENDBRANCH  18  23
ENDBRANCH   6   9
ENDBRANCH   4   5
ENDBRANCH   3   4
ENDBRANCH   2   3
ENDBRANCH   1   2
BRANCH   1  32
ATOM     32  C   UNL A   1      31.537  31.972  26.904  1.00  0.00     0.021 C 
BRANCH  32  33
ATOM     33  C   UNL A   1      32.805  32.823  26.886  1.00  0.00     0.116 C 
BRANCH  33  34
ATOM     34  N   UNL A   1      32.647  34.081  27.594  1.00  0.00    -0.352 N 
ATOM     35  C   UNL A   1      33.267  34.555  28.723  1.00  0.00     0.251 C 
ATOM     36  H   UNL A   1      31.987  34.695  27.200  1.00  0.00     0.163 HD
ATOM     37  O   UNL A   1      32.868  35.592  29.242  1.00  0.00    -0.269 OA
BRANCH  35  38
ATOM     38  C   UNL A   1      34.402  33.826  29.330  1.00  0.00     0.039 A 
ATOM     39  C   UNL A   1      35.701  34.258  29.045  1.00  0.00     0.014 A 
ATOM     40  C   UNL A   1      34.204  32.694  30.124  1.00  0.00     0.014 A 
ATOM     41  C   UNL A   1      36.796  33.587  29.592  1.00  0.00     0.010 A 
ATOM     42  C   UNL A   1      35.294  32.064  30.723  1.00  0.00     0.010 A 
ATOM     43  C   UNL A   1      36.600  32.499  30.457  1.00  0.00    -0.014 A 
BRANCH  43  44
ATOM     44  C   UNL A   1      37.752  31.795  31.075  1.00  0.00     0.031 A 
ATOM     45  C   UNL A   1      38.189  32.140  32.472  1.00  0.00     0.074 A 
ATOM     46  C   UNL A   1      38.438  30.885  30.358  1.00  0.00     0.049 A 
ATOM     47  N   UNL A   1      39.204  31.683  33.160  1.00  0.00    -0.248 NA
ATOM     48  C   UNL A   1      37.392  33.154  33.179  1.00  0.00     0.031 C 
ATOM     49  C   UNL A   1      38.137  30.493  28.981  1.00  0.00     0.029 A 
ATOM     50  N   UNL A   1      39.536  30.129  30.687  1.00  0.00    -0.354 N 
ATOM     51  C   UNL A   1      39.177  32.363  34.371  1.00  0.00     0.074 A 
ATOM     52  C   UNL A   1      38.078  33.301  34.305  1.00  0.00     0.031 C 
ATOM     53  C   UNL A   1      39.013  29.555  28.590  1.00  0.00     0.029 A 
ATOM     54  C   UNL A   1      39.959  29.303  29.674  1.00  0.00     0.049 A 
ATOM     55  H   UNL A   1      39.979  30.175  31.565  1.00  0.00     0.167 HD
ATOM     56  C   UNL A   1      39.981  32.202  35.449  1.00  0.00     0.037 A 
ATOM     57  C   UNL A   1      40.993  28.444  29.626  1.00  0.00     0.037 A 
ATOM     58  C   UNL A   1      41.058  31.250  35.521  1.00  0.00     0.049 A 
ATOM     59  C   UNL A   1      41.873  28.287  30.835  1.00  0.00     0.074 A 
ATOM     60  C   UNL A   1      41.897  30.971  36.586  1.00  0.00     0.029 A 
ATOM     61  N   UNL A   1      41.445  30.417  34.480  1.00  0.00    -0.354 N 
ATOM     62  N   UNL A   1      41.799  28.889  31.998  1.00  0.00    -0.248 NA
ATOM     63  C   UNL A   1      42.978  27.323  30.729  1.00  0.00     0.031 C 
ATOM     64  C   UNL A   1      42.818  30.001  36.177  1.00  0.00     0.029 A 
ATOM     65  C   UNL A   1      42.522  29.639  34.872  1.00  0.00     0.049 A 
ATOM     66  H   UNL A   1      41.018  30.385  33.594  1.00  0.00     0.167 HD
ATOM     67  C   UNL A   1      42.823  28.358  32.769  1.00  0.00     0.074 A 
ATOM     68  C   UNL A   1      43.497  27.374  31.947  1.00  0.00     0.031 C 
ATOM     69  C   UNL A   1      43.174  28.656  34.045  1.00  0.00     0.037 A 
BRANCH  56  70
ATOM     70  C   UNL A   1      39.725  33.078  36.642  1.00  0.00     0.064 A 
ATOM     71  C   UNL A   1      40.425  34.280  36.837  1.00  0.00     0.173 A 
ATOM     72  C   UNL A   1      38.751  32.727  37.589  1.00  0.00     0.173 A 
ATOM     73  F   UNL A   1      41.374  34.656  35.968  1.00  0.00    -0.203 F 
ATOM     74  C   UNL A   1      40.180  35.080  37.950  1.00  0.00     0.198 A 
ATOM     75  C   UNL A   1      38.488  33.545  38.685  1.00  0.00     0.198 A 
ATOM     76  F   UNL A   1      38.049  31.593  37.450  1.00  0.00    -0.203 F 
ATOM     77  F   UNL A   1      40.899  36.195  38.142  1.00  0.00    -0.200 F 
ATOM     78  C   UNL A   1      39.208  34.715  38.869  1.00  0.00     0.200 A 
ATOM     79  F   UNL A   1      37.539  33.199  39.566  1.00  0.00    -0.200 F 
ATOM     80  F   UNL A   1      38.972  35.489  39.938  1.00  0.00    -0.200 F 
ENDBRANCH  56  70
BRANCH  57  81
ATOM     81  C   UNL A   1      41.233  27.638  28.400  1.00  0.00     0.064 A 
ATOM     82  C   UNL A   1      40.583  26.410  28.211  1.00  0.00     0.173 A 
ATOM     83  C   UNL A   1      42.112  28.072  27.399  1.00  0.00     0.173 A 
ATOM     84  F   UNL A   1      39.748  25.943  29.151  1.00  0.00    -0.203 F 
ATOM     85  C   UNL A   1      40.820  25.638  27.076  1.00  0.00     0.198 A 
ATOM     86  C   UNL A   1      42.327  27.312  26.251  1.00  0.00     0.198 A 
ATOM     87  F   UNL A   1      42.753  29.244  27.529  1.00  0.00    -0.203 F 
ATOM     88  F   UNL A   1      40.221  24.447  26.942  1.00  0.00    -0.200 F 
ATOM     89  C   UNL A   1      41.688  26.092  26.094  1.00  0.00     0.200 A 
ATOM     90  F   UNL A   1      43.154  27.762  25.297  1.00  0.00    -0.200 F 
ATOM     91  F   UNL A   1      41.912  25.351  25.001  1.00  0.00    -0.200 F 
ENDBRANCH  57  81
BRANCH  69  92
ATOM     92  C   UNL A   1      44.312  27.881  34.643  1.00  0.00     0.064 A 
ATOM     93  C   UNL A   1      45.634  28.343  34.576  1.00  0.00     0.173 A 
ATOM     94  C   UNL A   1      44.069  26.677  35.321  1.00  0.00     0.173 A 
ATOM     95  F   UNL A   1      45.920  29.481  33.925  1.00  0.00    -0.203 F 
ATOM     96  C   UNL A   1      46.676  27.614  35.144  1.00  0.00     0.198 A 
ATOM     97  C   UNL A   1      45.109  25.966  35.913  1.00  0.00     0.198 A 
ATOM     98  F   UNL A   1      42.820  26.196  35.419  1.00  0.00    -0.203 F 
ATOM     99  F   UNL A   1      47.938  28.048  35.024  1.00  0.00    -0.200 F 
ATOM    100  C   UNL A   1      46.412  26.431  35.818  1.00  0.00     0.200 A 
ATOM    101  F   UNL A   1      44.850  24.830  36.575  1.00  0.00    -0.200 F 
ATOM    102  F   UNL A   1      47.414  25.733  36.368  1.00  0.00    -0.200 F 
ENDBRANCH  69  92
ENDBRANCH  43  44
ENDBRANCH  35  38
ENDBRANCH  33  34
ENDBRANCH  32  33
ENDBRANCH   1  32
TORSDOF 15
ENDMDL
MODEL 2
REMARK VINA RESULT:     -12.8      1.024      7.121
REMARK SMILES CC(=O)N1CC2(CC[NH+](C3Cc4ccccc4C3)CC2)C[C@H]1C(=O)NCCCCCCNC(=O)c1ccc(-c2c3nc(c(-c4c(F)c(F)c(F)c(F)c4F)c4ccc([nH]4)c(-c4c(F)c(F)c(F)c(F)c4F)c4nc(c(-c5c(F)c(F)c(F)c(F)c5F)c5ccc2[nH]5)C=C4)C=C3)cc1
REMARK SMILES IDX 29 1 28 2 27 3 26 4 25 5 23 6 24 7 22 9 4 10 5 11 6 12 21 13
REMARK SMILES IDX 7 14 20 15 8 16 19 17 9 18 2 20 1 21 3 22 10 23 11 24 18 25
REMARK SMILES IDX 12 26 17 27 13 28 16 29 14 30 15 31 30 32 31 33 32 34 33 35
REMARK SMILES IDX 34 37 35 38 36 39 97 40 37 41 96 42 38 43 39 44 40 45 90 46
REMARK SMILES IDX 41 47 95 48 89 49 91 50 42 51 94 52 88 53 87 54 43 56 75 57
REMARK SMILES IDX 55 58 74 59 56 60 59 61 73 62 92 63 57 64 58 65 72 67 93 68
REMARK SMILES IDX 60 69 44 70 45 71 53 72 46 73 47 74 51 75 54 76 48 77 49 78
REMARK SMILES IDX 52 79 50 80 76 81 77 82 85 83 78 84 79 85 83 86 86 87 80 88
REMARK SMILES IDX 81 89 84 90 82 91 61 92 62 93 70 94 63 95 64 96 68 97 71 98
REMARK SMILES IDX 65 99 66 100 69 101 67 102
REMARK H PARENT 25 8 9 19 32 36 91 55 59 66
REMARK Flexibility Score: inf
ROOT
ATOM      1  C   UNL A   1      30.668  31.587  25.300  1.00  0.00     0.002 C 
ENDROOT
BRANCH   1   2
ATOM      2  C   UNL A   1      30.794  30.171  24.716  1.00  0.00     0.002 C 
BRANCH   2   3
ATOM      3  C   UNL A   1      30.060  29.911  23.401  1.00  0.00     0.021 C 
BRANCH   3   4
ATOM      4  C   UNL A   1      30.101  28.471  22.916  1.00  0.00     0.116 C 
BRANCH   4   5
ATOM      5  N   UNL A   1      29.755  27.456  23.870  1.00  0.00    -0.354 N 
ATOM      6  C   UNL A   1      30.582  26.497  24.390  1.00  0.00     0.242 C 
ATOM      7  O   UNL A   1      30.316  26.118  25.538  1.00  0.00    -0.273 OA
ATOM      8  H   UNL A   1      28.822  27.450  24.183  1.00  0.00     0.163 HD
BRANCH   6   9
ATOM      9  C   UNL A   1      31.900  26.018  23.699  1.00  0.00     0.175 C 
ATOM     10  N   UNL A   1      33.179  26.395  24.287  1.00  0.00    -0.330 N 
ATOM     11  C   UNL A   1      33.945  25.260  24.783  1.00  0.00     0.127 C 
ATOM     12  C   UNL A   1      33.253  23.987  24.247  1.00  0.00     0.001 C 
ATOM     13  C   UNL A   1      32.003  24.506  23.476  1.00  0.00     0.044 C 
ATOM     14  C   UNL A   1      32.802  22.987  25.340  1.00  0.00     0.070 C 
ATOM     15  C   UNL A   1      34.257  23.263  23.311  1.00  0.00     0.070 C 
ATOM     16  C   UNL A   1      33.967  22.329  26.057  1.00  0.00     0.263 C 
ATOM     17  C   UNL A   1      35.337  22.470  24.081  1.00  0.00     0.263 C 
ATOM     18  N   UNL A   1      34.837  21.593  25.149  1.00  0.00    -0.332 N 
ATOM     19  H   UNL A   1      35.630  21.310  25.725  1.00  0.00     0.348 HD
BRANCH  10  20
ATOM     20  C   UNL A   1      33.639  27.685  24.108  1.00  0.00     0.220 C 
ATOM     21  C   UNL A   1      33.811  28.154  22.688  1.00  0.00     0.114 C 
ATOM     22  O   UNL A   1      33.844  28.448  25.050  1.00  0.00    -0.275 OA
ENDBRANCH  10  20
BRANCH  18  23
ATOM     23  C   UNL A   1      34.378  20.259  24.694  1.00  0.00     0.192 C 
ATOM     24  C   UNL A   1      35.425  19.101  24.707  1.00  0.00     0.101 C 
ATOM     25  C   UNL A   1      33.079  19.670  25.309  1.00  0.00     0.101 C 
ATOM     26  C   UNL A   1      34.568  17.875  24.801  1.00  0.00    -0.039 A 
ATOM     27  C   UNL A   1      33.257  18.197  25.149  1.00  0.00    -0.039 A 
ATOM     28  C   UNL A   1      34.966  16.552  24.695  1.00  0.00     0.004 A 
ATOM     29  C   UNL A   1      32.317  17.214  25.415  1.00  0.00     0.004 A 
ATOM     30  C   UNL A   1      34.024  15.552  24.951  1.00  0.00     0.000 A 
ATOM     31  C   UNL A   1      32.710  15.881  25.312  1.00  0.00     0.000 A 
ENDBRANCH  18  23
ENDBRANCH   6   9
ENDBRANCH   4   5
ENDBRANCH   3   4
ENDBRANCH   2   3
ENDBRANCH   1   2
BRANCH   1  32
ATOM     32  C   UNL A   1      31.168  31.788  26.735  1.00  0.00     0.021 C 
BRANCH  32  33
ATOM     33  C   UNL A   1      32.502  32.519  26.877  1.00  0.00     0.116 C 
BRANCH  33  34
ATOM     34  N   UNL A   1      32.348  33.874  27.379  1.00  0.00    -0.352 N 
ATOM     35  C   UNL A   1      33.005  34.533  28.386  1.00  0.00     0.251 C 
ATOM     36  H   UNL A   1      31.659  34.406  26.921  1.00  0.00     0.163 HD
ATOM     37  O   UNL A   1      32.608  35.635  28.749  1.00  0.00    -0.269 OA
BRANCH  35  38
ATOM     38  C   UNL A   1      34.180  33.928  29.051  1.00  0.00     0.039 A 
ATOM     39  C   UNL A   1      35.453  34.406  28.723  1.00  0.00     0.014 A 
ATOM     40  C   UNL A   1      34.047  32.861  29.945  1.00  0.00     0.014 A 
ATOM     41  C   UNL A   1      36.584  33.851  29.323  1.00  0.00     0.010 A 
ATOM     42  C   UNL A   1      35.171  32.351  30.593  1.00  0.00     0.010 A 
ATOM     43  C   UNL A   1      36.450  32.834  30.283  1.00  0.00    -0.014 A 
BRANCH  43  44
ATOM     44  C   UNL A   1      37.641  32.256  30.956  1.00  0.00     0.031 A 
ATOM     45  C   UNL A   1      38.443  31.178  30.281  1.00  0.00     0.074 A 
ATOM     46  C   UNL A   1      37.966  32.663  32.198  1.00  0.00     0.049 A 
ATOM     47  N   UNL A   1      39.474  30.508  30.730  1.00  0.00    -0.248 NA
ATOM     48  C   UNL A   1      38.012  30.784  28.932  1.00  0.00     0.031 C 
ATOM     49  C   UNL A   1      37.242  33.673  32.973  1.00  0.00     0.029 A 
ATOM     50  N   UNL A   1      38.984  32.272  33.031  1.00  0.00    -0.354 N 
ATOM     51  C   UNL A   1      39.803  29.606  29.728  1.00  0.00     0.074 A 
ATOM     52  C   UNL A   1      38.833  29.776  28.669  1.00  0.00     0.031 C 
ATOM     53  C   UNL A   1      37.851  33.838  34.156  1.00  0.00     0.029 A 
ATOM     54  C   UNL A   1      38.987  32.923  34.240  1.00  0.00     0.049 A 
ATOM     55  H   UNL A   1      39.650  31.590  32.784  1.00  0.00     0.167 HD
ATOM     56  C   UNL A   1      40.837  28.730  29.684  1.00  0.00     0.037 A 
ATOM     57  C   UNL A   1      39.810  32.793  35.297  1.00  0.00     0.037 A 
ATOM     58  C   UNL A   1      41.817  28.581  30.728  1.00  0.00     0.049 A 
ATOM     59  C   UNL A   1      40.947  31.811  35.224  1.00  0.00     0.074 A 
ATOM     60  C   UNL A   1      42.932  27.763  30.758  1.00  0.00     0.029 A 
ATOM     61  N   UNL A   1      41.796  29.271  31.933  1.00  0.00    -0.354 N 
ATOM     62  N   UNL A   1      41.287  31.008  34.245  1.00  0.00    -0.248 NA
ATOM     63  C   UNL A   1      41.822  31.724  36.402  1.00  0.00     0.031 C 
ATOM     64  C   UNL A   1      43.562  27.924  31.996  1.00  0.00     0.029 A 
ATOM     65  C   UNL A   1      42.868  28.881  32.719  1.00  0.00     0.049 A 
ATOM     66  H   UNL A   1      41.119  29.938  32.190  1.00  0.00     0.167 HD
ATOM     67  C   UNL A   1      42.428  30.344  34.674  1.00  0.00     0.074 A 
ATOM     68  C   UNL A   1      42.731  30.848  35.998  1.00  0.00     0.031 C 
ATOM     69  C   UNL A   1      43.161  29.402  34.030  1.00  0.00     0.037 A 
BRANCH  56  70
ATOM     70  C   UNL A   1      40.961  27.864  28.463  1.00  0.00     0.064 A 
ATOM     71  C   UNL A   1      40.313  26.622  28.373  1.00  0.00     0.173 A 
ATOM     72  C   UNL A   1      41.715  28.291  27.359  1.00  0.00     0.173 A 
ATOM     73  F   UNL A   1      39.589  26.162  29.404  1.00  0.00    -0.203 F 
ATOM     74  C   UNL A   1      40.440  25.827  27.236  1.00  0.00     0.198 A 
ATOM     75  C   UNL A   1      41.816  27.507  26.212  1.00  0.00     0.198 A 
ATOM     76  F   UNL A   1      42.351  29.471  27.389  1.00  0.00    -0.203 F 
ATOM     77  F   UNL A   1      39.856  24.622  27.196  1.00  0.00    -0.200 F 
ATOM     78  C   UNL A   1      41.186  26.273  26.156  1.00  0.00     0.200 A 
ATOM     79  F   UNL A   1      42.525  27.944  25.163  1.00  0.00    -0.200 F 
ATOM     80  F   UNL A   1      41.304  25.507  25.061  1.00  0.00    -0.200 F 
ENDBRANCH  56  70
BRANCH  57  81
ATOM     81  C   UNL A   1      39.611  33.640  36.502  1.00  0.00     0.064 A 
ATOM     82  C   UNL A   1      38.780  33.215  37.548  1.00  0.00     0.173 A 
ATOM     83  C   UNL A   1      40.241  34.885  36.634  1.00  0.00     0.173 A 
ATOM     84  F   UNL A   1      38.140  32.039  37.458  1.00  0.00    -0.203 F 
ATOM     85  C   UNL A   1      38.571  34.012  38.670  1.00  0.00     0.198 A 
ATOM     86  C   UNL A   1      40.053  35.670  37.769  1.00  0.00     0.198 A 
ATOM     87  F   UNL A   1      41.051  35.335  35.663  1.00  0.00    -0.203 F 
ATOM     88  F   UNL A   1      37.736  33.602  39.635  1.00  0.00    -0.200 F 
ATOM     89  C   UNL A   1      39.211  35.237  38.783  1.00  0.00     0.200 A 
ATOM     90  F   UNL A   1      40.686  36.846  37.881  1.00  0.00    -0.200 F 
ATOM     91  F   UNL A   1      39.013  36.002  39.865  1.00  0.00    -0.200 F 
ENDBRANCH  57  81
BRANCH  69  92
ATOM     92  C   UNL A   1      44.384  28.886  34.731  1.00  0.00     0.064 A 
ATOM     93  C   UNL A   1      45.626  29.526  34.615  1.00  0.00     0.173 A 
ATOM     94  C   UNL A   1      44.301  27.756  35.558  1.00  0.00     0.173 A 
ATOM     95  F   UNL A   1      45.760  30.602  33.824  1.00  0.00    -0.203 F 
ATOM     96  C   UNL A   1      46.747  29.037  35.280  1.00  0.00     0.198 A 
ATOM     97  C   UNL A   1      45.417  27.287  36.245  1.00  0.00     0.198 A 
ATOM     98  F   UNL A   1      43.134  27.111  35.709  1.00  0.00    -0.203 F 
ATOM     99  F   UNL A   1      47.935  29.635  35.114  1.00  0.00    -0.200 F 
ATOM    100  C   UNL A   1      46.641  27.923  36.099  1.00  0.00     0.200 A 
ATOM    101  F   UNL A   1      45.309  26.218  37.046  1.00  0.00    -0.200 F 
ATOM    102  F   UNL A   1      47.719  27.457  36.742  1.00  0.00    -0.200 F 
ENDBRANCH  69  92
ENDBRANCH  43  44
ENDBRANCH  35  38
ENDBRANCH  33  34
ENDBRANCH  32  33
ENDBRANCH   1  32
TORSDOF 15
ENDMDL
MODEL 3
REMARK VINA RESULT:     -12.8      5.215     10.011
REMARK SMILES CC(=O)N1CC2(CC[NH+](C3Cc4ccccc4C3)CC2)C[C@H]1C(=O)NCCCCCCNC(=O)c1ccc(-c2c3nc(c(-c4c(F)c(F)c(F)c(F)c4F)c4ccc([nH]4)c(-c4c(F)c(F)c(F)c(F)c4F)c4nc(c(-c5c(F)c(F)c(F)c(F)c5F)c5ccc2[nH]5)C=C4)C=C3)cc1
REMARK SMILES IDX 29 1 28 2 27 3 26 4 25 5 23 6 24 7 22 9 4 10 5 11 6 12 21 13
REMARK SMILES IDX 7 14 20 15 8 16 19 17 9 18 2 20 1 21 3 22 10 23 11 24 18 25
REMARK SMILES IDX 12 26 17 27 13 28 16 29 14 30 15 31 30 32 31 33 32 34 33 35
REMARK SMILES IDX 34 37 35 38 36 39 97 40 37 41 96 42 38 43 39 44 40 45 90 46
REMARK SMILES IDX 41 47 95 48 89 49 91 50 42 51 94 52 88 53 87 54 43 56 75 57
REMARK SMILES IDX 55 58 74 59 56 60 59 61 73 62 92 63 57 64 58 65 72 67 93 68
REMARK SMILES IDX 60 69 44 70 45 71 53 72 46 73 47 74 51 75 54 76 48 77 49 78
REMARK SMILES IDX 52 79 50 80 76 81 77 82 85 83 78 84 79 85 83 86 86 87 80 88
REMARK SMILES IDX 81 89 84 90 82 91 61 92 62 93 70 94 63 95 64 96 68 97 71 98
REMARK SMILES IDX 65 99 66 100 69 101 67 102
REMARK H PARENT 25 8 9 19 32 36 91 55 59 66
REMARK Flexibility Score: inf
ROOT
ATOM      1  C   UNL A   1      39.793  22.242  26.931  1.00  0.00     0.002 C 
ENDROOT
BRANCH   1   2
ATOM      2  C   UNL A   1      39.457  23.527  26.159  1.00  0.00     0.002 C 
BRANCH   2   3
ATOM      3  C   UNL A   1      38.196  24.271  26.596  1.00  0.00     0.021 C 
BRANCH   3   4
ATOM      4  C   UNL A   1      36.976  24.038  25.718  1.00  0.00     0.116 C 
BRANCH   4   5
ATOM      5  N   UNL A   1      37.190  23.335  24.487  1.00  0.00    -0.354 N 
ATOM      6  C   UNL A   1      36.248  23.019  23.543  1.00  0.00     0.242 C 
ATOM      7  O   UNL A   1      36.653  22.953  22.376  1.00  0.00    -0.273 OA
ATOM      8  H   UNL A   1      38.113  23.048  24.300  1.00  0.00     0.163 HD
BRANCH   6   9
ATOM      9  C   UNL A   1      34.716  22.927  23.842  1.00  0.00     0.175 C 
ATOM     10  N   UNL A   1      34.278  22.773  25.223  1.00  0.00    -0.330 N 
ATOM     11  C   UNL A   1      33.516  23.911  25.718  1.00  0.00     0.127 C 
ATOM     12  C   UNL A   1      33.179  24.789  24.493  1.00  0.00     0.001 C 
ATOM     13  C   UNL A   1      33.878  24.085  23.292  1.00  0.00     0.044 C 
ATOM     14  C   UNL A   1      33.678  26.252  24.589  1.00  0.00     0.070 C 
ATOM     15  C   UNL A   1      31.635  24.813  24.338  1.00  0.00     0.070 C 
ATOM     16  C   UNL A   1      32.952  27.056  25.653  1.00  0.00     0.263 C 
ATOM     17  C   UNL A   1      30.942  25.767  25.335  1.00  0.00     0.263 C 
ATOM     18  N   UNL A   1      31.515  27.118  25.420  1.00  0.00    -0.332 N 
ATOM     19  H   UNL A   1      31.139  27.570  26.254  1.00  0.00     0.348 HD
BRANCH  10  20
ATOM     20  C   UNL A   1      34.396  21.536  25.824  1.00  0.00     0.220 C 
ATOM     21  C   UNL A   1      34.167  20.331  24.952  1.00  0.00     0.114 C 
ATOM     22  O   UNL A   1      34.732  21.404  26.999  1.00  0.00    -0.275 OA
ENDBRANCH  10  20
BRANCH  18  23
ATOM     23  C   UNL A   1      31.029  28.065  24.389  1.00  0.00     0.192 C 
ATOM     24  C   UNL A   1      29.687  27.713  23.671  1.00  0.00     0.101 C 
ATOM     25  C   UNL A   1      30.941  29.574  24.747  1.00  0.00     0.101 C 
ATOM     26  C   UNL A   1      29.196  29.051  23.206  1.00  0.00    -0.039 A 
ATOM     27  C   UNL A   1      29.894  30.090  23.819  1.00  0.00    -0.039 A 
ATOM     28  C   UNL A   1      28.119  29.316  22.376  1.00  0.00     0.004 A 
ATOM     29  C   UNL A   1      29.528  31.414  23.635  1.00  0.00     0.004 A 
ATOM     30  C   UNL A   1      27.747  30.648  22.175  1.00  0.00     0.000 A 
ATOM     31  C   UNL A   1      28.445  31.689  22.803  1.00  0.00     0.000 A 
ENDBRANCH  18  23
ENDBRANCH   6   9
ENDBRANCH   4   5
ENDBRANCH   3   4
ENDBRANCH   2   3
ENDBRANCH   1   2
BRANCH   1  32
ATOM     32  C   UNL A   1      39.821  20.940  26.122  1.00  0.00     0.021 C 
BRANCH  32  33
ATOM     33  C   UNL A   1      40.404  19.724  26.841  1.00  0.00     0.116 C 
BRANCH  33  34
ATOM     34  N   UNL A   1      41.520  19.130  26.126  1.00  0.00    -0.352 N 
ATOM     35  C   UNL A   1      42.691  19.686  25.677  1.00  0.00     0.251 C 
ATOM     36  H   UNL A   1      41.419  18.171  25.932  1.00  0.00     0.163 HD
ATOM     37  O   UNL A   1      43.434  19.031  24.955  1.00  0.00    -0.269 OA
BRANCH  35  38
ATOM     38  C   UNL A   1      43.064  21.070  26.041  1.00  0.00     0.039 A 
ATOM     39  C   UNL A   1      43.138  22.030  25.025  1.00  0.00     0.014 A 
ATOM     40  C   UNL A   1      43.396  21.418  27.353  1.00  0.00     0.014 A 
ATOM     41  C   UNL A   1      43.498  23.344  25.331  1.00  0.00     0.010 A 
ATOM     42  C   UNL A   1      43.691  22.744  27.668  1.00  0.00     0.010 A 
ATOM     43  C   UNL A   1      43.753  23.717  26.660  1.00  0.00    -0.014 A 
BRANCH  43  44
ATOM     44  C   UNL A   1      44.103  25.118  27.008  1.00  0.00     0.031 A 
ATOM     45  C   UNL A   1      43.052  26.049  27.548  1.00  0.00     0.074 A 
ATOM     46  C   UNL A   1      45.353  25.566  26.786  1.00  0.00     0.049 A 
ATOM     47  N   UNL A   1      43.146  27.318  27.852  1.00  0.00    -0.248 NA
ATOM     48  C   UNL A   1      41.710  25.482  27.748  1.00  0.00     0.031 C 
ATOM     49  C   UNL A   1      46.449  24.772  26.230  1.00  0.00     0.029 A 
ATOM     50  N   UNL A   1      45.911  26.803  26.994  1.00  0.00    -0.354 N 
ATOM     51  C   UNL A   1      41.877  27.704  28.263  1.00  0.00     0.074 A 
ATOM     52  C   UNL A   1      41.018  26.549  28.120  1.00  0.00     0.031 C 
ATOM     53  C   UNL A   1      47.552  25.532  26.161  1.00  0.00     0.029 A 
ATOM     54  C   UNL A   1      47.235  26.877  26.635  1.00  0.00     0.049 A 
ATOM     55  H   UNL A   1      45.410  27.565  27.365  1.00  0.00     0.167 HD
ATOM     56  C   UNL A   1      41.471  28.906  28.738  1.00  0.00     0.037 A 
ATOM     57  C   UNL A   1      48.093  27.912  26.681  1.00  0.00     0.037 A 
ATOM     58  C   UNL A   1      42.335  30.046  28.903  1.00  0.00     0.049 A 
ATOM     59  C   UNL A   1      47.615  29.237  27.210  1.00  0.00     0.074 A 
ATOM     60  C   UNL A   1      42.035  31.290  29.427  1.00  0.00     0.029 A 
ATOM     61  N   UNL A   1      43.676  30.077  28.544  1.00  0.00    -0.354 N 
ATOM     62  N   UNL A   1      46.429  29.573  27.656  1.00  0.00    -0.248 NA
ATOM     63  C   UNL A   1      48.601  30.327  27.251  1.00  0.00     0.031 C 
ATOM     64  C   UNL A   1      43.180  32.089  29.346  1.00  0.00     0.029 A 
ATOM     65  C   UNL A   1      44.209  31.325  28.818  1.00  0.00     0.049 A 
ATOM     66  H   UNL A   1      44.173  29.323  28.153  1.00  0.00     0.167 HD
ATOM     67  C   UNL A   1      46.532  30.898  28.057  1.00  0.00     0.074 A 
ATOM     68  C   UNL A   1      47.901  31.302  27.814  1.00  0.00     0.031 C 
ATOM     69  C   UNL A   1      45.578  31.708  28.580  1.00  0.00     0.037 A 
BRANCH  56  70
ATOM     70  C   UNL A   1      40.024  29.049  29.116  1.00  0.00     0.064 A 
ATOM     71  C   UNL A   1      39.039  29.336  28.159  1.00  0.00     0.173 A 
ATOM     72  C   UNL A   1      39.614  28.872  30.446  1.00  0.00     0.173 A 
ATOM     73  F   UNL A   1      39.379  29.527  26.876  1.00  0.00    -0.203 F 
ATOM     74  C   UNL A   1      37.701  29.471  28.524  1.00  0.00     0.198 A 
ATOM     75  C   UNL A   1      38.271  28.977  30.803  1.00  0.00     0.198 A 
ATOM     76  F   UNL A   1      40.513  28.591  31.401  1.00  0.00    -0.203 F 
ATOM     77  F   UNL A   1      36.787  29.798  27.601  1.00  0.00    -0.200 F 
ATOM     78  C   UNL A   1      37.319  29.286  29.844  1.00  0.00     0.200 A 
ATOM     79  F   UNL A   1      37.900  28.784  32.076  1.00  0.00    -0.200 F 
ATOM     80  F   UNL A   1      36.030  29.412  30.193  1.00  0.00    -0.200 F 
ENDBRANCH  56  70
BRANCH  57  81
ATOM     81  C   UNL A   1      49.502  27.729  26.246  1.00  0.00     0.064 A 
ATOM     82  C   UNL A   1      49.835  27.704  24.885  1.00  0.00     0.173 A 
ATOM     83  C   UNL A   1      50.541  27.575  27.175  1.00  0.00     0.173 A 
ATOM     84  F   UNL A   1      48.872  27.828  23.959  1.00  0.00    -0.203 F 
ATOM     85  C   UNL A   1      51.150  27.510  24.469  1.00  0.00     0.198 A 
ATOM     86  C   UNL A   1      51.860  27.409  26.758  1.00  0.00     0.198 A 
ATOM     87  F   UNL A   1      50.275  27.598  28.490  1.00  0.00    -0.203 F 
ATOM     88  F   UNL A   1      51.433  27.445  23.161  1.00  0.00    -0.200 F 
ATOM     89  C   UNL A   1      52.163  27.368  25.406  1.00  0.00     0.200 A 
ATOM     90  F   UNL A   1      52.837  27.288  27.667  1.00  0.00    -0.200 F 
ATOM     91  F   UNL A   1      53.428  27.187  25.005  1.00  0.00    -0.200 F 
ENDBRANCH  57  81
BRANCH  69  92
ATOM     92  C   UNL A   1      45.994  33.098  28.963  1.00  0.00     0.064 A 
ATOM     93  C   UNL A   1      45.888  34.172  28.069  1.00  0.00     0.173 A 
ATOM     94  C   UNL A   1      46.472  33.362  30.256  1.00  0.00     0.173 A 
ATOM     95  F   UNL A   1      45.451  33.968  26.817  1.00  0.00    -0.203 F 
ATOM     96  C   UNL A   1      46.271  35.457  28.446  1.00  0.00     0.198 A 
ATOM     97  C   UNL A   1      46.826  34.653  30.638  1.00  0.00     0.198 A 
ATOM     98  F   UNL A   1      46.586  32.370  31.152  1.00  0.00    -0.203 F 
ATOM     99  F   UNL A   1      46.209  36.460  27.558  1.00  0.00    -0.200 F 
ATOM    100  C   UNL A   1      46.733  35.697  29.731  1.00  0.00     0.200 A 
ATOM    101  F   UNL A   1      47.260  34.886  31.885  1.00  0.00    -0.200 F 
ATOM    102  F   UNL A   1      47.096  36.935  30.093  1.00  0.00    -0.200 F 
ENDBRANCH  69  92
ENDBRANCH  43  44
ENDBRANCH  35  38
ENDBRANCH  33  34
ENDBRANCH  32  33
ENDBRANCH   1  32
TORSDOF 15
ENDMDL
