MODEL 1
REMARK VINA RESULT:     -12.1      0.000      0.000
REMARK SMILES C=C(C(=O)NCCCCCCNC(=O)c1ccc(-c2c3nc(c(-c4c(F)c(F)c(F)c(F)c4F)c4ccc([nH]4)c(-c4c(F)c(F)c(F)c(F)c4F)c4nc(c(-c5c(F)c(F)c(F)c(F)c5F)c5ccc2[nH]5)C=C4)C=C3)cc1)[C@@H]1CC[C@]2(C)C[C@@H](O)CC(=C)[C@H]2C1
REMARK SMILES IDX 8 1 7 2 6 3 5 4 3 5 4 6 2 8 1 9 78 10 79 11 90 12 80 13
REMARK SMILES IDX 89 14 81 15 87 16 82 17 83 18 86 19 88 20 84 21 85 22 9 24
REMARK SMILES IDX 10 25 11 26 12 27 13 28 14 30 15 31 16 32 77 33 17 34 76 35
REMARK SMILES IDX 18 36 19 37 20 38 70 39 21 40 75 41 69 42 71 43 22 44 74 45
REMARK SMILES IDX 68 46 67 47 23 49 55 50 35 51 54 52 36 53 39 54 53 55 72 56
REMARK SMILES IDX 37 57 38 58 52 60 73 61 40 62 24 63 25 64 33 65 26 66 27 67
REMARK SMILES IDX 31 68 34 69 28 70 29 71 32 72 30 73 56 74 57 75 65 76 58 77
REMARK SMILES IDX 59 78 63 79 66 80 60 81 61 82 64 83 62 84 41 85 42 86 50 87
REMARK SMILES IDX 43 88 44 89 48 90 51 91 45 92 46 93 49 94 47 95
REMARK H PARENT 5 7 85 23 12 29 71 48 39 59
REMARK Flexibility Score: inf
ROOT
ATOM      1  C   UNL A   1      34.852  33.189  29.044  1.00  0.00     0.002 C 
ENDROOT
BRANCH   1   2
ATOM      2  C   UNL A   1      35.390  32.190  28.015  1.00  0.00     0.021 C 
BRANCH   2   3
ATOM      3  C   UNL A   1      34.552  30.915  27.869  1.00  0.00     0.116 C 
BRANCH   3   4
ATOM      4  N   UNL A   1      33.280  31.214  27.240  1.00  0.00    -0.352 N 
ATOM      5  C   UNL A   1      32.359  30.424  26.624  1.00  0.00     0.246 C 
ATOM      6  O   UNL A   1      31.400  30.976  26.083  1.00  0.00    -0.270 OA
ATOM      7  H   UNL A   1      33.038  32.168  27.262  1.00  0.00     0.163 HD
BRANCH   5   8
ATOM      8  C   UNL A   1      32.437  28.921  26.649  1.00  0.00     0.013 C 
ATOM      9  C   UNL A   1      31.792  28.215  27.596  1.00  0.00     0.018 C 
BRANCH   8  10
ATOM     10  C   UNL A   1      33.467  28.301  25.685  1.00  0.00     0.025 C 
ATOM     11  C   UNL A   1      33.277  28.671  24.193  1.00  0.00     0.009 C 
ATOM     12  C   UNL A   1      33.619  26.764  25.804  1.00  0.00     0.017 C 
ATOM     13  C   UNL A   1      32.194  27.866  23.470  1.00  0.00     0.008 C 
ATOM     14  C   UNL A   1      32.414  26.031  25.173  1.00  0.00     0.021 C 
ATOM     15  C   UNL A   1      32.321  26.328  23.647  1.00  0.00    -0.024 C 
ATOM     16  C   UNL A   1      32.289  24.544  25.463  1.00  0.00    -0.071 C 
ATOM     17  C   UNL A   1      33.567  25.829  22.874  1.00  0.00     0.012 C 
ATOM     18  C   UNL A   1      31.042  25.664  23.052  1.00  0.00     0.039 C 
ATOM     19  C   UNL A   1      30.993  23.948  24.948  1.00  0.00     0.062 C 
ATOM     20  C   UNL A   1      33.184  23.795  26.127  1.00  0.00     0.008 C 
ATOM     21  C   UNL A   1      30.819  24.196  23.444  1.00  0.00     0.119 C 
BRANCH  21  22
ATOM     22  O   UNL A   1      31.669  23.339  22.683  1.00  0.00    -0.393 OA
ATOM     23  H   UNL A   1      31.907  22.564  23.215  1.00  0.00     0.210 HD
ENDBRANCH  21  22
ENDBRANCH   8  10
ENDBRANCH   5   8
ENDBRANCH   3   4
ENDBRANCH   2   3
ENDBRANCH   1   2
BRANCH   1  24
ATOM     24  C   UNL A   1      34.553  34.588  28.500  1.00  0.00     0.002 C 
BRANCH  24  25
ATOM     25  C   UNL A   1      33.203  35.174  28.918  1.00  0.00     0.021 C 
BRANCH  25  26
ATOM     26  C   UNL A   1      33.283  36.497  29.673  1.00  0.00     0.116 C 
BRANCH  26  27
ATOM     27  N   UNL A   1      32.428  36.504  30.848  1.00  0.00    -0.352 N 
ATOM     28  C   UNL A   1      32.535  35.774  32.001  1.00  0.00     0.251 C 
ATOM     29  H   UNL A   1      31.663  37.121  30.808  1.00  0.00     0.163 HD
ATOM     30  O   UNL A   1      31.599  35.745  32.801  1.00  0.00    -0.269 OA
BRANCH  28  31
ATOM     31  C   UNL A   1      33.769  35.016  32.293  1.00  0.00     0.039 A 
ATOM     32  C   UNL A   1      33.661  33.676  32.677  1.00  0.00     0.014 A 
ATOM     33  C   UNL A   1      35.022  35.635  32.247  1.00  0.00     0.014 A 
ATOM     34  C   UNL A   1      34.812  32.950  32.989  1.00  0.00     0.010 A 
ATOM     35  C   UNL A   1      36.174  34.893  32.500  1.00  0.00     0.010 A 
ATOM     36  C   UNL A   1      36.077  33.549  32.894  1.00  0.00    -0.014 A 
BRANCH  36  37
ATOM     37  C   UNL A   1      37.306  32.802  33.258  1.00  0.00     0.031 A 
ATOM     38  C   UNL A   1      38.003  33.099  34.558  1.00  0.00     0.074 A 
ATOM     39  C   UNL A   1      37.813  31.886  32.411  1.00  0.00     0.049 A 
ATOM     40  N   UNL A   1      39.119  32.607  35.033  1.00  0.00    -0.248 NA
ATOM     41  C   UNL A   1      37.371  34.103  35.430  1.00  0.00     0.031 C 
ATOM     42  C   UNL A   1      37.249  31.538  31.106  1.00  0.00     0.029 A 
ATOM     43  N   UNL A   1      38.924  31.088  32.518  1.00  0.00    -0.354 N 
ATOM     44  C   UNL A   1      39.325  33.244  36.250  1.00  0.00     0.074 A 
ATOM     45  C   UNL A   1      38.252  34.201  36.415  1.00  0.00     0.031 C 
ATOM     46  C   UNL A   1      38.012  30.589  30.538  1.00  0.00     0.029 A 
ATOM     47  C   UNL A   1      39.129  30.280  31.427  1.00  0.00     0.049 A 
ATOM     48  H   UNL A   1      39.518  31.094  33.304  1.00  0.00     0.167 HD
ATOM     49  C   UNL A   1      40.305  33.033  37.160  1.00  0.00     0.037 A 
ATOM     50  C   UNL A   1      40.109  29.393  31.174  1.00  0.00     0.037 A 
ATOM     51  C   UNL A   1      41.361  32.068  37.004  1.00  0.00     0.049 A 
ATOM     52  C   UNL A   1      41.176  29.164  32.213  1.00  0.00     0.074 A 
ATOM     53  C   UNL A   1      42.401  31.773  37.868  1.00  0.00     0.029 A 
ATOM     54  N   UNL A   1      41.500  31.228  35.909  1.00  0.00    -0.354 N 
ATOM     55  N   UNL A   1      41.340  29.748  33.374  1.00  0.00    -0.248 NA
ATOM     56  C   UNL A   1      42.181  28.135  31.913  1.00  0.00     0.031 C 
ATOM     57  C   UNL A   1      43.182  30.768  37.287  1.00  0.00     0.029 A 
ATOM     58  C   UNL A   1      42.605  30.410  36.080  1.00  0.00     0.049 A 
ATOM     59  H   UNL A   1      40.903  31.215  35.127  1.00  0.00     0.167 HD
ATOM     60  C   UNL A   1      42.441  29.138  33.957  1.00  0.00     0.074 A 
ATOM     61  C   UNL A   1      42.899  28.127  33.026  1.00  0.00     0.031 C 
ATOM     62  C   UNL A   1      43.025  29.391  35.153  1.00  0.00     0.037 A 
BRANCH  49  63
ATOM     63  C   UNL A   1      40.268  33.851  38.418  1.00  0.00     0.064 A 
ATOM     64  C   UNL A   1      40.964  35.065  38.518  1.00  0.00     0.173 A 
ATOM     65  C   UNL A   1      39.505  33.440  39.521  1.00  0.00     0.173 A 
ATOM     66  F   UNL A   1      41.720  35.495  37.497  1.00  0.00    -0.203 F 
ATOM     67  C   UNL A   1      40.918  35.825  39.684  1.00  0.00     0.198 A 
ATOM     68  C   UNL A   1      39.438  34.216  40.675  1.00  0.00     0.198 A 
ATOM     69  F   UNL A   1      38.818  32.289  39.477  1.00  0.00    -0.203 F 
ATOM     70  F   UNL A   1      41.628  36.958  39.772  1.00  0.00    -0.200 F 
ATOM     71  C   UNL A   1      40.149  35.404  40.758  1.00  0.00     0.200 A 
ATOM     72  F   UNL A   1      38.686  33.814  41.709  1.00  0.00    -0.200 F 
ATOM     73  F   UNL A   1      40.099  36.140  41.877  1.00  0.00    -0.200 F 
ENDBRANCH  49  63
BRANCH  50  74
ATOM     74  C   UNL A   1      40.118  28.633  29.898  1.00  0.00     0.064 A 
ATOM     75  C   UNL A   1      39.462  27.398  29.789  1.00  0.00     0.173 A 
ATOM     76  C   UNL A   1      40.797  29.113  28.769  1.00  0.00     0.173 A 
ATOM     77  F   UNL A   1      38.814  26.889  30.848  1.00  0.00    -0.203 F 
ATOM     78  C   UNL A   1      39.513  26.657  28.610  1.00  0.00     0.198 A 
ATOM     79  C   UNL A   1      40.824  28.383  27.581  1.00  0.00     0.198 A 
ATOM     80  F   UNL A   1      41.433  30.291  28.818  1.00  0.00    -0.203 F 
ATOM     81  F   UNL A   1      38.924  25.455  28.552  1.00  0.00    -0.200 F 
ATOM     82  C   UNL A   1      40.191  27.152  27.506  1.00  0.00     0.200 A 
ATOM     83  F   UNL A   1      41.467  28.872  26.513  1.00  0.00    -0.200 F 
ATOM     84  F   UNL A   1      40.243  26.438  26.374  1.00  0.00    -0.200 F 
ENDBRANCH  50  74
BRANCH  62  85
ATOM     85  C   UNL A   1      44.183  28.524  35.549  1.00  0.00     0.064 A 
ATOM     86  C   UNL A   1      45.502  28.850  35.200  1.00  0.00     0.173 A 
ATOM     87  C   UNL A   1      43.969  27.367  36.312  1.00  0.00     0.173 A 
ATOM     88  F   UNL A   1      45.754  29.939  34.460  1.00  0.00    -0.203 F 
ATOM     89  C   UNL A   1      46.563  28.030  35.577  1.00  0.00     0.198 A 
ATOM     90  C   UNL A   1      45.035  26.564  36.710  1.00  0.00     0.198 A 
ATOM     91  F   UNL A   1      42.726  27.017  36.676  1.00  0.00    -0.203 F 
ATOM     92  F   UNL A   1      47.810  28.333  35.191  1.00  0.00    -0.200 F 
ATOM     93  C   UNL A   1      46.329  26.892  36.335  1.00  0.00     0.200 A 
ATOM     94  F   UNL A   1      44.809  25.471  37.451  1.00  0.00    -0.200 F 
ATOM     95  F   UNL A   1      47.352  26.106  36.698  1.00  0.00    -0.200 F 
ENDBRANCH  62  85
ENDBRANCH  36  37
ENDBRANCH  28  31
ENDBRANCH  26  27
ENDBRANCH  25  26
ENDBRANCH  24  25
ENDBRANCH   1  24
TORSDOF 15
ENDMDL
MODEL 2
REMARK VINA RESULT:     -11.9      0.211      1.951
REMARK SMILES C=C(C(=O)NCCCCCCNC(=O)c1ccc(-c2c3nc(c(-c4c(F)c(F)c(F)c(F)c4F)c4ccc([nH]4)c(-c4c(F)c(F)c(F)c(F)c4F)c4nc(c(-c5c(F)c(F)c(F)c(F)c5F)c5ccc2[nH]5)C=C4)C=C3)cc1)[C@@H]1CC[C@]2(C)C[C@@H](O)CC(=C)[C@H]2C1
REMARK SMILES IDX 8 1 7 2 6 3 5 4 3 5 4 6 2 8 1 9 78 10 79 11 90 12 80 13
REMARK SMILES IDX 89 14 81 15 87 16 82 17 83 18 86 19 88 20 84 21 85 22 9 24
REMARK SMILES IDX 10 25 11 26 12 27 13 28 14 30 15 31 16 32 77 33 17 34 76 35
REMARK SMILES IDX 18 36 19 37 20 38 70 39 21 40 75 41 69 42 71 43 22 44 74 45
REMARK SMILES IDX 68 46 67 47 23 49 55 50 35 51 54 52 36 53 39 54 53 55 72 56
REMARK SMILES IDX 37 57 38 58 52 60 73 61 40 62 24 63 25 64 33 65 26 66 27 67
REMARK SMILES IDX 31 68 34 69 28 70 29 71 32 72 30 73 56 74 57 75 65 76 58 77
REMARK SMILES IDX 59 78 63 79 66 80 60 81 61 82 64 83 62 84 41 85 42 86 50 87
REMARK SMILES IDX 43 88 44 89 48 90 51 91 45 92 46 93 49 94 47 95
REMARK H PARENT 5 7 85 23 12 29 71 48 39 59
REMARK Flexibility Score: inf
ROOT
ATOM      1  C   UNL A   1      34.563  32.861  29.174  1.00  0.00     0.002 C 
ENDROOT
BRANCH   1   2
ATOM      2  C   UNL A   1      35.474  31.990  28.304  1.00  0.00     0.021 C 
BRANCH   2   3
ATOM      3  C   UNL A   1      34.775  30.788  27.657  1.00  0.00     0.116 C 
BRANCH   3   4
ATOM      4  N   UNL A   1      33.439  31.152  27.225  1.00  0.00    -0.352 N 
ATOM      5  C   UNL A   1      32.415  30.417  26.713  1.00  0.00     0.246 C 
ATOM      6  O   UNL A   1      31.411  31.020  26.334  1.00  0.00    -0.270 OA
ATOM      7  H   UNL A   1      33.236  32.111  27.319  1.00  0.00     0.163 HD
BRANCH   5   8
ATOM      8  C   UNL A   1      32.444  28.913  26.667  1.00  0.00     0.013 C 
ATOM      9  C   UNL A   1      31.777  28.184  27.581  1.00  0.00     0.018 C 
BRANCH   8  10
ATOM     10  C   UNL A   1      33.452  28.306  25.672  1.00  0.00     0.025 C 
ATOM     11  C   UNL A   1      33.208  28.665  24.186  1.00  0.00     0.009 C 
ATOM     12  C   UNL A   1      33.633  26.772  25.793  1.00  0.00     0.017 C 
ATOM     13  C   UNL A   1      32.115  27.839  23.502  1.00  0.00     0.008 C 
ATOM     14  C   UNL A   1      32.421  26.016  25.204  1.00  0.00     0.021 C 
ATOM     15  C   UNL A   1      32.274  26.304  23.681  1.00  0.00    -0.024 C 
ATOM     16  C   UNL A   1      32.331  24.528  25.505  1.00  0.00    -0.071 C 
ATOM     17  C   UNL A   1      33.502  25.822  22.869  1.00  0.00     0.012 C 
ATOM     18  C   UNL A   1      30.987  25.616  23.131  1.00  0.00     0.039 C 
ATOM     19  C   UNL A   1      31.029  23.908  25.034  1.00  0.00     0.062 C 
ATOM     20  C   UNL A   1      33.259  23.797  26.142  1.00  0.00     0.008 C 
ATOM     21  C   UNL A   1      30.802  24.146  23.536  1.00  0.00     0.119 C 
BRANCH  21  22
ATOM     22  O   UNL A   1      31.640  23.300  22.751  1.00  0.00    -0.393 OA
ATOM     23  H   UNL A   1      32.560  23.599  22.823  1.00  0.00     0.210 HD
ENDBRANCH  21  22
ENDBRANCH   8  10
ENDBRANCH   5   8
ENDBRANCH   3   4
ENDBRANCH   2   3
ENDBRANCH   1   2
BRANCH   1  24
ATOM     24  C   UNL A   1      34.530  34.345  28.801  1.00  0.00     0.002 C 
BRANCH  24  25
ATOM     25  C   UNL A   1      33.185  35.042  29.020  1.00  0.00     0.021 C 
BRANCH  25  26
ATOM     26  C   UNL A   1      33.275  36.426  29.656  1.00  0.00     0.116 C 
BRANCH  26  27
ATOM     27  N   UNL A   1      32.449  36.532  30.845  1.00  0.00    -0.352 N 
ATOM     28  C   UNL A   1      32.566  35.881  32.043  1.00  0.00     0.251 C 
ATOM     29  H   UNL A   1      31.695  37.163  30.780  1.00  0.00     0.163 HD
ATOM     30  O   UNL A   1      31.649  35.927  32.863  1.00  0.00    -0.269 OA
BRANCH  28  31
ATOM     31  C   UNL A   1      33.790  35.115  32.359  1.00  0.00     0.039 A 
ATOM     32  C   UNL A   1      33.663  33.806  32.831  1.00  0.00     0.014 A 
ATOM     33  C   UNL A   1      35.055  35.703  32.248  1.00  0.00     0.014 A 
ATOM     34  C   UNL A   1      34.805  33.076  33.167  1.00  0.00     0.010 A 
ATOM     35  C   UNL A   1      36.196  34.953  32.525  1.00  0.00     0.010 A 
ATOM     36  C   UNL A   1      36.080  33.640  33.008  1.00  0.00    -0.014 A 
BRANCH  36  37
ATOM     37  C   UNL A   1      37.301  32.891  33.395  1.00  0.00     0.031 A 
ATOM     38  C   UNL A   1      37.977  33.192  34.705  1.00  0.00     0.074 A 
ATOM     39  C   UNL A   1      37.818  31.969  32.561  1.00  0.00     0.049 A 
ATOM     40  N   UNL A   1      39.084  32.699  35.200  1.00  0.00    -0.248 NA
ATOM     41  C   UNL A   1      37.334  34.202  35.562  1.00  0.00     0.031 C 
ATOM     42  C   UNL A   1      37.274  31.617  31.249  1.00  0.00     0.029 A 
ATOM     43  N   UNL A   1      38.925  31.169  32.690  1.00  0.00    -0.354 N 
ATOM     44  C   UNL A   1      39.272  33.342  36.417  1.00  0.00     0.074 A 
ATOM     45  C   UNL A   1      38.200  34.302  36.560  1.00  0.00     0.031 C 
ATOM     46  C   UNL A   1      38.043  30.663  30.698  1.00  0.00     0.029 A 
ATOM     47  C   UNL A   1      39.145  30.354  31.606  1.00  0.00     0.049 A 
ATOM     48  H   UNL A   1      39.506  31.176  33.485  1.00  0.00     0.167 HD
ATOM     49  C   UNL A   1      40.237  33.132  37.344  1.00  0.00     0.037 A 
ATOM     50  C   UNL A   1      40.126  29.463  31.373  1.00  0.00     0.037 A 
ATOM     51  C   UNL A   1      41.292  32.163  37.210  1.00  0.00     0.049 A 
ATOM     52  C   UNL A   1      41.175  29.236  32.430  1.00  0.00     0.074 A 
ATOM     53  C   UNL A   1      42.318  31.869  38.091  1.00  0.00     0.029 A 
ATOM     54  N   UNL A   1      41.447  31.317  36.121  1.00  0.00    -0.354 N 
ATOM     55  N   UNL A   1      41.322  29.826  33.591  1.00  0.00    -0.248 NA
ATOM     56  C   UNL A   1      42.182  28.203  32.151  1.00  0.00     0.031 C 
ATOM     57  C   UNL A   1      43.105  30.859  37.528  1.00  0.00     0.029 A 
ATOM     58  C   UNL A   1      42.546  30.497  36.313  1.00  0.00     0.049 A 
ATOM     59  H   UNL A   1      40.862  31.302  35.329  1.00  0.00     0.167 HD
ATOM     60  C   UNL A   1      42.412  29.215  34.194  1.00  0.00     0.074 A 
ATOM     61  C   UNL A   1      42.882  28.198  33.275  1.00  0.00     0.031 C 
ATOM     62  C   UNL A   1      42.977  29.472  35.398  1.00  0.00     0.037 A 
BRANCH  49  63
ATOM     63  C   UNL A   1      40.183  33.956  38.597  1.00  0.00     0.064 A 
ATOM     64  C   UNL A   1      39.475  33.518  39.727  1.00  0.00     0.173 A 
ATOM     65  C   UNL A   1      40.870  35.175  38.687  1.00  0.00     0.173 A 
ATOM     66  F   UNL A   1      38.789  32.366  39.688  1.00  0.00    -0.203 F 
ATOM     67  C   UNL A   1      39.437  34.281  40.890  1.00  0.00     0.198 A 
ATOM     68  C   UNL A   1      40.855  35.922  39.861  1.00  0.00     0.198 A 
ATOM     69  F   UNL A   1      41.565  35.639  37.636  1.00  0.00    -0.203 F 
ATOM     70  F   UNL A   1      38.717  33.864  41.941  1.00  0.00    -0.200 F 
ATOM     71  C   UNL A   1      40.133  35.479  40.959  1.00  0.00     0.200 A 
ATOM     72  F   UNL A   1      41.536  37.075  39.931  1.00  0.00    -0.200 F 
ATOM     73  F   UNL A   1      40.103  36.209  42.082  1.00  0.00    -0.200 F 
ENDBRANCH  49  63
BRANCH  50  74
ATOM     74  C   UNL A   1      40.153  28.697  30.101  1.00  0.00     0.064 A 
ATOM     75  C   UNL A   1      40.806  29.203  28.967  1.00  0.00     0.173 A 
ATOM     76  C   UNL A   1      39.509  27.457  29.984  1.00  0.00     0.173 A 
ATOM     77  F   UNL A   1      41.420  30.394  29.025  1.00  0.00    -0.203 F 
ATOM     78  C   UNL A   1      40.786  28.512  27.757  1.00  0.00     0.198 A 
ATOM     79  C   UNL A   1      39.514  26.754  28.780  1.00  0.00     0.198 A 
ATOM     80  F   UNL A   1      38.877  26.927  31.040  1.00  0.00    -0.203 F 
ATOM     81  F   UNL A   1      41.372  29.044  26.676  1.00  0.00    -0.200 F 
ATOM     82  C   UNL A   1      40.143  27.286  27.666  1.00  0.00     0.200 A 
ATOM     83  F   UNL A   1      38.905  25.564  28.700  1.00  0.00    -0.200 F 
ATOM     84  F   UNL A   1      40.122  26.624  26.502  1.00  0.00    -0.200 F 
ENDBRANCH  50  74
BRANCH  62  85
ATOM     85  C   UNL A   1      44.127  28.603  35.816  1.00  0.00     0.064 A 
ATOM     86  C   UNL A   1      43.931  27.413  36.532  1.00  0.00     0.173 A 
ATOM     87  C   UNL A   1      45.440  28.956  35.468  1.00  0.00     0.173 A 
ATOM     88  F   UNL A   1      42.695  27.043  36.897  1.00  0.00    -0.203 F 
ATOM     89  C   UNL A   1      45.012  26.622  36.911  1.00  0.00     0.198 A 
ATOM     90  C   UNL A   1      46.516  28.148  35.826  1.00  0.00     0.198 A 
ATOM     91  F   UNL A   1      45.677  30.082  34.778  1.00  0.00    -0.203 F 
ATOM     92  F   UNL A   1      44.807  25.515  37.637  1.00  0.00    -0.200 F 
ATOM     93  C   UNL A   1      46.301  26.988  36.553  1.00  0.00     0.200 A 
ATOM     94  F   UNL A   1      47.760  28.497  35.470  1.00  0.00    -0.200 F 
ATOM     95  F   UNL A   1      47.340  26.223  36.917  1.00  0.00    -0.200 F 
ENDBRANCH  62  85
ENDBRANCH  36  37
ENDBRANCH  28  31
ENDBRANCH  26  27
ENDBRANCH  25  26
ENDBRANCH  24  25
ENDBRANCH   1  24
TORSDOF 15
ENDMDL
MODEL 3
REMARK VINA RESULT:     -11.9      1.824      3.439
REMARK SMILES C=C(C(=O)NCCCCCCNC(=O)c1ccc(-c2c3nc(c(-c4c(F)c(F)c(F)c(F)c4F)c4ccc([nH]4)c(-c4c(F)c(F)c(F)c(F)c4F)c4nc(c(-c5c(F)c(F)c(F)c(F)c5F)c5ccc2[nH]5)C=C4)C=C3)cc1)[C@@H]1CC[C@]2(C)C[C@@H](O)CC(=C)[C@H]2C1
REMARK SMILES IDX 8 1 7 2 6 3 5 4 3 5 4 6 2 8 1 9 78 10 79 11 90 12 80 13
REMARK SMILES IDX 89 14 81 15 87 16 82 17 83 18 86 19 88 20 84 21 85 22 9 24
REMARK SMILES IDX 10 25 11 26 12 27 13 28 14 30 15 31 16 32 77 33 17 34 76 35
REMARK SMILES IDX 18 36 19 37 20 38 70 39 21 40 75 41 69 42 71 43 22 44 74 45
REMARK SMILES IDX 68 46 67 47 23 49 55 50 35 51 54 52 36 53 39 54 53 55 72 56
REMARK SMILES IDX 37 57 38 58 52 60 73 61 40 62 24 63 25 64 33 65 26 66 27 67
REMARK SMILES IDX 31 68 34 69 28 70 29 71 32 72 30 73 56 74 57 75 65 76 58 77
REMARK SMILES IDX 59 78 63 79 66 80 60 81 61 82 64 83 62 84 41 85 42 86 50 87
REMARK SMILES IDX 43 88 44 89 48 90 51 91 45 92 46 93 49 94 47 95
REMARK H PARENT 5 7 85 23 12 29 71 48 39 59
REMARK Flexibility Score: inf
ROOT
ATOM      1  C   UNL A   1      32.225  29.904  26.451  1.00  0.00     0.002 C 
ENDROOT
BRANCH   1   2
ATOM      2  C   UNL A   1      32.640  28.742  25.543  1.00  0.00     0.021 C 
BRANCH   2   3
ATOM      3  C   UNL A   1      31.623  27.598  25.469  1.00  0.00     0.116 C 
BRANCH   3   4
ATOM      4  N   UNL A   1      30.923  27.624  24.199  1.00  0.00    -0.352 N 
ATOM      5  C   UNL A   1      31.286  27.226  22.950  1.00  0.00     0.246 C 
ATOM      6  O   UNL A   1      30.509  27.466  22.024  1.00  0.00    -0.270 OA
ATOM      7  H   UNL A   1      30.014  28.001  24.252  1.00  0.00     0.163 HD
BRANCH   5   8
ATOM      8  C   UNL A   1      32.547  26.451  22.683  1.00  0.00     0.013 C 
ATOM      9  C   UNL A   1      33.698  27.087  22.396  1.00  0.00     0.018 C 
BRANCH   8  10
ATOM     10  C   UNL A   1      32.363  24.928  22.538  1.00  0.00     0.025 C 
ATOM     11  C   UNL A   1      31.318  24.297  23.491  1.00  0.00     0.009 C 
ATOM     12  C   UNL A   1      33.675  24.108  22.620  1.00  0.00     0.017 C 
ATOM     13  C   UNL A   1      31.825  24.047  24.914  1.00  0.00     0.008 C 
ATOM     14  C   UNL A   1      34.192  24.023  24.073  1.00  0.00     0.021 C 
ATOM     15  C   UNL A   1      33.172  23.277  24.983  1.00  0.00    -0.024 C 
ATOM     16  C   UNL A   1      35.606  23.497  24.267  1.00  0.00    -0.071 C 
ATOM     17  C   UNL A   1      32.945  21.812  24.534  1.00  0.00     0.012 C 
ATOM     18  C   UNL A   1      33.666  23.294  26.462  1.00  0.00     0.039 C 
ATOM     19  C   UNL A   1      36.087  23.609  25.701  1.00  0.00     0.062 C 
ATOM     20  C   UNL A   1      36.400  23.003  23.303  1.00  0.00     0.008 C 
ATOM     21  C   UNL A   1      35.135  22.897  26.670  1.00  0.00     0.119 C 
BRANCH  21  22
ATOM     22  O   UNL A   1      35.288  21.481  26.592  1.00  0.00    -0.393 OA
ATOM     23  H   UNL A   1      35.072  21.085  27.450  1.00  0.00     0.210 HD
ENDBRANCH  21  22
ENDBRANCH   8  10
ENDBRANCH   5   8
ENDBRANCH   3   4
ENDBRANCH   2   3
ENDBRANCH   1   2
BRANCH   1  24
ATOM     24  C   UNL A   1      31.282  30.925  25.811  1.00  0.00     0.002 C 
BRANCH  24  25
ATOM     25  C   UNL A   1      31.184  32.267  26.542  1.00  0.00     0.021 C 
BRANCH  25  26
ATOM     26  C   UNL A   1      32.487  32.754  27.167  1.00  0.00     0.116 C 
BRANCH  26  27
ATOM     27  N   UNL A   1      32.402  34.142  27.587  1.00  0.00    -0.352 N 
ATOM     28  C   UNL A   1      33.075  34.788  28.589  1.00  0.00     0.251 C 
ATOM     29  H   UNL A   1      31.768  34.698  27.078  1.00  0.00     0.163 HD
ATOM     30  O   UNL A   1      32.719  35.909  28.949  1.00  0.00    -0.269 OA
BRANCH  28  31
ATOM     31  C   UNL A   1      34.231  34.143  29.246  1.00  0.00     0.039 A 
ATOM     32  C   UNL A   1      35.519  34.457  28.804  1.00  0.00     0.014 A 
ATOM     33  C   UNL A   1      34.047  33.189  30.252  1.00  0.00     0.014 A 
ATOM     34  C   UNL A   1      36.624  33.835  29.388  1.00  0.00     0.010 A 
ATOM     35  C   UNL A   1      35.153  32.614  30.876  1.00  0.00     0.010 A 
ATOM     36  C   UNL A   1      36.450  32.916  30.435  1.00  0.00    -0.014 A 
BRANCH  36  37
ATOM     37  C   UNL A   1      37.612  32.219  31.040  1.00  0.00     0.031 A 
ATOM     38  C   UNL A   1      38.086  32.612  32.413  1.00  0.00     0.074 A 
ATOM     39  C   UNL A   1      38.257  31.262  30.348  1.00  0.00     0.049 A 
ATOM     40  N   UNL A   1      39.115  32.174  33.093  1.00  0.00    -0.248 NA
ATOM     41  C   UNL A   1      37.311  33.656  33.104  1.00  0.00     0.031 C 
ATOM     42  C   UNL A   1      37.916  30.821  28.995  1.00  0.00     0.029 A 
ATOM     43  N   UNL A   1      39.345  30.495  30.684  1.00  0.00    -0.354 N 
ATOM     44  C   UNL A   1      39.115  32.891  34.282  1.00  0.00     0.074 A 
ATOM     45  C   UNL A   1      38.020  33.834  34.209  1.00  0.00     0.031 C 
ATOM     46  C   UNL A   1      38.770  29.853  28.620  1.00  0.00     0.029 A 
ATOM     47  C   UNL A   1      39.732  29.624  29.696  1.00  0.00     0.049 A 
ATOM     48  H   UNL A   1      39.804  30.563  31.553  1.00  0.00     0.167 HD
ATOM     49  C   UNL A   1      39.937  32.758  35.350  1.00  0.00     0.037 A 
ATOM     50  C   UNL A   1      40.749  28.743  29.662  1.00  0.00     0.037 A 
ATOM     51  C   UNL A   1      41.014  31.807  35.429  1.00  0.00     0.049 A 
ATOM     52  C   UNL A   1      41.635  28.602  30.872  1.00  0.00     0.074 A 
ATOM     53  C   UNL A   1      41.904  31.588  36.466  1.00  0.00     0.029 A 
ATOM     54  N   UNL A   1      41.337  30.902  34.428  1.00  0.00    -0.354 N 
ATOM     55  N   UNL A   1      41.604  29.262  32.003  1.00  0.00    -0.248 NA
ATOM     56  C   UNL A   1      42.687  27.578  30.805  1.00  0.00     0.031 C 
ATOM     57  C   UNL A   1      42.779  30.565  36.085  1.00  0.00     0.029 A 
ATOM     58  C   UNL A   1      42.408  30.119  34.827  1.00  0.00     0.049 A 
ATOM     59  H   UNL A   1      40.875  30.827  33.563  1.00  0.00     0.167 HD
ATOM     60  C   UNL A   1      42.603  28.712  32.794  1.00  0.00     0.074 A 
ATOM     61  C   UNL A   1      43.215  27.654  32.017  1.00  0.00     0.031 C 
ATOM     62  C   UNL A   1      42.982  29.053  34.049  1.00  0.00     0.037 A 
BRANCH  49  63
ATOM     63  C   UNL A   1      39.689  33.653  36.529  1.00  0.00     0.064 A 
ATOM     64  C   UNL A   1      38.863  33.250  37.589  1.00  0.00     0.173 A 
ATOM     65  C   UNL A   1      40.309  34.908  36.622  1.00  0.00     0.173 A 
ATOM     66  F   UNL A   1      38.236  32.064  37.541  1.00  0.00    -0.203 F 
ATOM     67  C   UNL A   1      38.645  34.079  38.685  1.00  0.00     0.198 A 
ATOM     68  C   UNL A   1      40.113  35.723  37.733  1.00  0.00     0.198 A 
ATOM     69  F   UNL A   1      41.112  35.340  35.638  1.00  0.00    -0.203 F 
ATOM     70  F   UNL A   1      37.815  33.691  39.663  1.00  0.00    -0.200 F 
ATOM     71  C   UNL A   1      39.276  35.312  38.760  1.00  0.00     0.200 A 
ATOM     72  F   UNL A   1      40.731  36.910  37.810  1.00  0.00    -0.200 F 
ATOM     73  F   UNL A   1      39.073  36.106  39.820  1.00  0.00    -0.200 F 
ENDBRANCH  49  63
BRANCH  50  74
ATOM     74  C   UNL A   1      40.971  27.905  28.457  1.00  0.00     0.064 A 
ATOM     75  C   UNL A   1      41.798  28.345  27.413  1.00  0.00     0.173 A 
ATOM     76  C   UNL A   1      40.345  26.658  28.312  1.00  0.00     0.173 A 
ATOM     77  F   UNL A   1      42.404  29.539  27.499  1.00  0.00    -0.203 F 
ATOM     78  C   UNL A   1      41.966  27.585  26.258  1.00  0.00     0.198 A 
ATOM     79  C   UNL A   1      40.536  25.886  27.167  1.00  0.00     0.198 A 
ATOM     80  F   UNL A   1      39.550  26.188  29.283  1.00  0.00    -0.203 F 
ATOM     81  F   UNL A   1      42.719  28.055  25.253  1.00  0.00    -0.200 F 
ATOM     82  C   UNL A   1      41.337  26.355  26.137  1.00  0.00     0.200 A 
ATOM     83  F   UNL A   1      39.939  24.692  27.060  1.00  0.00    -0.200 F 
ATOM     84  F   UNL A   1      41.496  25.625  25.024  1.00  0.00    -0.200 F 
ENDBRANCH  50  74
BRANCH  62  85
ATOM     85  C   UNL A   1      44.070  28.236  34.682  1.00  0.00     0.064 A 
ATOM     86  C   UNL A   1      45.421  28.598  34.576  1.00  0.00     0.173 A 
ATOM     87  C   UNL A   1      43.750  27.092  35.429  1.00  0.00     0.173 A 
ATOM     88  F   UNL A   1      45.776  29.676  33.862  1.00  0.00    -0.203 F 
ATOM     89  C   UNL A   1      46.415  27.825  35.171  1.00  0.00     0.198 A 
ATOM     90  C   UNL A   1      44.744  26.338  36.044  1.00  0.00     0.198 A 
ATOM     91  F   UNL A   1      42.471  26.710  35.564  1.00  0.00    -0.203 F 
ATOM     92  F   UNL A   1      47.703  28.160  35.015  1.00  0.00    -0.200 F 
ATOM     93  C   UNL A   1      46.076  26.700  35.907  1.00  0.00     0.200 A 
ATOM     94  F   UNL A   1      44.414  25.257  36.764  1.00  0.00    -0.200 F 
ATOM     95  F   UNL A   1      47.034  25.959  36.480  1.00  0.00    -0.200 F 
ENDBRANCH  62  85
ENDBRANCH  36  37
ENDBRANCH  28  31
ENDBRANCH  26  27
ENDBRANCH  25  26
ENDBRANCH  24  25
ENDBRANCH   1  24
TORSDOF 15
ENDMDL
