MODEL 1
REMARK VINA RESULT:     -12.3      0.000      0.000
REMARK SMILES O=C(NCCCCCCNC(=O)[C@H]1CCCC[C@H]1C(=O)N1CCN(S(=O)(=O)c2ccc(F)cc2)CC1)c1ccc(-c2c3nc(c(-c4c(F)c(F)c(F)c(F)c4F)c4ccc([nH]4)c(-c4c(F)c(F)c(F)c(F)c4F)c4nc(c(-c5c(F)c(F)c(F)c(F)c5F)c5ccc2[nH]5)C=C4)C=C3)cc1
REMARK SMILES IDX 7 1 6 2 5 3 4 4 3 5 1 6 2 7 37 9 38 10 99 11 39 12 98 13
REMARK SMILES IDX 40 14 41 15 42 16 92 17 43 18 97 19 91 20 93 21 44 22 96 23
REMARK SMILES IDX 90 24 89 25 45 27 77 28 57 29 76 30 58 31 61 32 75 33 94 34
REMARK SMILES IDX 59 35 60 36 74 38 95 39 62 40 46 41 47 42 55 43 48 44 49 45
REMARK SMILES IDX 53 46 56 47 50 48 51 49 54 50 52 51 78 52 79 53 87 54 80 55
REMARK SMILES IDX 81 56 85 57 88 58 82 59 83 60 86 61 84 62 63 63 64 64 72 65
REMARK SMILES IDX 65 66 66 67 70 68 73 69 67 70 68 71 71 72 69 73 8 74 9 75
REMARK SMILES IDX 10 76 11 77 12 79 13 80 14 81 18 82 15 83 17 84 16 85 19 86
REMARK SMILES IDX 20 87 21 88 22 89 36 90 23 91 35 92 24 93 25 94 26 95 27 96
REMARK SMILES IDX 28 97 29 98 34 99 30 100 33 101 31 102 32 103
REMARK H PARENT 3 8 93 26 61 37 10 78
REMARK Flexibility Score: inf
ROOT
ATOM      1  C   UNL A   1      40.331  22.683  26.177  1.00  0.00     0.002 C 
ENDROOT
BRANCH   1   2
ATOM      2  C   UNL A   1      40.939  21.518  26.961  1.00  0.00     0.002 C 
BRANCH   2   3
ATOM      3  C   UNL A   1      41.143  20.208  26.205  1.00  0.00     0.021 C 
BRANCH   3   4
ATOM      4  C   UNL A   1      42.406  19.431  26.541  1.00  0.00     0.116 C 
BRANCH   4   5
ATOM      5  N   UNL A   1      43.140  18.966  25.379  1.00  0.00    -0.352 N 
ATOM      6  O   UNL A   1      44.551  19.143  23.618  1.00  0.00    -0.269 OA
ATOM      7  C   UNL A   1      44.061  19.652  24.620  1.00  0.00     0.251 C 
ATOM      8  H   UNL A   1      42.958  18.040  25.098  1.00  0.00     0.163 HD
BRANCH   7   9
ATOM      9  C   UNL A   1      44.421  21.039  24.995  1.00  0.00     0.039 A 
ATOM     10  C   UNL A   1      45.273  21.289  26.073  1.00  0.00     0.014 A 
ATOM     11  C   UNL A   1      43.858  22.101  24.283  1.00  0.00     0.014 A 
ATOM     12  C   UNL A   1      45.429  22.590  26.538  1.00  0.00     0.010 A 
ATOM     13  C   UNL A   1      44.088  23.415  24.699  1.00  0.00     0.010 A 
ATOM     14  C   UNL A   1      44.841  23.669  25.856  1.00  0.00    -0.014 A 
BRANCH  14  15
ATOM     15  C   UNL A   1      45.055  25.051  26.356  1.00  0.00     0.031 A 
ATOM     16  C   UNL A   1      46.394  25.723  26.240  1.00  0.00     0.074 A 
ATOM     17  C   UNL A   1      44.010  25.718  26.882  1.00  0.00     0.049 A 
ATOM     18  N   UNL A   1      46.743  26.933  26.602  1.00  0.00    -0.248 NA
ATOM     19  C   UNL A   1      47.488  24.939  25.648  1.00  0.00     0.031 C 
ATOM     20  C   UNL A   1      42.664  25.167  27.051  1.00  0.00     0.029 A 
ATOM     21  N   UNL A   1      43.904  27.003  27.348  1.00  0.00    -0.354 N 
ATOM     22  C   UNL A   1      48.094  27.048  26.300  1.00  0.00     0.074 A 
ATOM     23  C   UNL A   1      48.511  25.776  25.749  1.00  0.00     0.031 C 
ATOM     24  C   UNL A   1      41.856  26.122  27.528  1.00  0.00     0.029 A 
ATOM     25  C   UNL A   1      42.636  27.334  27.756  1.00  0.00     0.049 A 
ATOM     26  H   UNL A   1      44.664  27.629  27.384  1.00  0.00     0.167 HD
ATOM     27  C   UNL A   1      48.907  28.121  26.459  1.00  0.00     0.037 A 
ATOM     28  C   UNL A   1      42.151  28.482  28.264  1.00  0.00     0.037 A 
ATOM     29  C   UNL A   1      48.482  29.389  26.994  1.00  0.00     0.049 A 
ATOM     30  C   UNL A   1      43.075  29.653  28.437  1.00  0.00     0.074 A 
ATOM     31  C   UNL A   1      49.230  30.539  27.185  1.00  0.00     0.029 A 
ATOM     32  N   UNL A   1      47.193  29.677  27.420  1.00  0.00    -0.354 N 
ATOM     33  N   UNL A   1      44.347  29.748  28.143  1.00  0.00    -0.248 NA
ATOM     34  C   UNL A   1      42.496  30.873  29.015  1.00  0.00     0.031 C 
ATOM     35  C   UNL A   1      48.404  31.509  27.762  1.00  0.00     0.029 A 
ATOM     36  C   UNL A   1      47.128  30.982  27.884  1.00  0.00     0.049 A 
ATOM     37  H   UNL A   1      46.437  29.048  27.398  1.00  0.00     0.167 HD
ATOM     38  C   UNL A   1      44.721  31.040  28.482  1.00  0.00     0.074 A 
ATOM     39  C   UNL A   1      43.534  31.698  28.991  1.00  0.00     0.031 C 
ATOM     40  C   UNL A   1      45.939  31.626  28.381  1.00  0.00     0.037 A 
BRANCH  27  41
ATOM     41  C   UNL A   1      50.347  27.974  26.060  1.00  0.00     0.064 A 
ATOM     42  C   UNL A   1      50.720  28.020  24.706  1.00  0.00     0.173 A 
ATOM     43  C   UNL A   1      51.352  27.726  27.006  1.00  0.00     0.173 A 
ATOM     44  F   UNL A   1      49.798  28.246  23.759  1.00  0.00    -0.203 F 
ATOM     45  C   UNL A   1      52.040  27.812  24.318  1.00  0.00     0.198 A 
ATOM     46  C   UNL A   1      52.677  27.547  26.616  1.00  0.00     0.198 A 
ATOM     47  F   UNL A   1      51.052  27.684  28.314  1.00  0.00    -0.203 F 
ATOM     48  F   UNL A   1      52.366  27.832  23.017  1.00  0.00    -0.200 F 
ATOM     49  C   UNL A   1      53.019  27.581  25.273  1.00  0.00     0.200 A 
ATOM     50  F   UNL A   1      53.625  27.346  27.542  1.00  0.00    -0.200 F 
ATOM     51  F   UNL A   1      54.292  27.395  24.899  1.00  0.00    -0.200 F 
ENDBRANCH  27  41
BRANCH  28  52
ATOM     52  C   UNL A   1      40.712  28.568  28.613  1.00  0.00     0.064 A 
ATOM     53  C   UNL A   1      39.767  29.050  27.694  1.00  0.00     0.173 A 
ATOM     54  C   UNL A   1      40.263  28.234  29.898  1.00  0.00     0.173 A 
ATOM     55  F   UNL A   1      40.151  29.392  26.455  1.00  0.00    -0.203 F 
ATOM     56  C   UNL A   1      38.434  29.220  28.057  1.00  0.00     0.198 A 
ATOM     57  C   UNL A   1      38.924  28.379  30.251  1.00  0.00     0.198 A 
ATOM     58  F   UNL A   1      41.129  27.756  30.805  1.00  0.00    -0.203 F 
ATOM     59  F   UNL A   1      37.562  29.727  27.176  1.00  0.00    -0.200 F 
ATOM     60  C   UNL A   1      38.013  28.883  29.334  1.00  0.00     0.200 A 
ATOM     61  F   UNL A   1      38.518  28.036  31.481  1.00  0.00    -0.200 F 
ATOM     62  F   UNL A   1      36.729  29.046  29.683  1.00  0.00    -0.200 F 
ENDBRANCH  28  52
BRANCH  40  63
ATOM     63  C   UNL A   1      46.052  33.061  28.804  1.00  0.00     0.064 A 
ATOM     64  C   UNL A   1      45.862  34.090  27.871  1.00  0.00     0.173 A 
ATOM     65  C   UNL A   1      46.408  33.415  30.113  1.00  0.00     0.173 A 
ATOM     66  F   UNL A   1      45.528  33.801  26.604  1.00  0.00    -0.203 F 
ATOM     67  C   UNL A   1      46.035  35.423  28.230  1.00  0.00     0.198 A 
ATOM     68  C   UNL A   1      46.553  34.751  30.476  1.00  0.00     0.198 A 
ATOM     69  F   UNL A   1      46.586  32.466  31.045  1.00  0.00    -0.203 F 
ATOM     70  F   UNL A   1      45.876  36.389  27.315  1.00  0.00    -0.200 F 
ATOM     71  C   UNL A   1      46.377  35.753  29.533  1.00  0.00     0.200 A 
ATOM     72  F   UNL A   1      46.860  35.069  31.742  1.00  0.00    -0.200 F 
ATOM     73  F   UNL A   1      46.529  37.038  29.882  1.00  0.00    -0.200 F 
ENDBRANCH  40  63
ENDBRANCH  14  15
ENDBRANCH   7   9
ENDBRANCH   4   5
ENDBRANCH   3   4
ENDBRANCH   2   3
ENDBRANCH   1   2
BRANCH   1  74
ATOM     74  C   UNL A   1      38.893  23.104  26.513  1.00  0.00     0.021 C 
BRANCH  74  75
ATOM     75  C   UNL A   1      37.766  22.433  25.735  1.00  0.00     0.116 C 
BRANCH  75  76
ATOM     76  N   UNL A   1      36.653  23.312  25.456  1.00  0.00    -0.356 N 
ATOM     77  C   UNL A   1      35.359  22.870  25.429  1.00  0.00     0.223 C 
ATOM     78  H   UNL A   1      36.833  24.264  25.279  1.00  0.00     0.163 HD
ATOM     79  O   UNL A   1      34.601  23.342  26.272  1.00  0.00    -0.275 OA
BRANCH  77  80
ATOM     80  C   UNL A   1      34.912  21.915  24.318  1.00  0.00     0.091 C 
ATOM     81  C   UNL A   1      34.700  20.502  24.891  1.00  0.00     0.014 C 
ATOM     82  C   UNL A   1      33.587  22.331  23.634  1.00  0.00     0.091 C 
ATOM     83  C   UNL A   1      33.603  20.495  25.953  1.00  0.00     0.001 C 
ATOM     84  C   UNL A   1      32.392  22.328  24.607  1.00  0.00     0.014 C 
ATOM     85  C   UNL A   1      32.279  21.034  25.417  1.00  0.00     0.001 C 
BRANCH  82  86
ATOM     86  C   UNL A   1      33.489  23.562  22.707  1.00  0.00     0.226 C 
ATOM     87  O   UNL A   1      33.755  23.421  21.507  1.00  0.00    -0.275 OA
ATOM     88  N   UNL A   1      32.879  24.716  23.147  1.00  0.00    -0.340 N 
ATOM     89  C   UNL A   1      31.992  25.440  22.228  1.00  0.00     0.136 C 
ATOM     90  C   UNL A   1      33.487  25.590  24.139  1.00  0.00     0.136 C 
ATOM     91  C   UNL A   1      30.915  26.241  22.992  1.00  0.00     0.124 C 
ATOM     92  C   UNL A   1      32.401  26.310  24.948  1.00  0.00     0.124 C 
ATOM     93  N   UNL A   1      31.497  27.118  24.074  1.00  0.00    -0.194 NA
BRANCH  93  94
ATOM     94  S   UNL A   1      32.034  28.643  23.546  1.00  0.00     0.243 S 
ATOM     95  O   UNL A   1      33.210  28.450  22.717  1.00  0.00    -0.207 OA
ATOM     96  O   UNL A   1      30.890  29.364  23.048  1.00  0.00    -0.207 OA
BRANCH  94  97
ATOM     97  C   UNL A   1      32.575  29.442  25.048  1.00  0.00     0.082 A 
ATOM     98  C   UNL A   1      31.725  30.357  25.687  1.00  0.00     0.025 A 
ATOM     99  C   UNL A   1      33.812  29.107  25.611  1.00  0.00     0.025 A 
ATOM    100  C   UNL A   1      32.149  30.999  26.849  1.00  0.00     0.040 A 
ATOM    101  C   UNL A   1      34.214  29.731  26.795  1.00  0.00     0.040 A 
ATOM    102  C   UNL A   1      33.387  30.680  27.394  1.00  0.00     0.123 A 
ATOM    103  F   UNL A   1      33.788  31.291  28.516  1.00  0.00    -0.207 F 
ENDBRANCH  94  97
ENDBRANCH  93  94
ENDBRANCH  82  86
ENDBRANCH  77  80
ENDBRANCH  75  76
ENDBRANCH  74  75
ENDBRANCH   1  74
TORSDOF 16
ENDMDL
MODEL 2
REMARK VINA RESULT:     -12.3      0.401      6.877
REMARK SMILES O=C(NCCCCCCNC(=O)[C@H]1CCCC[C@H]1C(=O)N1CCN(S(=O)(=O)c2ccc(F)cc2)CC1)c1ccc(-c2c3nc(c(-c4c(F)c(F)c(F)c(F)c4F)c4ccc([nH]4)c(-c4c(F)c(F)c(F)c(F)c4F)c4nc(c(-c5c(F)c(F)c(F)c(F)c5F)c5ccc2[nH]5)C=C4)C=C3)cc1
REMARK SMILES IDX 7 1 6 2 5 3 4 4 3 5 1 6 2 7 37 9 38 10 99 11 39 12 98 13
REMARK SMILES IDX 40 14 41 15 42 16 92 17 43 18 97 19 91 20 93 21 44 22 96 23
REMARK SMILES IDX 90 24 89 25 45 27 77 28 57 29 76 30 58 31 61 32 75 33 94 34
REMARK SMILES IDX 59 35 60 36 74 38 95 39 62 40 46 41 47 42 55 43 48 44 49 45
REMARK SMILES IDX 53 46 56 47 50 48 51 49 54 50 52 51 78 52 79 53 87 54 80 55
REMARK SMILES IDX 81 56 85 57 88 58 82 59 83 60 86 61 84 62 63 63 64 64 72 65
REMARK SMILES IDX 65 66 66 67 70 68 73 69 67 70 68 71 71 72 69 73 8 74 9 75
REMARK SMILES IDX 10 76 11 77 12 79 13 80 14 81 18 82 15 83 17 84 16 85 19 86
REMARK SMILES IDX 20 87 21 88 22 89 36 90 23 91 35 92 24 93 25 94 26 95 27 96
REMARK SMILES IDX 28 97 29 98 34 99 30 100 33 101 31 102 32 103
REMARK H PARENT 3 8 93 26 61 37 10 78
REMARK Flexibility Score: inf
ROOT
ATOM      1  C   UNL A   1      40.426  22.568  26.507  1.00  0.00     0.002 C 
ENDROOT
BRANCH   1   2
ATOM      2  C   UNL A   1      40.505  21.147  27.069  1.00  0.00     0.002 C 
BRANCH   2   3
ATOM      3  C   UNL A   1      41.072  20.070  26.147  1.00  0.00     0.021 C 
BRANCH   3   4
ATOM      4  C   UNL A   1      42.405  19.469  26.564  1.00  0.00     0.116 C 
BRANCH   4   5
ATOM      5  N   UNL A   1      43.170  18.910  25.464  1.00  0.00    -0.352 N 
ATOM      6  O   UNL A   1      44.649  18.937  23.752  1.00  0.00    -0.269 OA
ATOM      7  C   UNL A   1      44.136  19.523  24.698  1.00  0.00     0.251 C 
ATOM      8  H   UNL A   1      42.975  17.972  25.237  1.00  0.00     0.163 HD
BRANCH   7   9
ATOM      9  C   UNL A   1      44.516  20.923  24.995  1.00  0.00     0.039 A 
ATOM     10  C   UNL A   1      45.281  21.232  26.122  1.00  0.00     0.014 A 
ATOM     11  C   UNL A   1      44.059  21.942  24.156  1.00  0.00     0.014 A 
ATOM     12  C   UNL A   1      45.448  22.561  26.497  1.00  0.00     0.010 A 
ATOM     13  C   UNL A   1      44.304  23.278  24.487  1.00  0.00     0.010 A 
ATOM     14  C   UNL A   1      44.964  23.599  25.684  1.00  0.00    -0.014 A 
BRANCH  14  15
ATOM     15  C   UNL A   1      45.188  25.009  26.092  1.00  0.00     0.031 A 
ATOM     16  C   UNL A   1      44.091  25.824  26.716  1.00  0.00     0.074 A 
ATOM     17  C   UNL A   1      46.416  25.542  25.933  1.00  0.00     0.049 A 
ATOM     18  N   UNL A   1      44.127  27.059  27.153  1.00  0.00    -0.248 NA
ATOM     19  C   UNL A   1      42.779  25.176  26.866  1.00  0.00     0.031 C 
ATOM     20  C   UNL A   1      47.558  24.849  25.334  1.00  0.00     0.029 A 
ATOM     21  N   UNL A   1      46.916  26.770  26.280  1.00  0.00    -0.354 N 
ATOM     22  C   UNL A   1      42.846  27.340  27.611  1.00  0.00     0.074 A 
ATOM     23  C   UNL A   1      42.046  26.158  27.375  1.00  0.00     0.031 C 
ATOM     24  C   UNL A   1      48.637  25.639  25.407  1.00  0.00     0.029 A 
ATOM     25  C   UNL A   1      48.252  26.915  26.001  1.00  0.00     0.049 A 
ATOM     26  H   UNL A   1      46.369  27.480  26.691  1.00  0.00     0.167 HD
ATOM     27  C   UNL A   1      42.385  28.479  28.184  1.00  0.00     0.037 A 
ATOM     28  C   UNL A   1      49.078  27.960  26.193  1.00  0.00     0.037 A 
ATOM     29  C   UNL A   1      43.191  29.648  28.430  1.00  0.00     0.049 A 
ATOM     30  C   UNL A   1      48.541  29.212  26.823  1.00  0.00     0.074 A 
ATOM     31  C   UNL A   1      42.816  30.846  29.014  1.00  0.00     0.029 A 
ATOM     32  N   UNL A   1      44.535  29.765  28.109  1.00  0.00    -0.354 N 
ATOM     33  N   UNL A   1      47.329  29.462  27.254  1.00  0.00    -0.248 NA
ATOM     34  C   UNL A   1      49.482  30.327  26.989  1.00  0.00     0.031 C 
ATOM     35  C   UNL A   1      43.923  31.701  29.011  1.00  0.00     0.029 A 
ATOM     36  C   UNL A   1      45.002  31.019  28.473  1.00  0.00     0.049 A 
ATOM     37  H   UNL A   1      45.078  29.062  27.684  1.00  0.00     0.167 HD
ATOM     38  C   UNL A   1      47.364  30.753  27.759  1.00  0.00     0.074 A 
ATOM     39  C   UNL A   1      48.722  31.230  27.593  1.00  0.00     0.031 C 
ATOM     40  C   UNL A   1      46.358  31.477  28.308  1.00  0.00     0.037 A 
BRANCH  27  41
ATOM     41  C   UNL A   1      40.938  28.528  28.580  1.00  0.00     0.064 A 
ATOM     42  C   UNL A   1      39.966  28.992  27.678  1.00  0.00     0.173 A 
ATOM     43  C   UNL A   1      40.516  28.176  29.871  1.00  0.00     0.173 A 
ATOM     44  F   UNL A   1      40.316  29.349  26.434  1.00  0.00    -0.203 F 
ATOM     45  C   UNL A   1      38.632  29.111  28.058  1.00  0.00     0.198 A 
ATOM     46  C   UNL A   1      39.176  28.270  30.238  1.00  0.00     0.198 A 
ATOM     47  F   UNL A   1      41.401  27.716  30.768  1.00  0.00    -0.203 F 
ATOM     48  F   UNL A   1      37.728  29.584  27.187  1.00  0.00    -0.200 F 
ATOM     49  C   UNL A   1      38.237  28.746  29.335  1.00  0.00     0.200 A 
ATOM     50  F   UNL A   1      38.792  27.895  31.466  1.00  0.00    -0.200 F 
ATOM     51  F   UNL A   1      36.950  28.847  29.696  1.00  0.00    -0.200 F 
ENDBRANCH  27  41
BRANCH  28  52
ATOM     52  C   UNL A   1      50.504  27.836  25.802  1.00  0.00     0.064 A 
ATOM     53  C   UNL A   1      50.905  27.950  24.462  1.00  0.00     0.173 A 
ATOM     54  C   UNL A   1      51.486  27.535  26.755  1.00  0.00     0.173 A 
ATOM     55  F   UNL A   1      49.998  28.228  23.513  1.00  0.00    -0.203 F 
ATOM     56  C   UNL A   1      52.228  27.738  24.087  1.00  0.00     0.198 A 
ATOM     57  C   UNL A   1      52.815  27.350  26.382  1.00  0.00     0.198 A 
ATOM     58  F   UNL A   1      51.152  27.430  28.050  1.00  0.00    -0.203 F 
ATOM     59  F   UNL A   1      52.575  27.805  22.795  1.00  0.00    -0.200 F 
ATOM     60  C   UNL A   1      53.183  27.440  25.047  1.00  0.00     0.200 A 
ATOM     61  F   UNL A   1      53.738  27.079  27.315  1.00  0.00    -0.200 F 
ATOM     62  F   UNL A   1      54.458  27.237  24.687  1.00  0.00    -0.200 F 
ENDBRANCH  28  52
BRANCH  40  63
ATOM     63  C   UNL A   1      46.688  32.856  28.799  1.00  0.00     0.064 A 
ATOM     64  C   UNL A   1      46.609  33.954  27.929  1.00  0.00     0.173 A 
ATOM     65  C   UNL A   1      47.139  33.082  30.107  1.00  0.00     0.173 A 
ATOM     66  F   UNL A   1      46.190  33.787  26.665  1.00  0.00    -0.203 F 
ATOM     67  C   UNL A   1      46.981  35.227  28.349  1.00  0.00     0.198 A 
ATOM     68  C   UNL A   1      47.484  34.362  30.531  1.00  0.00     0.198 A 
ATOM     69  F   UNL A   1      47.217  32.066  30.979  1.00  0.00    -0.203 F 
ATOM     70  F   UNL A   1      46.924  36.257  27.493  1.00  0.00    -0.200 F 
ATOM     71  C   UNL A   1      47.414  35.431  29.650  1.00  0.00     0.200 A 
ATOM     72  F   UNL A   1      47.880  34.562  31.796  1.00  0.00    -0.200 F 
ATOM     73  F   UNL A   1      47.759  36.661  30.058  1.00  0.00    -0.200 F 
ENDBRANCH  40  63
ENDBRANCH  14  15
ENDBRANCH   7   9
ENDBRANCH   4   5
ENDBRANCH   3   4
ENDBRANCH   2   3
ENDBRANCH   1   2
BRANCH   1  74
ATOM     74  C   UNL A   1      39.054  23.257  26.479  1.00  0.00     0.021 C 
BRANCH  74  75
ATOM     75  C   UNL A   1      37.928  22.547  25.735  1.00  0.00     0.116 C 
BRANCH  75  76
ATOM     76  N   UNL A   1      36.786  23.393  25.471  1.00  0.00    -0.356 N 
ATOM     77  C   UNL A   1      35.505  22.912  25.458  1.00  0.00     0.223 C 
ATOM     78  H   UNL A   1      36.936  24.349  25.293  1.00  0.00     0.163 HD
ATOM     79  O   UNL A   1      34.744  23.360  26.311  1.00  0.00    -0.275 OA
BRANCH  77  80
ATOM     80  C   UNL A   1      35.074  21.947  24.350  1.00  0.00     0.091 C 
ATOM     81  C   UNL A   1      34.914  20.526  24.923  1.00  0.00     0.014 C 
ATOM     82  C   UNL A   1      33.728  22.323  23.685  1.00  0.00     0.091 C 
ATOM     83  C   UNL A   1      33.831  20.483  25.998  1.00  0.00     0.001 C 
ATOM     84  C   UNL A   1      32.547  22.281  24.674  1.00  0.00     0.014 C 
ATOM     85  C   UNL A   1      32.484  20.982  25.482  1.00  0.00     0.001 C 
BRANCH  82  86
ATOM     86  C   UNL A   1      33.581  23.552  22.762  1.00  0.00     0.226 C 
ATOM     87  O   UNL A   1      33.839  23.423  21.560  1.00  0.00    -0.275 OA
ATOM     88  N   UNL A   1      32.936  24.684  23.212  1.00  0.00    -0.340 N 
ATOM     89  C   UNL A   1      32.017  25.380  22.303  1.00  0.00     0.136 C 
ATOM     90  C   UNL A   1      33.524  25.576  24.201  1.00  0.00     0.136 C 
ATOM     91  C   UNL A   1      30.921  26.143  23.079  1.00  0.00     0.124 C 
ATOM     92  C   UNL A   1      32.423  26.257  25.022  1.00  0.00     0.124 C 
ATOM     93  N   UNL A   1      31.484  27.036  24.158  1.00  0.00    -0.194 NA
BRANCH  93  94
ATOM     94  S   UNL A   1      31.964  28.580  23.630  1.00  0.00     0.243 S 
ATOM     95  O   UNL A   1      33.101  28.422  22.742  1.00  0.00    -0.207 OA
ATOM     96  O   UNL A   1      30.783  29.284  23.200  1.00  0.00    -0.207 OA
BRANCH  94  97
ATOM     97  C   UNL A   1      32.563  29.366  25.116  1.00  0.00     0.082 A 
ATOM     98  C   UNL A   1      33.846  29.056  25.591  1.00  0.00     0.025 A 
ATOM     99  C   UNL A   1      31.779  30.328  25.763  1.00  0.00     0.025 A 
ATOM    100  C   UNL A   1      34.313  29.650  26.762  1.00  0.00     0.040 A 
ATOM    101  C   UNL A   1      32.269  30.945  26.918  1.00  0.00     0.040 A 
ATOM    102  C   UNL A   1      33.522  30.590  27.413  1.00  0.00     0.123 A 
ATOM    103  F   UNL A   1      33.978  31.168  28.532  1.00  0.00    -0.207 F 
ENDBRANCH  94  97
ENDBRANCH  93  94
ENDBRANCH  82  86
ENDBRANCH  77  80
ENDBRANCH  75  76
ENDBRANCH  74  75
ENDBRANCH   1  74
TORSDOF 16
ENDMDL
MODEL 3
REMARK VINA RESULT:     -12.1      4.488      8.821
REMARK SMILES O=C(NCCCCCCNC(=O)[C@H]1CCCC[C@H]1C(=O)N1CCN(S(=O)(=O)c2ccc(F)cc2)CC1)c1ccc(-c2c3nc(c(-c4c(F)c(F)c(F)c(F)c4F)c4ccc([nH]4)c(-c4c(F)c(F)c(F)c(F)c4F)c4nc(c(-c5c(F)c(F)c(F)c(F)c5F)c5ccc2[nH]5)C=C4)C=C3)cc1
REMARK SMILES IDX 7 1 6 2 5 3 4 4 3 5 1 6 2 7 37 9 38 10 99 11 39 12 98 13
REMARK SMILES IDX 40 14 41 15 42 16 92 17 43 18 97 19 91 20 93 21 44 22 96 23
REMARK SMILES IDX 90 24 89 25 45 27 77 28 57 29 76 30 58 31 61 32 75 33 94 34
REMARK SMILES IDX 59 35 60 36 74 38 95 39 62 40 46 41 47 42 55 43 48 44 49 45
REMARK SMILES IDX 53 46 56 47 50 48 51 49 54 50 52 51 78 52 79 53 87 54 80 55
REMARK SMILES IDX 81 56 85 57 88 58 82 59 83 60 86 61 84 62 63 63 64 64 72 65
REMARK SMILES IDX 65 66 66 67 70 68 73 69 67 70 68 71 71 72 69 73 8 74 9 75
REMARK SMILES IDX 10 76 11 77 12 79 13 80 14 81 18 82 15 83 17 84 16 85 19 86
REMARK SMILES IDX 20 87 21 88 22 89 36 90 23 91 35 92 24 93 25 94 26 95 27 96
REMARK SMILES IDX 28 97 29 98 34 99 30 100 33 101 31 102 32 103
REMARK H PARENT 3 8 93 26 61 37 10 78
REMARK Flexibility Score: inf
ROOT
ATOM      1  C   UNL A   1      43.504  23.767  28.364  1.00  0.00     0.002 C 
ENDROOT
BRANCH   1   2
ATOM      2  C   UNL A   1      42.238  23.058  28.850  1.00  0.00     0.002 C 
BRANCH   2   3
ATOM      3  C   UNL A   1      41.662  21.974  27.943  1.00  0.00     0.021 C 
BRANCH   3   4
ATOM      4  C   UNL A   1      41.505  22.343  26.476  1.00  0.00     0.116 C 
BRANCH   4   5
ATOM      5  N   UNL A   1      40.143  22.244  25.984  1.00  0.00    -0.352 N 
ATOM      6  O   UNL A   1      37.992  22.892  25.711  1.00  0.00    -0.269 OA
ATOM      7  C   UNL A   1      39.116  23.150  26.126  1.00  0.00     0.251 C 
ATOM      8  H   UNL A   1      39.925  21.424  25.485  1.00  0.00     0.163 HD
BRANCH   7   9
ATOM      9  C   UNL A   1      39.368  24.427  26.833  1.00  0.00     0.039 A 
ATOM     10  C   UNL A   1      40.061  25.465  26.208  1.00  0.00     0.014 A 
ATOM     11  C   UNL A   1      38.942  24.563  28.157  1.00  0.00     0.014 A 
ATOM     12  C   UNL A   1      40.469  26.566  26.954  1.00  0.00     0.010 A 
ATOM     13  C   UNL A   1      39.277  25.711  28.880  1.00  0.00     0.010 A 
ATOM     14  C   UNL A   1      40.081  26.704  28.297  1.00  0.00    -0.014 A 
BRANCH  14  15
ATOM     15  C   UNL A   1      40.502  27.908  29.057  1.00  0.00     0.031 A 
ATOM     16  C   UNL A   1      41.919  28.075  29.530  1.00  0.00     0.074 A 
ATOM     17  C   UNL A   1      39.597  28.880  29.284  1.00  0.00     0.049 A 
ATOM     18  N   UNL A   1      42.458  29.076  30.182  1.00  0.00    -0.248 NA
ATOM     19  C   UNL A   1      42.855  26.979  29.240  1.00  0.00     0.031 C 
ATOM     20  C   UNL A   1      38.191  28.826  28.879  1.00  0.00     0.029 A 
ATOM     21  N   UNL A   1      39.724  30.105  29.885  1.00  0.00    -0.354 N 
ATOM     22  C   UNL A   1      43.784  28.723  30.396  1.00  0.00     0.074 A 
ATOM     23  C   UNL A   1      43.965  27.403  29.828  1.00  0.00     0.031 C 
ATOM     24  C   UNL A   1      37.601  29.988  29.190  1.00  0.00     0.029 A 
ATOM     25  C   UNL A   1      38.567  30.844  29.870  1.00  0.00     0.049 A 
ATOM     26  H   UNL A   1      40.564  30.426  30.287  1.00  0.00     0.167 HD
ATOM     27  C   UNL A   1      44.761  29.439  31.003  1.00  0.00     0.037 A 
ATOM     28  C   UNL A   1      38.306  32.071  30.355  1.00  0.00     0.037 A 
ATOM     29  C   UNL A   1      44.579  30.758  31.553  1.00  0.00     0.049 A 
ATOM     30  C   UNL A   1      39.404  32.842  31.029  1.00  0.00     0.074 A 
ATOM     31  C   UNL A   1      45.511  31.569  32.178  1.00  0.00     0.029 A 
ATOM     32  N   UNL A   1      43.384  31.463  31.540  1.00  0.00    -0.354 N 
ATOM     33  N   UNL A   1      40.653  32.497  31.219  1.00  0.00    -0.248 NA
ATOM     34  C   UNL A   1      39.056  34.167  31.557  1.00  0.00     0.031 C 
ATOM     35  C   UNL A   1      44.872  32.747  32.578  1.00  0.00     0.029 A 
ATOM     36  C   UNL A   1      43.553  32.693  32.157  1.00  0.00     0.049 A 
ATOM     37  H   UNL A   1      42.540  31.137  31.152  1.00  0.00     0.167 HD
ATOM     38  C   UNL A   1      41.247  33.566  31.873  1.00  0.00     0.074 A 
ATOM     39  C   UNL A   1      40.224  34.579  32.033  1.00  0.00     0.031 C 
ATOM     40  C   UNL A   1      42.526  33.694  32.303  1.00  0.00     0.037 A 
BRANCH  27  41
ATOM     41  C   UNL A   1      46.122  28.814  31.116  1.00  0.00     0.064 A 
ATOM     42  C   UNL A   1      46.411  27.919  32.160  1.00  0.00     0.173 A 
ATOM     43  C   UNL A   1      47.159  29.143  30.232  1.00  0.00     0.173 A 
ATOM     44  F   UNL A   1      45.457  27.576  33.039  1.00  0.00    -0.203 F 
ATOM     45  C   UNL A   1      47.688  27.390  32.319  1.00  0.00     0.198 A 
ATOM     46  C   UNL A   1      48.429  28.589  30.377  1.00  0.00     0.198 A 
ATOM     47  F   UNL A   1      46.934  29.983  29.210  1.00  0.00    -0.203 F 
ATOM     48  F   UNL A   1      47.947  26.560  33.340  1.00  0.00    -0.200 F 
ATOM     49  C   UNL A   1      48.695  27.721  31.425  1.00  0.00     0.200 A 
ATOM     50  F   UNL A   1      49.395  28.893  29.499  1.00  0.00    -0.200 F 
ATOM     51  F   UNL A   1      49.921  27.199  31.570  1.00  0.00    -0.200 F 
ENDBRANCH  27  41
BRANCH  28  52
ATOM     52  C   UNL A   1      36.946  32.642  30.186  1.00  0.00     0.064 A 
ATOM     53  C   UNL A   1      36.584  33.328  29.016  1.00  0.00     0.173 A 
ATOM     54  C   UNL A   1      36.004  32.571  31.221  1.00  0.00     0.173 A 
ATOM     55  F   UNL A   1      37.457  33.431  28.002  1.00  0.00    -0.203 F 
ATOM     56  C   UNL A   1      35.342  33.945  28.900  1.00  0.00     0.198 A 
ATOM     57  C   UNL A   1      34.751  33.166  31.092  1.00  0.00     0.198 A 
ATOM     58  F   UNL A   1      36.301  31.913  32.352  1.00  0.00    -0.203 F 
ATOM     59  F   UNL A   1      35.040  34.634  27.792  1.00  0.00    -0.200 F 
ATOM     60  C   UNL A   1      34.425  33.862  29.937  1.00  0.00     0.200 A 
ATOM     61  F   UNL A   1      33.862  33.069  32.090  1.00  0.00    -0.200 F 
ATOM     62  F   UNL A   1      33.229  34.455  29.826  1.00  0.00    -0.200 F 
ENDBRANCH  28  52
BRANCH  40  63
ATOM     63  C   UNL A   1      42.907  34.985  32.966  1.00  0.00     0.064 A 
ATOM     64  C   UNL A   1      43.400  36.053  32.202  1.00  0.00     0.173 A 
ATOM     65  C   UNL A   1      42.840  35.144  34.357  1.00  0.00     0.173 A 
ATOM     66  F   UNL A   1      43.490  35.946  30.868  1.00  0.00    -0.203 F 
ATOM     67  C   UNL A   1      43.826  37.231  32.810  1.00  0.00     0.198 A 
ATOM     68  C   UNL A   1      43.240  36.334  34.959  1.00  0.00     0.198 A 
ATOM     69  F   UNL A   1      42.361  34.156  35.127  1.00  0.00    -0.203 F 
ATOM     70  F   UNL A   1      44.320  38.227  32.064  1.00  0.00    -0.200 F 
ATOM     71  C   UNL A   1      43.742  37.372  34.187  1.00  0.00     0.200 A 
ATOM     72  F   UNL A   1      43.136  36.478  36.287  1.00  0.00    -0.200 F 
ATOM     73  F   UNL A   1      44.137  38.512  34.770  1.00  0.00    -0.200 F 
ENDBRANCH  40  63
ENDBRANCH  14  15
ENDBRANCH   7   9
ENDBRANCH   4   5
ENDBRANCH   3   4
ENDBRANCH   2   3
ENDBRANCH   1   2
BRANCH   1  74
ATOM     74  C   UNL A   1      44.768  22.921  28.155  1.00  0.00     0.021 C 
BRANCH  74  75
ATOM     75  C   UNL A   1      45.494  23.063  26.821  1.00  0.00     0.116 C 
BRANCH  75  76
ATOM     76  N   UNL A   1      45.079  24.218  26.058  1.00  0.00    -0.356 N 
ATOM     77  C   UNL A   1      45.819  25.368  26.005  1.00  0.00     0.223 C 
ATOM     78  H   UNL A   1      44.232  24.177  25.558  1.00  0.00     0.163 HD
ATOM     79  O   UNL A   1      46.261  25.685  24.905  1.00  0.00    -0.275 OA
BRANCH  77  80
ATOM     80  C   UNL A   1      45.968  26.225  27.265  1.00  0.00     0.091 C 
ATOM     81  C   UNL A   1      47.158  25.727  28.105  1.00  0.00     0.014 C 
ATOM     82  C   UNL A   1      46.217  27.725  26.972  1.00  0.00     0.091 C 
ATOM     83  C   UNL A   1      48.469  25.842  27.330  1.00  0.00     0.001 C 
ATOM     84  C   UNL A   1      47.538  27.970  26.216  1.00  0.00     0.014 C 
ATOM     85  C   UNL A   1      48.738  27.268  26.859  1.00  0.00     0.001 C 
BRANCH  82  86
ATOM     86  C   UNL A   1      45.119  28.644  26.395  1.00  0.00     0.226 C 
ATOM     87  O   UNL A   1      44.053  28.135  26.030  1.00  0.00    -0.275 OA
ATOM     88  N   UNL A   1      45.222  30.012  26.520  1.00  0.00    -0.340 N 
ATOM     89  C   UNL A   1      44.019  30.782  26.863  1.00  0.00     0.136 C 
ATOM     90  C   UNL A   1      46.187  30.795  25.762  1.00  0.00     0.136 C 
ATOM     91  C   UNL A   1      44.375  32.089  27.605  1.00  0.00     0.124 C 
ATOM     92  C   UNL A   1      46.595  32.044  26.553  1.00  0.00     0.124 C 
ATOM     93  N   UNL A   1      45.419  32.905  26.882  1.00  0.00    -0.194 NA
BRANCH  93  94
ATOM     94  S   UNL A   1      44.812  33.939  25.677  1.00  0.00     0.243 S 
ATOM     95  O   UNL A   1      45.937  34.516  24.963  1.00  0.00    -0.207 OA
ATOM     96  O   UNL A   1      43.775  33.230  24.971  1.00  0.00    -0.207 OA
BRANCH  94  97
ATOM     97  C   UNL A   1      44.044  35.259  26.601  1.00  0.00     0.082 A 
ATOM     98  C   UNL A   1      44.848  36.237  27.203  1.00  0.00     0.025 A 
ATOM     99  C   UNL A   1      42.648  35.346  26.668  1.00  0.00     0.025 A 
ATOM    100  C   UNL A   1      44.257  37.259  27.944  1.00  0.00     0.040 A 
ATOM    101  C   UNL A   1      42.063  36.393  27.384  1.00  0.00     0.040 A 
ATOM    102  C   UNL A   1      42.871  37.330  28.025  1.00  0.00     0.123 A 
ATOM    103  F   UNL A   1      42.305  38.319  28.729  1.00  0.00    -0.207 F 
ENDBRANCH  94  97
ENDBRANCH  93  94
ENDBRANCH  82  86
ENDBRANCH  77  80
ENDBRANCH  75  76
ENDBRANCH  74  75
ENDBRANCH   1  74
TORSDOF 16
ENDMDL
