MODEL 1
REMARK VINA RESULT:     -12.9      0.000      0.000
REMARK SMILES O=C(NCCCCCCNC(=O)C1(NC(=O)c2nc(C3CC3)n[nH]2)CCCCC1)c1ccc(-c2c3nc(c(-c4c(F)c(F)c(F)c(F)c4F)c4ccc([nH]4)c(-c4c(F)c(F)c(F)c(F)c4F)c4nc(c(-c5c(F)c(F)c(F)c(F)c5F)c5ccc2[nH]5)C=C4)C=C3)cc1
REMARK SMILES IDX 7 1 6 2 5 3 4 4 3 5 1 6 2 7 30 9 31 10 92 11 32 12 91 13
REMARK SMILES IDX 33 14 34 15 35 16 85 17 36 18 90 19 84 20 86 21 37 22 89 23
REMARK SMILES IDX 83 24 82 25 38 27 70 28 50 29 69 30 51 31 54 32 68 33 87 34
REMARK SMILES IDX 52 35 53 36 67 38 88 39 55 40 39 41 40 42 48 43 41 44 42 45
REMARK SMILES IDX 46 46 49 47 43 48 44 49 47 50 45 51 71 52 72 53 80 54 73 55
REMARK SMILES IDX 74 56 78 57 81 58 75 59 76 60 79 61 77 62 56 63 57 64 65 65
REMARK SMILES IDX 58 66 59 67 63 68 66 69 60 70 61 71 64 72 62 73 8 74 9 75
REMARK SMILES IDX 10 76 11 77 12 79 13 80 25 81 29 82 26 83 28 84 27 85 14 86
REMARK SMILES IDX 15 87 16 89 17 90 18 91 24 92 19 93 23 94 20 96 21 97 22 98
REMARK H PARENT 3 8 86 26 54 37 10 78 14 88 24 95
REMARK Flexibility Score: inf
ROOT
ATOM      1  C   UNL A   1      32.121  29.867  27.251  1.00  0.00     0.002 C 
ENDROOT
BRANCH   1   2
ATOM      2  C   UNL A   1      31.628  30.817  26.156  1.00  0.00     0.002 C 
BRANCH   2   3
ATOM      3  C   UNL A   1      31.397  32.260  26.590  1.00  0.00     0.021 C 
BRANCH   3   4
ATOM      4  C   UNL A   1      32.601  32.903  27.255  1.00  0.00     0.116 C 
BRANCH   4   5
ATOM      5  N   UNL A   1      32.345  34.278  27.647  1.00  0.00    -0.352 N 
ATOM      6  O   UNL A   1      32.529  36.102  28.972  1.00  0.00    -0.269 OA
ATOM      7  C   UNL A   1      32.960  35.010  28.633  1.00  0.00     0.251 C 
ATOM      8  H   UNL A   1      31.642  34.745  27.140  1.00  0.00     0.163 HD
BRANCH   7   9
ATOM      9  C   UNL A   1      34.154  34.441  29.288  1.00  0.00     0.039 A 
ATOM     10  C   UNL A   1      34.016  33.717  30.476  1.00  0.00     0.014 A 
ATOM     11  C   UNL A   1      35.411  34.644  28.719  1.00  0.00     0.014 A 
ATOM     12  C   UNL A   1      35.145  33.299  31.161  1.00  0.00     0.010 A 
ATOM     13  C   UNL A   1      36.540  34.123  29.352  1.00  0.00     0.010 A 
ATOM     14  C   UNL A   1      36.412  33.448  30.576  1.00  0.00    -0.014 A 
BRANCH  14  15
ATOM     15  C   UNL A   1      37.562  32.742  31.184  1.00  0.00     0.031 A 
ATOM     16  C   UNL A   1      38.220  31.584  30.502  1.00  0.00     0.074 A 
ATOM     17  C   UNL A   1      37.983  33.171  32.391  1.00  0.00     0.049 A 
ATOM     18  N   UNL A   1      39.195  30.826  30.935  1.00  0.00    -0.248 NA
ATOM     19  C   UNL A   1      37.722  31.217  29.168  1.00  0.00     0.031 C 
ATOM     20  C   UNL A   1      37.391  34.285  33.141  1.00  0.00     0.029 A 
ATOM     21  N   UNL A   1      38.995  32.732  33.203  1.00  0.00    -0.354 N 
ATOM     22  C   UNL A   1      39.408  29.879  29.945  1.00  0.00     0.074 A 
ATOM     23  C   UNL A   1      38.458  30.150  28.887  1.00  0.00     0.031 C 
ATOM     24  C   UNL A   1      38.065  34.459  34.284  1.00  0.00     0.029 A 
ATOM     25  C   UNL A   1      39.075  33.415  34.392  1.00  0.00     0.049 A 
ATOM     26  H   UNL A   1      39.606  31.999  32.958  1.00  0.00     0.167 HD
ATOM     27  C   UNL A   1      40.317  28.875  29.936  1.00  0.00     0.037 A 
ATOM     28  C   UNL A   1      39.838  33.194  35.475  1.00  0.00     0.037 A 
ATOM     29  C   UNL A   1      41.266  28.640  30.996  1.00  0.00     0.049 A 
ATOM     30  C   UNL A   1      40.804  32.046  35.444  1.00  0.00     0.074 A 
ATOM     31  C   UNL A   1      42.282  27.701  31.048  1.00  0.00     0.029 A 
ATOM     32  N   UNL A   1      41.303  29.337  32.195  1.00  0.00    -0.354 N 
ATOM     33  N   UNL A   1      41.049  31.201  34.471  1.00  0.00    -0.248 NA
ATOM     34  C   UNL A   1      41.592  31.811  36.659  1.00  0.00     0.031 C 
ATOM     35  C   UNL A   1      42.885  27.782  32.306  1.00  0.00     0.029 A 
ATOM     36  C   UNL A   1      42.291  28.814  33.015  1.00  0.00     0.049 A 
ATOM     37  H   UNL A   1      40.716  30.092  32.428  1.00  0.00     0.167 HD
ATOM     38  C   UNL A   1      42.025  30.342  34.953  1.00  0.00     0.074 A 
ATOM     39  C   UNL A   1      42.350  30.789  36.293  1.00  0.00     0.031 C 
ATOM     40  C   UNL A   1      42.594  29.273  34.346  1.00  0.00     0.037 A 
BRANCH  27  41
ATOM     41  C   UNL A   1      40.326  27.928  28.771  1.00  0.00     0.064 A 
ATOM     42  C   UNL A   1      41.072  28.182  27.613  1.00  0.00     0.173 A 
ATOM     43  C   UNL A   1      39.653  26.699  28.863  1.00  0.00     0.173 A 
ATOM     44  F   UNL A   1      41.728  29.344  27.471  1.00  0.00    -0.203 F 
ATOM     45  C   UNL A   1      41.137  27.244  26.584  1.00  0.00     0.198 A 
ATOM     46  C   UNL A   1      39.742  25.753  27.845  1.00  0.00     0.198 A 
ATOM     47  F   UNL A   1      38.930  26.403  29.954  1.00  0.00    -0.203 F 
ATOM     48  F   UNL A   1      41.837  27.517  25.474  1.00  0.00    -0.200 F 
ATOM     49  C   UNL A   1      40.483  26.026  26.705  1.00  0.00     0.200 A 
ATOM     50  F   UNL A   1      39.121  24.573  27.973  1.00  0.00    -0.200 F 
ATOM     51  F   UNL A   1      40.565  25.117  25.725  1.00  0.00    -0.200 F 
ENDBRANCH  27  41
BRANCH  28  52
ATOM     52  C   UNL A   1      39.673  34.037  36.689  1.00  0.00     0.064 A 
ATOM     53  C   UNL A   1      40.329  35.268  36.811  1.00  0.00     0.173 A 
ATOM     54  C   UNL A   1      38.862  33.620  37.757  1.00  0.00     0.173 A 
ATOM     55  F   UNL A   1      41.126  35.704  35.824  1.00  0.00    -0.203 F 
ATOM     56  C   UNL A   1      40.208  36.034  37.968  1.00  0.00     0.198 A 
ATOM     57  C   UNL A   1      38.710  34.405  38.896  1.00  0.00     0.198 A 
ATOM     58  F   UNL A   1      38.204  32.453  37.687  1.00  0.00    -0.203 F 
ATOM     59  F   UNL A   1      40.893  37.179  38.085  1.00  0.00    -0.200 F 
ATOM     60  C   UNL A   1      39.394  35.606  39.007  1.00  0.00     0.200 A 
ATOM     61  F   UNL A   1      37.904  33.997  39.886  1.00  0.00    -0.200 F 
ATOM     62  F   UNL A   1      39.276  36.345  40.118  1.00  0.00    -0.200 F 
ENDBRANCH  28  52
BRANCH  40  63
ATOM     63  C   UNL A   1      43.634  28.523  35.123  1.00  0.00     0.064 A 
ATOM     64  C   UNL A   1      44.993  28.865  35.042  1.00  0.00     0.173 A 
ATOM     65  C   UNL A   1      43.265  27.486  35.990  1.00  0.00     0.173 A 
ATOM     66  F   UNL A   1      45.397  29.835  34.210  1.00  0.00    -0.203 F 
ATOM     67  C   UNL A   1      45.946  28.180  35.789  1.00  0.00     0.198 A 
ATOM     68  C   UNL A   1      44.217  26.827  36.762  1.00  0.00     0.198 A 
ATOM     69  F   UNL A   1      41.978  27.124  36.104  1.00  0.00    -0.203 F 
ATOM     70  F   UNL A   1      47.243  28.490  35.663  1.00  0.00    -0.200 F 
ATOM     71  C   UNL A   1      45.556  27.170  36.657  1.00  0.00     0.200 A 
ATOM     72  F   UNL A   1      43.837  25.861  37.610  1.00  0.00    -0.200 F 
ATOM     73  F   UNL A   1      46.474  26.522  37.387  1.00  0.00    -0.200 F 
ENDBRANCH  40  63
ENDBRANCH  14  15
ENDBRANCH   7   9
ENDBRANCH   4   5
ENDBRANCH   3   4
ENDBRANCH   2   3
ENDBRANCH   1   2
BRANCH   1  74
ATOM     74  C   UNL A   1      33.640  29.669  27.324  1.00  0.00     0.021 C 
BRANCH  74  75
ATOM     75  C   UNL A   1      34.149  28.444  26.574  1.00  0.00     0.116 C 
BRANCH  75  76
ATOM     76  N   UNL A   1      34.278  28.696  25.152  1.00  0.00    -0.354 N 
ATOM     77  C   UNL A   1      33.763  28.028  24.073  1.00  0.00     0.245 C 
ATOM     78  H   UNL A   1      34.829  29.478  24.923  1.00  0.00     0.163 HD
ATOM     79  O   UNL A   1      34.143  28.408  22.961  1.00  0.00    -0.272 OA
BRANCH  77  80
ATOM     80  C   UNL A   1      32.949  26.708  24.258  1.00  0.00     0.119 C 
ATOM     81  C   UNL A   1      33.785  25.595  24.935  1.00  0.00     0.038 C 
ATOM     82  C   UNL A   1      31.819  27.145  25.247  1.00  0.00     0.038 C 
ATOM     83  C   UNL A   1      32.921  24.451  25.487  1.00  0.00     0.003 C 
ATOM     84  C   UNL A   1      30.980  26.008  25.812  1.00  0.00     0.003 C 
ATOM     85  C   UNL A   1      31.858  24.951  26.458  1.00  0.00     0.000 C 
BRANCH  80  86
ATOM     86  N   UNL A   1      32.356  26.173  23.008  1.00  0.00    -0.335 N 
ATOM     87  C   UNL A   1      31.552  26.776  22.061  1.00  0.00     0.289 C 
ATOM     88  H   UNL A   1      32.572  25.230  22.823  1.00  0.00     0.165 HD
ATOM     89  O   UNL A   1      31.359  26.144  21.019  1.00  0.00    -0.266 OA
BRANCH  87  90
ATOM     90  C   UNL A   1      30.792  27.965  22.367  1.00  0.00     0.214 A 
ATOM     91  N   UNL A   1      29.563  28.087  22.828  1.00  0.00    -0.207 NA
ATOM     92  N   UNL A   1      31.252  29.211  22.042  1.00  0.00    -0.255 N 
ATOM     93  C   UNL A   1      29.251  29.398  22.546  1.00  0.00     0.154 A 
ATOM     94  N   UNL A   1      30.258  30.110  22.028  1.00  0.00    -0.158 NA
ATOM     95  H   UNL A   1      32.193  29.421  21.844  1.00  0.00     0.192 HD
BRANCH  93  96
ATOM     96  C   UNL A   1      27.861  29.994  22.679  1.00  0.00     0.060 C 
ATOM     97  C   UNL A   1      27.615  31.121  23.654  1.00  0.00     0.012 C 
ATOM     98  C   UNL A   1      27.608  31.395  22.182  1.00  0.00     0.012 C 
ENDBRANCH  93  96
ENDBRANCH  87  90
ENDBRANCH  80  86
ENDBRANCH  77  80
ENDBRANCH  75  76
ENDBRANCH  74  75
ENDBRANCH   1  74
TORSDOF 16
ENDMDL
MODEL 2
REMARK VINA RESULT:     -12.8      1.305      2.442
REMARK SMILES O=C(NCCCCCCNC(=O)C1(NC(=O)c2nc(C3CC3)n[nH]2)CCCCC1)c1ccc(-c2c3nc(c(-c4c(F)c(F)c(F)c(F)c4F)c4ccc([nH]4)c(-c4c(F)c(F)c(F)c(F)c4F)c4nc(c(-c5c(F)c(F)c(F)c(F)c5F)c5ccc2[nH]5)C=C4)C=C3)cc1
REMARK SMILES IDX 7 1 6 2 5 3 4 4 3 5 1 6 2 7 30 9 31 10 92 11 32 12 91 13
REMARK SMILES IDX 33 14 34 15 35 16 85 17 36 18 90 19 84 20 86 21 37 22 89 23
REMARK SMILES IDX 83 24 82 25 38 27 70 28 50 29 69 30 51 31 54 32 68 33 87 34
REMARK SMILES IDX 52 35 53 36 67 38 88 39 55 40 39 41 40 42 48 43 41 44 42 45
REMARK SMILES IDX 46 46 49 47 43 48 44 49 47 50 45 51 71 52 72 53 80 54 73 55
REMARK SMILES IDX 74 56 78 57 81 58 75 59 76 60 79 61 77 62 56 63 57 64 65 65
REMARK SMILES IDX 58 66 59 67 63 68 66 69 60 70 61 71 64 72 62 73 8 74 9 75
REMARK SMILES IDX 10 76 11 77 12 79 13 80 25 81 29 82 26 83 28 84 27 85 14 86
REMARK SMILES IDX 15 87 16 89 17 90 18 91 24 92 19 93 23 94 20 96 21 97 22 98
REMARK H PARENT 3 8 86 26 54 37 10 78 14 88 24 95
REMARK Flexibility Score: inf
ROOT
ATOM      1  C   UNL A   1      32.567  29.629  26.858  1.00  0.00     0.002 C 
ENDROOT
BRANCH   1   2
ATOM      2  C   UNL A   1      31.721  30.593  26.022  1.00  0.00     0.002 C 
BRANCH   2   3
ATOM      3  C   UNL A   1      31.430  31.943  26.668  1.00  0.00     0.021 C 
BRANCH   3   4
ATOM      4  C   UNL A   1      32.654  32.623  27.252  1.00  0.00     0.116 C 
BRANCH   4   5
ATOM      5  N   UNL A   1      32.409  34.018  27.577  1.00  0.00    -0.352 N 
ATOM      6  O   UNL A   1      32.602  35.902  28.814  1.00  0.00    -0.269 OA
ATOM      7  C   UNL A   1      33.025  34.791  28.529  1.00  0.00     0.251 C 
ATOM      8  H   UNL A   1      31.712  34.465  27.046  1.00  0.00     0.163 HD
BRANCH   7   9
ATOM      9  C   UNL A   1      34.212  34.245  29.217  1.00  0.00     0.039 A 
ATOM     10  C   UNL A   1      34.052  33.459  30.362  1.00  0.00     0.014 A 
ATOM     11  C   UNL A   1      35.484  34.530  28.720  1.00  0.00     0.014 A 
ATOM     12  C   UNL A   1      35.165  33.058  31.082  1.00  0.00     0.010 A 
ATOM     13  C   UNL A   1      36.605  34.030  29.384  1.00  0.00     0.010 A 
ATOM     14  C   UNL A   1      36.450  33.292  30.568  1.00  0.00    -0.014 A 
BRANCH  14  15
ATOM     15  C   UNL A   1      37.602  32.609  31.199  1.00  0.00     0.031 A 
ATOM     16  C   UNL A   1      38.292  31.459  30.535  1.00  0.00     0.074 A 
ATOM     17  C   UNL A   1      37.994  33.051  32.411  1.00  0.00     0.049 A 
ATOM     18  N   UNL A   1      39.272  30.721  30.988  1.00  0.00    -0.248 NA
ATOM     19  C   UNL A   1      37.823  31.078  29.194  1.00  0.00     0.031 C 
ATOM     20  C   UNL A   1      37.369  34.158  33.146  1.00  0.00     0.029 A 
ATOM     21  N   UNL A   1      38.999  32.633  33.243  1.00  0.00    -0.354 N 
ATOM     22  C   UNL A   1      39.519  29.773  30.007  1.00  0.00     0.074 A 
ATOM     23  C   UNL A   1      38.583  30.022  28.931  1.00  0.00     0.031 C 
ATOM     24  C   UNL A   1      38.020  34.348  34.299  1.00  0.00     0.029 A 
ATOM     25  C   UNL A   1      39.045  33.323  34.430  1.00  0.00     0.049 A 
ATOM     26  H   UNL A   1      39.627  31.910  33.012  1.00  0.00     0.167 HD
ATOM     27  C   UNL A   1      40.446  28.785  30.018  1.00  0.00     0.037 A 
ATOM     28  C   UNL A   1      39.794  33.120  35.528  1.00  0.00     0.037 A 
ATOM     29  C   UNL A   1      41.380  28.572  31.095  1.00  0.00     0.049 A 
ATOM     30  C   UNL A   1      40.780  31.989  35.519  1.00  0.00     0.074 A 
ATOM     31  C   UNL A   1      42.411  27.652  31.170  1.00  0.00     0.029 A 
ATOM     32  N   UNL A   1      41.384  29.275  32.292  1.00  0.00    -0.354 N 
ATOM     33  N   UNL A   1      41.057  31.145  34.555  1.00  0.00    -0.248 NA
ATOM     34  C   UNL A   1      41.550  31.774  36.749  1.00  0.00     0.031 C 
ATOM     35  C   UNL A   1      42.991  27.749  32.438  1.00  0.00     0.029 A 
ATOM     36  C   UNL A   1      42.366  28.773  33.131  1.00  0.00     0.049 A 
ATOM     37  H   UNL A   1      40.779  30.020  32.511  1.00  0.00     0.167 HD
ATOM     38  C   UNL A   1      42.039  30.305  35.057  1.00  0.00     0.074 A 
ATOM     39  C   UNL A   1      42.333  30.763  36.400  1.00  0.00     0.031 C 
ATOM     40  C   UNL A   1      42.637  29.244  34.465  1.00  0.00     0.037 A 
BRANCH  27  41
ATOM     41  C   UNL A   1      40.492  27.834  28.858  1.00  0.00     0.064 A 
ATOM     42  C   UNL A   1      39.710  26.672  28.818  1.00  0.00     0.173 A 
ATOM     43  C   UNL A   1      41.261  28.148  27.725  1.00  0.00     0.173 A 
ATOM     44  F   UNL A   1      38.962  26.323  29.876  1.00  0.00    -0.203 F 
ATOM     45  C   UNL A   1      39.702  25.854  27.689  1.00  0.00     0.198 A 
ATOM     46  C   UNL A   1      41.230  27.342  26.591  1.00  0.00     0.198 A 
ATOM     47  F   UNL A   1      42.023  29.252  27.710  1.00  0.00    -0.203 F 
ATOM     48  F   UNL A   1      38.964  24.735  27.681  1.00  0.00    -0.200 F 
ATOM     49  C   UNL A   1      40.452  26.195  26.573  1.00  0.00     0.200 A 
ATOM     50  F   UNL A   1      41.944  27.683  25.509  1.00  0.00    -0.200 F 
ATOM     51  F   UNL A   1      40.424  25.419  25.481  1.00  0.00    -0.200 F 
ENDBRANCH  27  41
BRANCH  28  52
ATOM     52  C   UNL A   1      39.593  33.965  36.734  1.00  0.00     0.064 A 
ATOM     53  C   UNL A   1      40.197  35.223  36.846  1.00  0.00     0.173 A 
ATOM     54  C   UNL A   1      38.799  33.524  37.805  1.00  0.00     0.173 A 
ATOM     55  F   UNL A   1      40.975  35.684  35.856  1.00  0.00    -0.203 F 
ATOM     56  C   UNL A   1      40.042  35.994  37.997  1.00  0.00     0.198 A 
ATOM     57  C   UNL A   1      38.613  34.311  38.938  1.00  0.00     0.198 A 
ATOM     58  F   UNL A   1      38.190  32.330  37.745  1.00  0.00    -0.203 F 
ATOM     59  F   UNL A   1      40.679  37.167  38.104  1.00  0.00    -0.200 F 
ATOM     60  C   UNL A   1      39.246  35.540  39.039  1.00  0.00     0.200 A 
ATOM     61  F   UNL A   1      37.824  33.879  39.930  1.00  0.00    -0.200 F 
ATOM     62  F   UNL A   1      39.097  36.283  40.144  1.00  0.00    -0.200 F 
ENDBRANCH  28  52
BRANCH  40  63
ATOM     63  C   UNL A   1      43.677  28.516  35.263  1.00  0.00     0.064 A 
ATOM     64  C   UNL A   1      43.337  27.442  36.100  1.00  0.00     0.173 A 
ATOM     65  C   UNL A   1      45.031  28.865  35.155  1.00  0.00     0.173 A 
ATOM     66  F   UNL A   1      42.053  27.086  36.253  1.00  0.00    -0.203 F 
ATOM     67  C   UNL A   1      44.314  26.757  36.814  1.00  0.00     0.198 A 
ATOM     68  C   UNL A   1      46.009  28.154  35.844  1.00  0.00     0.198 A 
ATOM     69  F   UNL A   1      45.407  29.882  34.365  1.00  0.00    -0.203 F 
ATOM     70  F   UNL A   1      43.964  25.765  37.644  1.00  0.00    -0.200 F 
ATOM     71  C   UNL A   1      45.651  27.105  36.677  1.00  0.00     0.200 A 
ATOM     72  F   UNL A   1      47.300  28.483  35.698  1.00  0.00    -0.200 F 
ATOM     73  F   UNL A   1      46.592  26.434  37.353  1.00  0.00    -0.200 F 
ENDBRANCH  40  63
ENDBRANCH  14  15
ENDBRANCH   7   9
ENDBRANCH   4   5
ENDBRANCH   3   4
ENDBRANCH   2   3
ENDBRANCH   1   2
BRANCH   1  74
ATOM     74  C   UNL A   1      31.845  28.369  27.352  1.00  0.00     0.021 C 
BRANCH  74  75
ATOM     75  C   UNL A   1      32.223  27.096  26.605  1.00  0.00     0.116 C 
BRANCH  75  76
ATOM     76  N   UNL A   1      31.348  25.991  26.944  1.00  0.00    -0.354 N 
ATOM     77  C   UNL A   1      31.485  24.644  26.740  1.00  0.00     0.245 C 
ATOM     78  H   UNL A   1      30.514  26.252  27.396  1.00  0.00     0.163 HD
ATOM     79  O   UNL A   1      30.511  23.943  27.034  1.00  0.00    -0.272 OA
BRANCH  77  80
ATOM     80  C   UNL A   1      32.704  24.070  25.948  1.00  0.00     0.119 C 
ATOM     81  C   UNL A   1      33.707  25.175  25.539  1.00  0.00     0.038 C 
ATOM     82  C   UNL A   1      33.391  23.150  27.008  1.00  0.00     0.038 C 
ATOM     83  C   UNL A   1      35.077  24.616  25.127  1.00  0.00     0.003 C 
ATOM     84  C   UNL A   1      34.759  22.615  26.610  1.00  0.00     0.003 C 
ATOM     85  C   UNL A   1      35.693  23.747  26.218  1.00  0.00     0.000 C 
BRANCH  80  86
ATOM     86  N   UNL A   1      32.338  23.282  24.746  1.00  0.00    -0.335 N 
ATOM     87  C   UNL A   1      31.754  23.671  23.556  1.00  0.00     0.289 C 
ATOM     88  H   UNL A   1      32.546  22.322  24.806  1.00  0.00     0.165 HD
ATOM     89  O   UNL A   1      31.737  22.832  22.651  1.00  0.00    -0.266 OA
BRANCH  87  90
ATOM     90  C   UNL A   1      31.000  24.898  23.454  1.00  0.00     0.214 A 
ATOM     91  N   UNL A   1      31.374  26.085  23.018  1.00  0.00    -0.207 NA
ATOM     92  N   UNL A   1      29.746  25.013  23.987  1.00  0.00    -0.255 N 
ATOM     93  C   UNL A   1      30.401  26.922  23.518  1.00  0.00     0.154 A 
ATOM     94  N   UNL A   1      29.402  26.298  24.151  1.00  0.00    -0.158 NA
ATOM     95  H   UNL A   1      29.170  24.250  24.220  1.00  0.00     0.192 HD
BRANCH  93  96
ATOM     96  C   UNL A   1      30.479  28.438  23.485  1.00  0.00     0.060 C 
ATOM     97  C   UNL A   1      30.243  29.176  22.188  1.00  0.00     0.012 C 
ATOM     98  C   UNL A   1      29.217  29.238  23.276  1.00  0.00     0.012 C 
ENDBRANCH  93  96
ENDBRANCH  87  90
ENDBRANCH  80  86
ENDBRANCH  77  80
ENDBRANCH  75  76
ENDBRANCH  74  75
ENDBRANCH   1  74
TORSDOF 16
ENDMDL
MODEL 3
REMARK VINA RESULT:     -12.7      1.147      3.226
REMARK SMILES O=C(NCCCCCCNC(=O)C1(NC(=O)c2nc(C3CC3)n[nH]2)CCCCC1)c1ccc(-c2c3nc(c(-c4c(F)c(F)c(F)c(F)c4F)c4ccc([nH]4)c(-c4c(F)c(F)c(F)c(F)c4F)c4nc(c(-c5c(F)c(F)c(F)c(F)c5F)c5ccc2[nH]5)C=C4)C=C3)cc1
REMARK SMILES IDX 7 1 6 2 5 3 4 4 3 5 1 6 2 7 30 9 31 10 92 11 32 12 91 13
REMARK SMILES IDX 33 14 34 15 35 16 85 17 36 18 90 19 84 20 86 21 37 22 89 23
REMARK SMILES IDX 83 24 82 25 38 27 70 28 50 29 69 30 51 31 54 32 68 33 87 34
REMARK SMILES IDX 52 35 53 36 67 38 88 39 55 40 39 41 40 42 48 43 41 44 42 45
REMARK SMILES IDX 46 46 49 47 43 48 44 49 47 50 45 51 71 52 72 53 80 54 73 55
REMARK SMILES IDX 74 56 78 57 81 58 75 59 76 60 79 61 77 62 56 63 57 64 65 65
REMARK SMILES IDX 58 66 59 67 63 68 66 69 60 70 61 71 64 72 62 73 8 74 9 75
REMARK SMILES IDX 10 76 11 77 12 79 13 80 25 81 29 82 26 83 28 84 27 85 14 86
REMARK SMILES IDX 15 87 16 89 17 90 18 91 24 92 19 93 23 94 20 96 21 97 22 98
REMARK H PARENT 3 8 86 26 54 37 10 78 14 88 24 95
REMARK Flexibility Score: inf
ROOT
ATOM      1  C   UNL A   1      32.372  29.815  26.948  1.00  0.00     0.002 C 
ENDROOT
BRANCH   1   2
ATOM      2  C   UNL A   1      31.619  30.791  26.041  1.00  0.00     0.002 C 
BRANCH   2   3
ATOM      3  C   UNL A   1      31.358  32.172  26.631  1.00  0.00     0.021 C 
BRANCH   3   4
ATOM      4  C   UNL A   1      32.585  32.823  27.241  1.00  0.00     0.116 C 
BRANCH   4   5
ATOM      5  N   UNL A   1      32.343  34.202  27.630  1.00  0.00    -0.352 N 
ATOM      6  O   UNL A   1      32.545  36.028  28.949  1.00  0.00    -0.269 OA
ATOM      7  C   UNL A   1      32.966  34.931  28.613  1.00  0.00     0.251 C 
ATOM      8  H   UNL A   1      31.644  34.674  27.123  1.00  0.00     0.163 HD
BRANCH   7   9
ATOM      9  C   UNL A   1      34.155  34.353  29.269  1.00  0.00     0.039 A 
ATOM     10  C   UNL A   1      34.008  33.598  30.436  1.00  0.00     0.014 A 
ATOM     11  C   UNL A   1      35.418  34.577  28.720  1.00  0.00     0.014 A 
ATOM     12  C   UNL A   1      35.130  33.169  31.124  1.00  0.00     0.010 A 
ATOM     13  C   UNL A   1      36.543  34.048  29.354  1.00  0.00     0.010 A 
ATOM     14  C   UNL A   1      36.403  33.341  30.559  1.00  0.00    -0.014 A 
BRANCH  14  15
ATOM     15  C   UNL A   1      37.551  32.627  31.163  1.00  0.00     0.031 A 
ATOM     16  C   UNL A   1      38.212  31.478  30.469  1.00  0.00     0.074 A 
ATOM     17  C   UNL A   1      37.965  33.039  32.379  1.00  0.00     0.049 A 
ATOM     18  N   UNL A   1      39.185  30.714  30.896  1.00  0.00    -0.248 NA
ATOM     19  C   UNL A   1      37.721  31.130  29.127  1.00  0.00     0.031 C 
ATOM     20  C   UNL A   1      37.369  34.143  33.141  1.00  0.00     0.029 A 
ATOM     21  N   UNL A   1      38.973  32.589  33.189  1.00  0.00    -0.354 N 
ATOM     22  C   UNL A   1      39.404  29.781  29.895  1.00  0.00     0.074 A 
ATOM     23  C   UNL A   1      38.459  30.066  28.836  1.00  0.00     0.031 C 
ATOM     24  C   UNL A   1      38.037  34.300  34.289  1.00  0.00     0.029 A 
ATOM     25  C   UNL A   1      39.046  33.255  34.388  1.00  0.00     0.049 A 
ATOM     26  H   UNL A   1      39.585  31.859  32.938  1.00  0.00     0.167 HD
ATOM     27  C   UNL A   1      40.313  28.777  29.877  1.00  0.00     0.037 A 
ATOM     28  C   UNL A   1      39.804  33.019  35.473  1.00  0.00     0.037 A 
ATOM     29  C   UNL A   1      41.256  28.528  30.938  1.00  0.00     0.049 A 
ATOM     30  C   UNL A   1      40.770  31.872  35.431  1.00  0.00     0.074 A 
ATOM     31  C   UNL A   1      42.272  27.589  30.983  1.00  0.00     0.029 A 
ATOM     32  N   UNL A   1      41.287  29.208  32.147  1.00  0.00    -0.354 N 
ATOM     33  N   UNL A   1      41.021  31.041  34.448  1.00  0.00    -0.248 NA
ATOM     34  C   UNL A   1      41.551  31.621  36.647  1.00  0.00     0.031 C 
ATOM     35  C   UNL A   1      42.869  27.652  32.245  1.00  0.00     0.029 A 
ATOM     36  C   UNL A   1      42.271  28.674  32.965  1.00  0.00     0.049 A 
ATOM     37  H   UNL A   1      40.698  29.960  32.388  1.00  0.00     0.167 HD
ATOM     38  C   UNL A   1      41.994  30.175  34.923  1.00  0.00     0.074 A 
ATOM     39  C   UNL A   1      42.311  30.603  36.270  1.00  0.00     0.031 C 
ATOM     40  C   UNL A   1      42.566  29.115  34.304  1.00  0.00     0.037 A 
BRANCH  27  41
ATOM     41  C   UNL A   1      40.328  27.847  28.699  1.00  0.00     0.064 A 
ATOM     42  C   UNL A   1      41.082  28.115  27.549  1.00  0.00     0.173 A 
ATOM     43  C   UNL A   1      39.653  26.617  28.769  1.00  0.00     0.173 A 
ATOM     44  F   UNL A   1      41.742  29.278  27.428  1.00  0.00    -0.203 F 
ATOM     45  C   UNL A   1      41.153  27.191  26.508  1.00  0.00     0.198 A 
ATOM     46  C   UNL A   1      39.746  25.686  27.739  1.00  0.00     0.198 A 
ATOM     47  F   UNL A   1      38.922  26.308  29.851  1.00  0.00    -0.203 F 
ATOM     48  F   UNL A   1      41.861  27.478  25.407  1.00  0.00    -0.200 F 
ATOM     49  C   UNL A   1      40.496  25.973  26.608  1.00  0.00     0.200 A 
ATOM     50  F   UNL A   1      39.123  24.505  27.846  1.00  0.00    -0.200 F 
ATOM     51  F   UNL A   1      40.583  25.077  25.616  1.00  0.00    -0.200 F 
ENDBRANCH  27  41
BRANCH  28  52
ATOM     52  C   UNL A   1      39.632  33.845  36.696  1.00  0.00     0.064 A 
ATOM     53  C   UNL A   1      38.801  33.427  37.743  1.00  0.00     0.173 A 
ATOM     54  C   UNL A   1      40.291  35.078  36.838  1.00  0.00     0.173 A 
ATOM     55  F   UNL A   1      38.140  32.264  37.649  1.00  0.00    -0.203 F 
ATOM     56  C   UNL A   1      38.608  34.224  38.869  1.00  0.00     0.198 A 
ATOM     57  C   UNL A   1      40.128  35.856  37.982  1.00  0.00     0.198 A 
ATOM     58  F   UNL A   1      41.106  35.521  35.870  1.00  0.00    -0.203 F 
ATOM     59  F   UNL A   1      37.760  33.829  39.828  1.00  0.00    -0.200 F 
ATOM     60  C   UNL A   1      39.275  35.435  38.990  1.00  0.00     0.200 A 
ATOM     61  F   UNL A   1      40.793  37.011  38.104  1.00  0.00    -0.200 F 
ATOM     62  F   UNL A   1      39.090  36.199  40.075  1.00  0.00    -0.200 F 
ENDBRANCH  28  52
BRANCH  40  63
ATOM     63  C   UNL A   1      43.602  28.354  35.076  1.00  0.00     0.064 A 
ATOM     64  C   UNL A   1      43.263  27.229  35.841  1.00  0.00     0.173 A 
ATOM     65  C   UNL A   1      44.953  28.727  35.012  1.00  0.00     0.173 A 
ATOM     66  F   UNL A   1      41.982  26.847  35.950  1.00  0.00    -0.203 F 
ATOM     67  C   UNL A   1      44.239  26.514  36.530  1.00  0.00     0.198 A 
ATOM     68  C   UNL A   1      45.930  27.989  35.674  1.00  0.00     0.198 A 
ATOM     69  F   UNL A   1      45.327  29.795  34.290  1.00  0.00    -0.203 F 
ATOM     70  F   UNL A   1      43.888  25.471  37.293  1.00  0.00    -0.200 F 
ATOM     71  C   UNL A   1      45.572  26.888  36.437  1.00  0.00     0.200 A 
ATOM     72  F   UNL A   1      47.218  28.343  35.570  1.00  0.00    -0.200 F 
ATOM     73  F   UNL A   1      46.511  26.190  37.089  1.00  0.00    -0.200 F 
ENDBRANCH  40  63
ENDBRANCH  14  15
ENDBRANCH   7   9
ENDBRANCH   4   5
ENDBRANCH   3   4
ENDBRANCH   2   3
ENDBRANCH   1   2
BRANCH   1  74
ATOM     74  C   UNL A   1      31.734  28.428  27.105  1.00  0.00     0.021 C 
BRANCH  74  75
ATOM     75  C   UNL A   1      32.487  27.308  26.399  1.00  0.00     0.116 C 
BRANCH  75  76
ATOM     76  N   UNL A   1      33.450  27.822  25.445  1.00  0.00    -0.354 N 
ATOM     77  C   UNL A   1      33.372  27.975  24.086  1.00  0.00     0.245 C 
ATOM     78  H   UNL A   1      34.305  28.108  25.839  1.00  0.00     0.163 HD
ATOM     79  O   UNL A   1      34.407  28.334  23.515  1.00  0.00    -0.272 OA
BRANCH  77  80
ATOM     80  C   UNL A   1      32.123  27.477  23.291  1.00  0.00     0.119 C 
ATOM     81  C   UNL A   1      31.347  26.375  24.053  1.00  0.00     0.038 C 
ATOM     82  C   UNL A   1      31.229  28.758  23.233  1.00  0.00     0.038 C 
ATOM     83  C   UNL A   1      29.928  26.158  23.505  1.00  0.00     0.003 C 
ATOM     84  C   UNL A   1      29.815  28.537  22.714  1.00  0.00     0.003 C 
ATOM     85  C   UNL A   1      29.111  27.444  23.499  1.00  0.00     0.000 C 
BRANCH  80  86
ATOM     86  N   UNL A   1      32.419  26.997  21.920  1.00  0.00    -0.335 N 
ATOM     87  C   UNL A   1      32.678  25.726  21.445  1.00  0.00     0.289 C 
ATOM     88  H   UNL A   1      32.434  27.702  21.233  1.00  0.00     0.165 HD
ATOM     89  O   UNL A   1      32.705  25.590  20.219  1.00  0.00    -0.266 OA
BRANCH  87  90
ATOM     90  C   UNL A   1      33.123  24.671  22.325  1.00  0.00     0.214 A 
ATOM     91  N   UNL A   1      34.242  24.562  23.014  1.00  0.00    -0.207 NA
ATOM     92  N   UNL A   1      32.438  23.493  22.433  1.00  0.00    -0.255 N 
ATOM     93  C   UNL A   1      34.286  23.223  23.329  1.00  0.00     0.154 A 
ATOM     94  N   UNL A   1      33.207  22.527  22.954  1.00  0.00    -0.158 NA
ATOM     95  H   UNL A   1      31.500  23.370  22.164  1.00  0.00     0.192 HD
BRANCH  93  96
ATOM     96  C   UNL A   1      35.491  22.527  23.937  1.00  0.00     0.060 C 
ATOM     97  C   UNL A   1      36.856  22.705  23.315  1.00  0.00     0.012 C 
ATOM     98  C   UNL A   1      36.547  23.350  24.630  1.00  0.00     0.012 C 
ENDBRANCH  93  96
ENDBRANCH  87  90
ENDBRANCH  80  86
ENDBRANCH  77  80
ENDBRANCH  75  76
ENDBRANCH  74  75
ENDBRANCH   1  74
TORSDOF 16
ENDMDL
