MODEL 1
REMARK VINA RESULT:     -11.6      0.000      0.000
REMARK SMILES O=C(CSc1nc2ccc(Cl)cc2c(=O)n1CC1CCCCC1)NCCCCCCNC(=O)c1ccc(-c2c3nc(c(-c4c(F)c(F)c(F)c(F)c4F)c4ccc([nH]4)c(-c4c(F)c(F)c(F)c(F)c4F)c4nc(c(-c5c(F)c(F)c(F)c(F)c5F)c5ccc2[nH]5)C=C4)C=C3)cc1
REMARK SMILES IDX 26 1 25 2 24 3 1 4 2 5 3 7 4 8 5 9 6 10 16 11 7 12 14 13
REMARK SMILES IDX 8 14 13 15 15 16 9 17 12 18 10 19 11 20 17 21 18 22 19 23
REMARK SMILES IDX 23 24 20 25 22 26 21 27 27 28 28 29 29 30 30 31 31 32 32 33
REMARK SMILES IDX 33 35 34 36 35 37 96 38 36 39 95 40 37 41 38 42 39 43 89 44
REMARK SMILES IDX 40 45 94 46 88 47 90 48 41 49 93 50 87 51 86 52 42 54 74 55
REMARK SMILES IDX 54 56 73 57 55 58 58 59 72 60 91 61 56 62 57 63 71 65 92 66
REMARK SMILES IDX 59 67 43 68 44 69 52 70 45 71 46 72 50 73 53 74 47 75 48 76
REMARK SMILES IDX 51 77 49 78 75 79 76 80 84 81 77 82 78 83 82 84 85 85 79 86
REMARK SMILES IDX 80 87 83 88 81 89 60 90 61 91 69 92 62 93 63 94 67 95 70 96
REMARK SMILES IDX 64 97 65 98 68 99 66 100
REMARK H PARENT 24 6 31 34 90 53 58 64
REMARK Flexibility Score: inf
ROOT
ATOM      1  C   UNL A   1      35.113  31.479  27.983  1.00  0.00     0.021 C 
ENDROOT
BRANCH   1   2
ATOM      2  C   UNL A   1      33.682  31.229  27.526  1.00  0.00     0.116 C 
BRANCH   2   3
ATOM      3  N   UNL A   1      33.240  29.850  27.622  1.00  0.00    -0.355 N 
ATOM      4  O   UNL A   1      31.541  30.018  26.081  1.00  0.00    -0.274 OA
ATOM      5  C   UNL A   1      32.311  29.321  26.737  1.00  0.00     0.230 C 
ATOM      6  H   UNL A   1      33.607  29.276  28.332  1.00  0.00     0.163 HD
BRANCH   5   7
ATOM      7  C   UNL A   1      32.345  27.803  26.574  1.00  0.00     0.178 C 
BRANCH   7   8
ATOM      8  S   UNL A   1      33.857  27.268  25.718  1.00  0.00    -0.078 SA
BRANCH   8   9
ATOM      9  C   UNL A   1      33.506  25.622  25.212  1.00  0.00     0.171 A 
ATOM     10  N   UNL A   1      33.643  24.736  26.147  1.00  0.00    -0.224 NA
ATOM     11  N   UNL A   1      33.234  25.307  23.885  1.00  0.00    -0.287 N 
ATOM     12  C   UNL A   1      33.615  23.381  25.798  1.00  0.00     0.079 A 
ATOM     13  C   UNL A   1      32.955  23.987  23.532  1.00  0.00     0.262 A 
ATOM     14  C   UNL A   1      34.005  22.422  26.735  1.00  0.00     0.031 A 
ATOM     15  C   UNL A   1      33.298  22.957  24.513  1.00  0.00     0.067 A 
ATOM     16  O   UNL A   1      32.470  23.637  22.458  1.00  0.00    -0.269 OA
ATOM     17  C   UNL A   1      34.103  21.073  26.374  1.00  0.00     0.023 A 
ATOM     18  C   UNL A   1      33.382  21.612  24.136  1.00  0.00     0.036 A 
ATOM     19  C   UNL A   1      33.800  20.676  25.072  1.00  0.00     0.042 A 
ATOM     20  Cl  UNL A   1      33.976  19.028  24.613  1.00  0.00    -0.084 Cl
BRANCH  11  21
ATOM     21  C   UNL A   1      33.165  26.258  22.778  1.00  0.00     0.131 C 
BRANCH  21  22
ATOM     22  C   UNL A   1      31.826  27.013  22.621  1.00  0.00     0.009 C 
ATOM     23  C   UNL A   1      30.734  26.540  23.590  1.00  0.00     0.005 C 
ATOM     24  C   UNL A   1      31.981  28.536  22.692  1.00  0.00     0.005 C 
ATOM     25  C   UNL A   1      29.408  27.250  23.337  1.00  0.00     0.000 C 
ATOM     26  C   UNL A   1      30.653  29.231  22.397  1.00  0.00     0.000 C 
ATOM     27  C   UNL A   1      29.561  28.766  23.356  1.00  0.00     0.000 C 
ENDBRANCH  21  22
ENDBRANCH  11  21
ENDBRANCH   8   9
ENDBRANCH   7   8
ENDBRANCH   5   7
ENDBRANCH   2   3
ENDBRANCH   1   2
BRANCH   1  28
ATOM     28  C   UNL A   1      35.360  32.789  28.737  1.00  0.00     0.002 C 
BRANCH  28  29
ATOM     29  C   UNL A   1      34.824  34.071  28.093  1.00  0.00     0.002 C 
BRANCH  29  30
ATOM     30  C   UNL A   1      33.545  34.658  28.691  1.00  0.00     0.021 C 
BRANCH  30  31
ATOM     31  C   UNL A   1      33.721  35.877  29.590  1.00  0.00     0.116 C 
BRANCH  31  32
ATOM     32  N   UNL A   1      32.639  36.070  30.542  1.00  0.00    -0.352 N 
ATOM     33  C   UNL A   1      32.571  35.716  31.873  1.00  0.00     0.251 C 
ATOM     34  H   UNL A   1      31.839  36.518  30.184  1.00  0.00     0.163 HD
ATOM     35  O   UNL A   1      31.538  35.891  32.505  1.00  0.00    -0.269 OA
BRANCH  33  36
ATOM     36  C   UNL A   1      33.736  35.073  32.529  1.00  0.00     0.039 A 
ATOM     37  C   UNL A   1      34.977  35.708  32.579  1.00  0.00     0.014 A 
ATOM     38  C   UNL A   1      33.584  33.796  33.081  1.00  0.00     0.014 A 
ATOM     39  C   UNL A   1      36.097  35.003  33.008  1.00  0.00     0.010 A 
ATOM     40  C   UNL A   1      34.698  33.119  33.591  1.00  0.00     0.010 A 
ATOM     41  C   UNL A   1      35.974  33.694  33.505  1.00  0.00    -0.014 A 
BRANCH  41  42
ATOM     42  C   UNL A   1      37.199  32.946  33.895  1.00  0.00     0.031 A 
ATOM     43  C   UNL A   1      37.816  31.939  32.960  1.00  0.00     0.074 A 
ATOM     44  C   UNL A   1      37.805  33.233  35.064  1.00  0.00     0.049 A 
ATOM     45  N   UNL A   1      38.911  31.234  33.111  1.00  0.00    -0.248 NA
ATOM     46  C   UNL A   1      37.116  31.687  31.690  1.00  0.00     0.031 C 
ATOM     47  C   UNL A   1      37.312  34.197  36.049  1.00  0.00     0.029 A 
ATOM     48  N   UNL A   1      38.978  32.771  35.606  1.00  0.00    -0.354 N 
ATOM     49  C   UNL A   1      39.021  30.451  31.969  1.00  0.00     0.074 A 
ATOM     50  C   UNL A   1      37.867  30.739  31.145  1.00  0.00     0.031 C 
ATOM     51  C   UNL A   1      38.205  34.301  37.044  1.00  0.00     0.029 A 
ATOM     52  C   UNL A   1      39.302  33.370  36.799  1.00  0.00     0.049 A 
ATOM     53  H   UNL A   1      39.533  32.078  35.182  1.00  0.00     0.167 HD
ATOM     54  C   UNL A   1      40.005  29.584  31.629  1.00  0.00     0.037 A 
ATOM     55  C   UNL A   1      40.362  33.187  37.610  1.00  0.00     0.037 A 
ATOM     56  C   UNL A   1      41.169  29.317  32.434  1.00  0.00     0.049 A 
ATOM     57  C   UNL A   1      41.416  32.186  37.230  1.00  0.00     0.074 A 
ATOM     58  C   UNL A   1      42.231  28.473  32.159  1.00  0.00     0.029 A 
ATOM     59  N   UNL A   1      41.425  29.893  33.669  1.00  0.00    -0.354 N 
ATOM     60  N   UNL A   1      41.511  31.461  36.142  1.00  0.00    -0.248 NA
ATOM     61  C   UNL A   1      42.503  31.970  38.194  1.00  0.00     0.031 C 
ATOM     62  C   UNL A   1      43.109  28.506  33.245  1.00  0.00     0.029 A 
ATOM     63  C   UNL A   1      42.617  29.404  34.179  1.00  0.00     0.049 A 
ATOM     64  H   UNL A   1      40.845  30.551  34.117  1.00  0.00     0.167 HD
ATOM     65  C   UNL A   1      42.667  30.707  36.287  1.00  0.00     0.074 A 
ATOM     66  C   UNL A   1      43.255  31.081  37.557  1.00  0.00     0.031 C 
ATOM     67  C   UNL A   1      43.188  29.782  35.446  1.00  0.00     0.037 A 
BRANCH  54  68
ATOM     68  C   UNL A   1      39.878  28.854  30.324  1.00  0.00     0.064 A 
ATOM     69  C   UNL A   1      40.362  29.400  29.126  1.00  0.00     0.173 A 
ATOM     70  C   UNL A   1      39.337  27.559  30.283  1.00  0.00     0.173 A 
ATOM     71  F   UNL A   1      40.878  30.639  29.110  1.00  0.00    -0.203 F 
ATOM     72  C   UNL A   1      40.296  28.684  27.934  1.00  0.00     0.198 A 
ATOM     73  C   UNL A   1      39.296  26.836  29.093  1.00  0.00     0.198 A 
ATOM     74  F   UNL A   1      38.868  26.987  31.402  1.00  0.00    -0.203 F 
ATOM     75  F   UNL A   1      40.737  29.239  26.796  1.00  0.00    -0.200 F 
ATOM     76  C   UNL A   1      39.772  27.400  27.920  1.00  0.00     0.200 A 
ATOM     77  F   UNL A   1      38.803  25.590  29.084  1.00  0.00    -0.200 F 
ATOM     78  F   UNL A   1      39.726  26.707  26.775  1.00  0.00    -0.200 F 
ENDBRANCH  54  68
BRANCH  55  79
ATOM     79  C   UNL A   1      40.475  33.983  38.859  1.00  0.00     0.064 A 
ATOM     80  C   UNL A   1      41.134  35.218  38.869  1.00  0.00     0.173 A 
ATOM     81  C   UNL A   1      39.903  33.537  40.061  1.00  0.00     0.173 A 
ATOM     82  F   UNL A   1      41.716  35.676  37.750  1.00  0.00    -0.203 F 
ATOM     83  C   UNL A   1      41.218  35.979  40.033  1.00  0.00     0.198 A 
ATOM     84  C   UNL A   1      39.963  34.312  41.216  1.00  0.00     0.198 A 
ATOM     85  F   UNL A   1      39.261  32.361  40.103  1.00  0.00    -0.203 F 
ATOM     86  F   UNL A   1      41.877  37.146  40.022  1.00  0.00    -0.200 F 
ATOM     87  C   UNL A   1      40.624  35.530  41.203  1.00  0.00     0.200 A 
ATOM     88  F   UNL A   1      39.375  33.880  42.340  1.00  0.00    -0.200 F 
ATOM     89  F   UNL A   1      40.691  36.271  42.318  1.00  0.00    -0.200 F 
ENDBRANCH  55  79
BRANCH  67  90
ATOM     90  C   UNL A   1      44.459  29.105  35.863  1.00  0.00     0.064 A 
ATOM     91  C   UNL A   1      45.711  29.659  35.564  1.00  0.00     0.173 A 
ATOM     92  C   UNL A   1      44.423  27.930  36.631  1.00  0.00     0.173 A 
ATOM     93  F   UNL A   1      45.796  30.773  34.821  1.00  0.00    -0.203 F 
ATOM     94  C   UNL A   1      46.884  29.057  36.011  1.00  0.00     0.198 A 
ATOM     95  C   UNL A   1      45.597  27.346  37.097  1.00  0.00     0.198 A 
ATOM     96  F   UNL A   1      43.249  27.365  36.949  1.00  0.00    -0.203 F 
ATOM     97  F   UNL A   1      48.073  29.587  35.688  1.00  0.00    -0.200 F 
ATOM     98  C   UNL A   1      46.826  27.907  36.784  1.00  0.00     0.200 A 
ATOM     99  F   UNL A   1      45.539  26.242  37.855  1.00  0.00    -0.200 F 
ATOM    100  F   UNL A   1      47.956  27.338  37.227  1.00  0.00    -0.200 F 
ENDBRANCH  67  90
ENDBRANCH  41  42
ENDBRANCH  33  36
ENDBRANCH  31  32
ENDBRANCH  30  31
ENDBRANCH  29  30
ENDBRANCH  28  29
ENDBRANCH   1  28
TORSDOF 17
ENDMDL
MODEL 2
REMARK VINA RESULT:     -11.4      5.056     11.510
REMARK SMILES O=C(CSc1nc2ccc(Cl)cc2c(=O)n1CC1CCCCC1)NCCCCCCNC(=O)c1ccc(-c2c3nc(c(-c4c(F)c(F)c(F)c(F)c4F)c4ccc([nH]4)c(-c4c(F)c(F)c(F)c(F)c4F)c4nc(c(-c5c(F)c(F)c(F)c(F)c5F)c5ccc2[nH]5)C=C4)C=C3)cc1
REMARK SMILES IDX 26 1 25 2 24 3 1 4 2 5 3 7 4 8 5 9 6 10 16 11 7 12 14 13
REMARK SMILES IDX 8 14 13 15 15 16 9 17 12 18 10 19 11 20 17 21 18 22 19 23
REMARK SMILES IDX 23 24 20 25 22 26 21 27 27 28 28 29 29 30 30 31 31 32 32 33
REMARK SMILES IDX 33 35 34 36 35 37 96 38 36 39 95 40 37 41 38 42 39 43 89 44
REMARK SMILES IDX 40 45 94 46 88 47 90 48 41 49 93 50 87 51 86 52 42 54 74 55
REMARK SMILES IDX 54 56 73 57 55 58 58 59 72 60 91 61 56 62 57 63 71 65 92 66
REMARK SMILES IDX 59 67 43 68 44 69 52 70 45 71 46 72 50 73 53 74 47 75 48 76
REMARK SMILES IDX 51 77 49 78 75 79 76 80 84 81 77 82 78 83 82 84 85 85 79 86
REMARK SMILES IDX 80 87 83 88 81 89 60 90 61 91 69 92 62 93 63 94 67 95 70 96
REMARK SMILES IDX 64 97 65 98 68 99 66 100
REMARK H PARENT 24 6 31 34 90 53 58 64
REMARK Flexibility Score: inf
ROOT
ATOM      1  C   UNL A   1      33.618  35.728  29.389  1.00  0.00     0.021 C 
ENDROOT
BRANCH   1   2
ATOM      2  C   UNL A   1      33.222  35.930  30.847  1.00  0.00     0.116 C 
BRANCH   2   3
ATOM      3  N   UNL A   1      34.091  35.284  31.813  1.00  0.00    -0.355 N 
ATOM      4  O   UNL A   1      34.333  37.106  33.196  1.00  0.00    -0.274 OA
ATOM      5  C   UNL A   1      34.420  35.893  33.015  1.00  0.00     0.230 C 
ATOM      6  H   UNL A   1      34.456  34.393  31.611  1.00  0.00     0.163 HD
BRANCH   5   7
ATOM      7  C   UNL A   1      34.842  34.950  34.139  1.00  0.00     0.178 C 
BRANCH   7   8
ATOM      8  S   UNL A   1      35.277  33.308  33.492  1.00  0.00    -0.078 SA
BRANCH   8   9
ATOM      9  C   UNL A   1      36.635  32.800  34.483  1.00  0.00     0.171 A 
ATOM     10  N   UNL A   1      36.656  33.322  35.668  1.00  0.00    -0.224 NA
ATOM     11  N   UNL A   1      37.658  32.007  33.973  1.00  0.00    -0.287 N 
ATOM     12  C   UNL A   1      37.806  33.170  36.450  1.00  0.00     0.079 A 
ATOM     13  C   UNL A   1      38.713  31.623  34.800  1.00  0.00     0.262 A 
ATOM     14  C   UNL A   1      37.950  33.925  37.616  1.00  0.00     0.031 A 
ATOM     15  C   UNL A   1      38.861  32.355  36.059  1.00  0.00     0.067 A 
ATOM     16  O   UNL A   1      39.527  30.742  34.533  1.00  0.00    -0.269 OA
ATOM     17  C   UNL A   1      39.142  33.882  38.350  1.00  0.00     0.023 A 
ATOM     18  C   UNL A   1      40.057  32.292  36.783  1.00  0.00     0.036 A 
ATOM     19  C   UNL A   1      40.194  33.072  37.924  1.00  0.00     0.042 A 
ATOM     20  Cl  UNL A   1      41.678  33.063  38.792  1.00  0.00    -0.084 Cl
BRANCH  11  21
ATOM     21  C   UNL A   1      37.728  31.473  32.614  1.00  0.00     0.131 C 
BRANCH  21  22
ATOM     22  C   UNL A   1      38.402  32.386  31.566  1.00  0.00     0.009 C 
ATOM     23  C   UNL A   1      37.487  32.760  30.393  1.00  0.00     0.005 C 
ATOM     24  C   UNL A   1      39.029  33.646  32.177  1.00  0.00     0.005 C 
ATOM     25  C   UNL A   1      38.223  33.586  29.342  1.00  0.00     0.000 C 
ATOM     26  C   UNL A   1      39.794  34.439  31.120  1.00  0.00     0.000 C 
ATOM     27  C   UNL A   1      38.891  34.814  29.948  1.00  0.00     0.000 C 
ENDBRANCH  21  22
ENDBRANCH  11  21
ENDBRANCH   8   9
ENDBRANCH   7   8
ENDBRANCH   5   7
ENDBRANCH   2   3
ENDBRANCH   1   2
BRANCH   1  28
ATOM     28  C   UNL A   1      32.666  34.875  28.545  1.00  0.00     0.002 C 
BRANCH  28  29
ATOM     29  C   UNL A   1      33.301  33.816  27.640  1.00  0.00     0.002 C 
BRANCH  29  30
ATOM     30  C   UNL A   1      34.670  33.283  28.062  1.00  0.00     0.021 C 
BRANCH  30  31
ATOM     31  C   UNL A   1      34.664  32.077  28.995  1.00  0.00     0.116 C 
BRANCH  31  32
ATOM     32  N   UNL A   1      34.190  30.851  28.371  1.00  0.00    -0.352 N 
ATOM     33  C   UNL A   1      34.898  29.728  28.001  1.00  0.00     0.251 C 
ATOM     34  H   UNL A   1      33.223  30.819  28.189  1.00  0.00     0.163 HD
ATOM     35  O   UNL A   1      34.338  28.813  27.412  1.00  0.00    -0.269 OA
BRANCH  33  36
ATOM     36  C   UNL A   1      36.355  29.648  28.269  1.00  0.00     0.039 A 
ATOM     37  C   UNL A   1      37.289  30.000  27.294  1.00  0.00     0.014 A 
ATOM     38  C   UNL A   1      36.790  29.184  29.515  1.00  0.00     0.014 A 
ATOM     39  C   UNL A   1      38.636  29.717  27.494  1.00  0.00     0.010 A 
ATOM     40  C   UNL A   1      38.156  28.980  29.746  1.00  0.00     0.010 A 
ATOM     41  C   UNL A   1      39.085  29.189  28.716  1.00  0.00    -0.014 A 
BRANCH  41  42
ATOM     42  C   UNL A   1      40.522  28.839  28.873  1.00  0.00     0.031 A 
ATOM     43  C   UNL A   1      41.456  29.745  29.632  1.00  0.00     0.074 A 
ATOM     44  C   UNL A   1      40.971  27.660  28.399  1.00  0.00     0.049 A 
ATOM     45  N   UNL A   1      42.725  29.574  29.914  1.00  0.00    -0.248 NA
ATOM     46  C   UNL A   1      40.898  31.008  30.141  1.00  0.00     0.031 C 
ATOM     47  C   UNL A   1      40.162  26.691  27.658  1.00  0.00     0.029 A 
ATOM     48  N   UNL A   1      42.202  27.061  28.498  1.00  0.00    -0.354 N 
ATOM     49  C   UNL A   1      43.115  30.706  30.617  1.00  0.00     0.074 A 
ATOM     50  C   UNL A   1      41.962  31.576  30.693  1.00  0.00     0.031 C 
ATOM     51  C   UNL A   1      40.898  25.594  27.424  1.00  0.00     0.029 A 
ATOM     52  C   UNL A   1      42.245  25.805  27.943  1.00  0.00     0.049 A 
ATOM     53  H   UNL A   1      42.978  27.490  28.924  1.00  0.00     0.167 HD
ATOM     54  C   UNL A   1      44.321  30.988  31.166  1.00  0.00     0.037 A 
ATOM     55  C   UNL A   1      43.258  24.922  27.856  1.00  0.00     0.037 A 
ATOM     56  C   UNL A   1      45.463  30.112  31.116  1.00  0.00     0.049 A 
ATOM     57  C   UNL A   1      44.599  25.279  28.434  1.00  0.00     0.074 A 
ATOM     58  C   UNL A   1      46.719  30.302  31.666  1.00  0.00     0.029 A 
ATOM     59  N   UNL A   1      45.486  28.878  30.483  1.00  0.00    -0.354 N 
ATOM     60  N   UNL A   1      44.949  26.349  29.104  1.00  0.00    -0.248 NA
ATOM     61  C   UNL A   1      45.686  24.312  28.235  1.00  0.00     0.031 C 
ATOM     62  C   UNL A   1      47.514  29.203  31.330  1.00  0.00     0.029 A 
ATOM     63  C   UNL A   1      46.742  28.307  30.609  1.00  0.00     0.049 A 
ATOM     64  H   UNL A   1      44.722  28.469  30.014  1.00  0.00     0.167 HD
ATOM     65  C   UNL A   1      46.293  26.184  29.410  1.00  0.00     0.074 A 
ATOM     66  C   UNL A   1      46.689  24.897  28.875  1.00  0.00     0.031 C 
ATOM     67  C   UNL A   1      47.123  27.028  30.068  1.00  0.00     0.037 A 
BRANCH  54  68
ATOM     68  C   UNL A   1      44.480  32.300  31.877  1.00  0.00     0.064 A 
ATOM     69  C   UNL A   1      44.207  32.431  33.246  1.00  0.00     0.173 A 
ATOM     70  C   UNL A   1      44.988  33.420  31.200  1.00  0.00     0.173 A 
ATOM     71  F   UNL A   1      43.710  31.393  33.936  1.00  0.00    -0.203 F 
ATOM     72  C   UNL A   1      44.421  33.638  33.908  1.00  0.00     0.198 A 
ATOM     73  C   UNL A   1      45.225  34.618  31.870  1.00  0.00     0.198 A 
ATOM     74  F   UNL A   1      45.274  33.345  29.891  1.00  0.00    -0.203 F 
ATOM     75  F   UNL A   1      44.123  33.747  35.210  1.00  0.00    -0.200 F 
ATOM     76  C   UNL A   1      44.938  34.726  33.222  1.00  0.00     0.200 A 
ATOM     77  F   UNL A   1      45.738  35.664  31.209  1.00  0.00    -0.200 F 
ATOM     78  F   UNL A   1      45.159  35.881  33.864  1.00  0.00    -0.200 F 
ENDBRANCH  54  68
BRANCH  55  79
ATOM     79  C   UNL A   1      43.032  23.609  27.199  1.00  0.00     0.064 A 
ATOM     80  C   UNL A   1      43.469  23.375  25.889  1.00  0.00     0.173 A 
ATOM     81  C   UNL A   1      42.400  22.555  27.876  1.00  0.00     0.173 A 
ATOM     82  F   UNL A   1      44.058  24.359  25.193  1.00  0.00    -0.203 F 
ATOM     83  C   UNL A   1      43.282  22.136  25.279  1.00  0.00     0.198 A 
ATOM     84  C   UNL A   1      42.240  21.309  27.275  1.00  0.00     0.198 A 
ATOM     85  F   UNL A   1      41.964  22.729  29.131  1.00  0.00    -0.203 F 
ATOM     86  F   UNL A   1      43.685  21.946  24.015  1.00  0.00    -0.200 F 
ATOM     87  C   UNL A   1      42.677  21.101  25.976  1.00  0.00     0.200 A 
ATOM     88  F   UNL A   1      41.668  20.308  27.958  1.00  0.00    -0.200 F 
ATOM     89  F   UNL A   1      42.512  19.905  25.394  1.00  0.00    -0.200 F 
ENDBRANCH  55  79
BRANCH  67  90
ATOM     90  C   UNL A   1      48.547  26.594  30.252  1.00  0.00     0.064 A 
ATOM     91  C   UNL A   1      49.542  26.958  29.336  1.00  0.00     0.173 A 
ATOM     92  C   UNL A   1      48.932  25.872  31.392  1.00  0.00     0.173 A 
ATOM     93  F   UNL A   1      49.220  27.638  28.224  1.00  0.00    -0.203 F 
ATOM     94  C   UNL A   1      50.872  26.607  29.547  1.00  0.00     0.198 A 
ATOM     95  C   UNL A   1      50.266  25.544  31.613  1.00  0.00     0.198 A 
ATOM     96  F   UNL A   1      48.017  25.506  32.302  1.00  0.00    -0.203 F 
ATOM     97  F   UNL A   1      51.804  26.939  28.642  1.00  0.00    -0.200 F 
ATOM     98  C   UNL A   1      51.234  25.908  30.689  1.00  0.00     0.200 A 
ATOM     99  F   UNL A   1      50.617  24.881  32.724  1.00  0.00    -0.200 F 
ATOM    100  F   UNL A   1      52.518  25.585  30.899  1.00  0.00    -0.200 F 
ENDBRANCH  67  90
ENDBRANCH  41  42
ENDBRANCH  33  36
ENDBRANCH  31  32
ENDBRANCH  30  31
ENDBRANCH  29  30
ENDBRANCH  28  29
ENDBRANCH   1  28
TORSDOF 17
ENDMDL
MODEL 3
REMARK VINA RESULT:     -11.4      0.929      7.031
REMARK SMILES O=C(CSc1nc2ccc(Cl)cc2c(=O)n1CC1CCCCC1)NCCCCCCNC(=O)c1ccc(-c2c3nc(c(-c4c(F)c(F)c(F)c(F)c4F)c4ccc([nH]4)c(-c4c(F)c(F)c(F)c(F)c4F)c4nc(c(-c5c(F)c(F)c(F)c(F)c5F)c5ccc2[nH]5)C=C4)C=C3)cc1
REMARK SMILES IDX 26 1 25 2 24 3 1 4 2 5 3 7 4 8 5 9 6 10 16 11 7 12 14 13
REMARK SMILES IDX 8 14 13 15 15 16 9 17 12 18 10 19 11 20 17 21 18 22 19 23
REMARK SMILES IDX 23 24 20 25 22 26 21 27 27 28 28 29 29 30 30 31 31 32 32 33
REMARK SMILES IDX 33 35 34 36 35 37 96 38 36 39 95 40 37 41 38 42 39 43 89 44
REMARK SMILES IDX 40 45 94 46 88 47 90 48 41 49 93 50 87 51 86 52 42 54 74 55
REMARK SMILES IDX 54 56 73 57 55 58 58 59 72 60 91 61 56 62 57 63 71 65 92 66
REMARK SMILES IDX 59 67 43 68 44 69 52 70 45 71 46 72 50 73 53 74 47 75 48 76
REMARK SMILES IDX 51 77 49 78 75 79 76 80 84 81 77 82 78 83 82 84 85 85 79 86
REMARK SMILES IDX 80 87 83 88 81 89 60 90 61 91 69 92 62 93 63 94 67 95 70 96
REMARK SMILES IDX 64 97 65 98 68 99 66 100
REMARK H PARENT 24 6 31 34 90 53 58 64
REMARK Flexibility Score: inf
ROOT
ATOM      1  C   UNL A   1      35.553  32.267  28.064  1.00  0.00     0.021 C 
ENDROOT
BRANCH   1   2
ATOM      2  C   UNL A   1      34.125  31.740  27.979  1.00  0.00     0.116 C 
BRANCH   2   3
ATOM      3  N   UNL A   1      34.004  30.294  27.991  1.00  0.00    -0.355 N 
ATOM      4  O   UNL A   1      33.265  30.082  25.823  1.00  0.00    -0.274 OA
ATOM      5  C   UNL A   1      33.756  29.576  26.830  1.00  0.00     0.230 C 
ATOM      6  H   UNL A   1      34.099  29.811  28.843  1.00  0.00     0.163 HD
BRANCH   5   7
ATOM      7  C   UNL A   1      34.195  28.114  26.852  1.00  0.00     0.178 C 
BRANCH   7   8
ATOM      8  S   UNL A   1      34.064  27.363  25.201  1.00  0.00    -0.078 SA
BRANCH   8   9
ATOM      9  C   UNL A   1      33.799  25.656  25.524  1.00  0.00     0.171 A 
ATOM     10  N   UNL A   1      34.808  24.897  25.236  1.00  0.00    -0.224 NA
ATOM     11  N   UNL A   1      32.560  25.172  25.929  1.00  0.00    -0.287 N 
ATOM     12  C   UNL A   1      34.626  23.510  25.235  1.00  0.00     0.079 A 
ATOM     13  C   UNL A   1      32.400  23.810  26.180  1.00  0.00     0.262 A 
ATOM     14  C   UNL A   1      35.615  22.686  24.692  1.00  0.00     0.031 A 
ATOM     15  C   UNL A   1      33.447  22.920  25.675  1.00  0.00     0.067 A 
ATOM     16  O   UNL A   1      31.440  23.314  26.765  1.00  0.00    -0.269 OA
ATOM     17  C   UNL A   1      35.405  21.308  24.567  1.00  0.00     0.023 A 
ATOM     18  C   UNL A   1      33.222  21.543  25.566  1.00  0.00     0.036 A 
ATOM     19  C   UNL A   1      34.205  20.744  24.996  1.00  0.00     0.042 A 
ATOM     20  Cl  UNL A   1      33.923  19.061  24.790  1.00  0.00    -0.084 Cl
BRANCH  11  21
ATOM     21  C   UNL A   1      31.366  25.977  26.173  1.00  0.00     0.131 C 
BRANCH  21  22
ATOM     22  C   UNL A   1      30.579  26.412  24.916  1.00  0.00     0.009 C 
ATOM     23  C   UNL A   1      29.078  26.098  24.988  1.00  0.00     0.005 C 
ATOM     24  C   UNL A   1      30.800  27.884  24.546  1.00  0.00     0.005 C 
ATOM     25  C   UNL A   1      28.362  26.463  23.692  1.00  0.00     0.000 C 
ATOM     26  C   UNL A   1      30.109  28.221  23.226  1.00  0.00     0.000 C 
ATOM     27  C   UNL A   1      28.616  27.910  23.288  1.00  0.00     0.000 C 
ENDBRANCH  21  22
ENDBRANCH  11  21
ENDBRANCH   8   9
ENDBRANCH   7   8
ENDBRANCH   5   7
ENDBRANCH   2   3
ENDBRANCH   1   2
BRANCH   1  28
ATOM     28  C   UNL A   1      35.712  33.698  28.584  1.00  0.00     0.002 C 
BRANCH  28  29
ATOM     29  C   UNL A   1      34.764  34.755  28.010  1.00  0.00     0.002 C 
BRANCH  29  30
ATOM     30  C   UNL A   1      33.462  34.997  28.773  1.00  0.00     0.021 C 
BRANCH  30  31
ATOM     31  C   UNL A   1      33.484  36.123  29.800  1.00  0.00     0.116 C 
BRANCH  31  32
ATOM     32  N   UNL A   1      32.412  36.048  30.781  1.00  0.00    -0.352 N 
ATOM     33  C   UNL A   1      32.426  35.516  32.053  1.00  0.00     0.251 C 
ATOM     34  H   UNL A   1      31.553  36.434  30.496  1.00  0.00     0.163 HD
ATOM     35  O   UNL A   1      31.397  35.473  32.714  1.00  0.00    -0.269 OA
BRANCH  33  36
ATOM     36  C   UNL A   1      33.680  34.947  32.605  1.00  0.00     0.039 A 
ATOM     37  C   UNL A   1      34.858  35.694  32.640  1.00  0.00     0.014 A 
ATOM     38  C   UNL A   1      33.678  33.627  33.071  1.00  0.00     0.014 A 
ATOM     39  C   UNL A   1      36.060  35.073  32.962  1.00  0.00     0.010 A 
ATOM     40  C   UNL A   1      34.877  33.028  33.477  1.00  0.00     0.010 A 
ATOM     41  C   UNL A   1      36.087  33.729  33.369  1.00  0.00    -0.014 A 
BRANCH  41  42
ATOM     42  C   UNL A   1      37.396  33.078  33.646  1.00  0.00     0.031 A 
ATOM     43  C   UNL A   1      38.123  33.329  34.941  1.00  0.00     0.074 A 
ATOM     44  C   UNL A   1      37.895  32.193  32.760  1.00  0.00     0.049 A 
ATOM     45  N   UNL A   1      39.244  32.808  35.374  1.00  0.00    -0.248 NA
ATOM     46  C   UNL A   1      37.514  34.292  35.874  1.00  0.00     0.031 C 
ATOM     47  C   UNL A   1      37.279  31.854  31.476  1.00  0.00     0.029 A 
ATOM     48  N   UNL A   1      39.009  31.394  32.817  1.00  0.00    -0.354 N 
ATOM     49  C   UNL A   1      39.480  33.386  36.615  1.00  0.00     0.074 A 
ATOM     50  C   UNL A   1      38.405  34.323  36.856  1.00  0.00     0.031 C 
ATOM     51  C   UNL A   1      37.987  30.875  30.895  1.00  0.00     0.029 A 
ATOM     52  C   UNL A   1      39.138  30.557  31.735  1.00  0.00     0.049 A 
ATOM     53  H   UNL A   1      39.653  31.418  33.560  1.00  0.00     0.167 HD
ATOM     54  C   UNL A   1      40.491  33.143  37.483  1.00  0.00     0.037 A 
ATOM     55  C   UNL A   1      40.081  29.641  31.446  1.00  0.00     0.037 A 
ATOM     56  C   UNL A   1      41.547  32.190  37.258  1.00  0.00     0.049 A 
ATOM     57  C   UNL A   1      41.217  29.425  32.406  1.00  0.00     0.074 A 
ATOM     58  C   UNL A   1      42.601  31.859  38.091  1.00  0.00     0.029 A 
ATOM     59  N   UNL A   1      41.681  31.414  36.116  1.00  0.00    -0.354 N 
ATOM     60  N   UNL A   1      41.421  29.971  33.580  1.00  0.00    -0.248 NA
ATOM     61  C   UNL A   1      42.259  28.473  31.997  1.00  0.00     0.031 C 
ATOM     62  C   UNL A   1      43.395  30.913  37.438  1.00  0.00     0.029 A 
ATOM     63  C   UNL A   1      42.813  30.621  36.216  1.00  0.00     0.049 A 
ATOM     64  H   UNL A   1      41.062  31.425  35.350  1.00  0.00     0.167 HD
ATOM     65  C   UNL A   1      42.608  29.429  34.052  1.00  0.00     0.074 A 
ATOM     66  C   UNL A   1      43.067  28.490  33.049  1.00  0.00     0.031 C 
ATOM     67  C   UNL A   1      43.260  29.694  35.209  1.00  0.00     0.037 A 
BRANCH  54  68
ATOM     68  C   UNL A   1      40.514  33.917  38.769  1.00  0.00     0.064 A 
ATOM     69  C   UNL A   1      41.229  35.116  38.893  1.00  0.00     0.173 A 
ATOM     70  C   UNL A   1      39.746  33.495  39.867  1.00  0.00     0.173 A 
ATOM     71  F   UNL A   1      41.986  35.557  37.877  1.00  0.00    -0.203 F 
ATOM     72  C   UNL A   1      41.189  35.857  40.071  1.00  0.00     0.198 A 
ATOM     73  C   UNL A   1      39.687  34.251  41.034  1.00  0.00     0.198 A 
ATOM     74  F   UNL A   1      39.036  32.358  39.797  1.00  0.00    -0.203 F 
ATOM     75  F   UNL A   1      41.905  36.985  40.176  1.00  0.00    -0.200 F 
ATOM     76  C   UNL A   1      40.411  35.429  41.136  1.00  0.00     0.200 A 
ATOM     77  F   UNL A   1      38.924  33.844  42.058  1.00  0.00    -0.200 F 
ATOM     78  F   UNL A   1      40.359  36.153  42.263  1.00  0.00    -0.200 F 
ENDBRANCH  54  68
BRANCH  55  79
ATOM     79  C   UNL A   1      39.979  28.855  30.190  1.00  0.00     0.064 A 
ATOM     80  C   UNL A   1      40.498  29.350  28.987  1.00  0.00     0.173 A 
ATOM     81  C   UNL A   1      39.388  27.583  30.172  1.00  0.00     0.173 A 
ATOM     82  F   UNL A   1      41.053  30.571  28.948  1.00  0.00    -0.203 F 
ATOM     83  C   UNL A   1      40.427  28.604  27.812  1.00  0.00     0.198 A 
ATOM     84  C   UNL A   1      39.343  26.826  29.004  1.00  0.00     0.198 A 
ATOM     85  F   UNL A   1      38.877  27.064  31.298  1.00  0.00    -0.203 F 
ATOM     86  F   UNL A   1      40.906  29.112  26.668  1.00  0.00    -0.200 F 
ATOM     87  C   UNL A   1      39.859  27.338  27.824  1.00  0.00     0.200 A 
ATOM     88  F   UNL A   1      38.808  25.598  29.024  1.00  0.00    -0.200 F 
ATOM     89  F   UNL A   1      39.807  26.615  26.697  1.00  0.00    -0.200 F 
ENDBRANCH  55  79
BRANCH  67  90
ATOM     90  C   UNL A   1      44.544  28.961  35.462  1.00  0.00     0.064 A 
ATOM     91  C   UNL A   1      45.785  29.551  35.185  1.00  0.00     0.173 A 
ATOM     92  C   UNL A   1      44.535  27.689  36.056  1.00  0.00     0.173 A 
ATOM     93  F   UNL A   1      45.844  30.760  34.606  1.00  0.00    -0.203 F 
ATOM     94  C   UNL A   1      46.973  28.889  35.484  1.00  0.00     0.198 A 
ATOM     95  C   UNL A   1      45.725  27.042  36.376  1.00  0.00     0.198 A 
ATOM     96  F   UNL A   1      43.373  27.086  36.346  1.00  0.00    -0.203 F 
ATOM     97  F   UNL A   1      48.149  29.459  35.183  1.00  0.00    -0.200 F 
ATOM     98  C   UNL A   1      46.942  27.641  36.087  1.00  0.00     0.200 A 
ATOM     99  F   UNL A   1      45.694  25.842  36.971  1.00  0.00    -0.200 F 
ATOM    100  F   UNL A   1      48.087  27.013  36.388  1.00  0.00    -0.200 F 
ENDBRANCH  67  90
ENDBRANCH  41  42
ENDBRANCH  33  36
ENDBRANCH  31  32
ENDBRANCH  30  31
ENDBRANCH  29  30
ENDBRANCH  28  29
ENDBRANCH   1  28
TORSDOF 17
ENDMDL
