MODEL 1
REMARK VINA RESULT:     -12.2      0.000      0.000
REMARK SMILES C[C@@H](C(=O)NCCCCCCNC(=O)c1ccc(-c2c3nc(c(-c4c(F)c(F)c(F)c(F)c4F)c4ccc([nH]4)c(-c4c(F)c(F)c(F)c(F)c4F)c4nc(c(-c5c(F)c(F)c(F)c(F)c5F)c5ccc2[nH]5)C=C4)C=C3)cc1)c1ccc(Cc2ccoc2)cc1F
REMARK SMILES IDX 8 1 7 2 6 3 5 4 3 5 4 6 2 8 1 9 78 10 79 11 89 12 80 13
REMARK SMILES IDX 88 14 90 15 81 16 82 17 83 18 84 19 87 20 85 21 86 22 9 23
REMARK SMILES IDX 10 24 11 25 12 26 13 27 14 29 15 30 16 31 77 32 17 33 76 34
REMARK SMILES IDX 18 35 19 36 20 37 70 38 21 39 75 40 69 41 71 42 22 43 74 44
REMARK SMILES IDX 68 45 67 46 23 48 55 49 35 50 54 51 36 52 39 53 53 54 72 55
REMARK SMILES IDX 37 56 38 57 52 59 73 60 40 61 24 62 25 63 33 64 26 65 27 66
REMARK SMILES IDX 31 67 34 68 28 69 29 70 32 71 30 72 56 73 57 74 65 75 58 76
REMARK SMILES IDX 59 77 63 78 66 79 60 80 61 81 64 82 62 83 41 84 42 85 50 86
REMARK SMILES IDX 43 87 44 88 48 89 51 90 45 91 46 92 49 93 47 94
REMARK H PARENT 5 7 12 28 71 47 39 58
REMARK Flexibility Score: inf
ROOT
ATOM      1  C   UNL A   1      36.751  21.863  25.164  1.00  0.00     0.002 C 
ENDROOT
BRANCH   1   2
ATOM      2  C   UNL A   1      35.651  22.779  24.611  1.00  0.00     0.021 C 
BRANCH   2   3
ATOM      3  C   UNL A   1      35.160  23.835  25.609  1.00  0.00     0.116 C 
BRANCH   3   4
ATOM      4  N   UNL A   1      34.549  23.185  26.751  1.00  0.00    -0.356 N 
ATOM      5  C   UNL A   1      33.232  22.894  26.975  1.00  0.00     0.227 C 
ATOM      6  O   UNL A   1      32.880  22.760  28.148  1.00  0.00    -0.274 OA
ATOM      7  H   UNL A   1      35.170  22.914  27.466  1.00  0.00     0.163 HD
BRANCH   5   8
ATOM      8  C   UNL A   1      32.273  22.747  25.778  1.00  0.00     0.108 C 
ATOM      9  C   UNL A   1      30.846  23.066  26.251  1.00  0.00     0.023 C 
BRANCH   8  10
ATOM     10  C   UNL A   1      32.381  21.382  25.092  1.00  0.00    -0.000 A 
ATOM     11  C   UNL A   1      32.700  20.213  25.797  1.00  0.00     0.008 A 
ATOM     12  C   UNL A   1      32.129  21.243  23.719  1.00  0.00     0.127 A 
ATOM     13  C   UNL A   1      32.842  18.987  25.144  1.00  0.00     0.004 A 
ATOM     14  C   UNL A   1      32.320  20.030  23.050  1.00  0.00     0.043 A 
ATOM     15  F   UNL A   1      31.679  22.290  23.009  1.00  0.00    -0.207 F 
ATOM     16  C   UNL A   1      32.711  18.884  23.753  1.00  0.00    -0.041 A 
BRANCH  16  17
ATOM     17  C   UNL A   1      32.923  17.565  23.050  1.00  0.00     0.074 C 
BRANCH  17  18
ATOM     18  C   UNL A   1      33.677  16.659  23.972  1.00  0.00    -0.005 A 
ATOM     19  C   UNL A   1      35.037  16.749  24.406  1.00  0.00     0.046 A 
ATOM     20  C   UNL A   1      33.163  15.577  24.665  1.00  0.00     0.198 A 
ATOM     21  C   UNL A   1      35.247  15.717  25.288  1.00  0.00     0.195 A 
ATOM     22  O   UNL A   1      34.107  15.006  25.456  1.00  0.00    -0.472 OA
ENDBRANCH  17  18
ENDBRANCH  16  17
ENDBRANCH   8  10
ENDBRANCH   5   8
ENDBRANCH   3   4
ENDBRANCH   2   3
ENDBRANCH   1   2
BRANCH   1  23
ATOM     23  C   UNL A   1      36.496  20.363  24.976  1.00  0.00     0.002 C 
BRANCH  23  24
ATOM     24  C   UNL A   1      37.759  19.506  24.896  1.00  0.00     0.021 C 
BRANCH  24  25
ATOM     25  C   UNL A   1      38.936  20.052  25.696  1.00  0.00     0.116 C 
BRANCH  25  26
ATOM     26  N   UNL A   1      40.037  19.102  25.766  1.00  0.00    -0.352 N 
ATOM     27  C   UNL A   1      41.366  19.352  26.009  1.00  0.00     0.251 C 
ATOM     28  H   UNL A   1      39.798  18.158  25.624  1.00  0.00     0.163 HD
ATOM     29  O   UNL A   1      42.211  18.477  25.856  1.00  0.00    -0.269 OA
BRANCH  27  30
ATOM     30  C   UNL A   1      41.769  20.704  26.441  1.00  0.00     0.039 A 
ATOM     31  C   UNL A   1      42.057  20.935  27.789  1.00  0.00     0.014 A 
ATOM     32  C   UNL A   1      41.894  21.730  25.501  1.00  0.00     0.014 A 
ATOM     33  C   UNL A   1      42.532  22.187  28.187  1.00  0.00     0.010 A 
ATOM     34  C   UNL A   1      42.432  22.950  25.885  1.00  0.00     0.010 A 
ATOM     35  C   UNL A   1      42.752  23.191  27.232  1.00  0.00    -0.014 A 
BRANCH  35  36
ATOM     36  C   UNL A   1      43.292  24.523  27.598  1.00  0.00     0.031 A 
ATOM     37  C   UNL A   1      42.361  25.570  28.139  1.00  0.00     0.074 A 
ATOM     38  C   UNL A   1      44.576  24.828  27.333  1.00  0.00     0.049 A 
ATOM     39  N   UNL A   1      42.569  26.846  28.336  1.00  0.00    -0.248 NA
ATOM     40  C   UNL A   1      40.997  25.123  28.460  1.00  0.00     0.031 C 
ATOM     41  C   UNL A   1      45.566  23.907  26.775  1.00  0.00     0.029 A 
ATOM     42  N   UNL A   1      45.256  26.013  27.463  1.00  0.00    -0.354 N 
ATOM     43  C   UNL A   1      41.354  27.360  28.768  1.00  0.00     0.074 A 
ATOM     44  C   UNL A   1      40.405  26.268  28.761  1.00  0.00     0.031 C 
ATOM     45  C   UNL A   1      46.726  24.562  26.607  1.00  0.00     0.029 A 
ATOM     46  C   UNL A   1      46.547  25.958  27.001  1.00  0.00     0.049 A 
ATOM     47  H   UNL A   1      44.857  26.825  27.852  1.00  0.00     0.167 HD
ATOM     48  C   UNL A   1      41.062  28.627  29.147  1.00  0.00     0.037 A 
ATOM     49  C   UNL A   1      47.474  26.928  26.881  1.00  0.00     0.037 A 
ATOM     50  C   UNL A   1      42.023  29.698  29.181  1.00  0.00     0.049 A 
ATOM     51  C   UNL A   1      47.135  28.327  27.317  1.00  0.00     0.074 A 
ATOM     52  C   UNL A   1      41.850  30.998  29.619  1.00  0.00     0.029 A 
ATOM     53  N   UNL A   1      43.339  29.588  28.755  1.00  0.00    -0.354 N 
ATOM     54  N   UNL A   1      46.000  28.795  27.779  1.00  0.00    -0.248 NA
ATOM     55  C   UNL A   1      48.203  29.333  27.222  1.00  0.00     0.031 C 
ATOM     56  C   UNL A   1      43.049  31.689  29.412  1.00  0.00     0.029 A 
ATOM     57  C   UNL A   1      43.984  30.805  28.898  1.00  0.00     0.049 A 
ATOM     58  H   UNL A   1      43.752  28.767  28.403  1.00  0.00     0.167 HD
ATOM     59  C   UNL A   1      46.224  30.136  28.059  1.00  0.00     0.074 A 
ATOM     60  C   UNL A   1      47.604  30.409  27.712  1.00  0.00     0.031 C 
ATOM     61  C   UNL A   1      45.364  31.054  28.564  1.00  0.00     0.037 A 
BRANCH  48  62
ATOM     62  C   UNL A   1      39.642  28.919  29.539  1.00  0.00     0.064 A 
ATOM     63  C   UNL A   1      38.705  29.411  28.618  1.00  0.00     0.173 A 
ATOM     64  C   UNL A   1      39.214  28.708  30.859  1.00  0.00     0.173 A 
ATOM     65  F   UNL A   1      39.065  29.642  27.346  1.00  0.00    -0.203 F 
ATOM     66  C   UNL A   1      37.408  29.728  29.014  1.00  0.00     0.198 A 
ATOM     67  C   UNL A   1      37.906  28.991  31.243  1.00  0.00     0.198 A 
ATOM     68  F   UNL A   1      40.066  28.231  31.779  1.00  0.00    -0.203 F 
ATOM     69  F   UNL A   1      36.552  30.263  28.133  1.00  0.00    -0.200 F 
ATOM     70  C   UNL A   1      37.009  29.513  30.325  1.00  0.00     0.200 A 
ATOM     71  F   UNL A   1      37.518  28.770  32.506  1.00  0.00    -0.200 F 
ATOM     72  F   UNL A   1      35.761  29.821  30.705  1.00  0.00    -0.200 F 
ENDBRANCH  48  62
BRANCH  49  73
ATOM     73  C   UNL A   1      48.813  26.592  26.335  1.00  0.00     0.064 A 
ATOM     74  C   UNL A   1      49.122  26.835  24.990  1.00  0.00     0.173 A 
ATOM     75  C   UNL A   1      49.824  26.066  27.152  1.00  0.00     0.173 A 
ATOM     76  F   UNL A   1      48.182  27.320  24.165  1.00  0.00    -0.203 F 
ATOM     77  C   UNL A   1      50.391  26.561  24.482  1.00  0.00     0.198 A 
ATOM     78  C   UNL A   1      51.099  25.815  26.650  1.00  0.00     0.198 A 
ATOM     79  F   UNL A   1      49.581  25.823  28.449  1.00  0.00    -0.203 F 
ATOM     80  F   UNL A   1      50.652  26.779  23.186  1.00  0.00    -0.200 F 
ATOM     81  C   UNL A   1      51.380  26.060  25.314  1.00  0.00     0.200 A 
ATOM     82  F   UNL A   1      52.058  25.347  27.461  1.00  0.00    -0.200 F 
ATOM     83  F   UNL A   1      52.605  25.813  24.829  1.00  0.00    -0.200 F 
ENDBRANCH  49  73
BRANCH  61  84
ATOM     84  C   UNL A   1      45.892  32.434  28.825  1.00  0.00     0.064 A 
ATOM     85  C   UNL A   1      45.791  33.456  27.872  1.00  0.00     0.173 A 
ATOM     86  C   UNL A   1      46.422  32.757  30.084  1.00  0.00     0.173 A 
ATOM     87  F   UNL A   1      45.303  33.194  26.650  1.00  0.00    -0.203 F 
ATOM     88  C   UNL A   1      46.206  34.752  28.167  1.00  0.00     0.198 A 
ATOM     89  C   UNL A   1      46.812  34.059  30.385  1.00  0.00     0.198 A 
ATOM     90  F   UNL A   1      46.534  31.815  31.032  1.00  0.00    -0.203 F 
ATOM     91  F   UNL A   1      46.123  35.710  27.234  1.00  0.00    -0.200 F 
ATOM     92  C   UNL A   1      46.705  35.055  29.427  1.00  0.00     0.200 A 
ATOM     93  F   UNL A   1      47.280  34.351  31.606  1.00  0.00    -0.200 F 
ATOM     94  F   UNL A   1      47.083  36.307  29.716  1.00  0.00    -0.200 F 
ENDBRANCH  61  84
ENDBRANCH  35  36
ENDBRANCH  27  30
ENDBRANCH  25  26
ENDBRANCH  24  25
ENDBRANCH  23  24
ENDBRANCH   1  23
TORSDOF 16
ENDMDL
MODEL 2
REMARK VINA RESULT:     -12.0      0.312      1.614
REMARK SMILES C[C@@H](C(=O)NCCCCCCNC(=O)c1ccc(-c2c3nc(c(-c4c(F)c(F)c(F)c(F)c4F)c4ccc([nH]4)c(-c4c(F)c(F)c(F)c(F)c4F)c4nc(c(-c5c(F)c(F)c(F)c(F)c5F)c5ccc2[nH]5)C=C4)C=C3)cc1)c1ccc(Cc2ccoc2)cc1F
REMARK SMILES IDX 8 1 7 2 6 3 5 4 3 5 4 6 2 8 1 9 78 10 79 11 89 12 80 13
REMARK SMILES IDX 88 14 90 15 81 16 82 17 83 18 84 19 87 20 85 21 86 22 9 23
REMARK SMILES IDX 10 24 11 25 12 26 13 27 14 29 15 30 16 31 77 32 17 33 76 34
REMARK SMILES IDX 18 35 19 36 20 37 70 38 21 39 75 40 69 41 71 42 22 43 74 44
REMARK SMILES IDX 68 45 67 46 23 48 55 49 35 50 54 51 36 52 39 53 53 54 72 55
REMARK SMILES IDX 37 56 38 57 52 59 73 60 40 61 24 62 25 63 33 64 26 65 27 66
REMARK SMILES IDX 31 67 34 68 28 69 29 70 32 71 30 72 56 73 57 74 65 75 58 76
REMARK SMILES IDX 59 77 63 78 66 79 60 80 61 81 64 82 62 83 41 84 42 85 50 86
REMARK SMILES IDX 43 87 44 88 48 89 51 90 45 91 46 92 49 93 47 94
REMARK H PARENT 5 7 12 28 71 47 39 58
REMARK Flexibility Score: inf
ROOT
ATOM      1  C   UNL A   1      37.032  22.159  24.615  1.00  0.00     0.002 C 
ENDROOT
BRANCH   1   2
ATOM      2  C   UNL A   1      36.718  23.087  25.796  1.00  0.00     0.021 C 
BRANCH   2   3
ATOM      3  C   UNL A   1      35.359  23.791  25.691  1.00  0.00     0.116 C 
BRANCH   3   4
ATOM      4  N   UNL A   1      34.448  23.250  26.681  1.00  0.00    -0.356 N 
ATOM      5  C   UNL A   1      33.093  23.086  26.606  1.00  0.00     0.227 C 
ATOM      6  O   UNL A   1      32.476  23.039  27.672  1.00  0.00    -0.274 OA
ATOM      7  H   UNL A   1      34.865  22.961  27.525  1.00  0.00     0.163 HD
BRANCH   5   8
ATOM      8  C   UNL A   1      32.417  22.968  25.228  1.00  0.00     0.108 C 
ATOM      9  C   UNL A   1      30.993  23.538  25.329  1.00  0.00     0.023 C 
BRANCH   8  10
ATOM     10  C   UNL A   1      32.447  21.542  24.669  1.00  0.00    -0.000 A 
ATOM     11  C   UNL A   1      32.659  20.423  25.486  1.00  0.00     0.008 A 
ATOM     12  C   UNL A   1      32.230  21.297  23.305  1.00  0.00     0.127 A 
ATOM     13  C   UNL A   1      32.734  19.136  24.950  1.00  0.00     0.004 A 
ATOM     14  C   UNL A   1      32.354  20.018  22.753  1.00  0.00     0.043 A 
ATOM     15  F   UNL A   1      31.879  22.303  22.489  1.00  0.00    -0.207 F 
ATOM     16  C   UNL A   1      32.640  18.917  23.569  1.00  0.00    -0.041 A 
BRANCH  16  17
ATOM     17  C   UNL A   1      32.779  17.528  22.994  1.00  0.00     0.074 C 
BRANCH  17  18
ATOM     18  C   UNL A   1      33.595  16.708  23.942  1.00  0.00    -0.005 A 
ATOM     19  C   UNL A   1      34.956  16.891  24.345  1.00  0.00     0.046 A 
ATOM     20  C   UNL A   1      33.154  15.633  24.693  1.00  0.00     0.198 A 
ATOM     21  C   UNL A   1      35.236  15.915  25.269  1.00  0.00     0.195 A 
ATOM     22  O   UNL A   1      34.140  15.151  25.492  1.00  0.00    -0.472 OA
ENDBRANCH  17  18
ENDBRANCH  16  17
ENDBRANCH   8  10
ENDBRANCH   5   8
ENDBRANCH   3   4
ENDBRANCH   2   3
ENDBRANCH   1   2
BRANCH   1  23
ATOM     23  C   UNL A   1      36.593  20.704  24.804  1.00  0.00     0.002 C 
BRANCH  23  24
ATOM     24  C   UNL A   1      37.740  19.703  24.937  1.00  0.00     0.021 C 
BRANCH  24  25
ATOM     25  C   UNL A   1      38.885  20.178  25.824  1.00  0.00     0.116 C 
BRANCH  25  26
ATOM     26  N   UNL A   1      39.992  19.234  25.842  1.00  0.00    -0.352 N 
ATOM     27  C   UNL A   1      41.326  19.485  26.052  1.00  0.00     0.251 C 
ATOM     28  H   UNL A   1      39.754  18.292  25.684  1.00  0.00     0.163 HD
ATOM     29  O   UNL A   1      42.171  18.619  25.856  1.00  0.00    -0.269 OA
BRANCH  27  30
ATOM     30  C   UNL A   1      41.734  20.829  26.504  1.00  0.00     0.039 A 
ATOM     31  C   UNL A   1      42.207  21.000  27.808  1.00  0.00     0.014 A 
ATOM     32  C   UNL A   1      41.679  21.909  25.620  1.00  0.00     0.014 A 
ATOM     33  C   UNL A   1      42.685  22.249  28.209  1.00  0.00     0.010 A 
ATOM     34  C   UNL A   1      42.219  23.131  25.996  1.00  0.00     0.010 A 
ATOM     35  C   UNL A   1      42.723  23.314  27.295  1.00  0.00    -0.014 A 
BRANCH  35  36
ATOM     36  C   UNL A   1      43.258  24.648  27.661  1.00  0.00     0.031 A 
ATOM     37  C   UNL A   1      42.326  25.687  28.214  1.00  0.00     0.074 A 
ATOM     38  C   UNL A   1      44.537  24.963  27.384  1.00  0.00     0.049 A 
ATOM     39  N   UNL A   1      42.527  26.964  28.413  1.00  0.00    -0.248 NA
ATOM     40  C   UNL A   1      40.968  25.230  28.547  1.00  0.00     0.031 C 
ATOM     41  C   UNL A   1      45.527  24.050  26.813  1.00  0.00     0.029 A 
ATOM     42  N   UNL A   1      45.210  26.151  27.511  1.00  0.00    -0.354 N 
ATOM     43  C   UNL A   1      41.313  27.469  28.858  1.00  0.00     0.074 A 
ATOM     44  C   UNL A   1      40.371  26.370  28.858  1.00  0.00     0.031 C 
ATOM     45  C   UNL A   1      46.682  24.713  26.635  1.00  0.00     0.029 A 
ATOM     46  C   UNL A   1      46.498  26.106  27.036  1.00  0.00     0.049 A 
ATOM     47  H   UNL A   1      44.810  26.959  27.907  1.00  0.00     0.167 HD
ATOM     48  C   UNL A   1      41.016  28.732  29.245  1.00  0.00     0.037 A 
ATOM     49  C   UNL A   1      47.417  27.083  26.910  1.00  0.00     0.037 A 
ATOM     50  C   UNL A   1      41.970  29.809  29.272  1.00  0.00     0.049 A 
ATOM     51  C   UNL A   1      47.073  28.478  27.355  1.00  0.00     0.074 A 
ATOM     52  C   UNL A   1      41.793  31.107  29.717  1.00  0.00     0.029 A 
ATOM     53  N   UNL A   1      43.283  29.709  28.834  1.00  0.00    -0.354 N 
ATOM     54  N   UNL A   1      45.939  28.938  27.829  1.00  0.00    -0.248 NA
ATOM     55  C   UNL A   1      48.133  29.492  27.252  1.00  0.00     0.031 C 
ATOM     56  C   UNL A   1      42.985  31.806  29.501  1.00  0.00     0.029 A 
ATOM     57  C   UNL A   1      43.921  30.930  28.974  1.00  0.00     0.049 A 
ATOM     58  H   UNL A   1      43.698  28.892  28.475  1.00  0.00     0.167 HD
ATOM     59  C   UNL A   1      46.157  30.279  28.111  1.00  0.00     0.074 A 
ATOM     60  C   UNL A   1      47.532  30.563  27.752  1.00  0.00     0.031 C 
ATOM     61  C   UNL A   1      45.296  31.189  28.628  1.00  0.00     0.037 A 
BRANCH  48  62
ATOM     62  C   UNL A   1      39.598  29.013  29.652  1.00  0.00     0.064 A 
ATOM     63  C   UNL A   1      38.646  29.492  28.740  1.00  0.00     0.173 A 
ATOM     64  C   UNL A   1      39.188  28.805  30.978  1.00  0.00     0.173 A 
ATOM     65  F   UNL A   1      38.989  29.719  27.462  1.00  0.00    -0.203 F 
ATOM     66  C   UNL A   1      37.351  29.799  29.149  1.00  0.00     0.198 A 
ATOM     67  C   UNL A   1      37.882  29.079  31.375  1.00  0.00     0.198 A 
ATOM     68  F   UNL A   1      40.054  28.341  31.891  1.00  0.00    -0.203 F 
ATOM     69  F   UNL A   1      36.480  30.322  28.275  1.00  0.00    -0.200 F 
ATOM     70  C   UNL A   1      36.969  29.587  30.465  1.00  0.00     0.200 A 
ATOM     71  F   UNL A   1      37.510  28.860  32.644  1.00  0.00    -0.200 F 
ATOM     72  F   UNL A   1      35.723  29.887  30.858  1.00  0.00    -0.200 F 
ENDBRANCH  48  62
BRANCH  49  73
ATOM     73  C   UNL A   1      48.752  26.758  26.349  1.00  0.00     0.064 A 
ATOM     74  C   UNL A   1      49.746  26.179  27.149  1.00  0.00     0.173 A 
ATOM     75  C   UNL A   1      49.048  26.977  24.996  1.00  0.00     0.173 A 
ATOM     76  F   UNL A   1      49.516  25.967  28.454  1.00  0.00    -0.203 F 
ATOM     77  C   UNL A   1      50.987  25.833  26.617  1.00  0.00     0.198 A 
ATOM     78  C   UNL A   1      50.280  26.608  24.459  1.00  0.00     0.198 A 
ATOM     79  F   UNL A   1      48.127  27.522  24.187  1.00  0.00    -0.203 F 
ATOM     80  F   UNL A   1      51.929  25.303  27.409  1.00  0.00    -0.200 F 
ATOM     81  C   UNL A   1      51.250  26.040  25.271  1.00  0.00     0.200 A 
ATOM     82  F   UNL A   1      50.523  26.795  23.154  1.00  0.00    -0.200 F 
ATOM     83  F   UNL A   1      52.437  25.692  24.756  1.00  0.00    -0.200 F 
ENDBRANCH  49  73
BRANCH  61  84
ATOM     84  C   UNL A   1      45.818  32.573  28.888  1.00  0.00     0.064 A 
ATOM     85  C   UNL A   1      46.495  32.896  30.071  1.00  0.00     0.173 A 
ATOM     86  C   UNL A   1      45.716  33.559  27.895  1.00  0.00     0.173 A 
ATOM     87  F   UNL A   1      46.607  31.990  31.055  1.00  0.00    -0.203 F 
ATOM     88  C   UNL A   1      47.048  34.161  30.254  1.00  0.00     0.198 A 
ATOM     89  C   UNL A   1      46.293  34.814  28.071  1.00  0.00     0.198 A 
ATOM     90  F   UNL A   1      45.082  33.296  26.743  1.00  0.00    -0.203 F 
ATOM     91  F   UNL A   1      47.672  34.458  31.402  1.00  0.00    -0.200 F 
ATOM     92  C   UNL A   1      46.957  35.114  29.250  1.00  0.00     0.200 A 
ATOM     93  F   UNL A   1      46.215  35.728  27.093  1.00  0.00    -0.200 F 
ATOM     94  F   UNL A   1      47.510  36.323  29.418  1.00  0.00    -0.200 F 
ENDBRANCH  61  84
ENDBRANCH  35  36
ENDBRANCH  27  30
ENDBRANCH  25  26
ENDBRANCH  24  25
ENDBRANCH  23  24
ENDBRANCH   1  23
TORSDOF 16
ENDMDL
MODEL 3
REMARK VINA RESULT:     -11.4      2.101      4.129
REMARK SMILES C[C@@H](C(=O)NCCCCCCNC(=O)c1ccc(-c2c3nc(c(-c4c(F)c(F)c(F)c(F)c4F)c4ccc([nH]4)c(-c4c(F)c(F)c(F)c(F)c4F)c4nc(c(-c5c(F)c(F)c(F)c(F)c5F)c5ccc2[nH]5)C=C4)C=C3)cc1)c1ccc(Cc2ccoc2)cc1F
REMARK SMILES IDX 8 1 7 2 6 3 5 4 3 5 4 6 2 8 1 9 78 10 79 11 89 12 80 13
REMARK SMILES IDX 88 14 90 15 81 16 82 17 83 18 84 19 87 20 85 21 86 22 9 23
REMARK SMILES IDX 10 24 11 25 12 26 13 27 14 29 15 30 16 31 77 32 17 33 76 34
REMARK SMILES IDX 18 35 19 36 20 37 70 38 21 39 75 40 69 41 71 42 22 43 74 44
REMARK SMILES IDX 68 45 67 46 23 48 55 49 35 50 54 51 36 52 39 53 53 54 72 55
REMARK SMILES IDX 37 56 38 57 52 59 73 60 40 61 24 62 25 63 33 64 26 65 27 66
REMARK SMILES IDX 31 67 34 68 28 69 29 70 32 71 30 72 56 73 57 74 65 75 58 76
REMARK SMILES IDX 59 77 63 78 66 79 60 80 61 81 64 82 62 83 41 84 42 85 50 86
REMARK SMILES IDX 43 87 44 88 48 89 51 90 45 91 46 92 49 93 47 94
REMARK H PARENT 5 7 12 28 71 47 39 58
REMARK Flexibility Score: inf
ROOT
ATOM      1  C   UNL A   1      35.830  21.142  25.267  1.00  0.00     0.002 C 
ENDROOT
BRANCH   1   2
ATOM      2  C   UNL A   1      34.741  20.253  24.651  1.00  0.00     0.021 C 
BRANCH   2   3
ATOM      3  C   UNL A   1      33.511  20.063  25.549  1.00  0.00     0.116 C 
BRANCH   3   4
ATOM      4  N   UNL A   1      32.445  20.943  25.114  1.00  0.00    -0.356 N 
ATOM      5  C   UNL A   1      32.090  22.172  25.599  1.00  0.00     0.227 C 
ATOM      6  O   UNL A   1      30.929  22.534  25.405  1.00  0.00    -0.274 OA
ATOM      7  H   UNL A   1      31.901  20.610  24.364  1.00  0.00     0.163 HD
BRANCH   5   8
ATOM      8  C   UNL A   1      33.134  23.024  26.344  1.00  0.00     0.108 C 
ATOM      9  C   UNL A   1      32.922  22.849  27.856  1.00  0.00     0.023 C 
BRANCH   8  10
ATOM     10  C   UNL A   1      33.123  24.494  25.909  1.00  0.00    -0.000 A 
ATOM     11  C   UNL A   1      32.278  25.443  26.503  1.00  0.00     0.008 A 
ATOM     12  C   UNL A   1      33.992  24.957  24.911  1.00  0.00     0.127 A 
ATOM     13  C   UNL A   1      32.248  26.766  26.058  1.00  0.00     0.004 A 
ATOM     14  C   UNL A   1      33.932  26.267  24.425  1.00  0.00     0.043 A 
ATOM     15  F   UNL A   1      34.926  24.139  24.401  1.00  0.00    -0.207 F 
ATOM     16  C   UNL A   1      33.031  27.187  24.975  1.00  0.00    -0.041 A 
BRANCH  16  17
ATOM     17  C   UNL A   1      32.949  28.606  24.465  1.00  0.00     0.074 C 
BRANCH  17  18
ATOM     18  C   UNL A   1      31.599  28.805  23.851  1.00  0.00    -0.005 A 
ATOM     19  C   UNL A   1      30.957  28.039  22.827  1.00  0.00     0.046 A 
ATOM     20  C   UNL A   1      30.655  29.745  24.223  1.00  0.00     0.198 A 
ATOM     21  C   UNL A   1      29.710  28.582  22.641  1.00  0.00     0.195 A 
ATOM     22  O   UNL A   1      29.516  29.615  23.496  1.00  0.00    -0.472 OA
ENDBRANCH  17  18
ENDBRANCH  16  17
ENDBRANCH   8  10
ENDBRANCH   5   8
ENDBRANCH   3   4
ENDBRANCH   2   3
ENDBRANCH   1   2
BRANCH   1  23
ATOM     23  C   UNL A   1      37.193  21.066  24.571  1.00  0.00     0.002 C 
BRANCH  23  24
ATOM     24  C   UNL A   1      38.063  19.884  25.000  1.00  0.00     0.021 C 
BRANCH  24  25
ATOM     25  C   UNL A   1      39.314  20.278  25.775  1.00  0.00     0.116 C 
BRANCH  25  26
ATOM     26  N   UNL A   1      40.255  19.174  25.892  1.00  0.00    -0.352 N 
ATOM     27  C   UNL A   1      41.614  19.227  26.086  1.00  0.00     0.251 C 
ATOM     28  H   UNL A   1      39.868  18.271  25.825  1.00  0.00     0.163 HD
ATOM     29  O   UNL A   1      42.308  18.221  25.980  1.00  0.00    -0.269 OA
BRANCH  27  30
ATOM     30  C   UNL A   1      42.237  20.526  26.408  1.00  0.00     0.039 A 
ATOM     31  C   UNL A   1      42.719  21.330  25.372  1.00  0.00     0.014 A 
ATOM     32  C   UNL A   1      42.309  20.955  27.735  1.00  0.00     0.014 A 
ATOM     33  C   UNL A   1      43.221  22.601  25.664  1.00  0.00     0.010 A 
ATOM     34  C   UNL A   1      42.742  22.243  28.016  1.00  0.00     0.010 A 
ATOM     35  C   UNL A   1      43.205  23.076  26.984  1.00  0.00    -0.014 A 
BRANCH  35  36
ATOM     36  C   UNL A   1      43.690  24.432  27.340  1.00  0.00     0.031 A 
ATOM     37  C   UNL A   1      42.712  25.455  27.839  1.00  0.00     0.074 A 
ATOM     38  C   UNL A   1      44.969  24.776  27.101  1.00  0.00     0.049 A 
ATOM     39  N   UNL A   1      42.871  26.741  28.018  1.00  0.00    -0.248 NA
ATOM     40  C   UNL A   1      41.356  24.968  28.134  1.00  0.00     0.031 C 
ATOM     41  C   UNL A   1      46.004  23.881  26.584  1.00  0.00     0.029 A 
ATOM     42  N   UNL A   1      45.606  25.986  27.226  1.00  0.00    -0.354 N 
ATOM     43  C   UNL A   1      41.629  27.221  28.411  1.00  0.00     0.074 A 
ATOM     44  C   UNL A   1      40.718  26.097  28.400  1.00  0.00     0.031 C 
ATOM     45  C   UNL A   1      47.145  24.572  26.432  1.00  0.00     0.029 A 
ATOM     46  C   UNL A   1      46.909  25.967  26.797  1.00  0.00     0.049 A 
ATOM     47  H   UNL A   1      45.170  26.790  27.591  1.00  0.00     0.167 HD
ATOM     48  C   UNL A   1      41.285  28.483  28.760  1.00  0.00     0.037 A 
ATOM     49  C   UNL A   1      47.806  26.966  26.683  1.00  0.00     0.037 A 
ATOM     50  C   UNL A   1      42.208  29.586  28.798  1.00  0.00     0.049 A 
ATOM     51  C   UNL A   1      47.408  28.360  27.085  1.00  0.00     0.074 A 
ATOM     52  C   UNL A   1      41.980  30.887  29.208  1.00  0.00     0.029 A 
ATOM     53  N   UNL A   1      43.537  29.515  28.407  1.00  0.00    -0.354 N 
ATOM     54  N   UNL A   1      46.247  28.797  27.511  1.00  0.00    -0.248 NA
ATOM     55  C   UNL A   1      48.444  29.400  26.998  1.00  0.00     0.031 C 
ATOM     56  C   UNL A   1      43.160  31.615  29.019  1.00  0.00     0.029 A 
ATOM     57  C   UNL A   1      44.137  30.755  28.544  1.00  0.00     0.049 A 
ATOM     58  H   UNL A   1      43.987  28.702  28.080  1.00  0.00     0.167 HD
ATOM     59  C   UNL A   1      46.419  30.149  27.772  1.00  0.00     0.074 A 
ATOM     60  C   UNL A   1      47.797  30.464  27.454  1.00  0.00     0.031 C 
ATOM     61  C   UNL A   1      45.516  31.046  28.240  1.00  0.00     0.037 A 
BRANCH  48  62
ATOM     62  C   UNL A   1      39.847  28.732  29.112  1.00  0.00     0.064 A 
ATOM     63  C   UNL A   1      38.909  29.140  28.152  1.00  0.00     0.173 A 
ATOM     64  C   UNL A   1      39.402  28.567  30.432  1.00  0.00     0.173 A 
ATOM     65  F   UNL A   1      39.284  29.325  26.877  1.00  0.00    -0.203 F 
ATOM     66  C   UNL A   1      37.591  29.420  28.508  1.00  0.00     0.198 A 
ATOM     67  C   UNL A   1      38.075  28.812  30.779  1.00  0.00     0.198 A 
ATOM     68  F   UNL A   1      40.254  28.171  31.390  1.00  0.00    -0.203 F 
ATOM     69  F   UNL A   1      36.732  29.876  27.587  1.00  0.00    -0.200 F 
ATOM     70  C   UNL A   1      37.175  29.251  29.820  1.00  0.00     0.200 A 
ATOM     71  F   UNL A   1      37.672  28.635  32.044  1.00  0.00    -0.200 F 
ATOM     72  F   UNL A   1      35.909  29.524  30.163  1.00  0.00    -0.200 F 
ENDBRANCH  48  62
BRANCH  49  73
ATOM     73  C   UNL A   1      49.168  26.667  26.175  1.00  0.00     0.064 A 
ATOM     74  C   UNL A   1      49.500  26.888  24.832  1.00  0.00     0.173 A 
ATOM     75  C   UNL A   1      50.178  26.199  27.028  1.00  0.00     0.173 A 
ATOM     76  F   UNL A   1      48.562  27.318  23.974  1.00  0.00    -0.203 F 
ATOM     77  C   UNL A   1      50.789  26.649  24.360  1.00  0.00     0.198 A 
ATOM     78  C   UNL A   1      51.474  25.984  26.562  1.00  0.00     0.198 A 
ATOM     79  F   UNL A   1      49.914  25.979  28.325  1.00  0.00    -0.203 F 
ATOM     80  F   UNL A   1      51.073  26.845  23.065  1.00  0.00    -0.200 F 
ATOM     81  C   UNL A   1      51.777  26.206  25.226  1.00  0.00     0.200 A 
ATOM     82  F   UNL A   1      52.429  25.572  27.406  1.00  0.00    -0.200 F 
ATOM     83  F   UNL A   1      53.021  25.993  24.775  1.00  0.00    -0.200 F 
ENDBRANCH  49  73
BRANCH  61  84
ATOM     84  C   UNL A   1      45.990  32.447  28.488  1.00  0.00     0.064 A 
ATOM     85  C   UNL A   1      46.614  32.814  29.688  1.00  0.00     0.173 A 
ATOM     86  C   UNL A   1      45.899  33.410  27.471  1.00  0.00     0.173 A 
ATOM     87  F   UNL A   1      46.712  31.932  30.695  1.00  0.00    -0.203 F 
ATOM     88  C   UNL A   1      47.126  34.097  29.864  1.00  0.00     0.198 A 
ATOM     89  C   UNL A   1      46.436  34.683  27.640  1.00  0.00     0.198 A 
ATOM     90  F   UNL A   1      45.317  33.106  26.302  1.00  0.00    -0.203 F 
ATOM     91  F   UNL A   1      47.698  34.435  31.028  1.00  0.00    -0.200 F 
ATOM     92  C   UNL A   1      47.047  35.026  28.836  1.00  0.00     0.200 A 
ATOM     93  F   UNL A   1      46.371  35.574  26.641  1.00  0.00    -0.200 F 
ATOM     94  F   UNL A   1      47.561  36.253  28.999  1.00  0.00    -0.200 F 
ENDBRANCH  61  84
ENDBRANCH  35  36
ENDBRANCH  27  30
ENDBRANCH  25  26
ENDBRANCH  24  25
ENDBRANCH  23  24
ENDBRANCH   1  23
TORSDOF 16
ENDMDL
