MODEL 1
REMARK VINA RESULT:     -11.8      0.000      0.000
REMARK SMILES Cc1cc(C)c(C(N)=O)c(N[C@H]2C=C[C@H](C(=O)NCCCCCCNC(=O)c3ccc(-c4c5nc(c(-c6c(F)c(F)c(F)c(F)c6F)c6ccc([nH]6)c(-c6c(F)c(F)c(F)c(F)c6F)c6nc(c(-c7c(F)c(F)c(F)c(F)c7F)c7ccc4[nH]7)C=C6)C=C5)cc3)C2)n1
REMARK SMILES IDX 21 1 20 2 19 3 18 4 16 5 17 6 15 8 12 9 13 10 91 11 14 12
REMARK SMILES IDX 11 13 10 15 1 16 2 17 3 18 92 19 4 20 5 21 6 22 7 23 8 24
REMARK SMILES IDX 9 25 22 28 23 29 24 30 25 31 26 32 27 34 28 35 29 36 90 37
REMARK SMILES IDX 30 38 89 39 31 40 32 41 33 42 83 43 34 44 88 45 82 46 84 47
REMARK SMILES IDX 35 48 87 49 81 50 80 51 36 53 68 54 48 55 67 56 49 57 52 58
REMARK SMILES IDX 66 59 85 60 50 61 51 62 65 64 86 65 53 66 37 67 38 68 46 69
REMARK SMILES IDX 39 70 40 71 44 72 47 73 41 74 42 75 45 76 43 77 69 78 70 79
REMARK SMILES IDX 78 80 71 81 72 82 76 83 79 84 73 85 74 86 77 87 75 88 54 89
REMARK SMILES IDX 55 90 63 91 56 92 57 93 61 94 64 95 58 96 59 97 62 98 60 99
REMARK H PARENT 18 7 11 14 8 26 8 27 25 33 84 52 52 63
REMARK Flexibility Score: inf
ROOT
ATOM      1  C   UNL A   1      35.276  33.313  27.991  1.00  0.00     0.002 C 
ENDROOT
BRANCH   1   2
ATOM      2  C   UNL A   1      35.907  31.916  28.002  1.00  0.00     0.021 C 
BRANCH   2   3
ATOM      3  C   UNL A   1      34.906  30.766  28.008  1.00  0.00     0.116 C 
BRANCH   3   4
ATOM      4  N   UNL A   1      34.031  30.804  26.854  1.00  0.00    -0.356 N 
ATOM      5  C   UNL A   1      33.120  29.876  26.443  1.00  0.00     0.227 C 
ATOM      6  O   UNL A   1      32.409  30.149  25.476  1.00  0.00    -0.274 OA
ATOM      7  H   UNL A   1      34.105  31.608  26.291  1.00  0.00     0.163 HD
BRANCH   5   8
ATOM      8  C   UNL A   1      33.026  28.558  27.206  1.00  0.00     0.103 C 
ATOM      9  C   UNL A   1      32.713  26.510  25.904  1.00  0.00     0.104 C 
ATOM     10  C   UNL A   1      31.430  26.969  26.505  1.00  0.00    -0.006 C 
ATOM     11  C   UNL A   1      33.788  27.425  26.501  1.00  0.00     0.046 C 
ATOM     12  C   UNL A   1      31.598  28.085  27.221  1.00  0.00    -0.016 C 
BRANCH   9  13
ATOM     13  N   UNL A   1      32.968  25.101  26.142  1.00  0.00    -0.363 N 
ATOM     14  H   UNL A   1      32.821  24.753  27.051  1.00  0.00     0.162 HD
BRANCH  13  15
ATOM     15  C   UNL A   1      33.405  24.208  25.163  1.00  0.00     0.139 A 
ATOM     16  C   UNL A   1      36.691  23.328  23.737  1.00  0.00     0.067 C 
ATOM     17  C   UNL A   1      35.213  23.313  23.977  1.00  0.00     0.040 A 
ATOM     18  C   UNL A   1      34.380  22.513  23.216  1.00  0.00     0.028 A 
ATOM     19  N   UNL A   1      34.738  24.129  24.937  1.00  0.00    -0.236 NA
ATOM     20  C   UNL A   1      32.999  22.534  23.451  1.00  0.00    -0.033 A 
ATOM     21  C   UNL A   1      32.153  21.642  22.585  1.00  0.00     0.045 C 
ATOM     22  C   UNL A   1      32.496  23.404  24.444  1.00  0.00     0.084 A 
BRANCH  22  23
ATOM     23  C   UNL A   1      31.028  23.519  24.689  1.00  0.00     0.252 C 
ATOM     24  N   UNL A   1      30.277  24.166  23.746  1.00  0.00    -0.365 N 
ATOM     25  O   UNL A   1      30.484  23.045  25.684  1.00  0.00    -0.269 OA
ATOM     26  H   UNL A   1      30.711  24.545  22.948  1.00  0.00     0.159 HD
ATOM     27  H   UNL A   1      29.304  24.249  23.865  1.00  0.00     0.159 HD
ENDBRANCH  22  23
ENDBRANCH  13  15
ENDBRANCH   9  13
ENDBRANCH   5   8
ENDBRANCH   3   4
ENDBRANCH   2   3
ENDBRANCH   1   2
BRANCH   1  28
ATOM     28  C   UNL A   1      34.491  33.685  29.253  1.00  0.00     0.002 C 
BRANCH  28  29
ATOM     29  C   UNL A   1      33.278  34.587  29.021  1.00  0.00     0.021 C 
BRANCH  29  30
ATOM     30  C   UNL A   1      33.397  35.983  29.618  1.00  0.00     0.116 C 
BRANCH  30  31
ATOM     31  N   UNL A   1      32.473  36.197  30.719  1.00  0.00    -0.352 N 
ATOM     32  C   UNL A   1      32.536  35.734  32.009  1.00  0.00     0.251 C 
ATOM     33  H   UNL A   1      31.689  36.753  30.509  1.00  0.00     0.163 HD
ATOM     34  O   UNL A   1      31.580  35.872  32.765  1.00  0.00    -0.269 OA
BRANCH  32  35
ATOM     35  C   UNL A   1      33.755  35.043  32.481  1.00  0.00     0.039 A 
ATOM     36  C   UNL A   1      33.651  33.721  32.919  1.00  0.00     0.014 A 
ATOM     37  C   UNL A   1      34.992  35.692  32.493  1.00  0.00     0.014 A 
ATOM     38  C   UNL A   1      34.799  33.030  33.311  1.00  0.00     0.010 A 
ATOM     39  C   UNL A   1      36.146  34.979  32.809  1.00  0.00     0.010 A 
ATOM     40  C   UNL A   1      36.060  33.643  33.226  1.00  0.00    -0.014 A 
BRANCH  40  41
ATOM     41  C   UNL A   1      37.299  32.897  33.569  1.00  0.00     0.031 A 
ATOM     42  C   UNL A   1      38.028  33.189  34.851  1.00  0.00     0.074 A 
ATOM     43  C   UNL A   1      37.796  31.997  32.699  1.00  0.00     0.049 A 
ATOM     44  N   UNL A   1      39.151  32.686  35.298  1.00  0.00    -0.248 NA
ATOM     45  C   UNL A   1      37.430  34.201  35.736  1.00  0.00     0.031 C 
ATOM     46  C   UNL A   1      37.205  31.660  31.402  1.00  0.00     0.029 A 
ATOM     47  N   UNL A   1      38.917  31.209  32.768  1.00  0.00    -0.354 N 
ATOM     48  C   UNL A   1      39.397  33.325  36.506  1.00  0.00     0.074 A 
ATOM     49  C   UNL A   1      38.340  34.294  36.695  1.00  0.00     0.031 C 
ATOM     50  C   UNL A   1      37.953  30.716  30.810  1.00  0.00     0.029 A 
ATOM     51  C   UNL A   1      39.099  30.412  31.663  1.00  0.00     0.049 A 
ATOM     52  H   UNL A   1      39.532  31.213  33.536  1.00  0.00     0.167 HD
ATOM     53  C   UNL A   1      40.400  33.104  37.390  1.00  0.00     0.037 A 
ATOM     54  C   UNL A   1      40.083  29.542  31.368  1.00  0.00     0.037 A 
ATOM     55  C   UNL A   1      41.439  32.125  37.205  1.00  0.00     0.049 A 
ATOM     56  C   UNL A   1      41.196  29.330  32.359  1.00  0.00     0.074 A 
ATOM     57  C   UNL A   1      42.469  31.787  38.067  1.00  0.00     0.029 A 
ATOM     58  N   UNL A   1      41.586  31.330  36.077  1.00  0.00    -0.354 N 
ATOM     59  N   UNL A   1      41.380  29.888  33.531  1.00  0.00    -0.248 NA
ATOM     60  C   UNL A   1      42.236  28.360  31.989  1.00  0.00     0.031 C 
ATOM     61  C   UNL A   1      43.269  30.829  37.437  1.00  0.00     0.029 A 
ATOM     62  C   UNL A   1      42.704  30.522  36.210  1.00  0.00     0.049 A 
ATOM     63  H   UNL A   1      40.984  31.339  35.298  1.00  0.00     0.167 HD
ATOM     64  C   UNL A   1      42.533  29.316  34.050  1.00  0.00     0.074 A 
ATOM     65  C   UNL A   1      42.999  28.356  33.072  1.00  0.00     0.031 C 
ATOM     66  C   UNL A   1      43.152  29.565  35.231  1.00  0.00     0.037 A 
BRANCH  53  67
ATOM     67  C   UNL A   1      40.424  33.939  38.638  1.00  0.00     0.064 A 
ATOM     68  C   UNL A   1      41.138  35.145  38.706  1.00  0.00     0.173 A 
ATOM     69  C   UNL A   1      39.689  33.550  39.769  1.00  0.00     0.173 A 
ATOM     70  F   UNL A   1      41.866  35.560  37.658  1.00  0.00    -0.203 F 
ATOM     71  C   UNL A   1      41.141  35.914  39.867  1.00  0.00     0.198 A 
ATOM     72  C   UNL A   1      39.667  34.339  40.916  1.00  0.00     0.198 A 
ATOM     73  F   UNL A   1      38.982  32.410  39.758  1.00  0.00    -0.203 F 
ATOM     74  F   UNL A   1      41.874  37.035  39.926  1.00  0.00    -0.200 F 
ATOM     75  C   UNL A   1      40.400  35.514  40.968  1.00  0.00     0.200 A 
ATOM     76  F   UNL A   1      38.937  33.958  41.975  1.00  0.00    -0.200 F 
ATOM     77  F   UNL A   1      40.396  36.260  42.083  1.00  0.00    -0.200 F 
ENDBRANCH  53  67
BRANCH  54  78
ATOM     78  C   UNL A   1      40.053  28.790  30.085  1.00  0.00     0.064 A 
ATOM     79  C   UNL A   1      39.444  27.531  30.000  1.00  0.00     0.173 A 
ATOM     80  C   UNL A   1      40.641  29.309  28.922  1.00  0.00     0.173 A 
ATOM     81  F   UNL A   1      38.886  26.983  31.090  1.00  0.00    -0.203 F 
ATOM     82  C   UNL A   1      39.447  26.806  28.810  1.00  0.00     0.198 A 
ATOM     83  C   UNL A   1      40.615  28.598  27.723  1.00  0.00     0.198 A 
ATOM     84  F   UNL A   1      41.232  30.512  28.945  1.00  0.00    -0.203 F 
ATOM     85  F   UNL A   1      38.904  25.582  28.772  1.00  0.00    -0.200 F 
ATOM     86  C   UNL A   1      40.027  27.343  27.671  1.00  0.00     0.200 A 
ATOM     87  F   UNL A   1      41.162  29.127  26.621  1.00  0.00    -0.200 F 
ATOM     88  F   UNL A   1      40.027  26.648  26.526  1.00  0.00    -0.200 F 
ENDBRANCH  54  78
BRANCH  66  89
ATOM     89  C   UNL A   1      44.378  28.757  35.551  1.00  0.00     0.064 A 
ATOM     90  C   UNL A   1      45.664  29.196  35.206  1.00  0.00     0.173 A 
ATOM     91  C   UNL A   1      44.264  27.543  36.248  1.00  0.00     0.173 A 
ATOM     92  F   UNL A   1      45.827  30.341  34.526  1.00  0.00    -0.203 F 
ATOM     93  C   UNL A   1      46.789  28.436  35.519  1.00  0.00     0.198 A 
ATOM     94  C   UNL A   1      45.392  26.803  36.590  1.00  0.00     0.198 A 
ATOM     95  F   UNL A   1      43.058  27.082  36.609  1.00  0.00    -0.203 F 
ATOM     96  F   UNL A   1      48.003  28.849  35.130  1.00  0.00    -0.200 F 
ATOM     97  C   UNL A   1      46.652  27.246  36.217  1.00  0.00     0.200 A 
ATOM     98  F   UNL A   1      45.259  25.662  37.280  1.00  0.00    -0.200 F 
ATOM     99  F   UNL A   1      47.736  26.520  36.525  1.00  0.00    -0.200 F 
ENDBRANCH  66  89
ENDBRANCH  40  41
ENDBRANCH  32  35
ENDBRANCH  30  31
ENDBRANCH  29  30
ENDBRANCH  28  29
ENDBRANCH   1  28
TORSDOF 16
ENDMDL
MODEL 2
REMARK VINA RESULT:     -11.7      0.765      1.908
REMARK SMILES Cc1cc(C)c(C(N)=O)c(N[C@H]2C=C[C@H](C(=O)NCCCCCCNC(=O)c3ccc(-c4c5nc(c(-c6c(F)c(F)c(F)c(F)c6F)c6ccc([nH]6)c(-c6c(F)c(F)c(F)c(F)c6F)c6nc(c(-c7c(F)c(F)c(F)c(F)c7F)c7ccc4[nH]7)C=C6)C=C5)cc3)C2)n1
REMARK SMILES IDX 21 1 20 2 19 3 18 4 16 5 17 6 15 8 12 9 13 10 91 11 14 12
REMARK SMILES IDX 11 13 10 15 1 16 2 17 3 18 92 19 4 20 5 21 6 22 7 23 8 24
REMARK SMILES IDX 9 25 22 28 23 29 24 30 25 31 26 32 27 34 28 35 29 36 90 37
REMARK SMILES IDX 30 38 89 39 31 40 32 41 33 42 83 43 34 44 88 45 82 46 84 47
REMARK SMILES IDX 35 48 87 49 81 50 80 51 36 53 68 54 48 55 67 56 49 57 52 58
REMARK SMILES IDX 66 59 85 60 50 61 51 62 65 64 86 65 53 66 37 67 38 68 46 69
REMARK SMILES IDX 39 70 40 71 44 72 47 73 41 74 42 75 45 76 43 77 69 78 70 79
REMARK SMILES IDX 78 80 71 81 72 82 76 83 79 84 73 85 74 86 77 87 75 88 54 89
REMARK SMILES IDX 55 90 63 91 56 92 57 93 61 94 64 95 58 96 59 97 62 98 60 99
REMARK H PARENT 18 7 11 14 8 26 8 27 25 33 84 52 52 63
REMARK Flexibility Score: inf
ROOT
ATOM      1  C   UNL A   1      35.535  33.472  28.469  1.00  0.00     0.002 C 
ENDROOT
BRANCH   1   2
ATOM      2  C   UNL A   1      35.905  32.079  27.947  1.00  0.00     0.021 C 
BRANCH   2   3
ATOM      3  C   UNL A   1      34.789  31.045  28.046  1.00  0.00     0.116 C 
BRANCH   3   4
ATOM      4  N   UNL A   1      34.035  30.944  26.814  1.00  0.00    -0.356 N 
ATOM      5  C   UNL A   1      33.231  29.928  26.386  1.00  0.00     0.227 C 
ATOM      6  O   UNL A   1      32.606  30.085  25.338  1.00  0.00    -0.274 OA
ATOM      7  H   UNL A   1      34.112  31.713  26.203  1.00  0.00     0.163 HD
BRANCH   5   8
ATOM      8  C   UNL A   1      33.147  28.660  27.231  1.00  0.00     0.103 C 
ATOM      9  C   UNL A   1      32.460  26.594  26.114  1.00  0.00     0.104 C 
ATOM     10  C   UNL A   1      31.331  27.197  26.875  1.00  0.00    -0.006 C 
ATOM     11  C   UNL A   1      33.689  27.430  26.486  1.00  0.00     0.046 C 
ATOM     12  C   UNL A   1      31.704  28.323  27.491  1.00  0.00    -0.016 C 
BRANCH   9  13
ATOM     13  N   UNL A   1      32.628  25.179  26.393  1.00  0.00    -0.363 N 
ATOM     14  H   UNL A   1      32.493  24.872  27.318  1.00  0.00     0.162 HD
BRANCH  13  15
ATOM     15  C   UNL A   1      32.966  24.226  25.432  1.00  0.00     0.139 A 
ATOM     16  C   UNL A   1      32.991  24.155  21.745  1.00  0.00     0.067 C 
ATOM     17  C   UNL A   1      33.165  23.700  23.161  1.00  0.00     0.040 A 
ATOM     18  C   UNL A   1      33.562  22.406  23.445  1.00  0.00     0.028 A 
ATOM     19  N   UNL A   1      32.888  24.592  24.131  1.00  0.00    -0.236 NA
ATOM     20  C   UNL A   1      33.698  22.003  24.781  1.00  0.00    -0.033 A 
ATOM     21  C   UNL A   1      34.129  20.582  25.017  1.00  0.00     0.045 C 
ATOM     22  C   UNL A   1      33.388  22.931  25.800  1.00  0.00     0.084 A 
BRANCH  22  23
ATOM     23  C   UNL A   1      33.447  22.536  27.239  1.00  0.00     0.252 C 
ATOM     24  N   UNL A   1      34.681  22.307  27.782  1.00  0.00    -0.365 N 
ATOM     25  O   UNL A   1      32.442  22.430  27.938  1.00  0.00    -0.269 OA
ATOM     26  H   UNL A   1      35.488  22.392  27.224  1.00  0.00     0.159 HD
ATOM     27  H   UNL A   1      34.762  22.059  28.731  1.00  0.00     0.159 HD
ENDBRANCH  22  23
ENDBRANCH  13  15
ENDBRANCH   9  13
ENDBRANCH   5   8
ENDBRANCH   3   4
ENDBRANCH   2   3
ENDBRANCH   1   2
BRANCH   1  28
ATOM     28  C   UNL A   1      34.278  33.529  29.344  1.00  0.00     0.002 C 
BRANCH  28  29
ATOM     29  C   UNL A   1      33.253  34.590  28.940  1.00  0.00     0.021 C 
BRANCH  29  30
ATOM     30  C   UNL A   1      33.447  35.950  29.598  1.00  0.00     0.116 C 
BRANCH  30  31
ATOM     31  N   UNL A   1      32.529  36.168  30.703  1.00  0.00    -0.352 N 
ATOM     32  C   UNL A   1      32.599  35.711  31.995  1.00  0.00     0.251 C 
ATOM     33  H   UNL A   1      31.744  36.724  30.494  1.00  0.00     0.163 HD
ATOM     34  O   UNL A   1      31.647  35.852  32.755  1.00  0.00    -0.269 OA
BRANCH  32  35
ATOM     35  C   UNL A   1      33.821  35.022  32.463  1.00  0.00     0.039 A 
ATOM     36  C   UNL A   1      33.714  33.714  32.939  1.00  0.00     0.014 A 
ATOM     37  C   UNL A   1      35.063  35.661  32.434  1.00  0.00     0.014 A 
ATOM     38  C   UNL A   1      34.863  33.024  33.329  1.00  0.00     0.010 A 
ATOM     39  C   UNL A   1      36.217  34.946  32.749  1.00  0.00     0.010 A 
ATOM     40  C   UNL A   1      36.127  33.623  33.204  1.00  0.00    -0.014 A 
BRANCH  40  41
ATOM     41  C   UNL A   1      37.366  32.875  33.545  1.00  0.00     0.031 A 
ATOM     42  C   UNL A   1      38.104  33.176  34.820  1.00  0.00     0.074 A 
ATOM     43  C   UNL A   1      37.854  31.967  32.679  1.00  0.00     0.049 A 
ATOM     44  N   UNL A   1      39.229  32.672  35.263  1.00  0.00    -0.248 NA
ATOM     45  C   UNL A   1      37.516  34.197  35.701  1.00  0.00     0.031 C 
ATOM     46  C   UNL A   1      37.253  31.621  31.390  1.00  0.00     0.029 A 
ATOM     47  N   UNL A   1      38.972  31.175  32.748  1.00  0.00    -0.354 N 
ATOM     48  C   UNL A   1      39.485  33.320  36.464  1.00  0.00     0.074 A 
ATOM     49  C   UNL A   1      38.432  34.295  36.652  1.00  0.00     0.031 C 
ATOM     50  C   UNL A   1      37.994  30.669  30.800  1.00  0.00     0.029 A 
ATOM     51  C   UNL A   1      39.144  30.368  31.648  1.00  0.00     0.049 A 
ATOM     52  H   UNL A   1      39.593  31.183  33.511  1.00  0.00     0.167 HD
ATOM     53  C   UNL A   1      40.494  33.104  37.343  1.00  0.00     0.037 A 
ATOM     54  C   UNL A   1      40.123  29.492  31.354  1.00  0.00     0.037 A 
ATOM     55  C   UNL A   1      41.528  32.119  37.160  1.00  0.00     0.049 A 
ATOM     56  C   UNL A   1      41.242  29.284  32.339  1.00  0.00     0.074 A 
ATOM     57  C   UNL A   1      42.562  31.785  38.017  1.00  0.00     0.029 A 
ATOM     58  N   UNL A   1      41.664  31.314  36.038  1.00  0.00    -0.354 N 
ATOM     59  N   UNL A   1      41.436  29.852  33.505  1.00  0.00    -0.248 NA
ATOM     60  C   UNL A   1      42.276  28.308  31.970  1.00  0.00     0.031 C 
ATOM     61  C   UNL A   1      43.355  30.819  37.390  1.00  0.00     0.029 A 
ATOM     62  C   UNL A   1      42.781  30.504  36.170  1.00  0.00     0.049 A 
ATOM     63  H   UNL A   1      41.057  31.319  35.262  1.00  0.00     0.167 HD
ATOM     64  C   UNL A   1      42.591  29.280  34.021  1.00  0.00     0.074 A 
ATOM     65  C   UNL A   1      43.046  28.310  33.048  1.00  0.00     0.031 C 
ATOM     66  C   UNL A   1      43.218  29.537  35.195  1.00  0.00     0.037 A 
BRANCH  53  67
ATOM     67  C   UNL A   1      40.528  33.949  38.584  1.00  0.00     0.064 A 
ATOM     68  C   UNL A   1      39.848  33.573  39.752  1.00  0.00     0.173 A 
ATOM     69  C   UNL A   1      41.285  35.130  38.620  1.00  0.00     0.173 A 
ATOM     70  F   UNL A   1      39.101  32.458  39.770  1.00  0.00    -0.203 F 
ATOM     71  C   UNL A   1      39.899  34.361  40.899  1.00  0.00     0.198 A 
ATOM     72  C   UNL A   1      41.361  35.898  39.779  1.00  0.00     0.198 A 
ATOM     73  F   UNL A   1      41.961  35.535  37.534  1.00  0.00    -0.203 F 
ATOM     74  F   UNL A   1      39.197  34.008  41.986  1.00  0.00    -0.200 F 
ATOM     75  C   UNL A   1      40.661  35.519  40.914  1.00  0.00     0.200 A 
ATOM     76  F   UNL A   1      42.111  37.010  39.797  1.00  0.00    -0.200 F 
ATOM     77  F   UNL A   1      40.716  36.273  42.021  1.00  0.00    -0.200 F 
ENDBRANCH  53  67
BRANCH  54  78
ATOM     78  C   UNL A   1      40.082  28.730  30.077  1.00  0.00     0.064 A 
ATOM     79  C   UNL A   1      39.465  27.473  30.007  1.00  0.00     0.173 A 
ATOM     80  C   UNL A   1      40.666  29.235  28.906  1.00  0.00     0.173 A 
ATOM     81  F   UNL A   1      38.910  26.938  31.104  1.00  0.00    -0.203 F 
ATOM     82  C   UNL A   1      39.457  26.739  28.822  1.00  0.00     0.198 A 
ATOM     83  C   UNL A   1      40.630  28.514  27.714  1.00  0.00     0.198 A 
ATOM     84  F   UNL A   1      41.264  30.435  28.916  1.00  0.00    -0.203 F 
ATOM     85  F   UNL A   1      38.907  25.517  28.798  1.00  0.00    -0.200 F 
ATOM     86  C   UNL A   1      40.034  27.263  27.675  1.00  0.00     0.200 A 
ATOM     87  F   UNL A   1      41.174  29.031  26.604  1.00  0.00    -0.200 F 
ATOM     88  F   UNL A   1      40.025  26.557  26.536  1.00  0.00    -0.200 F 
ENDBRANCH  54  78
BRANCH  66  89
ATOM     89  C   UNL A   1      44.443  28.727  35.514  1.00  0.00     0.064 A 
ATOM     90  C   UNL A   1      44.367  27.510  36.205  1.00  0.00     0.173 A 
ATOM     91  C   UNL A   1      45.709  29.161  35.088  1.00  0.00     0.173 A 
ATOM     92  F   UNL A   1      43.183  27.058  36.648  1.00  0.00    -0.203 F 
ATOM     93  C   UNL A   1      45.514  26.770  36.484  1.00  0.00     0.198 A 
ATOM     94  C   UNL A   1      46.849  28.403  35.338  1.00  0.00     0.198 A 
ATOM     95  F   UNL A   1      45.838  30.315  34.417  1.00  0.00    -0.203 F 
ATOM     96  F   UNL A   1      45.422  25.637  37.193  1.00  0.00    -0.200 F 
ATOM     97  C   UNL A   1      46.752  27.213  36.043  1.00  0.00     0.200 A 
ATOM     98  F   UNL A   1      48.042  28.824  34.896  1.00  0.00    -0.200 F 
ATOM     99  F   UNL A   1      47.854  26.497  36.305  1.00  0.00    -0.200 F 
ENDBRANCH  66  89
ENDBRANCH  40  41
ENDBRANCH  32  35
ENDBRANCH  30  31
ENDBRANCH  29  30
ENDBRANCH  28  29
ENDBRANCH   1  28
TORSDOF 16
ENDMDL
MODEL 3
REMARK VINA RESULT:     -11.7      5.973     10.826
REMARK SMILES Cc1cc(C)c(C(N)=O)c(N[C@H]2C=C[C@H](C(=O)NCCCCCCNC(=O)c3ccc(-c4c5nc(c(-c6c(F)c(F)c(F)c(F)c6F)c6ccc([nH]6)c(-c6c(F)c(F)c(F)c(F)c6F)c6nc(c(-c7c(F)c(F)c(F)c(F)c7F)c7ccc4[nH]7)C=C6)C=C5)cc3)C2)n1
REMARK SMILES IDX 21 1 20 2 19 3 18 4 16 5 17 6 15 8 12 9 13 10 91 11 14 12
REMARK SMILES IDX 11 13 10 15 1 16 2 17 3 18 92 19 4 20 5 21 6 22 7 23 8 24
REMARK SMILES IDX 9 25 22 28 23 29 24 30 25 31 26 32 27 34 28 35 29 36 90 37
REMARK SMILES IDX 30 38 89 39 31 40 32 41 33 42 83 43 34 44 88 45 82 46 84 47
REMARK SMILES IDX 35 48 87 49 81 50 80 51 36 53 68 54 48 55 67 56 49 57 52 58
REMARK SMILES IDX 66 59 85 60 50 61 51 62 65 64 86 65 53 66 37 67 38 68 46 69
REMARK SMILES IDX 39 70 40 71 44 72 47 73 41 74 42 75 45 76 43 77 69 78 70 79
REMARK SMILES IDX 78 80 71 81 72 82 76 83 79 84 73 85 74 86 77 87 75 88 54 89
REMARK SMILES IDX 55 90 63 91 56 92 57 93 61 94 64 95 58 96 59 97 62 98 60 99
REMARK H PARENT 18 7 11 14 8 26 8 27 25 33 84 52 52 63
REMARK Flexibility Score: inf
ROOT
ATOM      1  C   UNL A   1      35.912  21.429  24.963  1.00  0.00     0.002 C 
ENDROOT
BRANCH   1   2
ATOM      2  C   UNL A   1      35.062  20.155  25.027  1.00  0.00     0.021 C 
BRANCH   2   3
ATOM      3  C   UNL A   1      33.593  20.386  25.363  1.00  0.00     0.116 C 
BRANCH   3   4
ATOM      4  N   UNL A   1      33.426  20.995  26.667  1.00  0.00    -0.356 N 
ATOM      5  C   UNL A   1      32.924  22.225  26.977  1.00  0.00     0.227 C 
ATOM      6  O   UNL A   1      32.785  22.513  28.166  1.00  0.00    -0.274 OA
ATOM      7  H   UNL A   1      33.714  20.447  27.432  1.00  0.00     0.163 HD
BRANCH   5   8
ATOM      8  C   UNL A   1      32.557  23.171  25.837  1.00  0.00     0.103 C 
ATOM      9  C   UNL A   1      33.311  25.493  25.999  1.00  0.00     0.104 C 
ATOM     10  C   UNL A   1      31.876  25.364  26.378  1.00  0.00    -0.006 C 
ATOM     11  C   UNL A   1      33.714  24.113  25.470  1.00  0.00     0.046 C 
ATOM     12  C   UNL A   1      31.459  24.098  26.285  1.00  0.00    -0.016 C 
BRANCH   9  13
ATOM     13  N   UNL A   1      33.541  26.560  25.043  1.00  0.00    -0.363 N 
ATOM     14  H   UNL A   1      34.361  26.524  24.500  1.00  0.00     0.162 HD
BRANCH  13  15
ATOM     15  C   UNL A   1      32.673  27.634  24.842  1.00  0.00     0.139 A 
ATOM     16  C   UNL A   1      31.844  30.688  26.736  1.00  0.00     0.067 C 
ATOM     17  C   UNL A   1      31.831  29.664  25.643  1.00  0.00     0.040 A 
ATOM     18  C   UNL A   1      30.960  29.781  24.575  1.00  0.00     0.028 A 
ATOM     19  N   UNL A   1      32.677  28.624  25.765  1.00  0.00    -0.236 NA
ATOM     20  C   UNL A   1      30.958  28.798  23.576  1.00  0.00    -0.033 A 
ATOM     21  C   UNL A   1      29.983  28.984  22.446  1.00  0.00     0.045 C 
ATOM     22  C   UNL A   1      31.830  27.695  23.713  1.00  0.00     0.084 A 
BRANCH  22  23
ATOM     23  C   UNL A   1      31.821  26.583  22.716  1.00  0.00     0.252 C 
ATOM     24  N   UNL A   1      32.477  26.788  21.533  1.00  0.00    -0.365 N 
ATOM     25  O   UNL A   1      31.268  25.507  22.930  1.00  0.00    -0.269 OA
ATOM     26  H   UNL A   1      32.921  27.649  21.360  1.00  0.00     0.159 HD
ATOM     27  H   UNL A   1      32.506  26.074  20.856  1.00  0.00     0.159 HD
ENDBRANCH  22  23
ENDBRANCH  13  15
ENDBRANCH   9  13
ENDBRANCH   5   8
ENDBRANCH   3   4
ENDBRANCH   2   3
ENDBRANCH   1   2
BRANCH   1  28
ATOM     28  C   UNL A   1      37.345  21.234  24.458  1.00  0.00     0.002 C 
BRANCH  28  29
ATOM     29  C   UNL A   1      38.043  19.967  24.955  1.00  0.00     0.021 C 
BRANCH  29  30
ATOM     30  C   UNL A   1      39.132  20.203  25.993  1.00  0.00     0.116 C 
BRANCH  30  31
ATOM     31  N   UNL A   1      40.175  19.192  25.942  1.00  0.00    -0.352 N 
ATOM     32  C   UNL A   1      41.532  19.336  26.086  1.00  0.00     0.251 C 
ATOM     33  H   UNL A   1      39.864  18.273  25.782  1.00  0.00     0.163 HD
ATOM     34  O   UNL A   1      42.284  18.398  25.845  1.00  0.00    -0.269 OA
BRANCH  32  35
ATOM     35  C   UNL A   1      42.091  20.639  26.506  1.00  0.00     0.039 A 
ATOM     36  C   UNL A   1      42.537  21.528  25.525  1.00  0.00     0.014 A 
ATOM     37  C   UNL A   1      42.176  20.983  27.858  1.00  0.00     0.014 A 
ATOM     38  C   UNL A   1      43.012  22.786  25.898  1.00  0.00     0.010 A 
ATOM     39  C   UNL A   1      42.575  22.267  28.222  1.00  0.00     0.010 A 
ATOM     40  C   UNL A   1      43.002  23.179  27.246  1.00  0.00    -0.014 A 
BRANCH  40  41
ATOM     41  C   UNL A   1      43.434  24.542  27.650  1.00  0.00     0.031 A 
ATOM     42  C   UNL A   1      42.411  25.591  27.989  1.00  0.00     0.074 A 
ATOM     43  C   UNL A   1      44.745  24.850  27.658  1.00  0.00     0.049 A 
ATOM     44  N   UNL A   1      42.590  26.849  28.308  1.00  0.00    -0.248 NA
ATOM     45  C   UNL A   1      40.999  25.180  27.936  1.00  0.00     0.031 C 
ATOM     46  C   UNL A   1      45.830  23.932  27.304  1.00  0.00     0.029 A 
ATOM     47  N   UNL A   1      45.389  26.022  27.965  1.00  0.00    -0.354 N 
ATOM     48  C   UNL A   1      41.318  27.378  28.483  1.00  0.00     0.074 A 
ATOM     49  C   UNL A   1      40.375  26.323  28.177  1.00  0.00     0.031 C 
ATOM     50  C   UNL A   1      47.005  24.567  27.439  1.00  0.00     0.029 A 
ATOM     51  C   UNL A   1      46.756  25.947  27.846  1.00  0.00     0.049 A 
ATOM     52  H   UNL A   1      44.916  26.839  28.243  1.00  0.00     0.167 HD
ATOM     53  C   UNL A   1      40.968  28.623  28.886  1.00  0.00     0.037 A 
ATOM     54  C   UNL A   1      47.700  26.888  28.035  1.00  0.00     0.037 A 
ATOM     55  C   UNL A   1      41.911  29.663  29.207  1.00  0.00     0.049 A 
ATOM     56  C   UNL A   1      47.284  28.270  28.464  1.00  0.00     0.074 A 
ATOM     57  C   UNL A   1      41.660  30.940  29.677  1.00  0.00     0.029 A 
ATOM     58  N   UNL A   1      43.288  29.547  29.083  1.00  0.00    -0.354 N 
ATOM     59  N   UNL A   1      46.081  28.738  28.696  1.00  0.00    -0.248 NA
ATOM     60  C   UNL A   1      48.358  29.252  28.667  1.00  0.00     0.031 C 
ATOM     61  C   UNL A   1      42.880  31.615  29.785  1.00  0.00     0.029 A 
ATOM     62  C   UNL A   1      43.897  30.740  29.443  1.00  0.00     0.049 A 
ATOM     63  H   UNL A   1      43.763  28.738  28.784  1.00  0.00     0.167 HD
ATOM     64  C   UNL A   1      46.256  30.055  29.100  1.00  0.00     0.074 A 
ATOM     65  C   UNL A   1      47.682  30.306  29.098  1.00  0.00     0.031 C 
ATOM     66  C   UNL A   1      45.319  30.973  29.443  1.00  0.00     0.037 A 
BRANCH  53  67
ATOM     67  C   UNL A   1      39.503  28.932  29.003  1.00  0.00     0.064 A 
ATOM     68  C   UNL A   1      38.819  28.813  30.223  1.00  0.00     0.173 A 
ATOM     69  C   UNL A   1      38.781  29.391  27.891  1.00  0.00     0.173 A 
ATOM     70  F   UNL A   1      39.458  28.369  31.316  1.00  0.00    -0.203 F 
ATOM     71  C   UNL A   1      37.462  29.113  30.318  1.00  0.00     0.198 A 
ATOM     72  C   UNL A   1      37.433  29.723  27.998  1.00  0.00     0.198 A 
ATOM     73  F   UNL A   1      39.386  29.529  26.701  1.00  0.00    -0.203 F 
ATOM     74  F   UNL A   1      36.819  28.941  31.481  1.00  0.00    -0.200 F 
ATOM     75  C   UNL A   1      36.773  29.575  29.208  1.00  0.00     0.200 A 
ATOM     76  F   UNL A   1      36.771  30.184  26.927  1.00  0.00    -0.200 F 
ATOM     77  F   UNL A   1      35.469  29.872  29.302  1.00  0.00    -0.200 F 
ENDBRANCH  53  67
BRANCH  54  78
ATOM     78  C   UNL A   1      49.136  26.553  27.837  1.00  0.00     0.064 A 
ATOM     79  C   UNL A   1      49.962  26.246  28.927  1.00  0.00     0.173 A 
ATOM     80  C   UNL A   1      49.713  26.544  26.559  1.00  0.00     0.173 A 
ATOM     81  F   UNL A   1      49.462  26.262  30.171  1.00  0.00    -0.203 F 
ATOM     82  C   UNL A   1      51.316  25.969  28.749  1.00  0.00     0.198 A 
ATOM     83  C   UNL A   1      51.060  26.235  26.379  1.00  0.00     0.198 A 
ATOM     84  F   UNL A   1      48.967  26.824  25.480  1.00  0.00    -0.203 F 
ATOM     85  F   UNL A   1      52.094  25.732  29.815  1.00  0.00    -0.200 F 
ATOM     86  C   UNL A   1      51.863  25.958  27.475  1.00  0.00     0.200 A 
ATOM     87  F   UNL A   1      51.581  26.208  25.145  1.00  0.00    -0.200 F 
ATOM     88  F   UNL A   1      53.164  25.689  27.305  1.00  0.00    -0.200 F 
ENDBRANCH  54  78
BRANCH  66  89
ATOM     89  C   UNL A   1      45.806  32.324  29.884  1.00  0.00     0.064 A 
ATOM     90  C   UNL A   1      46.090  32.607  31.227  1.00  0.00     0.173 A 
ATOM     91  C   UNL A   1      46.026  33.341  28.939  1.00  0.00     0.173 A 
ATOM     92  F   UNL A   1      45.883  31.676  32.171  1.00  0.00    -0.203 F 
ATOM     93  C   UNL A   1      46.549  33.863  31.615  1.00  0.00     0.198 A 
ATOM     94  C   UNL A   1      46.517  34.585  29.325  1.00  0.00     0.198 A 
ATOM     95  F   UNL A   1      45.777  33.121  27.640  1.00  0.00    -0.203 F 
ATOM     96  F   UNL A   1      46.762  34.127  32.911  1.00  0.00    -0.200 F 
ATOM     97  C   UNL A   1      46.770  34.848  30.663  1.00  0.00     0.200 A 
ATOM     98  F   UNL A   1      46.746  35.528  28.401  1.00  0.00    -0.200 F 
ATOM     99  F   UNL A   1      47.219  36.054  31.035  1.00  0.00    -0.200 F 
ENDBRANCH  66  89
ENDBRANCH  40  41
ENDBRANCH  32  35
ENDBRANCH  30  31
ENDBRANCH  29  30
ENDBRANCH  28  29
ENDBRANCH   1  28
TORSDOF 16
ENDMDL
