MODEL 1
REMARK VINA RESULT:     -12.4      0.000      0.000
REMARK SMILES O=C(NCCCCCCNC(=O)c1ccc(F)cc1NC(=O)[C@H]1CCS(=O)(=O)C1)c1ccc(-c2c3nc(c(-c4c(F)c(F)c(F)c(F)c4F)c4ccc([nH]4)c(-c4c(F)c(F)c(F)c(F)c4F)c4nc(c(-c5c(F)c(F)c(F)c(F)c5F)c5ccc2[nH]5)C=C4)C=C3)cc1
REMARK SMILES IDX 6 1 5 2 4 3 3 4 1 5 2 6 30 8 31 9 92 10 32 11 91 12 33 13
REMARK SMILES IDX 34 14 35 15 85 16 36 17 90 18 84 19 86 20 37 21 89 22 83 23
REMARK SMILES IDX 82 24 38 26 70 27 50 28 69 29 51 30 54 31 68 32 87 33 52 34
REMARK SMILES IDX 53 35 67 37 88 38 55 39 39 40 40 41 48 42 41 43 42 44 46 45
REMARK SMILES IDX 49 46 43 47 44 48 47 49 45 50 71 51 72 52 80 53 73 54 74 55
REMARK SMILES IDX 78 56 81 57 75 58 76 59 79 60 77 61 56 62 57 63 65 64 58 65
REMARK SMILES IDX 59 66 63 67 66 68 60 69 61 70 64 71 62 72 7 73 8 74 9 75
REMARK SMILES IDX 10 76 11 77 12 79 13 80 14 81 19 82 15 83 18 84 16 85 17 86
REMARK SMILES IDX 20 87 21 88 22 90 23 91 24 92 29 93 25 94 26 95 27 96 28 97
REMARK H PARENT 3 7 86 25 54 36 10 78 20 89
REMARK Flexibility Score: inf
ROOT
ATOM      1  C   UNL A   1      31.551  30.521  26.006  1.00  0.00     0.002 C 
ENDROOT
BRANCH   1   2
ATOM      2  C   UNL A   1      31.394  31.960  26.495  1.00  0.00     0.021 C 
BRANCH   2   3
ATOM      3  C   UNL A   1      32.625  32.531  27.188  1.00  0.00     0.116 C 
BRANCH   3   4
ATOM      4  N   UNL A   1      32.448  33.921  27.573  1.00  0.00    -0.352 N 
ATOM      5  O   UNL A   1      32.705  35.761  28.856  1.00  0.00    -0.269 OA
ATOM      6  C   UNL A   1      33.103  34.645  28.535  1.00  0.00     0.251 C 
ATOM      7  H   UNL A   1      31.758  34.414  27.071  1.00  0.00     0.163 HD
BRANCH   6   8
ATOM      8  C   UNL A   1      34.283  34.062  29.207  1.00  0.00     0.039 A 
ATOM      9  C   UNL A   1      35.572  34.497  28.886  1.00  0.00     0.014 A 
ATOM     10  C   UNL A   1      34.094  33.069  30.171  1.00  0.00     0.014 A 
ATOM     11  C   UNL A   1      36.674  33.843  29.424  1.00  0.00     0.010 A 
ATOM     12  C   UNL A   1      35.201  32.474  30.776  1.00  0.00     0.010 A 
ATOM     13  C   UNL A   1      36.501  32.837  30.387  1.00  0.00    -0.014 A 
BRANCH  13  14
ATOM     14  C   UNL A   1      37.685  32.213  31.026  1.00  0.00     0.031 A 
ATOM     15  C   UNL A   1      38.461  31.134  30.328  1.00  0.00     0.074 A 
ATOM     16  C   UNL A   1      38.052  32.625  32.254  1.00  0.00     0.049 A 
ATOM     17  N   UNL A   1      39.485  30.444  30.763  1.00  0.00    -0.248 NA
ATOM     18  C   UNL A   1      38.031  30.779  28.967  1.00  0.00     0.031 C 
ATOM     19  C   UNL A   1      37.376  33.671  33.024  1.00  0.00     0.029 A 
ATOM     20  N   UNL A   1      39.078  32.223  33.070  1.00  0.00    -0.354 N 
ATOM     21  C   UNL A   1      39.809  29.561  29.741  1.00  0.00     0.074 A 
ATOM     22  C   UNL A   1      38.856  29.782  28.674  1.00  0.00     0.031 C 
ATOM     23  C   UNL A   1      38.021  33.849  34.185  1.00  0.00     0.029 A 
ATOM     24  C   UNL A   1      39.111  32.883  34.273  1.00  0.00     0.049 A 
ATOM     25  H   UNL A   1      39.728  31.528  32.817  1.00  0.00     0.167 HD
ATOM     26  C   UNL A   1      40.817  28.657  29.699  1.00  0.00     0.037 A 
ATOM     27  C   UNL A   1      39.909  32.714  35.343  1.00  0.00     0.037 A 
ATOM     28  C   UNL A   1      41.764  28.454  30.766  1.00  0.00     0.049 A 
ATOM     29  C   UNL A   1      40.983  31.666  35.295  1.00  0.00     0.074 A 
ATOM     30  C   UNL A   1      42.840  27.584  30.807  1.00  0.00     0.029 A 
ATOM     31  N   UNL A   1      41.743  29.119  31.985  1.00  0.00    -0.354 N 
ATOM     32  N   UNL A   1      41.297  30.853  34.316  1.00  0.00    -0.248 NA
ATOM     33  C   UNL A   1      41.812  31.508  36.497  1.00  0.00     0.031 C 
ATOM     34  C   UNL A   1      43.428  27.675  32.070  1.00  0.00     0.029 A 
ATOM     35  C   UNL A   1      42.769  28.656  32.794  1.00  0.00     0.049 A 
ATOM     36  H   UNL A   1      41.095  29.816  32.236  1.00  0.00     0.167 HD
ATOM     37  C   UNL A   1      42.372  30.105  34.770  1.00  0.00     0.074 A 
ATOM     38  C   UNL A   1      42.664  30.565  36.113  1.00  0.00     0.031 C 
ATOM     39  C   UNL A   1      43.057  29.129  34.127  1.00  0.00     0.037 A 
BRANCH  26  40
ATOM     40  C   UNL A   1      40.948  27.801  28.471  1.00  0.00     0.064 A 
ATOM     41  C   UNL A   1      41.743  28.222  27.393  1.00  0.00     0.173 A 
ATOM     42  C   UNL A   1      40.234  26.602  28.326  1.00  0.00     0.173 A 
ATOM     43  F   UNL A   1      42.440  29.366  27.474  1.00  0.00    -0.203 F 
ATOM     44  C   UNL A   1      41.808  27.484  26.215  1.00  0.00     0.198 A 
ATOM     45  C   UNL A   1      40.328  25.848  27.158  1.00  0.00     0.198 A 
ATOM     46  F   UNL A   1      39.466  26.148  29.327  1.00  0.00    -0.203 F 
ATOM     47  F   UNL A   1      42.547  27.927  25.188  1.00  0.00    -0.200 F 
ATOM     48  C   UNL A   1      41.106  26.294  26.101  1.00  0.00     0.200 A 
ATOM     49  F   UNL A   1      39.669  24.685  27.059  1.00  0.00    -0.200 F 
ATOM     50  F   UNL A   1      41.182  25.576  24.971  1.00  0.00    -0.200 F 
ENDBRANCH  26  40
BRANCH  27  51
ATOM     51  C   UNL A   1      39.710  33.576  36.535  1.00  0.00     0.064 A 
ATOM     52  C   UNL A   1      38.852  33.192  37.578  1.00  0.00     0.173 A 
ATOM     53  C   UNL A   1      40.316  34.836  36.620  1.00  0.00     0.173 A 
ATOM     54  F   UNL A   1      38.240  31.999  37.539  1.00  0.00    -0.203 F 
ATOM     55  C   UNL A   1      38.581  34.050  38.641  1.00  0.00     0.198 A 
ATOM     56  C   UNL A   1      40.068  35.682  37.699  1.00  0.00     0.198 A 
ATOM     57  F   UNL A   1      41.155  35.241  35.655  1.00  0.00    -0.203 F 
ATOM     58  F   UNL A   1      37.716  33.680  39.594  1.00  0.00    -0.200 F 
ATOM     59  C   UNL A   1      39.191  35.293  38.702  1.00  0.00     0.200 A 
ATOM     60  F   UNL A   1      40.674  36.875  37.765  1.00  0.00    -0.200 F 
ATOM     61  F   UNL A   1      38.932  36.119  39.725  1.00  0.00    -0.200 F 
ENDBRANCH  27  51
BRANCH  39  62
ATOM     62  C   UNL A   1      44.222  28.502  34.837  1.00  0.00     0.064 A 
ATOM     63  C   UNL A   1      44.039  27.341  35.605  1.00  0.00     0.173 A 
ATOM     64  C   UNL A   1      45.489  29.102  34.847  1.00  0.00     0.173 A 
ATOM     65  F   UNL A   1      42.843  26.733  35.634  1.00  0.00    -0.203 F 
ATOM     66  C   UNL A   1      45.071  26.822  36.379  1.00  0.00     0.198 A 
ATOM     67  C   UNL A   1      46.530  28.562  35.597  1.00  0.00     0.198 A 
ATOM     68  F   UNL A   1      45.720  30.205  34.117  1.00  0.00    -0.203 F 
ATOM     69  F   UNL A   1      44.856  25.742  37.143  1.00  0.00    -0.200 F 
ATOM     70  C   UNL A   1      46.316  27.432  36.374  1.00  0.00     0.200 A 
ATOM     71  F   UNL A   1      47.740  29.136  35.573  1.00  0.00    -0.200 F 
ATOM     72  F   UNL A   1      47.311  26.931  37.118  1.00  0.00    -0.200 F 
ENDBRANCH  39  62
ENDBRANCH  13  14
ENDBRANCH   6   8
ENDBRANCH   3   4
ENDBRANCH   2   3
ENDBRANCH   1   2
BRANCH   1  73
ATOM     73  C   UNL A   1      32.222  29.569  27.001  1.00  0.00     0.002 C 
BRANCH  73  74
ATOM     74  C   UNL A   1      33.592  29.029  26.571  1.00  0.00     0.021 C 
BRANCH  74  75
ATOM     75  C   UNL A   1      33.609  27.551  26.194  1.00  0.00     0.116 C 
BRANCH  75  76
ATOM     76  N   UNL A   1      32.433  26.865  26.694  1.00  0.00    -0.352 N 
ATOM     77  C   UNL A   1      31.341  26.408  26.007  1.00  0.00     0.253 C 
ATOM     78  H   UNL A   1      32.418  26.704  27.666  1.00  0.00     0.163 HD
ATOM     79  O   UNL A   1      30.309  26.141  26.617  1.00  0.00    -0.269 OA
BRANCH  77  80
ATOM     80  C   UNL A   1      31.378  26.236  24.534  1.00  0.00     0.063 A 
ATOM     81  C   UNL A   1      31.132  27.357  23.719  1.00  0.00     0.019 A 
ATOM     82  C   UNL A   1      31.715  24.982  23.963  1.00  0.00     0.056 A 
ATOM     83  C   UNL A   1      31.180  27.240  22.334  1.00  0.00     0.040 A 
ATOM     84  C   UNL A   1      31.894  24.939  22.580  1.00  0.00     0.066 A 
ATOM     85  C   UNL A   1      31.584  26.039  21.783  1.00  0.00     0.125 A 
ATOM     86  F   UNL A   1      31.673  25.926  20.452  1.00  0.00    -0.207 F 
BRANCH  82  87
ATOM     87  N   UNL A   1      31.803  23.847  24.810  1.00  0.00    -0.325 N 
ATOM     88  C   UNL A   1      32.807  23.001  25.188  1.00  0.00     0.228 C 
ATOM     89  H   UNL A   1      30.939  23.616  25.223  1.00  0.00     0.169 HD
ATOM     90  O   UNL A   1      32.513  22.045  25.913  1.00  0.00    -0.274 OA
BRANCH  88  91
ATOM     91  C   UNL A   1      34.238  23.197  24.744  1.00  0.00     0.095 C 
ATOM     92  C   UNL A   1      35.159  23.809  25.823  1.00  0.00     0.030 C 
ATOM     93  C   UNL A   1      34.966  21.903  24.392  1.00  0.00     0.150 C 
ATOM     94  C   UNL A   1      36.572  23.822  25.232  1.00  0.00     0.138 C 
ATOM     95  S   UNL A   1      36.612  22.480  24.049  1.00  0.00     0.151 S 
ATOM     96  O   UNL A   1      36.608  23.041  22.715  1.00  0.00    -0.229 OA
ATOM     97  O   UNL A   1      37.562  21.470  24.466  1.00  0.00    -0.229 OA
ENDBRANCH  88  91
ENDBRANCH  82  87
ENDBRANCH  77  80
ENDBRANCH  75  76
ENDBRANCH  74  75
ENDBRANCH  73  74
ENDBRANCH   1  73
TORSDOF 15
ENDMDL
MODEL 2
REMARK VINA RESULT:     -12.3      1.421      2.098
REMARK SMILES O=C(NCCCCCCNC(=O)c1ccc(F)cc1NC(=O)[C@H]1CCS(=O)(=O)C1)c1ccc(-c2c3nc(c(-c4c(F)c(F)c(F)c(F)c4F)c4ccc([nH]4)c(-c4c(F)c(F)c(F)c(F)c4F)c4nc(c(-c5c(F)c(F)c(F)c(F)c5F)c5ccc2[nH]5)C=C4)C=C3)cc1
REMARK SMILES IDX 6 1 5 2 4 3 3 4 1 5 2 6 30 8 31 9 92 10 32 11 91 12 33 13
REMARK SMILES IDX 34 14 35 15 85 16 36 17 90 18 84 19 86 20 37 21 89 22 83 23
REMARK SMILES IDX 82 24 38 26 70 27 50 28 69 29 51 30 54 31 68 32 87 33 52 34
REMARK SMILES IDX 53 35 67 37 88 38 55 39 39 40 40 41 48 42 41 43 42 44 46 45
REMARK SMILES IDX 49 46 43 47 44 48 47 49 45 50 71 51 72 52 80 53 73 54 74 55
REMARK SMILES IDX 78 56 81 57 75 58 76 59 79 60 77 61 56 62 57 63 65 64 58 65
REMARK SMILES IDX 59 66 63 67 66 68 60 69 61 70 64 71 62 72 7 73 8 74 9 75
REMARK SMILES IDX 10 76 11 77 12 79 13 80 14 81 19 82 15 83 18 84 16 85 17 86
REMARK SMILES IDX 20 87 21 88 22 90 23 91 24 92 29 93 25 94 26 95 27 96 28 97
REMARK H PARENT 3 7 86 25 54 36 10 78 20 89
REMARK Flexibility Score: inf
ROOT
ATOM      1  C   UNL A   1      32.390  30.482  27.231  1.00  0.00     0.002 C 
ENDROOT
BRANCH   1   2
ATOM      2  C   UNL A   1      31.808  31.886  27.077  1.00  0.00     0.021 C 
BRANCH   2   3
ATOM      3  C   UNL A   1      32.843  32.978  26.837  1.00  0.00     0.116 C 
BRANCH   3   4
ATOM      4  N   UNL A   1      32.533  34.201  27.557  1.00  0.00    -0.352 N 
ATOM      5  O   UNL A   1      32.566  35.644  29.294  1.00  0.00    -0.269 OA
ATOM      6  C   UNL A   1      33.069  34.680  28.725  1.00  0.00     0.251 C 
ATOM      7  H   UNL A   1      31.839  34.768  27.148  1.00  0.00     0.163 HD
BRANCH   6   8
ATOM      8  C   UNL A   1      34.248  34.010  29.313  1.00  0.00     0.039 A 
ATOM      9  C   UNL A   1      34.090  32.943  30.202  1.00  0.00     0.014 A 
ATOM     10  C   UNL A   1      35.525  34.457  28.967  1.00  0.00     0.014 A 
ATOM     11  C   UNL A   1      35.201  32.418  30.852  1.00  0.00     0.010 A 
ATOM     12  C   UNL A   1      36.645  33.867  29.554  1.00  0.00     0.010 A 
ATOM     13  C   UNL A   1      36.491  32.861  30.522  1.00  0.00    -0.014 A 
BRANCH  13  14
ATOM     14  C   UNL A   1      37.674  32.225  31.150  1.00  0.00     0.031 A 
ATOM     15  C   UNL A   1      38.444  31.151  30.437  1.00  0.00     0.074 A 
ATOM     16  C   UNL A   1      38.045  32.621  32.382  1.00  0.00     0.049 A 
ATOM     17  N   UNL A   1      39.466  30.451  30.861  1.00  0.00    -0.248 NA
ATOM     18  C   UNL A   1      38.009  30.813  29.074  1.00  0.00     0.031 C 
ATOM     19  C   UNL A   1      37.376  33.660  33.166  1.00  0.00     0.029 A 
ATOM     20  N   UNL A   1      39.072  32.205  33.191  1.00  0.00    -0.354 N 
ATOM     21  C   UNL A   1      39.784  29.579  29.828  1.00  0.00     0.074 A 
ATOM     22  C   UNL A   1      38.828  29.817  28.766  1.00  0.00     0.031 C 
ATOM     23  C   UNL A   1      38.025  33.821  34.327  1.00  0.00     0.029 A 
ATOM     24  C   UNL A   1      39.111  32.850  34.401  1.00  0.00     0.049 A 
ATOM     25  H   UNL A   1      39.719  31.510  32.928  1.00  0.00     0.167 HD
ATOM     26  C   UNL A   1      40.788  28.672  29.773  1.00  0.00     0.037 A 
ATOM     27  C   UNL A   1      39.912  32.665  35.467  1.00  0.00     0.037 A 
ATOM     28  C   UNL A   1      41.737  28.453  30.835  1.00  0.00     0.049 A 
ATOM     29  C   UNL A   1      40.981  31.613  35.403  1.00  0.00     0.074 A 
ATOM     30  C   UNL A   1      42.810  27.578  30.862  1.00  0.00     0.029 A 
ATOM     31  N   UNL A   1      41.721  29.103  32.061  1.00  0.00    -0.354 N 
ATOM     32  N   UNL A   1      41.288  30.811  34.414  1.00  0.00    -0.248 NA
ATOM     33  C   UNL A   1      41.813  31.437  36.601  1.00  0.00     0.031 C 
ATOM     34  C   UNL A   1      43.401  27.651  32.125  1.00  0.00     0.029 A 
ATOM     35  C   UNL A   1      42.748  28.627  32.862  1.00  0.00     0.049 A 
ATOM     36  H   UNL A   1      41.077  29.800  32.323  1.00  0.00     0.167 HD
ATOM     37  C   UNL A   1      42.362  30.053  34.856  1.00  0.00     0.074 A 
ATOM     38  C   UNL A   1      42.659  30.496  36.204  1.00  0.00     0.031 C 
ATOM     39  C   UNL A   1      43.041  29.082  34.200  1.00  0.00     0.037 A 
BRANCH  26  40
ATOM     40  C   UNL A   1      40.912  27.830  28.534  1.00  0.00     0.064 A 
ATOM     41  C   UNL A   1      41.668  28.282  27.441  1.00  0.00     0.173 A 
ATOM     42  C   UNL A   1      40.228  26.613  28.396  1.00  0.00     0.173 A 
ATOM     43  F   UNL A   1      42.336  29.444  27.515  1.00  0.00    -0.203 F 
ATOM     44  C   UNL A   1      41.725  27.556  26.255  1.00  0.00     0.198 A 
ATOM     45  C   UNL A   1      40.313  25.871  27.219  1.00  0.00     0.198 A 
ATOM     46  F   UNL A   1      39.498  26.129  29.411  1.00  0.00    -0.203 F 
ATOM     47  F   UNL A   1      42.426  28.028  25.214  1.00  0.00    -0.200 F 
ATOM     48  C   UNL A   1      41.053  26.348  26.147  1.00  0.00     0.200 A 
ATOM     49  F   UNL A   1      39.685  24.692  27.126  1.00  0.00    -0.200 F 
ATOM     50  F   UNL A   1      41.121  25.642  25.010  1.00  0.00    -0.200 F 
ENDBRANCH  26  40
BRANCH  27  51
ATOM     51  C   UNL A   1      39.719  33.514  36.670  1.00  0.00     0.064 A 
ATOM     52  C   UNL A   1      38.831  33.140  37.691  1.00  0.00     0.173 A 
ATOM     53  C   UNL A   1      40.363  34.752  36.786  1.00  0.00     0.173 A 
ATOM     54  F   UNL A   1      38.182  31.969  37.621  1.00  0.00    -0.203 F 
ATOM     55  C   UNL A   1      38.569  33.990  38.763  1.00  0.00     0.198 A 
ATOM     56  C   UNL A   1      40.123  35.587  37.874  1.00  0.00     0.198 A 
ATOM     57  F   UNL A   1      41.232  35.145  35.843  1.00  0.00    -0.203 F 
ATOM     58  F   UNL A   1      37.676  33.632  39.696  1.00  0.00    -0.200 F 
ATOM     59  C   UNL A   1      39.217  35.211  38.856  1.00  0.00     0.200 A 
ATOM     60  F   UNL A   1      40.766  36.760  37.970  1.00  0.00    -0.200 F 
ATOM     61  F   UNL A   1      38.967  36.028  39.888  1.00  0.00    -0.200 F 
ENDBRANCH  27  51
BRANCH  39  62
ATOM     62  C   UNL A   1      44.205  28.442  34.899  1.00  0.00     0.064 A 
ATOM     63  C   UNL A   1      44.012  27.297  35.687  1.00  0.00     0.173 A 
ATOM     64  C   UNL A   1      45.484  29.016  34.878  1.00  0.00     0.173 A 
ATOM     65  F   UNL A   1      42.805  26.713  35.747  1.00  0.00    -0.203 F 
ATOM     66  C   UNL A   1      45.047  26.768  36.451  1.00  0.00     0.198 A 
ATOM     67  C   UNL A   1      46.527  28.466  35.619  1.00  0.00     0.198 A 
ATOM     68  F   UNL A   1      45.725  30.103  34.128  1.00  0.00    -0.203 F 
ATOM     69  F   UNL A   1      44.824  25.704  37.236  1.00  0.00    -0.200 F 
ATOM     70  C   UNL A   1      46.304  27.352  36.416  1.00  0.00     0.200 A 
ATOM     71  F   UNL A   1      47.748  29.015  35.565  1.00  0.00    -0.200 F 
ATOM     72  F   UNL A   1      47.301  26.842  37.151  1.00  0.00    -0.200 F 
ENDBRANCH  39  62
ENDBRANCH  13  14
ENDBRANCH   6   8
ENDBRANCH   3   4
ENDBRANCH   2   3
ENDBRANCH   1   2
BRANCH   1  73
ATOM     73  C   UNL A   1      33.908  30.428  27.430  1.00  0.00     0.002 C 
BRANCH  73  74
ATOM     74  C   UNL A   1      34.562  29.073  27.130  1.00  0.00     0.021 C 
BRANCH  74  75
ATOM     75  C   UNL A   1      33.885  28.265  26.026  1.00  0.00     0.116 C 
BRANCH  75  76
ATOM     76  N   UNL A   1      34.344  28.676  24.713  1.00  0.00    -0.352 N 
ATOM     77  C   UNL A   1      33.704  28.591  23.508  1.00  0.00     0.253 C 
ATOM     78  H   UNL A   1      35.245  29.073  24.686  1.00  0.00     0.163 HD
ATOM     79  O   UNL A   1      34.351  28.689  22.469  1.00  0.00    -0.269 OA
BRANCH  77  80
ATOM     80  C   UNL A   1      32.237  28.375  23.431  1.00  0.00     0.063 A 
ATOM     81  C   UNL A   1      31.383  29.381  23.920  1.00  0.00     0.019 A 
ATOM     82  C   UNL A   1      31.712  27.207  22.822  1.00  0.00     0.056 A 
ATOM     83  C   UNL A   1      30.003  29.224  23.845  1.00  0.00     0.040 A 
ATOM     84  C   UNL A   1      30.330  27.151  22.636  1.00  0.00     0.066 A 
ATOM     85  C   UNL A   1      29.494  28.124  23.183  1.00  0.00     0.125 A 
ATOM     86  F   UNL A   1      28.168  27.982  23.069  1.00  0.00    -0.207 F 
BRANCH  82  87
ATOM     87  N   UNL A   1      32.600  26.154  22.484  1.00  0.00    -0.325 N 
ATOM     88  C   UNL A   1      32.840  24.899  22.971  1.00  0.00     0.228 C 
ATOM     89  H   UNL A   1      33.179  26.379  21.719  1.00  0.00     0.169 HD
ATOM     90  O   UNL A   1      33.761  24.250  22.465  1.00  0.00    -0.274 OA
BRANCH  88  91
ATOM     91  C   UNL A   1      32.027  24.301  24.095  1.00  0.00     0.095 C 
ATOM     92  C   UNL A   1      31.984  22.757  24.096  1.00  0.00     0.030 C 
ATOM     93  C   UNL A   1      32.565  24.612  25.489  1.00  0.00     0.150 C 
ATOM     94  C   UNL A   1      31.220  22.344  25.359  1.00  0.00     0.138 C 
ATOM     95  S   UNL A   1      31.474  23.672  26.531  1.00  0.00     0.151 S 
ATOM     96  O   UNL A   1      30.240  24.419  26.656  1.00  0.00    -0.229 OA
ATOM     97  O   UNL A   1      32.213  23.194  27.680  1.00  0.00    -0.229 OA
ENDBRANCH  88  91
ENDBRANCH  82  87
ENDBRANCH  77  80
ENDBRANCH  75  76
ENDBRANCH  74  75
ENDBRANCH  73  74
ENDBRANCH   1  73
TORSDOF 15
ENDMDL
MODEL 3
REMARK VINA RESULT:     -12.3      0.473      7.375
REMARK SMILES O=C(NCCCCCCNC(=O)c1ccc(F)cc1NC(=O)[C@H]1CCS(=O)(=O)C1)c1ccc(-c2c3nc(c(-c4c(F)c(F)c(F)c(F)c4F)c4ccc([nH]4)c(-c4c(F)c(F)c(F)c(F)c4F)c4nc(c(-c5c(F)c(F)c(F)c(F)c5F)c5ccc2[nH]5)C=C4)C=C3)cc1
REMARK SMILES IDX 6 1 5 2 4 3 3 4 1 5 2 6 30 8 31 9 92 10 32 11 91 12 33 13
REMARK SMILES IDX 34 14 35 15 85 16 36 17 90 18 84 19 86 20 37 21 89 22 83 23
REMARK SMILES IDX 82 24 38 26 70 27 50 28 69 29 51 30 54 31 68 32 87 33 52 34
REMARK SMILES IDX 53 35 67 37 88 38 55 39 39 40 40 41 48 42 41 43 42 44 46 45
REMARK SMILES IDX 49 46 43 47 44 48 47 49 45 50 71 51 72 52 80 53 73 54 74 55
REMARK SMILES IDX 78 56 81 57 75 58 76 59 79 60 77 61 56 62 57 63 65 64 58 65
REMARK SMILES IDX 59 66 63 67 66 68 60 69 61 70 64 71 62 72 7 73 8 74 9 75
REMARK SMILES IDX 10 76 11 77 12 79 13 80 14 81 19 82 15 83 18 84 16 85 17 86
REMARK SMILES IDX 20 87 21 88 22 90 23 91 24 92 29 93 25 94 26 95 27 96 28 97
REMARK H PARENT 3 7 86 25 54 36 10 78 20 89
REMARK Flexibility Score: inf
ROOT
ATOM      1  C   UNL A   1      31.473  30.845  25.915  1.00  0.00     0.002 C 
ENDROOT
BRANCH   1   2
ATOM      2  C   UNL A   1      31.326  32.245  26.509  1.00  0.00     0.021 C 
BRANCH   2   3
ATOM      3  C   UNL A   1      32.579  32.779  27.191  1.00  0.00     0.116 C 
BRANCH   3   4
ATOM      4  N   UNL A   1      32.426  34.156  27.629  1.00  0.00    -0.352 N 
ATOM      5  O   UNL A   1      32.702  35.937  28.990  1.00  0.00    -0.269 OA
ATOM      6  C   UNL A   1      33.081  34.826  28.631  1.00  0.00     0.251 C 
ATOM      7  H   UNL A   1      31.757  34.685  27.136  1.00  0.00     0.163 HD
BRANCH   6   8
ATOM      8  C   UNL A   1      34.235  34.189  29.299  1.00  0.00     0.039 A 
ATOM      9  C   UNL A   1      35.540  34.464  28.880  1.00  0.00     0.014 A 
ATOM     10  C   UNL A   1      34.005  33.307  30.357  1.00  0.00     0.014 A 
ATOM     11  C   UNL A   1      36.603  33.752  29.424  1.00  0.00     0.010 A 
ATOM     12  C   UNL A   1      35.083  32.660  30.963  1.00  0.00     0.010 A 
ATOM     13  C   UNL A   1      36.388  32.857  30.483  1.00  0.00    -0.014 A 
BRANCH  13  14
ATOM     14  C   UNL A   1      37.541  32.176  31.121  1.00  0.00     0.031 A 
ATOM     15  C   UNL A   1      38.011  32.572  32.490  1.00  0.00     0.074 A 
ATOM     16  C   UNL A   1      38.171  31.197  30.445  1.00  0.00     0.049 A 
ATOM     17  N   UNL A   1      39.034  32.123  33.172  1.00  0.00    -0.248 NA
ATOM     18  C   UNL A   1      37.237  33.612  33.185  1.00  0.00     0.031 C 
ATOM     19  C   UNL A   1      37.797  30.725  29.110  1.00  0.00     0.029 A 
ATOM     20  N   UNL A   1      39.251  30.421  30.781  1.00  0.00    -0.354 N 
ATOM     21  C   UNL A   1      39.040  32.835  34.364  1.00  0.00     0.074 A 
ATOM     22  C   UNL A   1      37.934  33.768  34.302  1.00  0.00     0.031 C 
ATOM     23  C   UNL A   1      38.613  29.723  28.754  1.00  0.00     0.029 A 
ATOM     24  C   UNL A   1      39.610  29.530  29.802  1.00  0.00     0.049 A 
ATOM     25  H   UNL A   1      39.723  30.497  31.641  1.00  0.00     0.167 HD
ATOM     26  C   UNL A   1      39.886  32.710  35.413  1.00  0.00     0.037 A 
ATOM     27  C   UNL A   1      40.644  28.670  29.736  1.00  0.00     0.037 A 
ATOM     28  C   UNL A   1      40.977  31.770  35.464  1.00  0.00     0.049 A 
ATOM     29  C   UNL A   1      41.602  28.591  30.888  1.00  0.00     0.074 A 
ATOM     30  C   UNL A   1      41.873  31.546  36.495  1.00  0.00     0.029 A 
ATOM     31  N   UNL A   1      41.330  30.907  34.435  1.00  0.00    -0.354 N 
ATOM     32  N   UNL A   1      41.585  29.252  32.020  1.00  0.00    -0.248 NA
ATOM     33  C   UNL A   1      42.725  27.653  30.756  1.00  0.00     0.031 C 
ATOM     34  C   UNL A   1      42.804  30.598  36.068  1.00  0.00     0.029 A 
ATOM     35  C   UNL A   1      42.448  30.171  34.798  1.00  0.00     0.049 A 
ATOM     36  H   UNL A   1      40.857  30.829  33.576  1.00  0.00     0.167 HD
ATOM     37  C   UNL A   1      42.674  28.794  32.746  1.00  0.00     0.074 A 
ATOM     38  C   UNL A   1      43.330  27.792  31.929  1.00  0.00     0.031 C 
ATOM     39  C   UNL A   1      43.087  29.169  33.980  1.00  0.00     0.037 A 
BRANCH  26  40
ATOM     40  C   UNL A   1      39.687  33.619  36.594  1.00  0.00     0.064 A 
ATOM     41  C   UNL A   1      38.847  33.235  37.651  1.00  0.00     0.173 A 
ATOM     42  C   UNL A   1      40.265  34.896  36.650  1.00  0.00     0.173 A 
ATOM     43  F   UNL A   1      38.260  32.028  37.645  1.00  0.00    -0.203 F 
ATOM     44  C   UNL A   1      38.583  34.099  38.711  1.00  0.00     0.198 A 
ATOM     45  C   UNL A   1      40.026  35.746  37.729  1.00  0.00     0.198 A 
ATOM     46  F   UNL A   1      41.083  35.311  35.671  1.00  0.00    -0.203 F 
ATOM     47  F   UNL A   1      37.749  33.721  39.690  1.00  0.00    -0.200 F 
ATOM     48  C   UNL A   1      39.178  35.350  38.752  1.00  0.00     0.200 A 
ATOM     49  F   UNL A   1      40.622  36.944  37.779  1.00  0.00    -0.200 F 
ATOM     50  F   UNL A   1      38.936  36.175  39.780  1.00  0.00    -0.200 F 
ENDBRANCH  26  40
BRANCH  27  51
ATOM     51  C   UNL A   1      40.798  27.819  28.528  1.00  0.00     0.064 A 
ATOM     52  C   UNL A   1      41.568  28.240  27.433  1.00  0.00     0.173 A 
ATOM     53  C   UNL A   1      40.116  26.600  28.418  1.00  0.00     0.173 A 
ATOM     54  F   UNL A   1      42.231  29.405  27.486  1.00  0.00    -0.203 F 
ATOM     55  C   UNL A   1      41.621  27.491  26.260  1.00  0.00     0.198 A 
ATOM     56  C   UNL A   1      40.195  25.837  27.255  1.00  0.00     0.198 A 
ATOM     57  F   UNL A   1      39.381  26.149  29.444  1.00  0.00    -0.203 F 
ATOM     58  F   UNL A   1      42.319  27.943  25.210  1.00  0.00    -0.200 F 
ATOM     59  C   UNL A   1      40.937  26.289  26.173  1.00  0.00     0.200 A 
ATOM     60  F   UNL A   1      39.547  24.666  27.181  1.00  0.00    -0.200 F 
ATOM     61  F   UNL A   1      40.988  25.567  25.045  1.00  0.00    -0.200 F 
ENDBRANCH  27  51
BRANCH  39  62
ATOM     62  C   UNL A   1      44.286  28.476  34.562  1.00  0.00     0.064 A 
ATOM     63  C   UNL A   1      45.576  28.972  34.315  1.00  0.00     0.173 A 
ATOM     64  C   UNL A   1      44.170  27.270  35.267  1.00  0.00     0.173 A 
ATOM     65  F   UNL A   1      45.740  30.119  33.638  1.00  0.00    -0.203 F 
ATOM     66  C   UNL A   1      46.705  28.273  34.728  1.00  0.00     0.198 A 
ATOM     67  C   UNL A   1      45.302  26.588  35.708  1.00  0.00     0.198 A 
ATOM     68  F   UNL A   1      42.960  26.761  35.542  1.00  0.00    -0.203 F 
ATOM     69  F   UNL A   1      47.926  28.742  34.436  1.00  0.00    -0.200 F 
ATOM     70  C   UNL A   1      46.568  27.082  35.425  1.00  0.00     0.200 A 
ATOM     71  F   UNL A   1      45.169  25.451  36.402  1.00  0.00    -0.200 F 
ATOM     72  F   UNL A   1      47.655  26.409  35.823  1.00  0.00    -0.200 F 
ENDBRANCH  39  62
ENDBRANCH  13  14
ENDBRANCH   6   8
ENDBRANCH   3   4
ENDBRANCH   2   3
ENDBRANCH   1   2
BRANCH   1  73
ATOM     73  C   UNL A   1      32.527  29.963  26.592  1.00  0.00     0.002 C 
BRANCH  73  74
ATOM     74  C   UNL A   1      31.976  28.754  27.360  1.00  0.00     0.021 C 
BRANCH  74  75
ATOM     75  C   UNL A   1      32.367  27.397  26.783  1.00  0.00     0.116 C 
BRANCH  75  76
ATOM     76  N   UNL A   1      31.327  26.410  27.003  1.00  0.00    -0.352 N 
ATOM     77  C   UNL A   1      30.490  25.819  26.096  1.00  0.00     0.253 C 
ATOM     78  H   UNL A   1      31.206  26.124  27.938  1.00  0.00     0.163 HD
ATOM     79  O   UNL A   1      29.472  25.255  26.488  1.00  0.00    -0.269 OA
BRANCH  77  80
ATOM     80  C   UNL A   1      30.785  25.854  24.642  1.00  0.00     0.063 A 
ATOM     81  C   UNL A   1      30.482  27.025  23.922  1.00  0.00     0.019 A 
ATOM     82  C   UNL A   1      31.416  24.754  24.009  1.00  0.00     0.056 A 
ATOM     83  C   UNL A   1      30.765  27.104  22.563  1.00  0.00     0.040 A 
ATOM     84  C   UNL A   1      31.814  24.924  22.682  1.00  0.00     0.066 A 
ATOM     85  C   UNL A   1      31.449  26.063  21.965  1.00  0.00     0.125 A 
ATOM     86  F   UNL A   1      31.764  26.145  20.667  1.00  0.00    -0.207 F 
BRANCH  82  87
ATOM     87  N   UNL A   1      31.564  23.542  24.731  1.00  0.00    -0.325 N 
ATOM     88  C   UNL A   1      32.613  22.720  25.034  1.00  0.00     0.228 C 
ATOM     89  H   UNL A   1      30.710  23.216  25.101  1.00  0.00     0.169 HD
ATOM     90  O   UNL A   1      32.370  21.676  25.648  1.00  0.00    -0.274 OA
BRANCH  88  91
ATOM     91  C   UNL A   1      34.034  23.048  24.641  1.00  0.00     0.095 C 
ATOM     92  C   UNL A   1      34.835  23.801  25.725  1.00  0.00     0.030 C 
ATOM     93  C   UNL A   1      34.909  21.825  24.382  1.00  0.00     0.150 C 
ATOM     94  C   UNL A   1      36.266  23.939  25.193  1.00  0.00     0.138 C 
ATOM     95  S   UNL A   1      36.500  22.557  24.079  1.00  0.00     0.151 S 
ATOM     96  O   UNL A   1      36.499  23.055  22.720  1.00  0.00    -0.229 OA
ATOM     97  O   UNL A   1      37.530  21.674  24.584  1.00  0.00    -0.229 OA
ENDBRANCH  88  91
ENDBRANCH  82  87
ENDBRANCH  77  80
ENDBRANCH  75  76
ENDBRANCH  74  75
ENDBRANCH  73  74
ENDBRANCH   1  73
TORSDOF 15
ENDMDL
