MODEL 1
REMARK VINA RESULT:     -12.4      0.000      0.000
REMARK SMILES C[C@H](c1ccccc1F)N(C)c1cccc(F)c1C(=O)NCCCCCCNC(=O)c1ccc(-c2c3nc(c(-c4c(F)c(F)c(F)c(F)c4F)c4ccc([nH]4)c(-c4c(F)c(F)c(F)c(F)c4F)c4nc(c(-c5c(F)c(F)c(F)c(F)c5F)c5ccc2[nH]5)C=C4)C=C3)cc1
REMARK SMILES IDX 24 1 23 2 22 3 21 4 19 5 20 6 18 8 12 9 13 10 14 11 16 12
REMARK SMILES IDX 15 13 17 14 10 15 11 16 2 17 1 18 3 19 4 20 8 21 5 22 7 23
REMARK SMILES IDX 9 24 6 25 25 26 26 27 27 28 28 29 29 30 30 32 31 33 32 34
REMARK SMILES IDX 93 35 33 36 92 37 34 38 35 39 36 40 86 41 37 42 91 43 85 44
REMARK SMILES IDX 87 45 38 46 90 47 84 48 83 49 39 51 71 52 51 53 70 54 52 55
REMARK SMILES IDX 55 56 69 57 88 58 53 59 54 60 68 62 89 63 56 64 40 65 41 66
REMARK SMILES IDX 49 67 42 68 43 69 47 70 50 71 44 72 45 73 48 74 46 75 72 76
REMARK SMILES IDX 73 77 81 78 74 79 75 80 79 81 82 82 76 83 77 84 80 85 78 86
REMARK SMILES IDX 57 87 58 88 66 89 59 90 60 91 64 92 67 93 61 94 62 95 65 96
REMARK SMILES IDX 63 97
REMARK H PARENT 21 7 28 31 87 50 55 61
REMARK Flexibility Score: inf
ROOT
ATOM      1  C   UNL A   1      32.447  29.876  26.911  1.00  0.00     0.002 C 
ENDROOT
BRANCH   1   2
ATOM      2  C   UNL A   1      33.759  29.423  26.267  1.00  0.00     0.021 C 
BRANCH   2   3
ATOM      3  C   UNL A   1      34.025  27.921  26.206  1.00  0.00     0.116 C 
BRANCH   3   4
ATOM      4  N   UNL A   1      34.183  27.372  24.871  1.00  0.00    -0.352 N 
ATOM      5  C   UNL A   1      33.821  26.134  24.360  1.00  0.00     0.256 C 
ATOM      6  O   UNL A   1      33.866  25.999  23.139  1.00  0.00    -0.269 OA
ATOM      7  H   UNL A   1      34.617  27.975  24.224  1.00  0.00     0.163 HD
BRANCH   5   8
ATOM      8  C   UNL A   1      33.446  24.997  25.251  1.00  0.00     0.098 A 
ATOM      9  C   UNL A   1      32.109  24.721  25.633  1.00  0.00     0.053 A 
ATOM     10  C   UNL A   1      31.870  23.497  26.301  1.00  0.00     0.027 A 
ATOM     11  C   UNL A   1      32.894  22.641  26.700  1.00  0.00     0.005 A 
ATOM     12  C   UNL A   1      34.469  24.184  25.766  1.00  0.00     0.138 A 
ATOM     13  C   UNL A   1      34.205  23.010  26.467  1.00  0.00     0.040 A 
ATOM     14  F   UNL A   1      35.759  24.519  25.614  1.00  0.00    -0.206 F 
BRANCH   9  15
ATOM     15  N   UNL A   1      31.016  25.570  25.469  1.00  0.00    -0.367 N 
ATOM     16  C   UNL A   1      30.658  26.501  26.525  1.00  0.00     0.144 C 
BRANCH  15  17
ATOM     17  C   UNL A   1      30.099  25.401  24.304  1.00  0.00     0.112 C 
ATOM     18  C   UNL A   1      30.647  24.372  23.309  1.00  0.00     0.036 C 
BRANCH  17  19
ATOM     19  C   UNL A   1      29.679  26.752  23.730  1.00  0.00     0.010 A 
ATOM     20  C   UNL A   1      30.663  27.564  23.125  1.00  0.00     0.009 A 
ATOM     21  C   UNL A   1      28.360  27.221  23.711  1.00  0.00     0.128 A 
ATOM     22  C   UNL A   1      30.325  28.760  22.486  1.00  0.00     0.001 A 
ATOM     23  C   UNL A   1      28.020  28.420  23.084  1.00  0.00     0.039 A 
ATOM     24  F   UNL A   1      27.366  26.525  24.279  1.00  0.00    -0.207 F 
ATOM     25  C   UNL A   1      29.000  29.185  22.458  1.00  0.00     0.003 A 
ENDBRANCH  17  19
ENDBRANCH  15  17
ENDBRANCH   9  15
ENDBRANCH   5   8
ENDBRANCH   3   4
ENDBRANCH   2   3
ENDBRANCH   1   2
BRANCH   1  26
ATOM     26  C   UNL A   1      31.536  30.777  26.073  1.00  0.00     0.002 C 
BRANCH  26  27
ATOM     27  C   UNL A   1      31.345  32.211  26.569  1.00  0.00     0.021 C 
BRANCH  27  28
ATOM     28  C   UNL A   1      32.530  32.823  27.306  1.00  0.00     0.116 C 
BRANCH  28  29
ATOM     29  N   UNL A   1      32.328  34.222  27.647  1.00  0.00    -0.352 N 
ATOM     30  C   UNL A   1      32.970  34.997  28.583  1.00  0.00     0.251 C 
ATOM     31  H   UNL A   1      31.628  34.682  27.131  1.00  0.00     0.163 HD
ATOM     32  O   UNL A   1      32.567  36.127  28.832  1.00  0.00    -0.269 OA
BRANCH  30  33
ATOM     33  C   UNL A   1      34.141  34.461  29.313  1.00  0.00     0.039 A 
ATOM     34  C   UNL A   1      33.947  33.889  30.574  1.00  0.00     0.014 A 
ATOM     35  C   UNL A   1      35.426  34.530  28.767  1.00  0.00     0.014 A 
ATOM     36  C   UNL A   1      35.031  33.332  31.258  1.00  0.00     0.010 A 
ATOM     37  C   UNL A   1      36.489  33.907  29.414  1.00  0.00     0.010 A 
ATOM     38  C   UNL A   1      36.305  33.305  30.668  1.00  0.00    -0.014 A 
BRANCH  38  39
ATOM     39  C   UNL A   1      37.459  32.663  31.349  1.00  0.00     0.031 A 
ATOM     40  C   UNL A   1      38.188  31.527  30.686  1.00  0.00     0.074 A 
ATOM     41  C   UNL A   1      37.815  33.061  32.586  1.00  0.00     0.049 A 
ATOM     42  N   UNL A   1      39.160  30.784  31.150  1.00  0.00    -0.248 NA
ATOM     43  C   UNL A   1      37.750  31.160  29.329  1.00  0.00     0.031 C 
ATOM     44  C   UNL A   1      37.167  34.130  33.347  1.00  0.00     0.029 A 
ATOM     45  N   UNL A   1      38.802  32.608  33.426  1.00  0.00    -0.354 N 
ATOM     46  C   UNL A   1      39.440  29.861  30.152  1.00  0.00     0.074 A 
ATOM     47  C   UNL A   1      38.499  30.097  29.079  1.00  0.00     0.031 C 
ATOM     48  C   UNL A   1      37.789  34.270  34.526  1.00  0.00     0.029 A 
ATOM     49  C   UNL A   1      38.850  33.270  34.629  1.00  0.00     0.049 A 
ATOM     50  H   UNL A   1      39.418  31.877  33.188  1.00  0.00     0.167 HD
ATOM     51  C   UNL A   1      40.413  28.920  30.122  1.00  0.00     0.037 A 
ATOM     52  C   UNL A   1      39.650  33.089  35.697  1.00  0.00     0.037 A 
ATOM     53  C   UNL A   1      41.363  28.706  31.181  1.00  0.00     0.049 A 
ATOM     54  C   UNL A   1      40.705  32.016  35.651  1.00  0.00     0.074 A 
ATOM     55  C   UNL A   1      42.415  27.809  31.224  1.00  0.00     0.029 A 
ATOM     56  N   UNL A   1      41.376  29.397  32.384  1.00  0.00    -0.354 N 
ATOM     57  N   UNL A   1      40.992  31.180  34.683  1.00  0.00    -0.248 NA
ATOM     58  C   UNL A   1      41.551  31.861  36.845  1.00  0.00     0.031 C 
ATOM     59  C   UNL A   1      43.030  27.916  32.473  1.00  0.00     0.029 A 
ATOM     60  C   UNL A   1      42.404  28.927  33.186  1.00  0.00     0.049 A 
ATOM     61  H   UNL A   1      40.749  30.114  32.632  1.00  0.00     0.167 HD
ATOM     62  C   UNL A   1      42.064  30.423  35.135  1.00  0.00     0.074 A 
ATOM     63  C   UNL A   1      42.385  30.904  36.462  1.00  0.00     0.031 C 
ATOM     64  C   UNL A   1      42.722  29.422  34.501  1.00  0.00     0.037 A 
BRANCH  51  65
ATOM     65  C   UNL A   1      40.515  28.051  28.901  1.00  0.00     0.064 A 
ATOM     66  C   UNL A   1      41.272  28.464  27.793  1.00  0.00     0.173 A 
ATOM     67  C   UNL A   1      39.804  26.847  28.796  1.00  0.00     0.173 A 
ATOM     68  F   UNL A   1      41.967  29.611  27.838  1.00  0.00    -0.203 F 
ATOM     69  C   UNL A   1      41.300  27.711  26.623  1.00  0.00     0.198 A 
ATOM     70  C   UNL A   1      39.861  26.079  27.635  1.00  0.00     0.198 A 
ATOM     71  F   UNL A   1      39.074  26.400  29.829  1.00  0.00    -0.203 F 
ATOM     72  F   UNL A   1      41.999  28.145  25.565  1.00  0.00    -0.200 F 
ATOM     73  C   UNL A   1      40.598  26.518  26.546  1.00  0.00     0.200 A 
ATOM     74  F   UNL A   1      39.203  24.914  27.572  1.00  0.00    -0.200 F 
ATOM     75  F   UNL A   1      40.633  25.789  25.421  1.00  0.00    -0.200 F 
ENDBRANCH  51  65
BRANCH  52  76
ATOM     76  C   UNL A   1      39.500  33.969  36.885  1.00  0.00     0.064 A 
ATOM     77  C   UNL A   1      40.136  35.217  36.957  1.00  0.00     0.173 A 
ATOM     78  C   UNL A   1      38.745  33.559  37.992  1.00  0.00     0.173 A 
ATOM     79  F   UNL A   1      40.874  35.656  35.927  1.00  0.00    -0.203 F 
ATOM     80  C   UNL A   1      40.040  36.011  38.099  1.00  0.00     0.198 A 
ATOM     81  C   UNL A   1      38.624  34.367  39.122  1.00  0.00     0.198 A 
ATOM     82  F   UNL A   1      38.100  32.384  37.964  1.00  0.00    -0.203 F 
ATOM     83  F   UNL A   1      40.690  37.182  38.156  1.00  0.00    -0.200 F 
ATOM     84  C   UNL A   1      39.281  35.587  39.179  1.00  0.00     0.200 A 
ATOM     85  F   UNL A   1      37.869  33.963  40.154  1.00  0.00    -0.200 F 
ATOM     86  F   UNL A   1      39.179  36.354  40.273  1.00  0.00    -0.200 F 
ENDBRANCH  52  76
BRANCH  64  87
ATOM     87  C   UNL A   1      43.885  28.786  35.208  1.00  0.00     0.064 A 
ATOM     88  C   UNL A   1      45.194  29.231  34.958  1.00  0.00     0.173 A 
ATOM     89  C   UNL A   1      43.719  27.677  36.049  1.00  0.00     0.173 A 
ATOM     90  F   UNL A   1      45.408  30.282  34.153  1.00  0.00    -0.203 F 
ATOM     91  C   UNL A   1      46.291  28.571  35.502  1.00  0.00     0.198 A 
ATOM     92  C   UNL A   1      44.818  27.040  36.618  1.00  0.00     0.198 A 
ATOM     93  F   UNL A   1      42.488  27.221  36.329  1.00  0.00    -0.203 F 
ATOM     94  F   UNL A   1      47.532  28.984  35.209  1.00  0.00    -0.200 F 
ATOM     95  C   UNL A   1      46.103  27.478  36.333  1.00  0.00     0.200 A 
ATOM     96  F   UNL A   1      44.634  25.997  37.440  1.00  0.00    -0.200 F 
ATOM     97  F   UNL A   1      47.161  26.845  36.860  1.00  0.00    -0.200 F 
ENDBRANCH  64  87
ENDBRANCH  38  39
ENDBRANCH  30  33
ENDBRANCH  28  29
ENDBRANCH  27  28
ENDBRANCH  26  27
ENDBRANCH   1  26
TORSDOF 16
ENDMDL
MODEL 2
REMARK VINA RESULT:     -12.4      1.219      7.792
REMARK SMILES C[C@H](c1ccccc1F)N(C)c1cccc(F)c1C(=O)NCCCCCCNC(=O)c1ccc(-c2c3nc(c(-c4c(F)c(F)c(F)c(F)c4F)c4ccc([nH]4)c(-c4c(F)c(F)c(F)c(F)c4F)c4nc(c(-c5c(F)c(F)c(F)c(F)c5F)c5ccc2[nH]5)C=C4)C=C3)cc1
REMARK SMILES IDX 24 1 23 2 22 3 21 4 19 5 20 6 18 8 12 9 13 10 14 11 16 12
REMARK SMILES IDX 15 13 17 14 10 15 11 16 2 17 1 18 3 19 4 20 8 21 5 22 7 23
REMARK SMILES IDX 9 24 6 25 25 26 26 27 27 28 28 29 29 30 30 32 31 33 32 34
REMARK SMILES IDX 93 35 33 36 92 37 34 38 35 39 36 40 86 41 37 42 91 43 85 44
REMARK SMILES IDX 87 45 38 46 90 47 84 48 83 49 39 51 71 52 51 53 70 54 52 55
REMARK SMILES IDX 55 56 69 57 88 58 53 59 54 60 68 62 89 63 56 64 40 65 41 66
REMARK SMILES IDX 49 67 42 68 43 69 47 70 50 71 44 72 45 73 48 74 46 75 72 76
REMARK SMILES IDX 73 77 81 78 74 79 75 80 79 81 82 82 76 83 77 84 80 85 78 86
REMARK SMILES IDX 57 87 58 88 66 89 59 90 60 91 64 92 67 93 61 94 62 95 65 96
REMARK SMILES IDX 63 97
REMARK H PARENT 21 7 28 31 87 50 55 61
REMARK Flexibility Score: inf
ROOT
ATOM      1  C   UNL A   1      32.466  30.075  26.337  1.00  0.00     0.002 C 
ENDROOT
BRANCH   1   2
ATOM      2  C   UNL A   1      32.065  29.055  27.405  1.00  0.00     0.021 C 
BRANCH   2   3
ATOM      3  C   UNL A   1      32.242  27.578  27.062  1.00  0.00     0.116 C 
BRANCH   3   4
ATOM      4  N   UNL A   1      31.016  26.801  27.015  1.00  0.00    -0.352 N 
ATOM      5  C   UNL A   1      30.513  25.977  26.019  1.00  0.00     0.256 C 
ATOM      6  O   UNL A   1      29.560  25.259  26.316  1.00  0.00    -0.269 OA
ATOM      7  H   UNL A   1      30.450  26.871  27.819  1.00  0.00     0.163 HD
BRANCH   5   8
ATOM      8  C   UNL A   1      31.064  25.997  24.632  1.00  0.00     0.098 A 
ATOM      9  C   UNL A   1      31.922  24.988  24.125  1.00  0.00     0.053 A 
ATOM     10  C   UNL A   1      32.198  25.015  22.738  1.00  0.00     0.027 A 
ATOM     11  C   UNL A   1      31.772  26.044  21.903  1.00  0.00     0.005 A 
ATOM     12  C   UNL A   1      30.749  27.084  23.801  1.00  0.00     0.138 A 
ATOM     13  C   UNL A   1      31.079  27.107  22.449  1.00  0.00     0.040 A 
ATOM     14  F   UNL A   1      30.120  28.165  24.288  1.00  0.00    -0.206 F 
BRANCH   9  15
ATOM     15  N   UNL A   1      32.570  24.009  24.876  1.00  0.00    -0.367 N 
ATOM     16  C   UNL A   1      31.885  22.768  25.194  1.00  0.00     0.144 C 
BRANCH  15  17
ATOM     17  C   UNL A   1      33.886  24.300  25.517  1.00  0.00     0.112 C 
ATOM     18  C   UNL A   1      34.257  25.781  25.378  1.00  0.00     0.036 C 
BRANCH  17  19
ATOM     19  C   UNL A   1      34.945  23.286  25.090  1.00  0.00     0.010 A 
ATOM     20  C   UNL A   1      35.583  23.460  23.843  1.00  0.00     0.009 A 
ATOM     21  C   UNL A   1      35.371  22.215  25.885  1.00  0.00     0.128 A 
ATOM     22  C   UNL A   1      36.635  22.631  23.444  1.00  0.00     0.001 A 
ATOM     23  C   UNL A   1      36.414  21.378  25.485  1.00  0.00     0.039 A 
ATOM     24  F   UNL A   1      34.807  21.963  27.074  1.00  0.00    -0.207 F 
ATOM     25  C   UNL A   1      37.056  21.593  24.269  1.00  0.00     0.003 A 
ENDBRANCH  17  19
ENDBRANCH  15  17
ENDBRANCH   9  15
ENDBRANCH   5   8
ENDBRANCH   3   4
ENDBRANCH   2   3
ENDBRANCH   1   2
BRANCH   1  26
ATOM     26  C   UNL A   1      31.362  30.986  25.795  1.00  0.00     0.002 C 
BRANCH  26  27
ATOM     27  C   UNL A   1      31.202  32.347  26.473  1.00  0.00     0.021 C 
BRANCH  27  28
ATOM     28  C   UNL A   1      32.431  32.877  27.202  1.00  0.00     0.116 C 
BRANCH  28  29
ATOM     29  N   UNL A   1      32.300  34.268  27.603  1.00  0.00    -0.352 N 
ATOM     30  C   UNL A   1      32.990  34.972  28.561  1.00  0.00     0.251 C 
ATOM     31  H   UNL A   1      31.617  34.782  27.116  1.00  0.00     0.163 HD
ATOM     32  O   UNL A   1      32.645  36.108  28.862  1.00  0.00    -0.269 OA
BRANCH  30  33
ATOM     33  C   UNL A   1      34.144  34.351  29.251  1.00  0.00     0.039 A 
ATOM     34  C   UNL A   1      33.910  33.566  30.384  1.00  0.00     0.014 A 
ATOM     35  C   UNL A   1      35.450  34.548  28.794  1.00  0.00     0.014 A 
ATOM     36  C   UNL A   1      34.979  32.929  31.021  1.00  0.00     0.010 A 
ATOM     37  C   UNL A   1      36.503  33.852  29.382  1.00  0.00     0.010 A 
ATOM     38  C   UNL A   1      36.280  33.040  30.504  1.00  0.00    -0.014 A 
BRANCH  38  39
ATOM     39  C   UNL A   1      37.423  32.322  31.127  1.00  0.00     0.031 A 
ATOM     40  C   UNL A   1      37.901  32.714  32.498  1.00  0.00     0.074 A 
ATOM     41  C   UNL A   1      38.067  31.361  30.437  1.00  0.00     0.049 A 
ATOM     42  N   UNL A   1      38.930  32.270  33.174  1.00  0.00    -0.248 NA
ATOM     43  C   UNL A   1      37.137  33.763  33.192  1.00  0.00     0.031 C 
ATOM     44  C   UNL A   1      37.718  30.913  29.089  1.00  0.00     0.029 A 
ATOM     45  N   UNL A   1      39.155  30.592  30.771  1.00  0.00    -0.354 N 
ATOM     46  C   UNL A   1      38.941  32.988  34.362  1.00  0.00     0.074 A 
ATOM     47  C   UNL A   1      37.853  33.938  34.293  1.00  0.00     0.031 C 
ATOM     48  C   UNL A   1      38.555  29.932  28.722  1.00  0.00     0.029 A 
ATOM     49  C   UNL A   1      39.531  29.712  29.786  1.00  0.00     0.049 A 
ATOM     50  H   UNL A   1      39.622  30.666  31.635  1.00  0.00     0.167 HD
ATOM     51  C   UNL A   1      39.768  32.848  35.424  1.00  0.00     0.037 A 
ATOM     52  C   UNL A   1      40.551  28.832  29.741  1.00  0.00     0.037 A 
ATOM     53  C   UNL A   1      40.833  31.883  35.498  1.00  0.00     0.049 A 
ATOM     54  C   UNL A   1      41.474  28.715  30.924  1.00  0.00     0.074 A 
ATOM     55  C   UNL A   1      41.694  31.633  36.551  1.00  0.00     0.029 A 
ATOM     56  N   UNL A   1      41.182  31.010  34.478  1.00  0.00    -0.354 N 
ATOM     57  N   UNL A   1      41.447  29.367  32.061  1.00  0.00    -0.248 NA
ATOM     58  C   UNL A   1      42.570  27.740  30.820  1.00  0.00     0.031 C 
ATOM     59  C   UNL A   1      42.601  30.649  36.149  1.00  0.00     0.029 A 
ATOM     60  C   UNL A   1      42.264  30.238  34.869  1.00  0.00     0.049 A 
ATOM     61  H   UNL A   1      40.729  30.949  33.606  1.00  0.00     0.167 HD
ATOM     62  C   UNL A   1      42.495  28.864  32.817  1.00  0.00     0.074 A 
ATOM     63  C   UNL A   1      43.137  27.844  32.015  1.00  0.00     0.031 C 
ATOM     64  C   UNL A   1      42.887  29.216  34.066  1.00  0.00     0.037 A 
BRANCH  51  65
ATOM     65  C   UNL A   1      39.553  33.749  36.607  1.00  0.00     0.064 A 
ATOM     66  C   UNL A   1      40.199  34.993  36.683  1.00  0.00     0.173 A 
ATOM     67  C   UNL A   1      38.770  33.350  37.700  1.00  0.00     0.173 A 
ATOM     68  F   UNL A   1      40.965  35.420  35.667  1.00  0.00    -0.203 F 
ATOM     69  C   UNL A   1      40.080  35.794  37.814  1.00  0.00     0.198 A 
ATOM     70  C   UNL A   1      38.627  34.170  38.817  1.00  0.00     0.198 A 
ATOM     71  F   UNL A   1      38.122  32.176  37.675  1.00  0.00    -0.203 F 
ATOM     72  F   UNL A   1      40.737  36.961  37.879  1.00  0.00    -0.200 F 
ATOM     73  C   UNL A   1      39.291  35.385  38.878  1.00  0.00     0.200 A 
ATOM     74  F   UNL A   1      37.843  33.783  39.833  1.00  0.00    -0.200 F 
ATOM     75  F   UNL A   1      39.171  36.162  39.963  1.00  0.00    -0.200 F 
ENDBRANCH  51  65
BRANCH  52  76
ATOM     76  C   UNL A   1      40.725  27.972  28.542  1.00  0.00     0.064 A 
ATOM     77  C   UNL A   1      41.491  28.391  27.444  1.00  0.00     0.173 A 
ATOM     78  C   UNL A   1      40.094  26.723  28.456  1.00  0.00     0.173 A 
ATOM     79  F   UNL A   1      42.112  29.579  27.472  1.00  0.00    -0.203 F 
ATOM     80  C   UNL A   1      41.600  27.604  26.298  1.00  0.00     0.198 A 
ATOM     81  C   UNL A   1      40.229  25.923  27.322  1.00  0.00     0.198 A 
ATOM     82  F   UNL A   1      39.369  26.267  29.487  1.00  0.00    -0.203 F 
ATOM     83  F   UNL A   1      42.306  28.047  25.248  1.00  0.00    -0.200 F 
ATOM     84  C   UNL A   1      40.972  26.369  26.240  1.00  0.00     0.200 A 
ATOM     85  F   UNL A   1      39.640  24.720  27.280  1.00  0.00    -0.200 F 
ATOM     86  F   UNL A   1      41.085  25.608  25.143  1.00  0.00    -0.200 F 
ENDBRANCH  52  76
BRANCH  64  87
ATOM     87  C   UNL A   1      44.046  28.479  34.675  1.00  0.00     0.064 A 
ATOM     88  C   UNL A   1      43.825  27.312  35.426  1.00  0.00     0.173 A 
ATOM     89  C   UNL A   1      45.354  28.978  34.606  1.00  0.00     0.173 A 
ATOM     90  F   UNL A   1      42.590  26.800  35.531  1.00  0.00    -0.203 F 
ATOM     91  C   UNL A   1      44.868  26.690  36.104  1.00  0.00     0.198 A 
ATOM     92  C   UNL A   1      46.399  28.333  35.260  1.00  0.00     0.198 A 
ATOM     93  F   UNL A   1      45.618  30.083  33.892  1.00  0.00    -0.203 F 
ATOM     94  F   UNL A   1      44.624  25.606  36.854  1.00  0.00    -0.200 F 
ATOM     95  C   UNL A   1      46.154  27.198  36.019  1.00  0.00     0.200 A 
ATOM     96  F   UNL A   1      47.648  28.813  35.159  1.00  0.00    -0.200 F 
ATOM     97  F   UNL A   1      47.159  26.596  36.671  1.00  0.00    -0.200 F 
ENDBRANCH  64  87
ENDBRANCH  38  39
ENDBRANCH  30  33
ENDBRANCH  28  29
ENDBRANCH  27  28
ENDBRANCH  26  27
ENDBRANCH   1  26
TORSDOF 16
ENDMDL
MODEL 3
REMARK VINA RESULT:     -12.3      1.386      3.096
REMARK SMILES C[C@H](c1ccccc1F)N(C)c1cccc(F)c1C(=O)NCCCCCCNC(=O)c1ccc(-c2c3nc(c(-c4c(F)c(F)c(F)c(F)c4F)c4ccc([nH]4)c(-c4c(F)c(F)c(F)c(F)c4F)c4nc(c(-c5c(F)c(F)c(F)c(F)c5F)c5ccc2[nH]5)C=C4)C=C3)cc1
REMARK SMILES IDX 24 1 23 2 22 3 21 4 19 5 20 6 18 8 12 9 13 10 14 11 16 12
REMARK SMILES IDX 15 13 17 14 10 15 11 16 2 17 1 18 3 19 4 20 8 21 5 22 7 23
REMARK SMILES IDX 9 24 6 25 25 26 26 27 27 28 28 29 29 30 30 32 31 33 32 34
REMARK SMILES IDX 93 35 33 36 92 37 34 38 35 39 36 40 86 41 37 42 91 43 85 44
REMARK SMILES IDX 87 45 38 46 90 47 84 48 83 49 39 51 71 52 51 53 70 54 52 55
REMARK SMILES IDX 55 56 69 57 88 58 53 59 54 60 68 62 89 63 56 64 40 65 41 66
REMARK SMILES IDX 49 67 42 68 43 69 47 70 50 71 44 72 45 73 48 74 46 75 72 76
REMARK SMILES IDX 73 77 81 78 74 79 75 80 79 81 82 82 76 83 77 84 80 85 78 86
REMARK SMILES IDX 57 87 58 88 66 89 59 90 60 91 64 92 67 93 61 94 62 95 65 96
REMARK SMILES IDX 63 97
REMARK H PARENT 21 7 28 31 87 50 55 61
REMARK Flexibility Score: inf
ROOT
ATOM      1  C   UNL A   1      32.315  29.892  27.090  1.00  0.00     0.002 C 
ENDROOT
BRANCH   1   2
ATOM      2  C   UNL A   1      33.280  28.882  26.465  1.00  0.00     0.021 C 
BRANCH   2   3
ATOM      3  C   UNL A   1      33.080  27.411  26.822  1.00  0.00     0.116 C 
BRANCH   3   4
ATOM      4  N   UNL A   1      31.697  26.975  26.903  1.00  0.00    -0.352 N 
ATOM      5  C   UNL A   1      30.912  26.307  25.975  1.00  0.00     0.256 C 
ATOM      6  O   UNL A   1      29.838  25.858  26.373  1.00  0.00    -0.269 OA
ATOM      7  H   UNL A   1      31.244  27.189  27.751  1.00  0.00     0.163 HD
BRANCH   5   8
ATOM      8  C   UNL A   1      31.320  26.183  24.544  1.00  0.00     0.098 A 
ATOM      9  C   UNL A   1      32.069  25.087  24.046  1.00  0.00     0.053 A 
ATOM     10  C   UNL A   1      32.204  24.987  22.641  1.00  0.00     0.027 A 
ATOM     11  C   UNL A   1      31.751  25.970  21.766  1.00  0.00     0.005 A 
ATOM     12  C   UNL A   1      30.979  27.217  23.658  1.00  0.00     0.138 A 
ATOM     13  C   UNL A   1      31.172  27.113  22.284  1.00  0.00     0.040 A 
ATOM     14  F   UNL A   1      30.460  28.370  24.110  1.00  0.00    -0.206 F 
BRANCH   9  15
ATOM     15  N   UNL A   1      32.738  24.134  24.811  1.00  0.00    -0.367 N 
ATOM     16  C   UNL A   1      34.191  24.106  24.824  1.00  0.00     0.144 C 
BRANCH  15  17
ATOM     17  C   UNL A   1      31.982  23.026  25.464  1.00  0.00     0.112 C 
ATOM     18  C   UNL A   1      32.018  23.151  26.991  1.00  0.00     0.036 C 
BRANCH  17  19
ATOM     19  C   UNL A   1      32.374  21.671  24.879  1.00  0.00     0.010 A 
ATOM     20  C   UNL A   1      33.038  20.743  25.711  1.00  0.00     0.009 A 
ATOM     21  C   UNL A   1      32.065  21.259  23.577  1.00  0.00     0.128 A 
ATOM     22  C   UNL A   1      33.325  19.448  25.270  1.00  0.00     0.001 A 
ATOM     23  C   UNL A   1      32.360  19.970  23.129  1.00  0.00     0.039 A 
ATOM     24  F   UNL A   1      31.454  22.081  22.714  1.00  0.00    -0.207 F 
ATOM     25  C   UNL A   1      32.979  19.059  23.979  1.00  0.00     0.003 A 
ENDBRANCH  17  19
ENDBRANCH  15  17
ENDBRANCH   9  15
ENDBRANCH   5   8
ENDBRANCH   3   4
ENDBRANCH   2   3
ENDBRANCH   1   2
BRANCH   1  26
ATOM     26  C   UNL A   1      31.532  30.790  26.130  1.00  0.00     0.002 C 
BRANCH  26  27
ATOM     27  C   UNL A   1      31.379  32.257  26.535  1.00  0.00     0.021 C 
BRANCH  27  28
ATOM     28  C   UNL A   1      32.551  32.863  27.298  1.00  0.00     0.116 C 
BRANCH  28  29
ATOM     29  N   UNL A   1      32.340  34.257  27.652  1.00  0.00    -0.352 N 
ATOM     30  C   UNL A   1      32.970  35.023  28.604  1.00  0.00     0.251 C 
ATOM     31  H   UNL A   1      31.644  34.721  27.135  1.00  0.00     0.163 HD
ATOM     32  O   UNL A   1      32.560  36.149  28.862  1.00  0.00    -0.269 OA
BRANCH  30  33
ATOM     33  C   UNL A   1      34.136  34.483  29.340  1.00  0.00     0.039 A 
ATOM     34  C   UNL A   1      33.929  33.878  30.583  1.00  0.00     0.014 A 
ATOM     35  C   UNL A   1      35.429  34.580  28.816  1.00  0.00     0.014 A 
ATOM     36  C   UNL A   1      35.008  33.316  31.270  1.00  0.00     0.010 A 
ATOM     37  C   UNL A   1      36.489  33.954  29.465  1.00  0.00     0.010 A 
ATOM     38  C   UNL A   1      36.291  33.319  30.701  1.00  0.00    -0.014 A 
BRANCH  38  39
ATOM     39  C   UNL A   1      37.443  32.674  31.384  1.00  0.00     0.031 A 
ATOM     40  C   UNL A   1      38.170  31.535  30.722  1.00  0.00     0.074 A 
ATOM     41  C   UNL A   1      37.797  33.071  32.622  1.00  0.00     0.049 A 
ATOM     42  N   UNL A   1      39.139  30.789  31.188  1.00  0.00    -0.248 NA
ATOM     43  C   UNL A   1      37.733  31.170  29.365  1.00  0.00     0.031 C 
ATOM     44  C   UNL A   1      37.150  34.141  33.381  1.00  0.00     0.029 A 
ATOM     45  N   UNL A   1      38.781  32.615  33.464  1.00  0.00    -0.354 N 
ATOM     46  C   UNL A   1      39.418  29.866  30.191  1.00  0.00     0.074 A 
ATOM     47  C   UNL A   1      38.480  30.105  29.116  1.00  0.00     0.031 C 
ATOM     48  C   UNL A   1      37.770  34.279  34.562  1.00  0.00     0.029 A 
ATOM     49  C   UNL A   1      38.828  33.277  34.666  1.00  0.00     0.049 A 
ATOM     50  H   UNL A   1      39.395  31.882  33.227  1.00  0.00     0.167 HD
ATOM     51  C   UNL A   1      40.388  28.922  30.163  1.00  0.00     0.037 A 
ATOM     52  C   UNL A   1      39.625  33.093  35.737  1.00  0.00     0.037 A 
ATOM     53  C   UNL A   1      41.336  28.706  31.224  1.00  0.00     0.049 A 
ATOM     54  C   UNL A   1      40.677  32.017  35.693  1.00  0.00     0.074 A 
ATOM     55  C   UNL A   1      42.385  27.806  31.269  1.00  0.00     0.029 A 
ATOM     56  N   UNL A   1      41.348  29.396  32.428  1.00  0.00    -0.354 N 
ATOM     57  N   UNL A   1      40.964  31.180  34.726  1.00  0.00    -0.248 NA
ATOM     58  C   UNL A   1      41.520  31.860  36.889  1.00  0.00     0.031 C 
ATOM     59  C   UNL A   1      42.998  27.911  32.520  1.00  0.00     0.029 A 
ATOM     60  C   UNL A   1      42.373  28.923  33.231  1.00  0.00     0.049 A 
ATOM     61  H   UNL A   1      40.722  30.115  32.674  1.00  0.00     0.167 HD
ATOM     62  C   UNL A   1      42.033  30.421  35.179  1.00  0.00     0.074 A 
ATOM     63  C   UNL A   1      42.352  30.900  36.507  1.00  0.00     0.031 C 
ATOM     64  C   UNL A   1      42.690  29.417  34.547  1.00  0.00     0.037 A 
BRANCH  51  65
ATOM     65  C   UNL A   1      40.490  28.053  28.942  1.00  0.00     0.064 A 
ATOM     66  C   UNL A   1      41.257  28.460  27.839  1.00  0.00     0.173 A 
ATOM     67  C   UNL A   1      39.771  26.854  28.833  1.00  0.00     0.173 A 
ATOM     68  F   UNL A   1      41.960  29.602  27.888  1.00  0.00    -0.203 F 
ATOM     69  C   UNL A   1      41.285  27.708  26.669  1.00  0.00     0.198 A 
ATOM     70  C   UNL A   1      39.828  26.087  27.671  1.00  0.00     0.198 A 
ATOM     71  F   UNL A   1      39.031  26.413  29.861  1.00  0.00    -0.203 F 
ATOM     72  F   UNL A   1      41.994  28.137  25.615  1.00  0.00    -0.200 F 
ATOM     73  C   UNL A   1      40.575  26.520  26.587  1.00  0.00     0.200 A 
ATOM     74  F   UNL A   1      39.161  24.926  27.604  1.00  0.00    -0.200 F 
ATOM     75  F   UNL A   1      40.611  25.792  25.462  1.00  0.00    -0.200 F 
ENDBRANCH  51  65
BRANCH  52  76
ATOM     76  C   UNL A   1      39.476  33.974  36.924  1.00  0.00     0.064 A 
ATOM     77  C   UNL A   1      40.091  35.233  36.986  1.00  0.00     0.173 A 
ATOM     78  C   UNL A   1      38.740  33.554  38.042  1.00  0.00     0.173 A 
ATOM     79  F   UNL A   1      40.809  35.681  35.946  1.00  0.00    -0.203 F 
ATOM     80  C   UNL A   1      39.996  36.027  38.127  1.00  0.00     0.198 A 
ATOM     81  C   UNL A   1      38.620  34.362  39.171  1.00  0.00     0.198 A 
ATOM     82  F   UNL A   1      38.115  32.368  38.025  1.00  0.00    -0.203 F 
ATOM     83  F   UNL A   1      40.627  37.209  38.173  1.00  0.00    -0.200 F 
ATOM     84  C   UNL A   1      39.257  35.594  39.217  1.00  0.00     0.200 A 
ATOM     85  F   UNL A   1      37.885  33.949  40.213  1.00  0.00    -0.200 F 
ATOM     86  F   UNL A   1      39.156  36.361  40.310  1.00  0.00    -0.200 F 
ENDBRANCH  52  76
BRANCH  64  87
ATOM     87  C   UNL A   1      43.849  28.778  35.257  1.00  0.00     0.064 A 
ATOM     88  C   UNL A   1      43.630  27.726  36.162  1.00  0.00     0.173 A 
ATOM     89  C   UNL A   1      45.155  29.267  35.124  1.00  0.00     0.173 A 
ATOM     90  F   UNL A   1      42.396  27.228  36.334  1.00  0.00    -0.203 F 
ATOM     91  C   UNL A   1      44.672  27.209  36.925  1.00  0.00     0.198 A 
ATOM     92  C   UNL A   1      46.201  28.725  35.865  1.00  0.00     0.198 A 
ATOM     93  F   UNL A   1      45.419  30.263  34.264  1.00  0.00    -0.203 F 
ATOM     94  F   UNL A   1      44.429  26.239  37.818  1.00  0.00    -0.200 F 
ATOM     95  C   UNL A   1      45.956  27.706  36.775  1.00  0.00     0.200 A 
ATOM     96  F   UNL A   1      47.447  29.191  35.703  1.00  0.00    -0.200 F 
ATOM     97  F   UNL A   1      46.961  27.205  37.508  1.00  0.00    -0.200 F 
ENDBRANCH  64  87
ENDBRANCH  38  39
ENDBRANCH  30  33
ENDBRANCH  28  29
ENDBRANCH  27  28
ENDBRANCH  26  27
ENDBRANCH   1  26
TORSDOF 16
ENDMDL
