MODEL 1
REMARK VINA RESULT:     -12.7      0.000      0.000
REMARK SMILES CC1(C)C(CNC(=O)N2C[C@H](O)C[C@@H]2C(=O)NCCCCCCNC(=O)c2ccc(-c3c4nc(c(-c5c(F)c(F)c(F)c(F)c5F)c5ccc([nH]5)c(-c5c(F)c(F)c(F)c(F)c5F)c5nc(c(-c6c(F)c(F)c(F)c(F)c6F)c6ccc3[nH]6)C=C5)C=C4)cc2)C1(C)C
REMARK SMILES IDX 20 1 19 2 18 3 17 4 15 5 16 6 14 8 9 9 10 10 11 11 13 12
REMARK SMILES IDX 7 13 6 14 8 16 5 17 4 18 1 19 2 20 3 21 90 22 91 23 92 24
REMARK SMILES IDX 12 25 21 27 22 28 23 29 24 30 25 31 26 33 27 34 28 35 89 36
REMARK SMILES IDX 29 37 88 38 30 39 31 40 32 41 82 42 33 43 87 44 81 45 83 46
REMARK SMILES IDX 34 47 86 48 80 49 79 50 35 52 67 53 47 54 66 55 48 56 51 57
REMARK SMILES IDX 65 58 84 59 49 60 50 61 64 63 85 64 52 65 36 66 37 67 45 68
REMARK SMILES IDX 38 69 39 70 43 71 46 72 40 73 41 74 44 75 42 76 68 77 69 78
REMARK SMILES IDX 77 79 70 80 71 81 75 82 78 83 72 84 73 85 76 86 74 87 53 88
REMARK SMILES IDX 54 89 62 90 55 91 56 92 60 93 63 94 57 95 58 96 61 97 59 98
REMARK H PARENT 17 7 6 15 12 26 24 32 83 51 51 62
REMARK Flexibility Score: inf
ROOT
ATOM      1  C   UNL A   1      33.383  30.178  26.263  1.00  0.00     0.002 C 
ENDROOT
BRANCH   1   2
ATOM      2  C   UNL A   1      34.071  29.059  27.058  1.00  0.00     0.021 C 
BRANCH   2   3
ATOM      3  C   UNL A   1      33.721  27.654  26.568  1.00  0.00     0.116 C 
BRANCH   3   4
ATOM      4  N   UNL A   1      33.714  27.630  25.119  1.00  0.00    -0.354 N 
ATOM      5  C   UNL A   1      32.670  27.372  24.283  1.00  0.00     0.242 C 
ATOM      6  O   UNL A   1      32.941  26.975  23.145  1.00  0.00    -0.273 OA
ATOM      7  H   UNL A   1      34.574  27.826  24.682  1.00  0.00     0.163 HD
BRANCH   5   8
ATOM      8  C   UNL A   1      31.208  27.521  24.757  1.00  0.00     0.179 C 
ATOM      9  N   UNL A   1      30.400  26.331  24.437  1.00  0.00    -0.310 N 
ATOM     10  C   UNL A   1      29.365  26.677  23.464  1.00  0.00     0.154 C 
ATOM     11  C   UNL A   1      29.823  27.985  22.833  1.00  0.00     0.136 C 
ATOM     12  C   UNL A   1      30.541  28.678  23.983  1.00  0.00     0.069 C 
BRANCH   9  13
ATOM     13  C   UNL A   1      30.231  25.354  25.373  1.00  0.00     0.318 C 
ATOM     14  N   UNL A   1      30.449  24.060  25.066  1.00  0.00    -0.338 N 
ATOM     15  H   UNL A   1      30.149  23.434  25.764  1.00  0.00     0.165 HD
ATOM     16  O   UNL A   1      29.921  25.608  26.538  1.00  0.00    -0.249 OA
BRANCH  14  17
ATOM     17  C   UNL A   1      31.034  23.405  23.919  1.00  0.00     0.122 C 
BRANCH  17  18
ATOM     18  C   UNL A   1      31.982  22.323  24.336  1.00  0.00     0.021 C 
ATOM     19  C   UNL A   1      32.550  19.809  24.147  1.00  0.00     0.012 C 
ATOM     20  C   UNL A   1      32.439  21.157  23.462  1.00  0.00    -0.025 C 
ATOM     21  C   UNL A   1      31.928  21.001  22.047  1.00  0.00     0.012 C 
ATOM     22  C   UNL A   1      33.415  22.307  23.817  1.00  0.00    -0.025 C 
ATOM     23  C   UNL A   1      34.506  22.109  24.850  1.00  0.00     0.012 C 
ATOM     24  C   UNL A   1      33.826  23.331  22.778  1.00  0.00     0.012 C 
ENDBRANCH  17  18
ENDBRANCH  14  17
ENDBRANCH   9  13
BRANCH  11  25
ATOM     25  O   UNL A   1      30.677  27.744  21.717  1.00  0.00    -0.391 OA
ATOM     26  H   UNL A   1      31.203  26.947  21.880  1.00  0.00     0.211 HD
ENDBRANCH  11  25
ENDBRANCH   5   8
ENDBRANCH   3   4
ENDBRANCH   2   3
ENDBRANCH   1   2
BRANCH   1  27
ATOM     27  C   UNL A   1      31.960  30.502  26.722  1.00  0.00     0.002 C 
BRANCH  27  28
ATOM     28  C   UNL A   1      31.677  31.993  26.914  1.00  0.00     0.021 C 
BRANCH  28  29
ATOM     29  C   UNL A   1      32.879  32.806  27.387  1.00  0.00     0.116 C 
BRANCH  29  30
ATOM     30  N   UNL A   1      32.521  34.185  27.687  1.00  0.00    -0.352 N 
ATOM     31  C   UNL A   1      33.017  35.021  28.656  1.00  0.00     0.251 C 
ATOM     32  H   UNL A   1      31.824  34.574  27.112  1.00  0.00     0.163 HD
ATOM     33  O   UNL A   1      32.455  36.082  28.914  1.00  0.00    -0.269 OA
BRANCH  31  34
ATOM     34  C   UNL A   1      34.221  34.625  29.414  1.00  0.00     0.039 A 
ATOM     35  C   UNL A   1      34.073  34.113  30.704  1.00  0.00     0.014 A 
ATOM     36  C   UNL A   1      35.490  34.734  28.836  1.00  0.00     0.014 A 
ATOM     37  C   UNL A   1      35.191  33.621  31.383  1.00  0.00     0.010 A 
ATOM     38  C   UNL A   1      36.591  34.184  29.486  1.00  0.00     0.010 A 
ATOM     39  C   UNL A   1      36.449  33.604  30.756  1.00  0.00    -0.014 A 
BRANCH  39  40
ATOM     40  C   UNL A   1      37.611  32.921  31.379  1.00  0.00     0.031 A 
ATOM     41  C   UNL A   1      38.233  31.722  30.726  1.00  0.00     0.074 A 
ATOM     42  C   UNL A   1      38.041  33.330  32.590  1.00  0.00     0.049 A 
ATOM     43  N   UNL A   1      39.172  30.928  31.175  1.00  0.00    -0.248 NA
ATOM     44  C   UNL A   1      37.717  31.350  29.399  1.00  0.00     0.031 C 
ATOM     45  C   UNL A   1      37.489  34.457  33.345  1.00  0.00     0.029 A 
ATOM     46  N   UNL A   1      39.023  32.833  33.411  1.00  0.00    -0.354 N 
ATOM     47  C   UNL A   1      39.350  29.960  30.198  1.00  0.00     0.074 A 
ATOM     48  C   UNL A   1      38.396  30.240  29.146  1.00  0.00     0.031 C 
ATOM     49  C   UNL A   1      38.140  34.567  34.513  1.00  0.00     0.029 A 
ATOM     50  C   UNL A   1      39.120  33.490  34.614  1.00  0.00     0.049 A 
ATOM     51  H   UNL A   1      39.603  32.078  33.161  1.00  0.00     0.167 HD
ATOM     52  C   UNL A   1      40.238  28.937  30.178  1.00  0.00     0.037 A 
ATOM     53  C   UNL A   1      39.888  33.235  35.691  1.00  0.00     0.037 A 
ATOM     54  C   UNL A   1      41.196  28.676  31.222  1.00  0.00     0.049 A 
ATOM     55  C   UNL A   1      40.841  32.072  35.653  1.00  0.00     0.074 A 
ATOM     56  C   UNL A   1      42.193  27.715  31.253  1.00  0.00     0.029 A 
ATOM     57  N   UNL A   1      41.270  29.367  32.421  1.00  0.00    -0.354 N 
ATOM     58  N   UNL A   1      41.063  31.215  34.687  1.00  0.00    -0.248 NA
ATOM     59  C   UNL A   1      41.653  31.838  36.857  1.00  0.00     0.031 C 
ATOM     60  C   UNL A   1      42.823  27.781  32.499  1.00  0.00     0.029 A 
ATOM     61  C   UNL A   1      42.264  28.823  33.220  1.00  0.00     0.049 A 
ATOM     62  H   UNL A   1      40.701  30.132  32.670  1.00  0.00     0.167 HD
ATOM     63  C   UNL A   1      42.046  30.355  35.156  1.00  0.00     0.074 A 
ATOM     64  C   UNL A   1      42.399  30.808  36.485  1.00  0.00     0.031 C 
ATOM     65  C   UNL A   1      42.603  29.281  34.543  1.00  0.00     0.037 A 
BRANCH  52  66
ATOM     66  C   UNL A   1      40.220  28.010  28.997  1.00  0.00     0.064 A 
ATOM     67  C   UNL A   1      40.947  28.284  27.831  1.00  0.00     0.173 A 
ATOM     68  C   UNL A   1      39.522  26.793  29.066  1.00  0.00     0.173 A 
ATOM     69  F   UNL A   1      41.625  29.436  27.713  1.00  0.00    -0.203 F 
ATOM     70  C   UNL A   1      40.964  27.384  26.768  1.00  0.00     0.198 A 
ATOM     71  C   UNL A   1      39.565  25.882  28.013  1.00  0.00     0.198 A 
ATOM     72  F   UNL A   1      38.816  26.478  30.161  1.00  0.00    -0.203 F 
ATOM     73  F   UNL A   1      41.638  27.683  25.649  1.00  0.00    -0.200 F 
ATOM     74  C   UNL A   1      40.282  26.180  26.864  1.00  0.00     0.200 A 
ATOM     75  F   UNL A   1      38.919  24.712  28.115  1.00  0.00    -0.200 F 
ATOM     76  F   UNL A   1      40.313  25.307  25.848  1.00  0.00    -0.200 F 
ENDBRANCH  52  66
BRANCH  53  77
ATOM     77  C   UNL A   1      39.771  34.083  36.908  1.00  0.00     0.064 A 
ATOM     78  C   UNL A   1      38.945  33.707  37.977  1.00  0.00     0.173 A 
ATOM     79  C   UNL A   1      40.464  35.298  37.019  1.00  0.00     0.173 A 
ATOM     80  F   UNL A   1      38.244  32.566  37.911  1.00  0.00    -0.203 F 
ATOM     81  C   UNL A   1      38.797  34.525  39.095  1.00  0.00     0.198 A 
ATOM     82  C   UNL A   1      40.342  36.098  38.153  1.00  0.00     0.198 A 
ATOM     83  F   UNL A   1      41.271  35.704  36.028  1.00  0.00    -0.203 F 
ATOM     84  F   UNL A   1      37.956  34.168  40.076  1.00  0.00    -0.200 F 
ATOM     85  C   UNL A   1      39.500  35.716  39.185  1.00  0.00     0.200 A 
ATOM     86  F   UNL A   1      41.036  37.240  38.242  1.00  0.00    -0.200 F 
ATOM     87  F   UNL A   1      39.356  36.502  40.261  1.00  0.00    -0.200 F 
ENDBRANCH  53  77
BRANCH  65  88
ATOM     88  C   UNL A   1      43.662  28.529  35.295  1.00  0.00     0.064 A 
ATOM     89  C   UNL A   1      45.021  28.852  35.169  1.00  0.00     0.173 A 
ATOM     90  C   UNL A   1      43.311  27.509  36.193  1.00  0.00     0.173 A 
ATOM     91  F   UNL A   1      45.411  29.808  34.312  1.00  0.00    -0.203 F 
ATOM     92  C   UNL A   1      45.990  28.169  35.898  1.00  0.00     0.198 A 
ATOM     93  C   UNL A   1      44.279  26.851  36.945  1.00  0.00     0.198 A 
ATOM     94  F   UNL A   1      42.024  27.165  36.356  1.00  0.00    -0.203 F 
ATOM     95  F   UNL A   1      47.287  28.464  35.728  1.00  0.00    -0.200 F 
ATOM     96  C   UNL A   1      45.618  27.176  36.793  1.00  0.00     0.200 A 
ATOM     97  F   UNL A   1      43.916  25.903  37.821  1.00  0.00    -0.200 F 
ATOM     98  F   UNL A   1      46.552  26.529  37.504  1.00  0.00    -0.200 F 
ENDBRANCH  65  88
ENDBRANCH  39  40
ENDBRANCH  31  34
ENDBRANCH  29  30
ENDBRANCH  28  29
ENDBRANCH  27  28
ENDBRANCH   1  27
TORSDOF 17
ENDMDL
MODEL 2
REMARK VINA RESULT:     -12.5      0.561      7.208
REMARK SMILES CC1(C)C(CNC(=O)N2C[C@H](O)C[C@@H]2C(=O)NCCCCCCNC(=O)c2ccc(-c3c4nc(c(-c5c(F)c(F)c(F)c(F)c5F)c5ccc([nH]5)c(-c5c(F)c(F)c(F)c(F)c5F)c5nc(c(-c6c(F)c(F)c(F)c(F)c6F)c6ccc3[nH]6)C=C5)C=C4)cc2)C1(C)C
REMARK SMILES IDX 20 1 19 2 18 3 17 4 15 5 16 6 14 8 9 9 10 10 11 11 13 12
REMARK SMILES IDX 7 13 6 14 8 16 5 17 4 18 1 19 2 20 3 21 90 22 91 23 92 24
REMARK SMILES IDX 12 25 21 27 22 28 23 29 24 30 25 31 26 33 27 34 28 35 89 36
REMARK SMILES IDX 29 37 88 38 30 39 31 40 32 41 82 42 33 43 87 44 81 45 83 46
REMARK SMILES IDX 34 47 86 48 80 49 79 50 35 52 67 53 47 54 66 55 48 56 51 57
REMARK SMILES IDX 65 58 84 59 49 60 50 61 64 63 85 64 52 65 36 66 37 67 45 68
REMARK SMILES IDX 38 69 39 70 43 71 46 72 40 73 41 74 44 75 42 76 68 77 69 78
REMARK SMILES IDX 77 79 70 80 71 81 75 82 78 83 72 84 73 85 76 86 74 87 53 88
REMARK SMILES IDX 54 89 62 90 55 91 56 92 60 93 63 94 57 95 58 96 61 97 59 98
REMARK H PARENT 17 7 6 15 12 26 24 32 83 51 51 62
REMARK Flexibility Score: inf
ROOT
ATOM      1  C   UNL A   1      32.271  29.824  27.143  1.00  0.00     0.002 C 
ENDROOT
BRANCH   1   2
ATOM      2  C   UNL A   1      33.695  29.337  26.844  1.00  0.00     0.021 C 
BRANCH   2   3
ATOM      3  C   UNL A   1      33.780  27.841  26.538  1.00  0.00     0.116 C 
BRANCH   3   4
ATOM      4  N   UNL A   1      33.760  27.635  25.104  1.00  0.00    -0.354 N 
ATOM      5  C   UNL A   1      32.712  27.261  24.318  1.00  0.00     0.242 C 
ATOM      6  O   UNL A   1      32.979  26.727  23.236  1.00  0.00    -0.273 OA
ATOM      7  H   UNL A   1      34.613  27.786  24.637  1.00  0.00     0.163 HD
BRANCH   5   8
ATOM      8  C   UNL A   1      31.253  27.450  24.785  1.00  0.00     0.179 C 
ATOM      9  N   UNL A   1      30.422  26.270  24.489  1.00  0.00    -0.310 N 
ATOM     10  C   UNL A   1      29.396  26.615  23.506  1.00  0.00     0.154 C 
ATOM     11  C   UNL A   1      29.882  27.900  22.848  1.00  0.00     0.136 C 
ATOM     12  C   UNL A   1      30.612  28.603  23.985  1.00  0.00     0.069 C 
BRANCH   9  13
ATOM     13  C   UNL A   1      30.230  25.317  25.445  1.00  0.00     0.318 C 
ATOM     14  N   UNL A   1      30.464  24.016  25.179  1.00  0.00    -0.338 N 
ATOM     15  H   UNL A   1      30.147  23.407  25.884  1.00  0.00     0.165 HD
ATOM     16  O   UNL A   1      29.886  25.599  26.594  1.00  0.00    -0.249 OA
BRANCH  14  17
ATOM     17  C   UNL A   1      31.086  23.334  24.066  1.00  0.00     0.122 C 
BRANCH  17  18
ATOM     18  C   UNL A   1      32.449  22.832  24.431  1.00  0.00     0.021 C 
ATOM     19  C   UNL A   1      33.863  20.742  24.987  1.00  0.00     0.012 C 
ATOM     20  C   UNL A   1      33.068  21.519  23.957  1.00  0.00    -0.025 C 
ATOM     21  C   UNL A   1      32.299  20.582  23.051  1.00  0.00     0.012 C 
ATOM     22  C   UNL A   1      33.586  22.875  23.416  1.00  0.00    -0.025 C 
ATOM     23  C   UNL A   1      34.901  23.452  23.900  1.00  0.00     0.012 C 
ATOM     24  C   UNL A   1      33.283  23.319  21.999  1.00  0.00     0.012 C 
ENDBRANCH  17  18
ENDBRANCH  14  17
ENDBRANCH   9  13
BRANCH  11  25
ATOM     25  O   UNL A   1      30.733  27.618  21.740  1.00  0.00    -0.391 OA
ATOM     26  H   UNL A   1      31.659  27.727  22.007  1.00  0.00     0.211 HD
ENDBRANCH  11  25
ENDBRANCH   5   8
ENDBRANCH   3   4
ENDBRANCH   2   3
ENDBRANCH   1   2
BRANCH   1  27
ATOM     27  C   UNL A   1      31.755  30.905  26.191  1.00  0.00     0.002 C 
BRANCH  27  28
ATOM     28  C   UNL A   1      31.502  32.264  26.846  1.00  0.00     0.021 C 
BRANCH  28  29
ATOM     29  C   UNL A   1      32.754  32.940  27.398  1.00  0.00     0.116 C 
BRANCH  29  30
ATOM     30  N   UNL A   1      32.520  34.339  27.726  1.00  0.00    -0.352 N 
ATOM     31  C   UNL A   1      33.060  35.099  28.733  1.00  0.00     0.251 C 
ATOM     32  H   UNL A   1      31.882  34.808  27.140  1.00  0.00     0.163 HD
ATOM     33  O   UNL A   1      32.594  36.203  29.003  1.00  0.00    -0.269 OA
BRANCH  31  34
ATOM     34  C   UNL A   1      34.196  34.570  29.515  1.00  0.00     0.039 A 
ATOM     35  C   UNL A   1      33.953  34.016  30.772  1.00  0.00     0.014 A 
ATOM     36  C   UNL A   1      35.492  34.599  28.992  1.00  0.00     0.014 A 
ATOM     37  C   UNL A   1      34.997  33.402  31.469  1.00  0.00     0.010 A 
ATOM     38  C   UNL A   1      36.517  33.930  29.656  1.00  0.00     0.010 A 
ATOM     39  C   UNL A   1      36.274  33.307  30.891  1.00  0.00    -0.014 A 
BRANCH  39  40
ATOM     40  C   UNL A   1      37.349  32.503  31.524  1.00  0.00     0.031 A 
ATOM     41  C   UNL A   1      37.894  32.880  32.870  1.00  0.00     0.074 A 
ATOM     42  C   UNL A   1      37.902  31.485  30.832  1.00  0.00     0.049 A 
ATOM     43  N   UNL A   1      38.907  32.372  33.525  1.00  0.00    -0.248 NA
ATOM     44  C   UNL A   1      37.226  33.991  33.566  1.00  0.00     0.031 C 
ATOM     45  C   UNL A   1      37.487  31.050  29.497  1.00  0.00     0.029 A 
ATOM     46  N   UNL A   1      38.945  30.649  31.143  1.00  0.00    -0.354 N 
ATOM     47  C   UNL A   1      39.006  33.105  34.699  1.00  0.00     0.074 A 
ATOM     48  C   UNL A   1      37.975  34.121  34.652  1.00  0.00     0.031 C 
ATOM     49  C   UNL A   1      38.264  30.028  29.106  1.00  0.00     0.029 A 
ATOM     50  C   UNL A   1      39.263  29.768  30.137  1.00  0.00     0.049 A 
ATOM     51  H   UNL A   1      39.420  30.676  32.005  1.00  0.00     0.167 HD
ATOM     52  C   UNL A   1      39.874  32.937  35.726  1.00  0.00     0.037 A 
ATOM     53  C   UNL A   1      40.266  28.874  30.040  1.00  0.00     0.037 A 
ATOM     54  C   UNL A   1      40.885  31.912  35.773  1.00  0.00     0.049 A 
ATOM     55  C   UNL A   1      41.234  28.732  31.184  1.00  0.00     0.074 A 
ATOM     56  C   UNL A   1      41.755  31.609  36.806  1.00  0.00     0.029 A 
ATOM     57  N   UNL A   1      41.171  31.034  34.739  1.00  0.00    -0.354 N 
ATOM     58  N   UNL A   1      41.264  29.372  32.327  1.00  0.00    -0.248 NA
ATOM     59  C   UNL A   1      42.311  27.743  31.024  1.00  0.00     0.031 C 
ATOM     60  C   UNL A   1      42.612  30.595  36.372  1.00  0.00     0.029 A 
ATOM     61  C   UNL A   1      42.237  30.221  35.093  1.00  0.00     0.049 A 
ATOM     62  H   UNL A   1      40.691  30.994  33.881  1.00  0.00     0.167 HD
ATOM     63  C   UNL A   1      42.345  28.856  33.027  1.00  0.00     0.074 A 
ATOM     64  C   UNL A   1      42.932  27.829  32.191  1.00  0.00     0.031 C 
ATOM     65  C   UNL A   1      42.814  29.204  34.250  1.00  0.00     0.037 A 
BRANCH  52  66
ATOM     66  C   UNL A   1      39.781  33.883  36.889  1.00  0.00     0.064 A 
ATOM     67  C   UNL A   1      40.448  35.116  36.893  1.00  0.00     0.173 A 
ATOM     68  C   UNL A   1      38.953  33.581  37.981  1.00  0.00     0.173 A 
ATOM     69  F   UNL A   1      41.258  35.449  35.876  1.00  0.00    -0.203 F 
ATOM     70  C   UNL A   1      40.304  36.005  37.955  1.00  0.00     0.198 A 
ATOM     71  C   UNL A   1      38.787  34.485  39.027  1.00  0.00     0.198 A 
ATOM     72  F   UNL A   1      38.286  32.417  38.024  1.00  0.00    -0.203 F 
ATOM     73  F   UNL A   1      40.979  37.163  37.953  1.00  0.00    -0.200 F 
ATOM     74  C   UNL A   1      39.466  35.694  39.016  1.00  0.00     0.200 A 
ATOM     75  F   UNL A   1      37.964  34.189  40.042  1.00  0.00    -0.200 F 
ATOM     76  F   UNL A   1      39.315  36.558  40.028  1.00  0.00    -0.200 F 
ENDBRANCH  52  66
BRANCH  53  77
ATOM     77  C   UNL A   1      40.422  28.057  28.806  1.00  0.00     0.064 A 
ATOM     78  C   UNL A   1      41.180  28.521  27.721  1.00  0.00     0.173 A 
ATOM     79  C   UNL A   1      39.798  26.807  28.677  1.00  0.00     0.173 A 
ATOM     80  F   UNL A   1      41.777  29.720  27.787  1.00  0.00    -0.203 F 
ATOM     81  C   UNL A   1      41.285  27.779  26.547  1.00  0.00     0.198 A 
ATOM     82  C   UNL A   1      39.933  26.050  27.514  1.00  0.00     0.198 A 
ATOM     83  F   UNL A   1      39.065  26.314  29.685  1.00  0.00    -0.203 F 
ATOM     84  F   UNL A   1      41.968  28.273  25.505  1.00  0.00    -0.200 F 
ATOM     85  C   UNL A   1      40.667  26.542  26.447  1.00  0.00     0.200 A 
ATOM     86  F   UNL A   1      39.348  24.848  27.429  1.00  0.00    -0.200 F 
ATOM     87  F   UNL A   1      40.769  25.829  25.316  1.00  0.00    -0.200 F 
ENDBRANCH  53  77
BRANCH  65  88
ATOM     88  C   UNL A   1      44.012  28.462  34.768  1.00  0.00     0.064 A 
ATOM     89  C   UNL A   1      45.314  28.952  34.583  1.00  0.00     0.173 A 
ATOM     90  C   UNL A   1      43.855  27.277  35.502  1.00  0.00     0.173 A 
ATOM     91  F   UNL A   1      45.520  30.072  33.874  1.00  0.00    -0.203 F 
ATOM     92  C   UNL A   1      46.414  28.271  35.097  1.00  0.00     0.198 A 
ATOM     93  C   UNL A   1      44.954  26.617  36.042  1.00  0.00     0.198 A 
ATOM     94  F   UNL A   1      42.631  26.769  35.713  1.00  0.00    -0.203 F 
ATOM     95  F   UNL A   1      47.652  28.733  34.870  1.00  0.00    -0.200 F 
ATOM     96  C   UNL A   1      46.233  27.110  35.835  1.00  0.00     0.200 A 
ATOM     97  F   UNL A   1      44.776  25.504  36.770  1.00  0.00    -0.200 F 
ATOM     98  F   UNL A   1      47.293  26.464  36.341  1.00  0.00    -0.200 F 
ENDBRANCH  65  88
ENDBRANCH  39  40
ENDBRANCH  31  34
ENDBRANCH  29  30
ENDBRANCH  28  29
ENDBRANCH  27  28
ENDBRANCH   1  27
TORSDOF 17
ENDMDL
MODEL 3
REMARK VINA RESULT:     -12.3      1.037      1.832
REMARK SMILES CC1(C)C(CNC(=O)N2C[C@H](O)C[C@@H]2C(=O)NCCCCCCNC(=O)c2ccc(-c3c4nc(c(-c5c(F)c(F)c(F)c(F)c5F)c5ccc([nH]5)c(-c5c(F)c(F)c(F)c(F)c5F)c5nc(c(-c6c(F)c(F)c(F)c(F)c6F)c6ccc3[nH]6)C=C5)C=C4)cc2)C1(C)C
REMARK SMILES IDX 20 1 19 2 18 3 17 4 15 5 16 6 14 8 9 9 10 10 11 11 13 12
REMARK SMILES IDX 7 13 6 14 8 16 5 17 4 18 1 19 2 20 3 21 90 22 91 23 92 24
REMARK SMILES IDX 12 25 21 27 22 28 23 29 24 30 25 31 26 33 27 34 28 35 89 36
REMARK SMILES IDX 29 37 88 38 30 39 31 40 32 41 82 42 33 43 87 44 81 45 83 46
REMARK SMILES IDX 34 47 86 48 80 49 79 50 35 52 67 53 47 54 66 55 48 56 51 57
REMARK SMILES IDX 65 58 84 59 49 60 50 61 64 63 85 64 52 65 36 66 37 67 45 68
REMARK SMILES IDX 38 69 39 70 43 71 46 72 40 73 41 74 44 75 42 76 68 77 69 78
REMARK SMILES IDX 77 79 70 80 71 81 75 82 78 83 72 84 73 85 76 86 74 87 53 88
REMARK SMILES IDX 54 89 62 90 55 91 56 92 60 93 63 94 57 95 58 96 61 97 59 98
REMARK H PARENT 17 7 6 15 12 26 24 32 83 51 51 62
REMARK Flexibility Score: inf
ROOT
ATOM      1  C   UNL A   1      33.191  30.044  27.238  1.00  0.00     0.002 C 
ENDROOT
BRANCH   1   2
ATOM      2  C   UNL A   1      33.355  28.519  27.294  1.00  0.00     0.021 C 
BRANCH   2   3
ATOM      3  C   UNL A   1      34.293  27.962  26.222  1.00  0.00     0.116 C 
BRANCH   3   4
ATOM      4  N   UNL A   1      34.175  28.753  25.013  1.00  0.00    -0.354 N 
ATOM      5  C   UNL A   1      33.575  28.417  23.838  1.00  0.00     0.242 C 
ATOM      6  O   UNL A   1      33.947  29.014  22.821  1.00  0.00    -0.273 OA
ATOM      7  H   UNL A   1      34.581  29.649  25.046  1.00  0.00     0.163 HD
BRANCH   5   8
ATOM      8  C   UNL A   1      32.511  27.300  23.772  1.00  0.00     0.179 C 
ATOM      9  N   UNL A   1      32.141  26.972  22.384  1.00  0.00    -0.310 N 
ATOM     10  C   UNL A   1      30.744  27.329  22.142  1.00  0.00     0.154 C 
ATOM     11  C   UNL A   1      30.377  28.306  23.253  1.00  0.00     0.136 C 
ATOM     12  C   UNL A   1      31.208  27.804  24.426  1.00  0.00     0.069 C 
BRANCH   9  13
ATOM     13  C   UNL A   1      32.755  25.936  21.744  1.00  0.00     0.318 C 
ATOM     14  N   UNL A   1      32.702  24.686  22.246  1.00  0.00    -0.338 N 
ATOM     15  H   UNL A   1      33.304  24.054  21.791  1.00  0.00     0.165 HD
ATOM     16  O   UNL A   1      33.338  26.082  20.669  1.00  0.00    -0.249 OA
BRANCH  14  17
ATOM     17  C   UNL A   1      31.940  24.087  23.318  1.00  0.00     0.122 C 
BRANCH  17  18
ATOM     18  C   UNL A   1      32.693  22.960  23.955  1.00  0.00     0.021 C 
ATOM     19  C   UNL A   1      34.788  22.311  25.322  1.00  0.00     0.012 C 
ATOM     20  C   UNL A   1      33.457  23.037  25.275  1.00  0.00    -0.025 C 
ATOM     21  C   UNL A   1      33.521  24.329  26.060  1.00  0.00     0.012 C 
ATOM     22  C   UNL A   1      32.128  22.247  25.179  1.00  0.00    -0.025 C 
ATOM     23  C   UNL A   1      32.126  20.733  25.137  1.00  0.00     0.012 C 
ATOM     24  C   UNL A   1      30.857  22.777  25.811  1.00  0.00     0.012 C 
ENDBRANCH  17  18
ENDBRANCH  14  17
ENDBRANCH   9  13
BRANCH  11  25
ATOM     25  O   UNL A   1      30.699  29.644  22.883  1.00  0.00    -0.391 OA
ATOM     26  H   UNL A   1      30.281  30.260  23.504  1.00  0.00     0.211 HD
ENDBRANCH  11  25
ENDBRANCH   5   8
ENDBRANCH   3   4
ENDBRANCH   2   3
ENDBRANCH   1   2
BRANCH   1  27
ATOM     27  C   UNL A   1      31.801  30.518  26.810  1.00  0.00     0.002 C 
BRANCH  27  28
ATOM     28  C   UNL A   1      31.615  32.037  26.823  1.00  0.00     0.021 C 
BRANCH  28  29
ATOM     29  C   UNL A   1      32.803  32.812  27.386  1.00  0.00     0.116 C 
BRANCH  29  30
ATOM     30  N   UNL A   1      32.467  34.202  27.663  1.00  0.00    -0.352 N 
ATOM     31  C   UNL A   1      32.983  35.049  28.610  1.00  0.00     0.251 C 
ATOM     32  H   UNL A   1      31.768  34.588  27.087  1.00  0.00     0.163 HD
ATOM     33  O   UNL A   1      32.439  36.123  28.853  1.00  0.00    -0.269 OA
BRANCH  31  34
ATOM     34  C   UNL A   1      34.191  34.652  29.362  1.00  0.00     0.039 A 
ATOM     35  C   UNL A   1      34.053  34.193  30.673  1.00  0.00     0.014 A 
ATOM     36  C   UNL A   1      35.452  34.708  28.761  1.00  0.00     0.014 A 
ATOM     37  C   UNL A   1      35.169  33.700  31.352  1.00  0.00     0.010 A 
ATOM     38  C   UNL A   1      36.551  34.156  29.413  1.00  0.00     0.010 A 
ATOM     39  C   UNL A   1      36.415  33.627  30.707  1.00  0.00    -0.014 A 
BRANCH  39  40
ATOM     40  C   UNL A   1      37.571  32.940  31.336  1.00  0.00     0.031 A 
ATOM     41  C   UNL A   1      38.203  31.748  30.677  1.00  0.00     0.074 A 
ATOM     42  C   UNL A   1      37.986  33.336  32.556  1.00  0.00     0.049 A 
ATOM     43  N   UNL A   1      39.138  30.951  31.130  1.00  0.00    -0.248 NA
ATOM     44  C   UNL A   1      37.704  31.390  29.340  1.00  0.00     0.031 C 
ATOM     45  C   UNL A   1      37.423  34.454  33.317  1.00  0.00     0.029 A 
ATOM     46  N   UNL A   1      38.959  32.831  33.383  1.00  0.00    -0.354 N 
ATOM     47  C   UNL A   1      39.329  29.994  30.144  1.00  0.00     0.074 A 
ATOM     48  C   UNL A   1      38.388  30.284  29.083  1.00  0.00     0.031 C 
ATOM     49  C   UNL A   1      38.060  34.551  34.493  1.00  0.00     0.029 A 
ATOM     50  C   UNL A   1      39.039  33.475  34.595  1.00  0.00     0.049 A 
ATOM     51  H   UNL A   1      39.543  32.080  33.133  1.00  0.00     0.167 HD
ATOM     52  C   UNL A   1      40.220  28.973  30.124  1.00  0.00     0.037 A 
ATOM     53  C   UNL A   1      39.795  33.210  35.679  1.00  0.00     0.037 A 
ATOM     54  C   UNL A   1      41.166  28.702  31.176  1.00  0.00     0.049 A 
ATOM     55  C   UNL A   1      40.751  32.049  35.639  1.00  0.00     0.074 A 
ATOM     56  C   UNL A   1      42.163  27.743  31.209  1.00  0.00     0.029 A 
ATOM     57  N   UNL A   1      41.223  29.380  32.384  1.00  0.00    -0.354 N 
ATOM     58  N   UNL A   1      40.986  31.203  34.667  1.00  0.00    -0.248 NA
ATOM     59  C   UNL A   1      41.548  31.803  36.851  1.00  0.00     0.031 C 
ATOM     60  C   UNL A   1      42.778  27.796  32.463  1.00  0.00     0.029 A 
ATOM     61  C   UNL A   1      42.208  28.829  33.188  1.00  0.00     0.049 A 
ATOM     62  H   UNL A   1      40.650  30.141  32.634  1.00  0.00     0.167 HD
ATOM     63  C   UNL A   1      41.964  30.339  35.138  1.00  0.00     0.074 A 
ATOM     64  C   UNL A   1      42.300  30.779  36.476  1.00  0.00     0.031 C 
ATOM     65  C   UNL A   1      42.531  29.274  34.520  1.00  0.00     0.037 A 
BRANCH  52  66
ATOM     66  C   UNL A   1      40.217  28.059  28.933  1.00  0.00     0.064 A 
ATOM     67  C   UNL A   1      40.945  28.355  27.772  1.00  0.00     0.173 A 
ATOM     68  C   UNL A   1      39.535  26.832  28.985  1.00  0.00     0.173 A 
ATOM     69  F   UNL A   1      41.608  29.517  27.669  1.00  0.00    -0.203 F 
ATOM     70  C   UNL A   1      40.977  27.467  26.700  1.00  0.00     0.198 A 
ATOM     71  C   UNL A   1      39.594  25.934  27.923  1.00  0.00     0.198 A 
ATOM     72  F   UNL A   1      38.829  26.496  30.075  1.00  0.00    -0.203 F 
ATOM     73  F   UNL A   1      41.651  27.787  25.586  1.00  0.00    -0.200 F 
ATOM     74  C   UNL A   1      40.310  26.253  26.780  1.00  0.00     0.200 A 
ATOM     75  F   UNL A   1      38.963  24.755  28.010  1.00  0.00    -0.200 F 
ATOM     76  F   UNL A   1      40.357  25.392  25.754  1.00  0.00    -0.200 F 
ENDBRANCH  52  66
BRANCH  53  77
ATOM     77  C   UNL A   1      39.661  34.045  36.904  1.00  0.00     0.064 A 
ATOM     78  C   UNL A   1      38.862  33.631  37.979  1.00  0.00     0.173 A 
ATOM     79  C   UNL A   1      40.312  35.282  37.015  1.00  0.00     0.173 A 
ATOM     80  F   UNL A   1      38.201  32.466  37.911  1.00  0.00    -0.203 F 
ATOM     81  C   UNL A   1      38.698  34.435  39.104  1.00  0.00     0.198 A 
ATOM     82  C   UNL A   1      40.175  36.070  38.157  1.00  0.00     0.198 A 
ATOM     83  F   UNL A   1      41.093  35.724  36.018  1.00  0.00    -0.203 F 
ATOM     84  F   UNL A   1      37.881  34.041  40.092  1.00  0.00    -0.200 F 
ATOM     85  C   UNL A   1      39.358  35.650  39.195  1.00  0.00     0.200 A 
ATOM     86  F   UNL A   1      40.829  37.235  38.247  1.00  0.00    -0.200 F 
ATOM     87  F   UNL A   1      39.199  36.423  40.278  1.00  0.00    -0.200 F 
ENDBRANCH  53  77
BRANCH  65  88
ATOM     88  C   UNL A   1      43.582  28.515  35.277  1.00  0.00     0.064 A 
ATOM     89  C   UNL A   1      43.244  27.480  36.163  1.00  0.00     0.173 A 
ATOM     90  C   UNL A   1      44.943  28.788  35.077  1.00  0.00     0.173 A 
ATOM     91  F   UNL A   1      41.957  27.190  36.403  1.00  0.00    -0.203 F 
ATOM     92  C   UNL A   1      44.231  26.762  36.833  1.00  0.00     0.198 A 
ATOM     93  C   UNL A   1      45.927  28.046  35.723  1.00  0.00     0.198 A 
ATOM     94  F   UNL A   1      45.320  29.763  34.236  1.00  0.00    -0.203 F 
ATOM     95  F   UNL A   1      43.884  25.807  37.708  1.00  0.00    -0.200 F 
ATOM     96  C   UNL A   1      45.571  27.038  36.605  1.00  0.00     0.200 A 
ATOM     97  F   UNL A   1      47.222  28.304  35.488  1.00  0.00    -0.200 F 
ATOM     98  F   UNL A   1      46.519  26.336  37.241  1.00  0.00    -0.200 F 
ENDBRANCH  65  88
ENDBRANCH  39  40
ENDBRANCH  31  34
ENDBRANCH  29  30
ENDBRANCH  28  29
ENDBRANCH  27  28
ENDBRANCH   1  27
TORSDOF 17
ENDMDL
