MODEL 1
REMARK VINA RESULT:     -12.7      0.000      0.000
REMARK SMILES CCN(CC)c1ccc([C@@H]2c3[nH]c4ccccc4c3C[C@@H](C(=O)NCCCCCCNC(=O)c3ccc(-c4c5nc(c(-c6c(F)c(F)c(F)c(F)c6F)c6ccc([nH]6)c(-c6c(F)c(F)c(F)c(F)c6F)c6nc(c(-c7c(F)c(F)c(F)c(F)c7F)c7ccc4[nH]7)C=C6)C=C5)cc3)N2C(C)=O)cc1
REMARK SMILES IDX 27 1 26 2 25 3 24 4 22 5 23 6 21 8 10 9 11 10 97 11 12 12
REMARK SMILES IDX 19 13 13 14 18 16 20 17 14 18 17 19 15 20 16 21 9 22 6 23
REMARK SMILES IDX 7 24 102 25 8 26 101 27 3 28 2 29 1 30 4 31 5 32 98 33 99 34
REMARK SMILES IDX 100 35 28 36 29 37 30 38 31 39 32 40 33 42 34 43 35 44 96 45
REMARK SMILES IDX 36 46 95 47 37 48 38 49 39 50 89 51 40 52 94 53 88 54 90 55
REMARK SMILES IDX 41 56 93 57 87 58 86 59 42 61 74 62 54 63 73 64 55 65 58 66
REMARK SMILES IDX 72 67 91 68 56 69 57 70 71 72 92 73 59 74 43 75 44 76 52 77
REMARK SMILES IDX 45 78 46 79 50 80 53 81 47 82 48 83 51 84 49 85 75 86 76 87
REMARK SMILES IDX 84 88 77 89 78 90 82 91 85 92 79 93 80 94 83 95 81 96 60 97
REMARK SMILES IDX 61 98 69 99 62 100 63 101 67 102 70 103 64 104 65 105 68 106
REMARK SMILES IDX 66 107
REMARK H PARENT 24 7 12 15 31 41 90 60 58 71
REMARK Flexibility Score: inf
ROOT
ATOM      1  C   UNL A   1      33.776  23.038  22.677  1.00  0.00     0.002 C 
ENDROOT
BRANCH   1   2
ATOM      2  C   UNL A   1      32.584  22.249  23.242  1.00  0.00     0.021 C 
BRANCH   2   3
ATOM      3  C   UNL A   1      31.337  23.046  23.663  1.00  0.00     0.116 C 
BRANCH   3   4
ATOM      4  N   UNL A   1      31.454  23.713  24.976  1.00  0.00    -0.354 N 
ATOM      5  C   UNL A   1      32.076  24.794  25.530  1.00  0.00     0.243 C 
ATOM      6  O   UNL A   1      31.756  25.009  26.711  1.00  0.00    -0.273 OA
ATOM      7  H   UNL A   1      30.924  23.235  25.655  1.00  0.00     0.163 HD
BRANCH   5   8
ATOM      8  C   UNL A   1      33.243  25.647  24.924  1.00  0.00     0.179 C 
ATOM      9  C   UNL A   1      31.723  27.526  24.475  1.00  0.00     0.163 C 
ATOM     10  C   UNL A   1      32.513  28.270  25.532  1.00  0.00     0.047 A 
ATOM     11  N   UNL A   1      32.752  26.647  23.910  1.00  0.00    -0.318 N 
ATOM     12  N   UNL A   1      32.290  29.520  26.035  1.00  0.00    -0.356 N 
ATOM     13  C   UNL A   1      33.628  27.752  26.191  1.00  0.00    -0.014 A 
ATOM     14  C   UNL A   1      33.379  29.912  26.785  1.00  0.00     0.046 A 
ATOM     15  H   UNL A   1      31.479  30.057  25.885  1.00  0.00     0.166 HD
ATOM     16  C   UNL A   1      34.216  28.804  26.927  1.00  0.00     0.003 A 
ATOM     17  C   UNL A   1      34.140  26.360  25.951  1.00  0.00     0.073 C 
ATOM     18  C   UNL A   1      33.694  31.161  27.321  1.00  0.00     0.026 A 
ATOM     19  C   UNL A   1      35.412  28.931  27.651  1.00  0.00     0.010 A 
ATOM     20  C   UNL A   1      34.914  31.278  27.996  1.00  0.00     0.002 A 
ATOM     21  C   UNL A   1      35.758  30.182  28.164  1.00  0.00     0.001 A 
BRANCH   9  22
ATOM     22  C   UNL A   1      30.782  28.240  23.531  1.00  0.00    -0.019 A 
ATOM     23  C   UNL A   1      28.912  29.902  22.137  1.00  0.00     0.037 A 
ATOM     24  C   UNL A   1      30.280  29.919  21.850  1.00  0.00     0.026 A 
ATOM     25  C   UNL A   1      28.491  28.895  23.013  1.00  0.00     0.026 A 
ATOM     26  C   UNL A   1      31.196  29.101  22.519  1.00  0.00     0.008 A 
ATOM     27  C   UNL A   1      29.400  28.079  23.701  1.00  0.00     0.008 A 
BRANCH  23  28
ATOM     28  N   UNL A   1      28.029  30.833  21.604  1.00  0.00    -0.372 N 
BRANCH  28  29
ATOM     29  C   UNL A   1      27.546  31.936  22.451  1.00  0.00     0.113 C 
ATOM     30  C   UNL A   1      28.673  32.677  23.153  1.00  0.00     0.027 C 
ENDBRANCH  28  29
BRANCH  28  31
ATOM     31  C   UNL A   1      27.852  30.989  20.153  1.00  0.00     0.113 C 
ATOM     32  C   UNL A   1      27.942  32.445  19.696  1.00  0.00     0.027 C 
ENDBRANCH  28  31
ENDBRANCH  23  28
ENDBRANCH   9  22
BRANCH  11  33
ATOM     33  C   UNL A   1      33.572  27.220  22.928  1.00  0.00     0.220 C 
ATOM     34  C   UNL A   1      34.303  28.509  23.206  1.00  0.00     0.114 C 
ATOM     35  O   UNL A   1      33.705  26.747  21.795  1.00  0.00    -0.275 OA
ENDBRANCH  11  33
ENDBRANCH   5   8
ENDBRANCH   3   4
ENDBRANCH   2   3
ENDBRANCH   1   2
BRANCH   1  36
ATOM     36  C   UNL A   1      35.102  22.970  23.446  1.00  0.00     0.002 C 
BRANCH  36  37
ATOM     37  C   UNL A   1      35.071  22.472  24.900  1.00  0.00     0.021 C 
BRANCH  37  38
ATOM     38  C   UNL A   1      36.300  22.753  25.772  1.00  0.00     0.116 C 
BRANCH  38  39
ATOM     39  N   UNL A   1      37.283  21.675  25.762  1.00  0.00    -0.352 N 
ATOM     40  C   UNL A   1      38.630  21.665  26.023  1.00  0.00     0.251 C 
ATOM     41  H   UNL A   1      36.912  20.794  25.525  1.00  0.00     0.163 HD
ATOM     42  O   UNL A   1      39.272  20.625  25.827  1.00  0.00    -0.269 OA
BRANCH  40  43
ATOM     43  C   UNL A   1      39.358  22.859  26.517  1.00  0.00     0.039 A 
ATOM     44  C   UNL A   1      40.345  22.687  27.496  1.00  0.00     0.014 A 
ATOM     45  C   UNL A   1      39.030  24.150  26.097  1.00  0.00     0.014 A 
ATOM     46  C   UNL A   1      41.057  23.788  27.989  1.00  0.00     0.010 A 
ATOM     47  C   UNL A   1      39.769  25.245  26.556  1.00  0.00     0.010 A 
ATOM     48  C   UNL A   1      40.801  25.075  27.495  1.00  0.00    -0.014 A 
BRANCH  48  49
ATOM     49  C   UNL A   1      41.610  26.254  27.914  1.00  0.00     0.031 A 
ATOM     50  C   UNL A   1      40.996  27.344  28.748  1.00  0.00     0.074 A 
ATOM     51  C   UNL A   1      42.871  26.394  27.457  1.00  0.00     0.049 A 
ATOM     52  N   UNL A   1      41.476  28.524  29.055  1.00  0.00    -0.248 NA
ATOM     53  C   UNL A   1      39.658  27.078  29.292  1.00  0.00     0.031 C 
ATOM     54  C   UNL A   1      43.585  25.418  26.635  1.00  0.00     0.029 A 
ATOM     55  N   UNL A   1      43.766  27.428  27.598  1.00  0.00    -0.354 N 
ATOM     56  C   UNL A   1      40.488  29.150  29.805  1.00  0.00     0.074 A 
ATOM     57  C   UNL A   1      39.373  28.229  29.885  1.00  0.00     0.031 C 
ATOM     58  C   UNL A   1      44.803  25.899  26.339  1.00  0.00     0.029 A 
ATOM     59  C   UNL A   1      44.940  27.236  26.908  1.00  0.00     0.049 A 
ATOM     60  H   UNL A   1      43.584  28.229  28.141  1.00  0.00     0.167 HD
ATOM     61  C   UNL A   1      40.513  30.378  30.379  1.00  0.00     0.037 A 
ATOM     62  C   UNL A   1      45.994  28.056  26.728  1.00  0.00     0.037 A 
ATOM     63  C   UNL A   1      41.632  31.283  30.322  1.00  0.00     0.049 A 
ATOM     64  C   UNL A   1      45.986  29.425  27.351  1.00  0.00     0.074 A 
ATOM     65  C   UNL A   1      41.766  32.528  30.913  1.00  0.00     0.029 A 
ATOM     66  N   UNL A   1      42.810  31.042  29.632  1.00  0.00    -0.354 N 
ATOM     67  N   UNL A   1      45.060  29.994  28.085  1.00  0.00    -0.248 NA
ATOM     68  C   UNL A   1      47.169  30.269  27.121  1.00  0.00     0.031 C 
ATOM     69  C   UNL A   1      43.008  33.057  30.546  1.00  0.00     0.029 A 
ATOM     70  C   UNL A   1      43.668  32.122  29.766  1.00  0.00     0.049 A 
ATOM     71  H   UNL A   1      43.009  30.224  29.121  1.00  0.00     0.167 HD
ATOM     72  C   UNL A   1      45.560  31.242  28.431  1.00  0.00     0.074 A 
ATOM     73  C   UNL A   1      46.873  31.351  27.830  1.00  0.00     0.031 C 
ATOM     74  C   UNL A   1      44.982  32.210  29.183  1.00  0.00     0.037 A 
BRANCH  61  75
ATOM     75  C   UNL A   1      39.285  30.828  31.117  1.00  0.00     0.064 A 
ATOM     76  C   UNL A   1      38.285  31.583  30.487  1.00  0.00     0.173 A 
ATOM     77  C   UNL A   1      39.083  30.457  32.455  1.00  0.00     0.173 A 
ATOM     78  F   UNL A   1      38.432  31.969  29.211  1.00  0.00    -0.203 F 
ATOM     79  C   UNL A   1      37.141  31.975  31.179  1.00  0.00     0.198 A 
ATOM     80  C   UNL A   1      37.926  30.825  33.135  1.00  0.00     0.198 A 
ATOM     81  F   UNL A   1      40.005  29.726  33.100  1.00  0.00    -0.203 F 
ATOM     82  F   UNL A   1      36.219  32.734  30.571  1.00  0.00    -0.200 F 
ATOM     83  C   UNL A   1      36.960  31.591  32.500  1.00  0.00     0.200 A 
ATOM     84  F   UNL A   1      37.745  30.441  34.405  1.00  0.00    -0.200 F 
ATOM     85  F   UNL A   1      35.855  31.962  33.161  1.00  0.00    -0.200 F 
ENDBRANCH  61  75
BRANCH  62  86
ATOM     86  C   UNL A   1      47.153  27.602  25.915  1.00  0.00     0.064 A 
ATOM     87  C   UNL A   1      47.171  27.787  24.526  1.00  0.00     0.173 A 
ATOM     88  C   UNL A   1      48.259  26.974  26.505  1.00  0.00     0.173 A 
ATOM     89  F   UNL A   1      46.125  28.361  23.914  1.00  0.00    -0.203 F 
ATOM     90  C   UNL A   1      48.246  27.348  23.755  1.00  0.00     0.198 A 
ATOM     91  C   UNL A   1      49.345  26.559  25.737  1.00  0.00     0.198 A 
ATOM     92  F   UNL A   1      48.291  26.776  27.831  1.00  0.00    -0.203 F 
ATOM     93  F   UNL A   1      48.219  27.501  22.424  1.00  0.00    -0.200 F 
ATOM     94  C   UNL A   1      49.335  26.741  24.362  1.00  0.00     0.200 A 
ATOM     95  F   UNL A   1      50.402  25.985  26.329  1.00  0.00    -0.200 F 
ATOM     96  F   UNL A   1      50.370  26.323  23.622  1.00  0.00    -0.200 F 
ENDBRANCH  62  86
BRANCH  74  97
ATOM     97  C   UNL A   1      45.778  33.453  29.449  1.00  0.00     0.064 A 
ATOM     98  C   UNL A   1      45.661  34.592  28.640  1.00  0.00     0.173 A 
ATOM     99  C   UNL A   1      46.620  33.525  30.570  1.00  0.00     0.173 A 
ATOM    100  F   UNL A   1      44.883  34.567  27.548  1.00  0.00    -0.203 F 
ATOM    101  C   UNL A   1      46.366  35.755  28.937  1.00  0.00     0.198 A 
ATOM    102  C   UNL A   1      47.303  34.698  30.879  1.00  0.00     0.198 A 
ATOM    103  F   UNL A   1      46.762  32.463  31.377  1.00  0.00    -0.203 F 
ATOM    104  F   UNL A   1      46.264  36.823  28.134  1.00  0.00    -0.200 F 
ATOM    105  C   UNL A   1      47.178  35.810  30.061  1.00  0.00     0.200 A 
ATOM    106  F   UNL A   1      48.078  34.754  31.971  1.00  0.00    -0.200 F 
ATOM    107  F   UNL A   1      47.844  36.936  30.354  1.00  0.00    -0.200 F 
ENDBRANCH  74  97
ENDBRANCH  48  49
ENDBRANCH  40  43
ENDBRANCH  38  39
ENDBRANCH  37  38
ENDBRANCH  36  37
ENDBRANCH   1  36
TORSDOF 18
ENDMDL
MODEL 2
REMARK VINA RESULT:     -12.5      3.836      9.957
REMARK SMILES CCN(CC)c1ccc([C@@H]2c3[nH]c4ccccc4c3C[C@@H](C(=O)NCCCCCCNC(=O)c3ccc(-c4c5nc(c(-c6c(F)c(F)c(F)c(F)c6F)c6ccc([nH]6)c(-c6c(F)c(F)c(F)c(F)c6F)c6nc(c(-c7c(F)c(F)c(F)c(F)c7F)c7ccc4[nH]7)C=C6)C=C5)cc3)N2C(C)=O)cc1
REMARK SMILES IDX 27 1 26 2 25 3 24 4 22 5 23 6 21 8 10 9 11 10 97 11 12 12
REMARK SMILES IDX 19 13 13 14 18 16 20 17 14 18 17 19 15 20 16 21 9 22 6 23
REMARK SMILES IDX 7 24 102 25 8 26 101 27 3 28 2 29 1 30 4 31 5 32 98 33 99 34
REMARK SMILES IDX 100 35 28 36 29 37 30 38 31 39 32 40 33 42 34 43 35 44 96 45
REMARK SMILES IDX 36 46 95 47 37 48 38 49 39 50 89 51 40 52 94 53 88 54 90 55
REMARK SMILES IDX 41 56 93 57 87 58 86 59 42 61 74 62 54 63 73 64 55 65 58 66
REMARK SMILES IDX 72 67 91 68 56 69 57 70 71 72 92 73 59 74 43 75 44 76 52 77
REMARK SMILES IDX 45 78 46 79 50 80 53 81 47 82 48 83 51 84 49 85 75 86 76 87
REMARK SMILES IDX 84 88 77 89 78 90 82 91 85 92 79 93 80 94 83 95 81 96 60 97
REMARK SMILES IDX 61 98 69 99 62 100 63 101 67 102 70 103 64 104 65 105 68 106
REMARK SMILES IDX 66 107
REMARK H PARENT 24 7 12 15 31 41 90 60 58 71
REMARK Flexibility Score: inf
ROOT
ATOM      1  C   UNL A   1      30.115  27.448  24.620  1.00  0.00     0.002 C 
ENDROOT
BRANCH   1   2
ATOM      2  C   UNL A   1      30.120  26.728  23.263  1.00  0.00     0.021 C 
BRANCH   2   3
ATOM      3  C   UNL A   1      30.654  25.286  23.223  1.00  0.00     0.116 C 
BRANCH   3   4
ATOM      4  N   UNL A   1      32.077  25.173  22.842  1.00  0.00    -0.354 N 
ATOM      5  C   UNL A   1      33.274  24.855  23.414  1.00  0.00     0.243 C 
ATOM      6  O   UNL A   1      34.218  24.794  22.607  1.00  0.00    -0.273 OA
ATOM      7  H   UNL A   1      32.197  25.393  21.889  1.00  0.00     0.163 HD
BRANCH   5   8
ATOM      8  C   UNL A   1      33.612  24.745  24.940  1.00  0.00     0.179 C 
ATOM      9  C   UNL A   1      33.928  22.314  24.763  1.00  0.00     0.163 C 
ATOM     10  C   UNL A   1      35.387  22.596  25.061  1.00  0.00     0.047 A 
ATOM     11  N   UNL A   1      33.267  23.392  25.506  1.00  0.00    -0.318 N 
ATOM     12  N   UNL A   1      36.431  21.716  25.095  1.00  0.00    -0.356 N 
ATOM     13  C   UNL A   1      35.902  23.862  25.338  1.00  0.00    -0.014 A 
ATOM     14  C   UNL A   1      37.531  22.335  25.650  1.00  0.00     0.046 A 
ATOM     15  H   UNL A   1      36.402  20.786  24.775  1.00  0.00     0.166 HD
ATOM     16  C   UNL A   1      37.233  23.693  25.777  1.00  0.00     0.003 A 
ATOM     17  C   UNL A   1      35.058  25.104  25.323  1.00  0.00     0.073 C 
ATOM     18  C   UNL A   1      38.747  21.794  26.068  1.00  0.00     0.026 A 
ATOM     19  C   UNL A   1      38.191  24.561  26.325  1.00  0.00     0.010 A 
ATOM     20  C   UNL A   1      39.667  22.666  26.657  1.00  0.00     0.002 A 
ATOM     21  C   UNL A   1      39.399  24.028  26.780  1.00  0.00     0.001 A 
BRANCH   9  22
ATOM     22  C   UNL A   1      33.351  20.918  24.845  1.00  0.00    -0.019 A 
ATOM     23  C   UNL A   1      32.684  18.135  24.760  1.00  0.00     0.037 A 
ATOM     24  C   UNL A   1      33.033  18.780  25.950  1.00  0.00     0.026 A 
ATOM     25  C   UNL A   1      32.502  18.970  23.651  1.00  0.00     0.026 A 
ATOM     26  C   UNL A   1      33.349  20.141  25.999  1.00  0.00     0.008 A 
ATOM     27  C   UNL A   1      32.828  20.332  23.684  1.00  0.00     0.008 A 
BRANCH  23  28
ATOM     28  N   UNL A   1      32.545  16.755  24.675  1.00  0.00    -0.372 N 
BRANCH  28  29
ATOM     29  C   UNL A   1      33.241  16.024  23.603  1.00  0.00     0.113 C 
ATOM     30  C   UNL A   1      34.548  16.684  23.192  1.00  0.00     0.027 C 
ENDBRANCH  28  29
BRANCH  28  31
ATOM     31  C   UNL A   1      32.055  15.956  25.807  1.00  0.00     0.113 C 
ATOM     32  C   UNL A   1      32.530  14.503  25.760  1.00  0.00     0.027 C 
ENDBRANCH  28  31
ENDBRANCH  23  28
ENDBRANCH   9  22
BRANCH  11  33
ATOM     33  C   UNL A   1      33.058  23.153  26.871  1.00  0.00     0.220 C 
ATOM     34  C   UNL A   1      34.207  22.730  27.752  1.00  0.00     0.114 C 
ATOM     35  O   UNL A   1      31.951  23.225  27.411  1.00  0.00    -0.275 OA
ENDBRANCH  11  33
ENDBRANCH   5   8
ENDBRANCH   3   4
ENDBRANCH   2   3
ENDBRANCH   1   2
BRANCH   1  36
ATOM     36  C   UNL A   1      31.462  27.638  25.330  1.00  0.00     0.002 C 
BRANCH  36  37
ATOM     37  C   UNL A   1      32.609  28.293  24.543  1.00  0.00     0.021 C 
BRANCH  37  38
ATOM     38  C   UNL A   1      33.626  29.125  25.332  1.00  0.00     0.116 C 
BRANCH  38  39
ATOM     39  N   UNL A   1      33.049  30.303  25.969  1.00  0.00    -0.352 N 
ATOM     40  C   UNL A   1      33.467  31.062  27.033  1.00  0.00     0.251 C 
ATOM     41  H   UNL A   1      32.207  30.610  25.562  1.00  0.00     0.163 HD
ATOM     42  O   UNL A   1      32.725  31.955  27.462  1.00  0.00    -0.269 OA
BRANCH  40  43
ATOM     43  C   UNL A   1      34.769  30.845  27.708  1.00  0.00     0.039 A 
ATOM     44  C   UNL A   1      35.670  31.916  27.790  1.00  0.00     0.014 A 
ATOM     45  C   UNL A   1      35.154  29.590  28.186  1.00  0.00     0.014 A 
ATOM     46  C   UNL A   1      36.911  31.754  28.419  1.00  0.00     0.010 A 
ATOM     47  C   UNL A   1      36.375  29.439  28.853  1.00  0.00     0.010 A 
ATOM     48  C   UNL A   1      37.260  30.521  28.991  1.00  0.00    -0.014 A 
BRANCH  48  49
ATOM     49  C   UNL A   1      38.521  30.341  29.763  1.00  0.00     0.031 A 
ATOM     50  C   UNL A   1      39.630  29.482  29.223  1.00  0.00     0.074 A 
ATOM     51  C   UNL A   1      38.628  30.869  30.999  1.00  0.00     0.049 A 
ATOM     52  N   UNL A   1      40.717  29.057  29.819  1.00  0.00    -0.248 NA
ATOM     53  C   UNL A   1      39.488  29.025  27.833  1.00  0.00     0.031 C 
ATOM     54  C   UNL A   1      37.626  31.714  31.646  1.00  0.00     0.029 A 
ATOM     55  N   UNL A   1      39.621  30.747  31.943  1.00  0.00    -0.354 N 
ATOM     56  C   UNL A   1      41.373  28.262  28.888  1.00  0.00     0.074 A 
ATOM     57  C   UNL A   1      40.551  28.244  27.696  1.00  0.00     0.031 C 
ATOM     58  C   UNL A   1      38.049  32.030  32.881  1.00  0.00     0.029 A 
ATOM     59  C   UNL A   1      39.328  31.372  33.131  1.00  0.00     0.049 A 
ATOM     60  H   UNL A   1      40.460  30.259  31.783  1.00  0.00     0.167 HD
ATOM     61  C   UNL A   1      42.557  27.614  29.014  1.00  0.00     0.037 A 
ATOM     62  C   UNL A   1      39.997  31.389  34.301  1.00  0.00     0.037 A 
ATOM     63  C   UNL A   1      43.388  27.653  30.190  1.00  0.00     0.049 A 
ATOM     64  C   UNL A   1      41.294  30.638  34.425  1.00  0.00     0.074 A 
ATOM     65  C   UNL A   1      44.625  27.066  30.393  1.00  0.00     0.029 A 
ATOM     66  N   UNL A   1      43.066  28.317  31.364  1.00  0.00    -0.354 N 
ATOM     67  N   UNL A   1      41.921  29.917  33.529  1.00  0.00    -0.248 NA
ATOM     68  C   UNL A   1      41.978  30.701  35.726  1.00  0.00     0.031 C 
ATOM     69  C   UNL A   1      45.032  27.339  31.703  1.00  0.00     0.029 A 
ATOM     70  C   UNL A   1      44.071  28.137  32.302  1.00  0.00     0.049 A 
ATOM     71  H   UNL A   1      42.244  28.838  31.512  1.00  0.00     0.167 HD
ATOM     72  C   UNL A   1      43.084  29.470  34.142  1.00  0.00     0.074 A 
ATOM     73  C   UNL A   1      43.080  30.002  35.489  1.00  0.00     0.031 C 
ATOM     74  C   UNL A   1      44.067  28.690  33.631  1.00  0.00     0.037 A 
BRANCH  61  75
ATOM     75  C   UNL A   1      43.028  26.789  27.851  1.00  0.00     0.064 A 
ATOM     76  C   UNL A   1      42.699  25.431  27.731  1.00  0.00     0.173 A 
ATOM     77  C   UNL A   1      43.777  27.377  26.820  1.00  0.00     0.173 A 
ATOM     78  F   UNL A   1      41.990  24.820  28.692  1.00  0.00    -0.203 F 
ATOM     79  C   UNL A   1      43.125  24.685  26.635  1.00  0.00     0.198 A 
ATOM     80  C   UNL A   1      44.178  26.635  25.712  1.00  0.00     0.198 A 
ATOM     81  F   UNL A   1      44.110  28.675  26.881  1.00  0.00    -0.203 F 
ATOM     82  F   UNL A   1      42.836  23.378  26.562  1.00  0.00    -0.200 F 
ATOM     83  C   UNL A   1      43.858  25.289  25.624  1.00  0.00     0.200 A 
ATOM     84  F   UNL A   1      44.873  27.223  24.729  1.00  0.00    -0.200 F 
ATOM     85  F   UNL A   1      44.262  24.571  24.566  1.00  0.00    -0.200 F 
ENDBRANCH  61  75
BRANCH  62  86
ATOM     86  C   UNL A   1      39.448  32.148  35.456  1.00  0.00     0.064 A 
ATOM     87  C   UNL A   1      38.590  31.530  36.377  1.00  0.00     0.173 A 
ATOM     88  C   UNL A   1      39.764  33.498  35.661  1.00  0.00     0.173 A 
ATOM     89  F   UNL A   1      38.241  30.247  36.209  1.00  0.00    -0.203 F 
ATOM     90  C   UNL A   1      38.058  32.240  37.452  1.00  0.00     0.198 A 
ATOM     91  C   UNL A   1      39.252  34.199  36.751  1.00  0.00     0.198 A 
ATOM     92  F   UNL A   1      40.582  34.134  34.809  1.00  0.00    -0.203 F 
ATOM     93  F   UNL A   1      37.209  31.637  38.294  1.00  0.00    -0.200 F 
ATOM     94  C   UNL A   1      38.395  33.572  37.641  1.00  0.00     0.200 A 
ATOM     95  F   UNL A   1      39.591  35.483  36.938  1.00  0.00    -0.200 F 
ATOM     96  F   UNL A   1      37.887  34.252  38.678  1.00  0.00    -0.200 F 
ENDBRANCH  62  86
BRANCH  74  97
ATOM     97  C   UNL A   1      45.253  28.404  34.505  1.00  0.00     0.064 A 
ATOM     98  C   UNL A   1      45.306  27.270  35.329  1.00  0.00     0.173 A 
ATOM     99  C   UNL A   1      46.378  29.242  34.465  1.00  0.00     0.173 A 
ATOM    100  F   UNL A   1      44.249  26.448  35.414  1.00  0.00    -0.203 F 
ATOM    101  C   UNL A   1      46.438  26.992  36.089  1.00  0.00     0.198 A 
ATOM    102  C   UNL A   1      47.518  28.947  35.208  1.00  0.00     0.198 A 
ATOM    103  F   UNL A   1      46.378  30.336  33.690  1.00  0.00    -0.203 F 
ATOM    104  F   UNL A   1      46.456  25.920  36.893  1.00  0.00    -0.200 F 
ATOM    105  C   UNL A   1      47.546  27.825  36.021  1.00  0.00     0.200 A 
ATOM    106  F   UNL A   1      48.591  29.745  35.131  1.00  0.00    -0.200 F 
ATOM    107  F   UNL A   1      48.641  27.546  36.742  1.00  0.00    -0.200 F 
ENDBRANCH  74  97
ENDBRANCH  48  49
ENDBRANCH  40  43
ENDBRANCH  38  39
ENDBRANCH  37  38
ENDBRANCH  36  37
ENDBRANCH   1  36
TORSDOF 18
ENDMDL
MODEL 3
REMARK VINA RESULT:     -12.4      0.545      6.989
REMARK SMILES CCN(CC)c1ccc([C@@H]2c3[nH]c4ccccc4c3C[C@@H](C(=O)NCCCCCCNC(=O)c3ccc(-c4c5nc(c(-c6c(F)c(F)c(F)c(F)c6F)c6ccc([nH]6)c(-c6c(F)c(F)c(F)c(F)c6F)c6nc(c(-c7c(F)c(F)c(F)c(F)c7F)c7ccc4[nH]7)C=C6)C=C5)cc3)N2C(C)=O)cc1
REMARK SMILES IDX 27 1 26 2 25 3 24 4 22 5 23 6 21 8 10 9 11 10 97 11 12 12
REMARK SMILES IDX 19 13 13 14 18 16 20 17 14 18 17 19 15 20 16 21 9 22 6 23
REMARK SMILES IDX 7 24 102 25 8 26 101 27 3 28 2 29 1 30 4 31 5 32 98 33 99 34
REMARK SMILES IDX 100 35 28 36 29 37 30 38 31 39 32 40 33 42 34 43 35 44 96 45
REMARK SMILES IDX 36 46 95 47 37 48 38 49 39 50 89 51 40 52 94 53 88 54 90 55
REMARK SMILES IDX 41 56 93 57 87 58 86 59 42 61 74 62 54 63 73 64 55 65 58 66
REMARK SMILES IDX 72 67 91 68 56 69 57 70 71 72 92 73 59 74 43 75 44 76 52 77
REMARK SMILES IDX 45 78 46 79 50 80 53 81 47 82 48 83 51 84 49 85 75 86 76 87
REMARK SMILES IDX 84 88 77 89 78 90 82 91 85 92 79 93 80 94 83 95 81 96 60 97
REMARK SMILES IDX 61 98 69 99 62 100 63 101 67 102 70 103 64 104 65 105 68 106
REMARK SMILES IDX 66 107
REMARK H PARENT 24 7 12 15 31 41 90 60 58 71
REMARK Flexibility Score: inf
ROOT
ATOM      1  C   UNL A   1      33.840  22.984  22.785  1.00  0.00     0.002 C 
ENDROOT
BRANCH   1   2
ATOM      2  C   UNL A   1      32.694  22.166  23.399  1.00  0.00     0.021 C 
BRANCH   2   3
ATOM      3  C   UNL A   1      31.429  22.926  23.834  1.00  0.00     0.116 C 
BRANCH   3   4
ATOM      4  N   UNL A   1      31.557  23.638  25.122  1.00  0.00    -0.354 N 
ATOM      5  C   UNL A   1      32.177  24.742  25.630  1.00  0.00     0.243 C 
ATOM      6  O   UNL A   1      31.870  24.995  26.808  1.00  0.00    -0.273 OA
ATOM      7  H   UNL A   1      31.041  23.178  25.823  1.00  0.00     0.163 HD
BRANCH   5   8
ATOM      8  C   UNL A   1      33.327  25.584  24.980  1.00  0.00     0.179 C 
ATOM      9  C   UNL A   1      31.790  27.446  24.515  1.00  0.00     0.163 C 
ATOM     10  C   UNL A   1      32.599  28.219  25.537  1.00  0.00     0.047 A 
ATOM     11  N   UNL A   1      32.812  26.557  23.951  1.00  0.00    -0.318 N 
ATOM     12  N   UNL A   1      32.381  29.480  26.014  1.00  0.00    -0.356 N 
ATOM     13  C   UNL A   1      33.729  27.721  26.186  1.00  0.00    -0.014 A 
ATOM     14  C   UNL A   1      33.483  29.895  26.730  1.00  0.00     0.046 A 
ATOM     15  H   UNL A   1      31.565  30.010  25.866  1.00  0.00     0.166 HD
ATOM     16  C   UNL A   1      34.327  28.793  26.883  1.00  0.00     0.003 A 
ATOM     17  C   UNL A   1      34.242  26.326  25.970  1.00  0.00     0.073 C 
ATOM     18  C   UNL A   1      33.804  31.158  27.230  1.00  0.00     0.026 A 
ATOM     19  C   UNL A   1      35.537  28.943  27.579  1.00  0.00     0.010 A 
ATOM     20  C   UNL A   1      35.036  31.296  27.876  1.00  0.00     0.002 A 
ATOM     21  C   UNL A   1      35.888  30.208  28.054  1.00  0.00     0.001 A 
BRANCH   9  22
ATOM     22  C   UNL A   1      30.828  28.133  23.572  1.00  0.00    -0.019 A 
ATOM     23  C   UNL A   1      28.895  29.728  22.187  1.00  0.00     0.037 A 
ATOM     24  C   UNL A   1      30.264  29.822  21.922  1.00  0.00     0.026 A 
ATOM     25  C   UNL A   1      28.514  28.682  23.035  1.00  0.00     0.026 A 
ATOM     26  C   UNL A   1      31.211  29.037  22.587  1.00  0.00     0.008 A 
ATOM     27  C   UNL A   1      29.454  27.898  23.718  1.00  0.00     0.008 A 
BRANCH  23  28
ATOM     28  N   UNL A   1      27.973  30.625  21.662  1.00  0.00    -0.372 N 
BRANCH  28  29
ATOM     29  C   UNL A   1      27.280  31.560  22.565  1.00  0.00     0.113 C 
ATOM     30  C   UNL A   1      28.214  32.196  23.584  1.00  0.00     0.027 C 
ENDBRANCH  28  29
BRANCH  28  31
ATOM     31  C   UNL A   1      27.934  30.943  20.228  1.00  0.00     0.113 C 
ATOM     32  C   UNL A   1      27.864  32.445  19.953  1.00  0.00     0.027 C 
ENDBRANCH  28  31
ENDBRANCH  23  28
ENDBRANCH   9  22
BRANCH  11  33
ATOM     33  C   UNL A   1      33.609  27.108  22.938  1.00  0.00     0.220 C 
ATOM     34  C   UNL A   1      34.174  28.498  23.088  1.00  0.00     0.114 C 
ATOM     35  O   UNL A   1      33.851  26.530  21.876  1.00  0.00    -0.275 OA
ENDBRANCH  11  33
ENDBRANCH   5   8
ENDBRANCH   3   4
ENDBRANCH   2   3
ENDBRANCH   1   2
BRANCH   1  36
ATOM     36  C   UNL A   1      35.223  22.876  23.442  1.00  0.00     0.002 C 
BRANCH  36  37
ATOM     37  C   UNL A   1      35.354  22.026  24.716  1.00  0.00     0.021 C 
BRANCH  37  38
ATOM     38  C   UNL A   1      36.425  22.435  25.734  1.00  0.00     0.116 C 
BRANCH  38  39
ATOM     39  N   UNL A   1      37.506  21.465  25.868  1.00  0.00    -0.352 N 
ATOM     40  C   UNL A   1      38.836  21.617  26.168  1.00  0.00     0.251 C 
ATOM     41  H   UNL A   1      37.231  20.532  25.716  1.00  0.00     0.163 HD
ATOM     42  O   UNL A   1      39.583  20.632  26.102  1.00  0.00    -0.269 OA
BRANCH  40  43
ATOM     43  C   UNL A   1      39.426  22.922  26.552  1.00  0.00     0.039 A 
ATOM     44  C   UNL A   1      40.408  22.948  27.551  1.00  0.00     0.014 A 
ATOM     45  C   UNL A   1      38.972  24.126  26.009  1.00  0.00     0.014 A 
ATOM     46  C   UNL A   1      40.991  24.160  27.944  1.00  0.00     0.010 A 
ATOM     47  C   UNL A   1      39.584  25.332  26.368  1.00  0.00     0.010 A 
ATOM     48  C   UNL A   1      40.610  25.361  27.327  1.00  0.00    -0.014 A 
BRANCH  48  49
ATOM     49  C   UNL A   1      41.284  26.652  27.639  1.00  0.00     0.031 A 
ATOM     50  C   UNL A   1      42.728  26.866  27.284  1.00  0.00     0.074 A 
ATOM     51  C   UNL A   1      40.622  27.599  28.336  1.00  0.00     0.049 A 
ATOM     52  N   UNL A   1      43.535  27.838  27.632  1.00  0.00    -0.248 NA
ATOM     53  C   UNL A   1      43.354  25.839  26.439  1.00  0.00     0.031 C 
ATOM     54  C   UNL A   1      39.223  27.518  28.751  1.00  0.00     0.029 A 
ATOM     55  N   UNL A   1      41.050  28.804  28.842  1.00  0.00    -0.354 N 
ATOM     56  C   UNL A   1      44.767  27.527  27.073  1.00  0.00     0.074 A 
ATOM     57  C   UNL A   1      44.609  26.263  26.383  1.00  0.00     0.031 C 
ATOM     58  C   UNL A   1      38.907  28.619  29.452  1.00  0.00     0.029 A 
ATOM     59  C   UNL A   1      40.093  29.461  29.578  1.00  0.00     0.049 A 
ATOM     60  H   UNL A   1      41.955  29.161  28.693  1.00  0.00     0.167 HD
ATOM     61  C   UNL A   1      45.922  28.234  27.125  1.00  0.00     0.037 A 
ATOM     62  C   UNL A   1      40.170  30.597  30.299  1.00  0.00     0.037 A 
ATOM     63  C   UNL A   1      46.073  29.504  27.789  1.00  0.00     0.049 A 
ATOM     64  C   UNL A   1      41.470  31.349  30.365  1.00  0.00     0.074 A 
ATOM     65  C   UNL A   1      47.193  30.316  27.854  1.00  0.00     0.029 A 
ATOM     66  N   UNL A   1      45.073  30.146  28.503  1.00  0.00    -0.354 N 
ATOM     67  N   UNL A   1      42.620  31.062  29.806  1.00  0.00    -0.248 NA
ATOM     68  C   UNL A   1      41.486  32.584  31.164  1.00  0.00     0.031 C 
ATOM     69  C   UNL A   1      46.883  31.429  28.643  1.00  0.00     0.029 A 
ATOM     70  C   UNL A   1      45.556  31.335  29.029  1.00  0.00     0.049 A 
ATOM     71  H   UNL A   1      44.156  29.808  28.621  1.00  0.00     0.167 HD
ATOM     72  C   UNL A   1      43.483  32.092  30.155  1.00  0.00     0.074 A 
ATOM     73  C   UNL A   1      42.726  33.015  30.974  1.00  0.00     0.031 C 
ATOM     74  C   UNL A   1      44.786  32.257  29.823  1.00  0.00     0.037 A 
BRANCH  61  75
ATOM     75  C   UNL A   1      47.130  27.648  26.453  1.00  0.00     0.064 A 
ATOM     76  C   UNL A   1      48.063  26.875  27.160  1.00  0.00     0.173 A 
ATOM     77  C   UNL A   1      47.331  27.819  25.075  1.00  0.00     0.173 A 
ATOM     78  F   UNL A   1      47.921  26.686  28.480  1.00  0.00    -0.203 F 
ATOM     79  C   UNL A   1      49.168  26.320  26.518  1.00  0.00     0.198 A 
ATOM     80  C   UNL A   1      48.420  27.239  24.430  1.00  0.00     0.198 A 
ATOM     81  F   UNL A   1      46.463  28.541  24.350  1.00  0.00    -0.203 F 
ATOM     82  F   UNL A   1      50.069  25.622  27.222  1.00  0.00    -0.200 F 
ATOM     83  C   UNL A   1      49.341  26.497  25.153  1.00  0.00     0.200 A 
ATOM     84  F   UNL A   1      48.579  27.398  23.109  1.00  0.00    -0.200 F 
ATOM     85  F   UNL A   1      50.400  25.955  24.535  1.00  0.00    -0.200 F 
ENDBRANCH  61  75
BRANCH  62  86
ATOM     86  C   UNL A   1      38.970  31.095  31.023  1.00  0.00     0.064 A 
ATOM     87  C   UNL A   1      38.745  30.749  32.363  1.00  0.00     0.173 A 
ATOM     88  C   UNL A   1      38.026  31.920  30.393  1.00  0.00     0.173 A 
ATOM     89  F   UNL A   1      39.607  29.944  32.999  1.00  0.00    -0.203 F 
ATOM     90  C   UNL A   1      37.614  31.198  33.041  1.00  0.00     0.198 A 
ATOM     91  C   UNL A   1      36.910  32.390  31.081  1.00  0.00     0.198 A 
ATOM     92  F   UNL A   1      38.197  32.281  29.113  1.00  0.00    -0.203 F 
ATOM     93  F   UNL A   1      37.403  30.819  34.309  1.00  0.00    -0.200 F 
ATOM     94  C   UNL A   1      36.701  32.023  32.402  1.00  0.00     0.200 A 
ATOM     95  F   UNL A   1      36.036  33.198  30.465  1.00  0.00    -0.200 F 
ATOM     96  F   UNL A   1      35.616  32.459  33.057  1.00  0.00    -0.200 F 
ENDBRANCH  62  86
BRANCH  74  97
ATOM     97  C   UNL A   1      45.471  33.506  30.295  1.00  0.00     0.064 A 
ATOM     98  C   UNL A   1      46.181  33.547  31.504  1.00  0.00     0.173 A 
ATOM     99  C   UNL A   1      45.472  34.657  29.491  1.00  0.00     0.173 A 
ATOM    100  F   UNL A   1      46.196  32.478  32.314  1.00  0.00    -0.203 F 
ATOM    101  C   UNL A   1      46.858  34.698  31.896  1.00  0.00     0.198 A 
ATOM    102  C   UNL A   1      46.171  35.798  29.875  1.00  0.00     0.198 A 
ATOM    103  F   UNL A   1      44.812  34.666  28.324  1.00  0.00    -0.203 F 
ATOM    104  F   UNL A   1      47.504  34.727  33.069  1.00  0.00    -0.200 F 
ATOM    105  C   UNL A   1      46.860  35.819  31.078  1.00  0.00     0.200 A 
ATOM    106  F   UNL A   1      46.183  36.875  29.078  1.00  0.00    -0.200 F 
ATOM    107  F   UNL A   1      47.525  36.921  31.450  1.00  0.00    -0.200 F 
ENDBRANCH  74  97
ENDBRANCH  48  49
ENDBRANCH  40  43
ENDBRANCH  38  39
ENDBRANCH  37  38
ENDBRANCH  36  37
ENDBRANCH   1  36
TORSDOF 18
ENDMDL
