MODEL 1
REMARK VINA RESULT:     -11.9      0.000      0.000
REMARK SMILES Cc1nc2ncnn2c(O)c1CCC(=O)NCCCCCCNC(=O)c1ccc(-c2c3nc(c(-c4c(F)c(F)c(F)c(F)c4F)c4ccc([nH]4)c(-c4c(F)c(F)c(F)c(F)c4F)c4nc(c(-c5c(F)c(F)c(F)c(F)c5F)c5ccc2[nH]5)C=C4)C=C3)cc1
REMARK SMILES IDX 19 1 18 2 17 3 16 4 14 5 15 6 13 8 12 9 11 10 1 11 2 12 3 13
REMARK SMILES IDX 4 14 9 15 5 16 8 17 6 18 7 19 10 20 20 22 21 23 22 24 23 25
REMARK SMILES IDX 24 26 25 28 26 29 27 30 88 31 28 32 87 33 29 34 30 35 31 36
REMARK SMILES IDX 81 37 32 38 86 39 80 40 82 41 33 42 85 43 79 44 78 45 34 47
REMARK SMILES IDX 66 48 46 49 65 50 47 51 50 52 64 53 83 54 48 55 49 56 63 58
REMARK SMILES IDX 84 59 51 60 35 61 36 62 44 63 37 64 38 65 42 66 45 67 39 68
REMARK SMILES IDX 40 69 43 70 41 71 67 72 68 73 76 74 69 75 70 76 74 77 77 78
REMARK SMILES IDX 71 79 72 80 75 81 73 82 52 83 53 84 61 85 54 86 55 87 59 88
REMARK SMILES IDX 62 89 56 90 57 91 60 92 58 93
REMARK H PARENT 16 7 10 21 23 27 82 46 50 57
REMARK Flexibility Score: inf
ROOT
ATOM      1  C   UNL A   1      40.532  21.977  26.400  1.00  0.00     0.002 C 
ENDROOT
BRANCH   1   2
ATOM      2  C   UNL A   1      39.013  22.174  26.263  1.00  0.00     0.021 C 
BRANCH   2   3
ATOM      3  C   UNL A   1      38.135  21.359  25.299  1.00  0.00     0.116 C 
BRANCH   3   4
ATOM      4  N   UNL A   1      37.669  22.277  24.244  1.00  0.00    -0.356 N 
ATOM      5  C   UNL A   1      36.442  22.666  23.818  1.00  0.00     0.220 C 
ATOM      6  O   UNL A   1      36.337  23.066  22.656  1.00  0.00    -0.275 OA
ATOM      7  H   UNL A   1      38.404  22.698  23.745  1.00  0.00     0.163 HD
BRANCH   5   8
ATOM      8  C   UNL A   1      35.229  22.643  24.717  1.00  0.00     0.105 C 
BRANCH   8   9
ATOM      9  C   UNL A   1      35.341  23.637  25.884  1.00  0.00     0.053 C 
BRANCH   9  10
ATOM     10  C   UNL A   1      33.977  24.091  26.311  1.00  0.00     0.036 A 
ATOM     11  C   UNL A   1      33.644  22.053  27.923  1.00  0.00     0.067 C 
ATOM     12  C   UNL A   1      33.059  23.163  27.082  1.00  0.00     0.050 A 
ATOM     13  N   UNL A   1      31.768  23.269  27.143  1.00  0.00    -0.216 NA
ATOM     14  C   UNL A   1      31.229  24.368  26.566  1.00  0.00     0.255 A 
ATOM     15  C   UNL A   1      33.416  25.265  25.951  1.00  0.00     0.220 A 
ATOM     16  N   UNL A   1      29.962  24.652  26.387  1.00  0.00    -0.197 NA
ATOM     17  N   UNL A   1      32.024  25.410  26.078  1.00  0.00    -0.163 N 
ATOM     18  C   UNL A   1      30.017  25.886  25.846  1.00  0.00     0.249 A 
ATOM     19  N   UNL A   1      31.219  26.410  25.643  1.00  0.00    -0.150 NA
BRANCH  15  20
ATOM     20  O   UNL A   1      34.109  26.282  25.310  1.00  0.00    -0.493 OA
ATOM     21  H   UNL A   1      34.977  26.503  25.583  1.00  0.00     0.295 HD
ENDBRANCH  15  20
ENDBRANCH   9  10
ENDBRANCH   8   9
ENDBRANCH   5   8
ENDBRANCH   3   4
ENDBRANCH   2   3
ENDBRANCH   1   2
BRANCH   1  22
ATOM     22  C   UNL A   1      41.133  21.215  27.581  1.00  0.00     0.002 C 
BRANCH  22  23
ATOM     23  C   UNL A   1      41.924  19.943  27.241  1.00  0.00     0.021 C 
BRANCH  23  24
ATOM     24  C   UNL A   1      42.047  19.596  25.751  1.00  0.00     0.116 C 
BRANCH  24  25
ATOM     25  N   UNL A   1      43.395  19.292  25.285  1.00  0.00    -0.352 N 
ATOM     26  C   UNL A   1      44.416  20.169  24.951  1.00  0.00     0.251 C 
ATOM     27  H   UNL A   1      43.608  18.335  25.193  1.00  0.00     0.163 HD
ATOM     28  O   UNL A   1      45.370  19.777  24.295  1.00  0.00    -0.269 OA
BRANCH  26  29
ATOM     29  C   UNL A   1      44.363  21.591  25.375  1.00  0.00     0.039 A 
ATOM     30  C   UNL A   1      43.655  22.534  24.623  1.00  0.00     0.014 A 
ATOM     31  C   UNL A   1      45.063  22.012  26.501  1.00  0.00     0.014 A 
ATOM     32  C   UNL A   1      43.541  23.849  25.092  1.00  0.00     0.010 A 
ATOM     33  C   UNL A   1      44.894  23.302  27.000  1.00  0.00     0.010 A 
ATOM     34  C   UNL A   1      44.111  24.225  26.324  1.00  0.00    -0.014 A 
BRANCH  34  35
ATOM     35  C   UNL A   1      43.728  25.502  26.955  1.00  0.00     0.031 A 
ATOM     36  C   UNL A   1      44.620  26.637  26.579  1.00  0.00     0.074 A 
ATOM     37  C   UNL A   1      42.607  25.781  27.667  1.00  0.00     0.049 A 
ATOM     38  N   UNL A   1      45.535  27.172  27.317  1.00  0.00    -0.248 NA
ATOM     39  C   UNL A   1      44.598  27.149  25.199  1.00  0.00     0.031 C 
ATOM     40  C   UNL A   1      41.418  24.944  27.850  1.00  0.00     0.029 A 
ATOM     41  N   UNL A   1      42.262  26.932  28.337  1.00  0.00    -0.354 N 
ATOM     42  C   UNL A   1      46.044  28.240  26.584  1.00  0.00     0.074 A 
ATOM     43  C   UNL A   1      45.574  28.062  25.237  1.00  0.00     0.031 C 
ATOM     44  C   UNL A   1      40.411  25.680  28.375  1.00  0.00     0.029 A 
ATOM     45  C   UNL A   1      40.933  26.979  28.756  1.00  0.00     0.049 A 
ATOM     46  H   UNL A   1      42.900  27.661  28.507  1.00  0.00     0.167 HD
ATOM     47  C   UNL A   1      46.553  29.323  27.239  1.00  0.00     0.037 A 
ATOM     48  C   UNL A   1      40.303  27.989  29.407  1.00  0.00     0.037 A 
ATOM     49  C   UNL A   1      46.715  29.030  28.640  1.00  0.00     0.049 A 
ATOM     50  C   UNL A   1      41.333  28.775  30.116  1.00  0.00     0.074 A 
ATOM     51  C   UNL A   1      47.609  28.364  29.446  1.00  0.00     0.029 A 
ATOM     52  N   UNL A   1      45.561  29.186  29.353  1.00  0.00    -0.354 N 
ATOM     53  N   UNL A   1      42.025  28.321  31.123  1.00  0.00    -0.248 NA
ATOM     54  C   UNL A   1      41.810  30.024  29.530  1.00  0.00     0.031 C 
ATOM     55  C   UNL A   1      46.907  28.044  30.648  1.00  0.00     0.029 A 
ATOM     56  C   UNL A   1      45.615  28.554  30.560  1.00  0.00     0.049 A 
ATOM     57  H   UNL A   1      44.781  29.695  29.033  1.00  0.00     0.167 HD
ATOM     58  C   UNL A   1      43.232  28.972  31.010  1.00  0.00     0.074 A 
ATOM     59  C   UNL A   1      42.984  30.123  30.155  1.00  0.00     0.031 C 
ATOM     60  C   UNL A   1      44.396  28.328  31.298  1.00  0.00     0.037 A 
BRANCH  47  61
ATOM     61  C   UNL A   1      46.417  30.770  26.799  1.00  0.00     0.064 A 
ATOM     62  C   UNL A   1      47.555  31.607  26.869  1.00  0.00     0.173 A 
ATOM     63  C   UNL A   1      45.186  31.440  26.651  1.00  0.00     0.173 A 
ATOM     64  F   UNL A   1      48.781  31.085  27.033  1.00  0.00    -0.203 F 
ATOM     65  C   UNL A   1      47.454  33.002  26.869  1.00  0.00     0.198 A 
ATOM     66  C   UNL A   1      45.095  32.832  26.599  1.00  0.00     0.198 A 
ATOM     67  F   UNL A   1      44.016  30.794  26.667  1.00  0.00    -0.203 F 
ATOM     68  F   UNL A   1      48.548  33.750  27.065  1.00  0.00    -0.200 F 
ATOM     69  C   UNL A   1      46.222  33.614  26.740  1.00  0.00     0.200 A 
ATOM     70  F   UNL A   1      43.888  33.410  26.502  1.00  0.00    -0.200 F 
ATOM     71  F   UNL A   1      46.114  34.947  26.796  1.00  0.00    -0.200 F 
ENDBRANCH  47  61
BRANCH  48  72
ATOM     72  C   UNL A   1      38.892  28.451  29.365  1.00  0.00     0.064 A 
ATOM     73  C   UNL A   1      38.127  28.547  30.543  1.00  0.00     0.173 A 
ATOM     74  C   UNL A   1      38.387  29.124  28.238  1.00  0.00     0.173 A 
ATOM     75  F   UNL A   1      38.544  27.953  31.671  1.00  0.00    -0.203 F 
ATOM     76  C   UNL A   1      36.970  29.330  30.611  1.00  0.00     0.198 A 
ATOM     77  C   UNL A   1      37.226  29.902  28.305  1.00  0.00     0.198 A 
ATOM     78  F   UNL A   1      39.065  29.126  27.082  1.00  0.00    -0.203 F 
ATOM     79  F   UNL A   1      36.323  29.468  31.777  1.00  0.00    -0.200 F 
ATOM     80  C   UNL A   1      36.533  30.024  29.497  1.00  0.00     0.200 A 
ATOM     81  F   UNL A   1      36.827  30.594  27.230  1.00  0.00    -0.200 F 
ATOM     82  F   UNL A   1      35.475  30.843  29.582  1.00  0.00    -0.200 F 
ENDBRANCH  48  72
BRANCH  60  83
ATOM     83  C   UNL A   1      44.372  27.222  32.297  1.00  0.00     0.064 A 
ATOM     84  C   UNL A   1      44.266  25.859  31.984  1.00  0.00     0.173 A 
ATOM     85  C   UNL A   1      44.596  27.573  33.635  1.00  0.00     0.173 A 
ATOM     86  F   UNL A   1      44.099  25.450  30.719  1.00  0.00    -0.203 F 
ATOM     87  C   UNL A   1      44.389  24.890  32.980  1.00  0.00     0.198 A 
ATOM     88  C   UNL A   1      44.751  26.605  34.618  1.00  0.00     0.198 A 
ATOM     89  F   UNL A   1      44.721  28.865  33.977  1.00  0.00    -0.203 F 
ATOM     90  F   UNL A   1      44.293  23.589  32.668  1.00  0.00    -0.200 F 
ATOM     91  C   UNL A   1      44.648  25.264  34.291  1.00  0.00     0.200 A 
ATOM     92  F   UNL A   1      45.035  26.974  35.875  1.00  0.00    -0.200 F 
ATOM     93  F   UNL A   1      44.819  24.331  35.237  1.00  0.00    -0.200 F 
ENDBRANCH  60  83
ENDBRANCH  34  35
ENDBRANCH  26  29
ENDBRANCH  24  25
ENDBRANCH  23  24
ENDBRANCH  22  23
ENDBRANCH   1  22
TORSDOF 16
ENDMDL
MODEL 2
REMARK VINA RESULT:     -11.8      1.201      2.038
REMARK SMILES Cc1nc2ncnn2c(O)c1CCC(=O)NCCCCCCNC(=O)c1ccc(-c2c3nc(c(-c4c(F)c(F)c(F)c(F)c4F)c4ccc([nH]4)c(-c4c(F)c(F)c(F)c(F)c4F)c4nc(c(-c5c(F)c(F)c(F)c(F)c5F)c5ccc2[nH]5)C=C4)C=C3)cc1
REMARK SMILES IDX 19 1 18 2 17 3 16 4 14 5 15 6 13 8 12 9 11 10 1 11 2 12 3 13
REMARK SMILES IDX 4 14 9 15 5 16 8 17 6 18 7 19 10 20 20 22 21 23 22 24 23 25
REMARK SMILES IDX 24 26 25 28 26 29 27 30 88 31 28 32 87 33 29 34 30 35 31 36
REMARK SMILES IDX 81 37 32 38 86 39 80 40 82 41 33 42 85 43 79 44 78 45 34 47
REMARK SMILES IDX 66 48 46 49 65 50 47 51 50 52 64 53 83 54 48 55 49 56 63 58
REMARK SMILES IDX 84 59 51 60 35 61 36 62 44 63 37 64 38 65 42 66 45 67 39 68
REMARK SMILES IDX 40 69 43 70 41 71 67 72 68 73 76 74 69 75 70 76 74 77 77 78
REMARK SMILES IDX 71 79 72 80 75 81 73 82 52 83 53 84 61 85 54 86 55 87 59 88
REMARK SMILES IDX 62 89 56 90 57 91 60 92 58 93
REMARK H PARENT 16 7 10 21 23 27 82 46 50 57
REMARK Flexibility Score: inf
ROOT
ATOM      1  C   UNL A   1      40.206  21.545  26.081  1.00  0.00     0.002 C 
ENDROOT
BRANCH   1   2
ATOM      2  C   UNL A   1      38.691  21.658  25.843  1.00  0.00     0.021 C 
BRANCH   2   3
ATOM      3  C   UNL A   1      37.921  22.988  25.903  1.00  0.00     0.116 C 
BRANCH   3   4
ATOM      4  N   UNL A   1      36.549  22.683  26.348  1.00  0.00    -0.356 N 
ATOM      5  C   UNL A   1      35.362  23.327  26.232  1.00  0.00     0.220 C 
ATOM      6  O   UNL A   1      34.492  23.086  27.071  1.00  0.00    -0.275 OA
ATOM      7  H   UNL A   1      36.481  21.829  26.832  1.00  0.00     0.163 HD
BRANCH   5   8
ATOM      8  C   UNL A   1      35.076  24.297  25.109  1.00  0.00     0.105 C 
BRANCH   8   9
ATOM      9  C   UNL A   1      33.615  24.237  24.637  1.00  0.00     0.053 C 
BRANCH   9  10
ATOM     10  C   UNL A   1      32.917  25.528  24.947  1.00  0.00     0.036 A 
ATOM     11  C   UNL A   1      33.480  26.564  22.608  1.00  0.00     0.067 C 
ATOM     12  C   UNL A   1      33.106  26.742  24.061  1.00  0.00     0.050 A 
ATOM     13  N   UNL A   1      32.912  27.972  24.425  1.00  0.00    -0.216 NA
ATOM     14  C   UNL A   1      32.385  28.156  25.658  1.00  0.00     0.255 A 
ATOM     15  C   UNL A   1      32.194  25.755  26.065  1.00  0.00     0.220 A 
ATOM     16  N   UNL A   1      32.203  29.282  26.303  1.00  0.00    -0.197 NA
ATOM     17  N   UNL A   1      31.922  27.084  26.430  1.00  0.00    -0.163 N 
ATOM     18  C   UNL A   1      31.582  28.873  27.428  1.00  0.00     0.249 A 
ATOM     19  N   UNL A   1      31.369  27.570  27.568  1.00  0.00    -0.150 NA
BRANCH  15  20
ATOM     20  O   UNL A   1      31.841  24.760  26.966  1.00  0.00    -0.493 OA
ATOM     21  H   UNL A   1      31.083  24.235  26.810  1.00  0.00     0.295 HD
ENDBRANCH  15  20
ENDBRANCH   9  10
ENDBRANCH   8   9
ENDBRANCH   5   8
ENDBRANCH   3   4
ENDBRANCH   2   3
ENDBRANCH   1   2
BRANCH   1  22
ATOM     22  C   UNL A   1      40.798  20.414  26.923  1.00  0.00     0.002 C 
BRANCH  22  23
ATOM     23  C   UNL A   1      41.557  19.320  26.158  1.00  0.00     0.021 C 
BRANCH  23  24
ATOM     24  C   UNL A   1      42.977  19.006  26.650  1.00  0.00     0.116 C 
BRANCH  24  25
ATOM     25  N   UNL A   1      43.988  18.868  25.609  1.00  0.00    -0.352 N 
ATOM     26  C   UNL A   1      44.581  19.857  24.837  1.00  0.00     0.251 C 
ATOM     27  H   UNL A   1      44.290  17.949  25.427  1.00  0.00     0.163 HD
ATOM     28  O   UNL A   1      45.176  19.561  23.811  1.00  0.00    -0.269 OA
BRANCH  26  29
ATOM     29  C   UNL A   1      44.495  21.284  25.239  1.00  0.00     0.039 A 
ATOM     30  C   UNL A   1      43.581  22.145  24.623  1.00  0.00     0.014 A 
ATOM     31  C   UNL A   1      45.363  21.795  26.198  1.00  0.00     0.014 A 
ATOM     32  C   UNL A   1      43.453  23.462  25.082  1.00  0.00     0.010 A 
ATOM     33  C   UNL A   1      45.190  23.084  26.697  1.00  0.00     0.010 A 
ATOM     34  C   UNL A   1      44.218  23.922  26.172  1.00  0.00    -0.014 A 
BRANCH  34  35
ATOM     35  C   UNL A   1      43.862  25.185  26.843  1.00  0.00     0.031 A 
ATOM     36  C   UNL A   1      44.770  26.316  26.494  1.00  0.00     0.074 A 
ATOM     37  C   UNL A   1      42.752  25.462  27.573  1.00  0.00     0.049 A 
ATOM     38  N   UNL A   1      45.700  26.813  27.238  1.00  0.00    -0.248 NA
ATOM     39  C   UNL A   1      44.746  26.869  25.129  1.00  0.00     0.031 C 
ATOM     40  C   UNL A   1      41.550  24.641  27.741  1.00  0.00     0.029 A 
ATOM     41  N   UNL A   1      42.432  26.599  28.279  1.00  0.00    -0.354 N 
ATOM     42  C   UNL A   1      46.221  27.894  26.533  1.00  0.00     0.074 A 
ATOM     43  C   UNL A   1      45.738  27.764  25.185  1.00  0.00     0.031 C 
ATOM     44  C   UNL A   1      40.560  25.378  28.296  1.00  0.00     0.029 A 
ATOM     45  C   UNL A   1      41.107  26.656  28.710  1.00  0.00     0.049 A 
ATOM     46  H   UNL A   1      43.084  27.312  28.465  1.00  0.00     0.167 HD
ATOM     47  C   UNL A   1      46.753  28.948  27.215  1.00  0.00     0.037 A 
ATOM     48  C   UNL A   1      40.499  27.657  29.397  1.00  0.00     0.037 A 
ATOM     49  C   UNL A   1      46.922  28.612  28.605  1.00  0.00     0.049 A 
ATOM     50  C   UNL A   1      41.549  28.404  30.119  1.00  0.00     0.074 A 
ATOM     51  C   UNL A   1      47.811  27.908  29.384  1.00  0.00     0.029 A 
ATOM     52  N   UNL A   1      45.776  28.766  29.332  1.00  0.00    -0.354 N 
ATOM     53  N   UNL A   1      42.241  27.909  31.107  1.00  0.00    -0.248 NA
ATOM     54  C   UNL A   1      42.042  29.662  29.566  1.00  0.00     0.031 C 
ATOM     55  C   UNL A   1      47.113  27.564  30.581  1.00  0.00     0.029 A 
ATOM     56  C   UNL A   1      45.830  28.098  30.520  1.00  0.00     0.049 A 
ATOM     57  H   UNL A   1      45.003  29.297  29.034  1.00  0.00     0.167 HD
ATOM     58  C   UNL A   1      43.458  28.542  31.002  1.00  0.00     0.074 A 
ATOM     59  C   UNL A   1      43.223  29.722  30.183  1.00  0.00     0.031 C 
ATOM     60  C   UNL A   1      44.613  27.871  31.262  1.00  0.00     0.037 A 
BRANCH  47  61
ATOM     61  C   UNL A   1      46.639  30.410  26.819  1.00  0.00     0.064 A 
ATOM     62  C   UNL A   1      47.786  31.230  26.925  1.00  0.00     0.173 A 
ATOM     63  C   UNL A   1      45.418  31.099  26.680  1.00  0.00     0.173 A 
ATOM     64  F   UNL A   1      49.004  30.689  27.083  1.00  0.00    -0.203 F 
ATOM     65  C   UNL A   1      47.702  32.626  26.967  1.00  0.00     0.198 A 
ATOM     66  C   UNL A   1      45.343  32.493  26.671  1.00  0.00     0.198 A 
ATOM     67  F   UNL A   1      44.240  30.467  26.666  1.00  0.00    -0.203 F 
ATOM     68  F   UNL A   1      48.803  33.354  27.196  1.00  0.00    -0.200 F 
ATOM     69  C   UNL A   1      46.479  33.257  26.845  1.00  0.00     0.200 A 
ATOM     70  F   UNL A   1      44.144  33.088  26.581  1.00  0.00    -0.200 F 
ATOM     71  F   UNL A   1      46.385  34.589  26.942  1.00  0.00    -0.200 F 
ENDBRANCH  47  61
BRANCH  48  72
ATOM     72  C   UNL A   1      39.097  28.144  29.380  1.00  0.00     0.064 A 
ATOM     73  C   UNL A   1      38.357  28.261  30.573  1.00  0.00     0.173 A 
ATOM     74  C   UNL A   1      38.580  28.818  28.259  1.00  0.00     0.173 A 
ATOM     75  F   UNL A   1      38.788  27.666  31.696  1.00  0.00    -0.203 F 
ATOM     76  C   UNL A   1      37.216  29.064  30.659  1.00  0.00     0.198 A 
ATOM     77  C   UNL A   1      37.435  29.617  28.345  1.00  0.00     0.198 A 
ATOM     78  F   UNL A   1      39.234  28.800  27.090  1.00  0.00    -0.203 F 
ATOM     79  F   UNL A   1      36.596  29.222  31.837  1.00  0.00    -0.200 F 
ATOM     80  C   UNL A   1      36.769  29.758  29.550  1.00  0.00     0.200 A 
ATOM     81  F   UNL A   1      37.026  30.309  27.273  1.00  0.00    -0.200 F 
ATOM     82  F   UNL A   1      35.727  30.597  29.650  1.00  0.00    -0.200 F 
ENDBRANCH  48  72
BRANCH  60  83
ATOM     83  C   UNL A   1      44.579  26.736  32.227  1.00  0.00     0.064 A 
ATOM     84  C   UNL A   1      44.524  26.870  33.622  1.00  0.00     0.173 A 
ATOM     85  C   UNL A   1      44.471  25.448  31.686  1.00  0.00     0.173 A 
ATOM     86  F   UNL A   1      44.574  28.075  34.205  1.00  0.00    -0.203 F 
ATOM     87  C   UNL A   1      44.359  25.749  34.436  1.00  0.00     0.198 A 
ATOM     88  C   UNL A   1      44.273  24.339  32.497  1.00  0.00     0.198 A 
ATOM     89  F   UNL A   1      44.502  25.276  30.355  1.00  0.00    -0.203 F 
ATOM     90  F   UNL A   1      44.301  25.889  35.769  1.00  0.00    -0.200 F 
ATOM     91  C   UNL A   1      44.217  24.489  33.872  1.00  0.00     0.200 A 
ATOM     92  F   UNL A   1      44.103  23.131  31.942  1.00  0.00    -0.200 F 
ATOM     93  F   UNL A   1      44.004  23.421  34.653  1.00  0.00    -0.200 F 
ENDBRANCH  60  83
ENDBRANCH  34  35
ENDBRANCH  26  29
ENDBRANCH  24  25
ENDBRANCH  23  24
ENDBRANCH  22  23
ENDBRANCH   1  22
TORSDOF 16
ENDMDL
MODEL 3
REMARK VINA RESULT:     -11.6      1.556      2.506
REMARK SMILES Cc1nc2ncnn2c(O)c1CCC(=O)NCCCCCCNC(=O)c1ccc(-c2c3nc(c(-c4c(F)c(F)c(F)c(F)c4F)c4ccc([nH]4)c(-c4c(F)c(F)c(F)c(F)c4F)c4nc(c(-c5c(F)c(F)c(F)c(F)c5F)c5ccc2[nH]5)C=C4)C=C3)cc1
REMARK SMILES IDX 19 1 18 2 17 3 16 4 14 5 15 6 13 8 12 9 11 10 1 11 2 12 3 13
REMARK SMILES IDX 4 14 9 15 5 16 8 17 6 18 7 19 10 20 20 22 21 23 22 24 23 25
REMARK SMILES IDX 24 26 25 28 26 29 27 30 88 31 28 32 87 33 29 34 30 35 31 36
REMARK SMILES IDX 81 37 32 38 86 39 80 40 82 41 33 42 85 43 79 44 78 45 34 47
REMARK SMILES IDX 66 48 46 49 65 50 47 51 50 52 64 53 83 54 48 55 49 56 63 58
REMARK SMILES IDX 84 59 51 60 35 61 36 62 44 63 37 64 38 65 42 66 45 67 39 68
REMARK SMILES IDX 40 69 43 70 41 71 67 72 68 73 76 74 69 75 70 76 74 77 77 78
REMARK SMILES IDX 71 79 72 80 75 81 73 82 52 83 53 84 61 85 54 86 55 87 59 88
REMARK SMILES IDX 62 89 56 90 57 91 60 92 58 93
REMARK H PARENT 16 7 10 21 23 27 82 46 50 57
REMARK Flexibility Score: inf
ROOT
ATOM      1  C   UNL A   1      40.710  22.092  26.322  1.00  0.00     0.002 C 
ENDROOT
BRANCH   1   2
ATOM      2  C   UNL A   1      39.403  22.902  26.282  1.00  0.00     0.021 C 
BRANCH   2   3
ATOM      3  C   UNL A   1      38.034  22.287  25.948  1.00  0.00     0.116 C 
BRANCH   3   4
ATOM      4  N   UNL A   1      37.665  22.741  24.595  1.00  0.00    -0.356 N 
ATOM      5  C   UNL A   1      36.484  23.015  23.990  1.00  0.00     0.220 C 
ATOM      6  O   UNL A   1      36.433  22.926  22.761  1.00  0.00    -0.275 OA
ATOM      7  H   UNL A   1      38.442  22.874  24.007  1.00  0.00     0.163 HD
BRANCH   5   8
ATOM      8  C   UNL A   1      35.258  23.439  24.764  1.00  0.00     0.105 C 
BRANCH   8   9
ATOM      9  C   UNL A   1      34.865  22.425  25.849  1.00  0.00     0.053 C 
BRANCH   9  10
ATOM     10  C   UNL A   1      34.176  21.245  25.230  1.00  0.00     0.036 A 
ATOM     11  C   UNL A   1      31.940  22.558  24.862  1.00  0.00     0.067 C 
ATOM     12  C   UNL A   1      32.676  21.248  25.019  1.00  0.00     0.050 A 
ATOM     13  N   UNL A   1      31.936  20.190  24.892  1.00  0.00    -0.216 NA
ATOM     14  C   UNL A   1      32.588  19.007  24.827  1.00  0.00     0.255 A 
ATOM     15  C   UNL A   1      34.783  20.074  24.939  1.00  0.00     0.220 A 
ATOM     16  N   UNL A   1      32.080  17.799  24.819  1.00  0.00    -0.197 NA
ATOM     17  N   UNL A   1      33.983  18.937  24.735  1.00  0.00    -0.163 N 
ATOM     18  C   UNL A   1      33.174  17.026  24.664  1.00  0.00     0.249 A 
ATOM     19  N   UNL A   1      34.349  17.639  24.593  1.00  0.00    -0.150 NA
BRANCH  15  20
ATOM     20  O   UNL A   1      36.157  19.887  24.990  1.00  0.00    -0.493 OA
ATOM     21  H   UNL A   1      36.660  19.895  24.200  1.00  0.00     0.295 HD
ENDBRANCH  15  20
ENDBRANCH   9  10
ENDBRANCH   8   9
ENDBRANCH   5   8
ENDBRANCH   3   4
ENDBRANCH   2   3
ENDBRANCH   1   2
BRANCH   1  22
ATOM     22  C   UNL A   1      41.031  21.155  27.485  1.00  0.00     0.002 C 
BRANCH  22  23
ATOM     23  C   UNL A   1      42.118  20.101  27.232  1.00  0.00     0.021 C 
BRANCH  23  24
ATOM     24  C   UNL A   1      42.292  19.637  25.778  1.00  0.00     0.116 C 
BRANCH  24  25
ATOM     25  N   UNL A   1      43.659  19.335  25.373  1.00  0.00    -0.352 N 
ATOM     26  C   UNL A   1      44.690  20.213  25.071  1.00  0.00     0.251 C 
ATOM     27  H   UNL A   1      43.881  18.378  25.303  1.00  0.00     0.163 HD
ATOM     28  O   UNL A   1      45.673  19.818  24.461  1.00  0.00    -0.269 OA
BRANCH  26  29
ATOM     29  C   UNL A   1      44.612  21.640  25.474  1.00  0.00     0.039 A 
ATOM     30  C   UNL A   1      43.889  22.559  24.708  1.00  0.00     0.014 A 
ATOM     31  C   UNL A   1      45.304  22.090  26.595  1.00  0.00     0.014 A 
ATOM     32  C   UNL A   1      43.752  23.879  25.157  1.00  0.00     0.010 A 
ATOM     33  C   UNL A   1      45.113  23.383  27.074  1.00  0.00     0.010 A 
ATOM     34  C   UNL A   1      44.315  24.283  26.384  1.00  0.00    -0.014 A 
BRANCH  34  35
ATOM     35  C   UNL A   1      43.909  25.562  26.996  1.00  0.00     0.031 A 
ATOM     36  C   UNL A   1      44.778  26.707  26.599  1.00  0.00     0.074 A 
ATOM     37  C   UNL A   1      42.786  25.831  27.707  1.00  0.00     0.049 A 
ATOM     38  N   UNL A   1      45.686  27.272  27.324  1.00  0.00    -0.248 NA
ATOM     39  C   UNL A   1      44.742  27.197  25.211  1.00  0.00     0.031 C 
ATOM     40  C   UNL A   1      41.614  24.975  27.908  1.00  0.00     0.029 A 
ATOM     41  N   UNL A   1      42.421  26.986  28.360  1.00  0.00    -0.354 N 
ATOM     42  C   UNL A   1      46.171  28.338  26.572  1.00  0.00     0.074 A 
ATOM     43  C   UNL A   1      45.700  28.129  25.229  1.00  0.00     0.031 C 
ATOM     44  C   UNL A   1      40.595  25.700  28.425  1.00  0.00     0.029 A 
ATOM     45  C   UNL A   1      41.093  27.015  28.783  1.00  0.00     0.049 A 
ATOM     46  H   UNL A   1      43.046  27.730  28.516  1.00  0.00     0.167 HD
ATOM     47  C   UNL A   1      46.661  29.440  27.207  1.00  0.00     0.037 A 
ATOM     48  C   UNL A   1      40.446  28.023  29.420  1.00  0.00     0.037 A 
ATOM     49  C   UNL A   1      46.834  29.174  28.612  1.00  0.00     0.049 A 
ATOM     50  C   UNL A   1      41.463  28.840  30.113  1.00  0.00     0.074 A 
ATOM     51  C   UNL A   1      47.744  28.538  29.425  1.00  0.00     0.029 A 
ATOM     52  N   UNL A   1      45.679  29.319  29.327  1.00  0.00    -0.354 N 
ATOM     53  N   UNL A   1      42.167  28.415  31.124  1.00  0.00    -0.248 NA
ATOM     54  C   UNL A   1      41.914  30.088  29.505  1.00  0.00     0.031 C 
ATOM     55  C   UNL A   1      47.052  28.224  30.635  1.00  0.00     0.029 A 
ATOM     56  C   UNL A   1      45.750  28.708  30.544  1.00  0.00     0.049 A 
ATOM     57  H   UNL A   1      44.889  29.808  29.002  1.00  0.00     0.167 HD
ATOM     58  C   UNL A   1      43.361  29.087  30.996  1.00  0.00     0.074 A 
ATOM     59  C   UNL A   1      43.089  30.220  30.123  1.00  0.00     0.031 C 
ATOM     60  C   UNL A   1      44.538  28.470  31.290  1.00  0.00     0.037 A 
BRANCH  47  61
ATOM     61  C   UNL A   1      46.496  30.877  26.745  1.00  0.00     0.064 A 
ATOM     62  C   UNL A   1      47.617  31.738  26.802  1.00  0.00     0.173 A 
ATOM     63  C   UNL A   1      45.252  31.520  26.585  1.00  0.00     0.173 A 
ATOM     64  F   UNL A   1      48.853  31.244  26.975  1.00  0.00    -0.203 F 
ATOM     65  C   UNL A   1      47.487  33.131  26.780  1.00  0.00     0.198 A 
ATOM     66  C   UNL A   1      45.132  32.909  26.512  1.00  0.00     0.198 A 
ATOM     67  F   UNL A   1      44.095  30.851  26.610  1.00  0.00    -0.203 F 
ATOM     68  F   UNL A   1      48.566  33.904  26.966  1.00  0.00    -0.200 F 
ATOM     69  C   UNL A   1      46.244  33.716  26.640  1.00  0.00     0.200 A 
ATOM     70  F   UNL A   1      43.914  33.460  26.404  1.00  0.00    -0.200 F 
ATOM     71  F   UNL A   1      46.107  35.047  26.676  1.00  0.00    -0.200 F 
ENDBRANCH  47  61
BRANCH  48  72
ATOM     72  C   UNL A   1      39.026  28.458  29.376  1.00  0.00     0.064 A 
ATOM     73  C   UNL A   1      38.266  28.566  30.556  1.00  0.00     0.173 A 
ATOM     74  C   UNL A   1      38.502  29.095  28.237  1.00  0.00     0.173 A 
ATOM     75  F   UNL A   1      38.701  28.005  31.695  1.00  0.00    -0.203 F 
ATOM     76  C   UNL A   1      37.095  29.327  30.613  1.00  0.00     0.198 A 
ATOM     77  C   UNL A   1      37.327  29.852  28.294  1.00  0.00     0.198 A 
ATOM     78  F   UNL A   1      39.174  29.083  27.078  1.00  0.00    -0.203 F 
ATOM     79  F   UNL A   1      36.452  29.480  31.780  1.00  0.00    -0.200 F 
ATOM     80  C   UNL A   1      36.638  29.988  29.487  1.00  0.00     0.200 A 
ATOM     81  F   UNL A   1      36.909  30.512  27.205  1.00  0.00    -0.200 F 
ATOM     82  F   UNL A   1      35.566  30.788  29.559  1.00  0.00    -0.200 F 
ENDBRANCH  48  72
BRANCH  60  83
ATOM     83  C   UNL A   1      44.539  27.380  32.306  1.00  0.00     0.064 A 
ATOM     84  C   UNL A   1      44.466  27.575  33.693  1.00  0.00     0.173 A 
ATOM     85  C   UNL A   1      44.487  26.066  31.823  1.00  0.00     0.173 A 
ATOM     86  F   UNL A   1      44.464  28.806  34.221  1.00  0.00    -0.203 F 
ATOM     87  C   UNL A   1      44.337  26.486  34.556  1.00  0.00     0.198 A 
ATOM     88  C   UNL A   1      44.325  24.988  32.683  1.00  0.00     0.198 A 
ATOM     89  F   UNL A   1      44.537  25.834  30.502  1.00  0.00    -0.203 F 
ATOM     90  F   UNL A   1      44.262  26.684  35.881  1.00  0.00    -0.200 F 
ATOM     91  C   UNL A   1      44.251  25.198  34.049  1.00  0.00     0.200 A 
ATOM     92  F   UNL A   1      44.208  23.750  32.182  1.00  0.00    -0.200 F 
ATOM     93  F   UNL A   1      44.073  24.158  34.876  1.00  0.00    -0.200 F 
ENDBRANCH  60  83
ENDBRANCH  34  35
ENDBRANCH  26  29
ENDBRANCH  24  25
ENDBRANCH  23  24
ENDBRANCH  22  23
ENDBRANCH   1  22
TORSDOF 16
ENDMDL
