MODEL 1
REMARK VINA RESULT:     -11.3      0.000      0.000
REMARK SMILES C=C(C)CN(CC)c1ccc(F)cc1C(=O)NCCCCCCNC(=O)c1ccc(-c2c3nc(c(-c4c(F)c(F)c(F)c(F)c4F)c4ccc([nH]4)c(-c4c(F)c(F)c(F)c(F)c4F)c4nc(c(-c5c(F)c(F)c(F)c(F)c5F)c5ccc2[nH]5)C=C4)C=C3)cc1
REMARK SMILES IDX 20 1 19 2 18 3 17 4 15 5 16 6 14 8 8 9 9 10 10 11 13 12
REMARK SMILES IDX 11 13 12 14 5 15 4 16 2 17 1 18 3 19 6 20 7 21 21 22 22 23
REMARK SMILES IDX 23 24 24 25 25 26 26 28 27 29 28 30 89 31 29 32 88 33 30 34
REMARK SMILES IDX 31 35 32 36 82 37 33 38 87 39 81 40 83 41 34 42 86 43 80 44
REMARK SMILES IDX 79 45 35 47 67 48 47 49 66 50 48 51 51 52 65 53 84 54 49 55
REMARK SMILES IDX 50 56 64 58 85 59 52 60 36 61 37 62 45 63 38 64 39 65 43 66
REMARK SMILES IDX 46 67 40 68 41 69 44 70 42 71 68 72 69 73 77 74 70 75 71 76
REMARK SMILES IDX 75 77 78 78 72 79 73 80 76 81 74 82 53 83 54 84 62 85 55 86
REMARK SMILES IDX 56 87 60 88 63 89 57 90 58 91 61 92 59 93
REMARK H PARENT 17 7 24 27 83 46 51 57
REMARK Flexibility Score: inf
ROOT
ATOM      1  C   UNL A   1      32.047  29.565  26.873  1.00  0.00     0.002 C 
ENDROOT
BRANCH   1   2
ATOM      2  C   UNL A   1      33.415  28.933  26.586  1.00  0.00     0.021 C 
BRANCH   2   3
ATOM      3  C   UNL A   1      33.394  27.469  26.173  1.00  0.00     0.116 C 
BRANCH   3   4
ATOM      4  N   UNL A   1      33.844  27.164  24.847  1.00  0.00    -0.352 N 
ATOM      5  C   UNL A   1      33.090  27.067  23.698  1.00  0.00     0.253 C 
ATOM      6  O   UNL A   1      33.702  26.897  22.641  1.00  0.00    -0.269 OA
ATOM      7  H   UNL A   1      34.810  27.004  24.745  1.00  0.00     0.163 HD
BRANCH   5   8
ATOM      8  C   UNL A   1      31.587  27.056  23.664  1.00  0.00     0.066 A 
ATOM      9  C   UNL A   1      30.694  25.995  23.983  1.00  0.00     0.050 A 
ATOM     10  C   UNL A   1      29.307  26.266  23.878  1.00  0.00     0.030 A 
ATOM     11  C   UNL A   1      28.805  27.509  23.497  1.00  0.00     0.041 A 
ATOM     12  C   UNL A   1      31.057  28.323  23.323  1.00  0.00     0.055 A 
ATOM     13  C   UNL A   1      29.689  28.534  23.240  1.00  0.00     0.124 A 
ATOM     14  F   UNL A   1      29.220  29.746  22.918  1.00  0.00    -0.207 F 
BRANCH   9  15
ATOM     15  N   UNL A   1      31.064  24.738  24.461  1.00  0.00    -0.367 N 
BRANCH  15  16
ATOM     16  C   UNL A   1      30.950  23.558  23.585  1.00  0.00     0.146 C 
BRANCH  16  17
ATOM     17  C   UNL A   1      32.234  22.872  23.201  1.00  0.00    -0.061 C 
ATOM     18  C   UNL A   1      32.673  21.734  23.765  1.00  0.00     0.009 C 
ATOM     19  C   UNL A   1      33.060  23.614  22.184  1.00  0.00     0.041 C 
ENDBRANCH  16  17
ENDBRANCH  15  16
BRANCH  15  20
ATOM     20  C   UNL A   1      31.183  24.530  25.912  1.00  0.00     0.113 C 
ATOM     21  C   UNL A   1      30.549  23.242  26.417  1.00  0.00     0.027 C 
ENDBRANCH  15  20
ENDBRANCH   9  15
ENDBRANCH   5   8
ENDBRANCH   3   4
ENDBRANCH   2   3
ENDBRANCH   1   2
BRANCH   1  22
ATOM     22  C   UNL A   1      31.604  30.754  26.010  1.00  0.00     0.002 C 
BRANCH  22  23
ATOM     23  C   UNL A   1      31.378  32.099  26.701  1.00  0.00     0.021 C 
BRANCH  23  24
ATOM     24  C   UNL A   1      32.612  32.821  27.225  1.00  0.00     0.116 C 
BRANCH  24  25
ATOM     25  N   UNL A   1      32.350  34.184  27.649  1.00  0.00    -0.352 N 
ATOM     26  C   UNL A   1      32.986  34.952  28.593  1.00  0.00     0.251 C 
ATOM     27  H   UNL A   1      31.601  34.626  27.190  1.00  0.00     0.163 HD
ATOM     28  O   UNL A   1      32.550  36.070  28.862  1.00  0.00    -0.269 OA
BRANCH  26  29
ATOM     29  C   UNL A   1      34.167  34.436  29.326  1.00  0.00     0.039 A 
ATOM     30  C   UNL A   1      33.966  33.837  30.573  1.00  0.00     0.014 A 
ATOM     31  C   UNL A   1      35.462  34.548  28.812  1.00  0.00     0.014 A 
ATOM     32  C   UNL A   1      35.048  33.293  31.271  1.00  0.00     0.010 A 
ATOM     33  C   UNL A   1      36.529  33.938  29.472  1.00  0.00     0.010 A 
ATOM     34  C   UNL A   1      36.334  33.302  30.707  1.00  0.00    -0.014 A 
BRANCH  34  35
ATOM     35  C   UNL A   1      37.478  32.645  31.393  1.00  0.00     0.031 A 
ATOM     36  C   UNL A   1      38.208  31.506  30.735  1.00  0.00     0.074 A 
ATOM     37  C   UNL A   1      37.832  33.045  32.631  1.00  0.00     0.049 A 
ATOM     38  N   UNL A   1      39.183  30.769  31.203  1.00  0.00    -0.248 NA
ATOM     39  C   UNL A   1      37.772  31.131  29.380  1.00  0.00     0.031 C 
ATOM     40  C   UNL A   1      37.186  34.117  33.388  1.00  0.00     0.029 A 
ATOM     41  N   UNL A   1      38.820  32.594  33.473  1.00  0.00    -0.354 N 
ATOM     42  C   UNL A   1      39.472  29.845  30.207  1.00  0.00     0.074 A 
ATOM     43  C   UNL A   1      38.534  30.076  29.130  1.00  0.00     0.031 C 
ATOM     44  C   UNL A   1      37.811  34.263  34.567  1.00  0.00     0.029 A 
ATOM     45  C   UNL A   1      38.873  33.266  34.671  1.00  0.00     0.049 A 
ATOM     46  H   UNL A   1      39.433  31.860  33.240  1.00  0.00     0.167 HD
ATOM     47  C   UNL A   1      40.450  28.909  30.182  1.00  0.00     0.037 A 
ATOM     48  C   UNL A   1      39.680  33.094  35.737  1.00  0.00     0.037 A 
ATOM     49  C   UNL A   1      41.399  28.700  31.244  1.00  0.00     0.049 A 
ATOM     50  C   UNL A   1      40.737  32.024  35.695  1.00  0.00     0.074 A 
ATOM     51  C   UNL A   1      42.452  27.802  31.289  1.00  0.00     0.029 A 
ATOM     52  N   UNL A   1      41.413  29.395  32.443  1.00  0.00    -0.354 N 
ATOM     53  N   UNL A   1      41.028  31.188  34.729  1.00  0.00    -0.248 NA
ATOM     54  C   UNL A   1      41.578  31.871  36.890  1.00  0.00     0.031 C 
ATOM     55  C   UNL A   1      43.071  27.919  32.536  1.00  0.00     0.029 A 
ATOM     56  C   UNL A   1      42.444  28.929  33.245  1.00  0.00     0.049 A 
ATOM     57  H   UNL A   1      40.786  30.113  32.689  1.00  0.00     0.167 HD
ATOM     58  C   UNL A   1      42.101  30.434  35.184  1.00  0.00     0.074 A 
ATOM     59  C   UNL A   1      42.419  30.919  36.511  1.00  0.00     0.031 C 
ATOM     60  C   UNL A   1      42.761  29.430  34.558  1.00  0.00     0.037 A 
BRANCH  47  61
ATOM     61  C   UNL A   1      40.569  28.044  28.962  1.00  0.00     0.064 A 
ATOM     62  C   UNL A   1      41.341  28.458  27.865  1.00  0.00     0.173 A 
ATOM     63  C   UNL A   1      39.839  26.851  28.837  1.00  0.00     0.173 A 
ATOM     64  F   UNL A   1      42.051  29.594  27.929  1.00  0.00    -0.203 F 
ATOM     65  C   UNL A   1      41.360  27.721  26.684  1.00  0.00     0.198 A 
ATOM     66  C   UNL A   1      39.886  26.102  27.665  1.00  0.00     0.198 A 
ATOM     67  F   UNL A   1      39.094  26.407  29.860  1.00  0.00    -0.203 F 
ATOM     68  F   UNL A   1      42.071  28.160  25.635  1.00  0.00    -0.200 F 
ATOM     69  C   UNL A   1      40.635  26.544  26.585  1.00  0.00     0.200 A 
ATOM     70  F   UNL A   1      39.202  24.952  27.579  1.00  0.00    -0.200 F 
ATOM     71  F   UNL A   1      40.657  25.836  25.448  1.00  0.00    -0.200 F 
ENDBRANCH  47  61
BRANCH  48  72
ATOM     72  C   UNL A   1      39.536  33.980  36.924  1.00  0.00     0.064 A 
ATOM     73  C   UNL A   1      40.163  35.233  36.983  1.00  0.00     0.173 A 
ATOM     74  C   UNL A   1      38.774  33.580  38.030  1.00  0.00     0.173 A 
ATOM     75  F   UNL A   1      40.906  35.663  35.954  1.00  0.00    -0.203 F 
ATOM     76  C   UNL A   1      40.047  36.044  38.111  1.00  0.00     0.198 A 
ATOM     77  C   UNL A   1      38.634  34.404  39.145  1.00  0.00     0.198 A 
ATOM     78  F   UNL A   1      38.137  32.400  38.012  1.00  0.00    -0.203 F 
ATOM     79  F   UNL A   1      40.685  37.222  38.156  1.00  0.00    -0.200 F 
ATOM     80  C   UNL A   1      39.277  35.632  39.189  1.00  0.00     0.200 A 
ATOM     81  F   UNL A   1      37.866  34.014  40.171  1.00  0.00    -0.200 F 
ATOM     82  F   UNL A   1      39.151  36.420  40.265  1.00  0.00    -0.200 F 
ENDBRANCH  48  72
BRANCH  60  83
ATOM     83  C   UNL A   1      43.918  28.796  35.274  1.00  0.00     0.064 A 
ATOM     84  C   UNL A   1      45.230  29.227  35.021  1.00  0.00     0.173 A 
ATOM     85  C   UNL A   1      43.741  27.706  36.137  1.00  0.00     0.173 A 
ATOM     86  F   UNL A   1      45.455  30.262  34.197  1.00  0.00    -0.203 F 
ATOM     87  C   UNL A   1      46.321  28.577  35.589  1.00  0.00     0.198 A 
ATOM     88  C   UNL A   1      44.833  27.076  36.728  1.00  0.00     0.198 A 
ATOM     89  F   UNL A   1      42.507  27.262  36.420  1.00  0.00    -0.203 F 
ATOM     90  F   UNL A   1      47.566  28.978  35.297  1.00  0.00    -0.200 F 
ATOM     91  C   UNL A   1      46.122  27.503  36.444  1.00  0.00     0.200 A 
ATOM     92  F   UNL A   1      44.638  26.054  37.572  1.00  0.00    -0.200 F 
ATOM     93  F   UNL A   1      47.173  26.880  36.995  1.00  0.00    -0.200 F 
ENDBRANCH  60  83
ENDBRANCH  34  35
ENDBRANCH  26  29
ENDBRANCH  24  25
ENDBRANCH  23  24
ENDBRANCH  22  23
ENDBRANCH   1  22
TORSDOF 17
ENDMDL
MODEL 2
REMARK VINA RESULT:     -11.2      5.353     10.498
REMARK SMILES C=C(C)CN(CC)c1ccc(F)cc1C(=O)NCCCCCCNC(=O)c1ccc(-c2c3nc(c(-c4c(F)c(F)c(F)c(F)c4F)c4ccc([nH]4)c(-c4c(F)c(F)c(F)c(F)c4F)c4nc(c(-c5c(F)c(F)c(F)c(F)c5F)c5ccc2[nH]5)C=C4)C=C3)cc1
REMARK SMILES IDX 20 1 19 2 18 3 17 4 15 5 16 6 14 8 8 9 9 10 10 11 13 12
REMARK SMILES IDX 11 13 12 14 5 15 4 16 2 17 1 18 3 19 6 20 7 21 21 22 22 23
REMARK SMILES IDX 23 24 24 25 25 26 26 28 27 29 28 30 89 31 29 32 88 33 30 34
REMARK SMILES IDX 31 35 32 36 82 37 33 38 87 39 81 40 83 41 34 42 86 43 80 44
REMARK SMILES IDX 79 45 35 47 67 48 47 49 66 50 48 51 51 52 65 53 84 54 49 55
REMARK SMILES IDX 50 56 64 58 85 59 52 60 36 61 37 62 45 63 38 64 39 65 43 66
REMARK SMILES IDX 46 67 40 68 41 69 44 70 42 71 68 72 69 73 77 74 70 75 71 76
REMARK SMILES IDX 75 77 78 78 72 79 73 80 76 81 74 82 53 83 54 84 62 85 55 86
REMARK SMILES IDX 56 87 60 88 63 89 57 90 58 91 61 92 59 93
REMARK H PARENT 17 7 24 27 83 46 51 57
REMARK Flexibility Score: inf
ROOT
ATOM      1  C   UNL A   1      36.442  21.974  25.498  1.00  0.00     0.002 C 
ENDROOT
BRANCH   1   2
ATOM      2  C   UNL A   1      36.188  23.068  24.453  1.00  0.00     0.021 C 
BRANCH   2   3
ATOM      3  C   UNL A   1      34.903  23.862  24.626  1.00  0.00     0.116 C 
BRANCH   3   4
ATOM      4  N   UNL A   1      34.490  24.676  23.521  1.00  0.00    -0.352 N 
ATOM      5  C   UNL A   1      33.750  25.838  23.556  1.00  0.00     0.253 C 
ATOM      6  O   UNL A   1      33.599  26.436  22.487  1.00  0.00    -0.269 OA
ATOM      7  H   UNL A   1      34.770  24.368  22.629  1.00  0.00     0.163 HD
BRANCH   5   8
ATOM      8  C   UNL A   1      33.042  26.361  24.774  1.00  0.00     0.066 A 
ATOM      9  C   UNL A   1      31.751  26.026  25.270  1.00  0.00     0.050 A 
ATOM     10  C   UNL A   1      31.332  26.666  26.463  1.00  0.00     0.030 A 
ATOM     11  C   UNL A   1      32.129  27.577  27.154  1.00  0.00     0.041 A 
ATOM     12  C   UNL A   1      33.853  27.253  25.514  1.00  0.00     0.055 A 
ATOM     13  C   UNL A   1      33.394  27.848  26.680  1.00  0.00     0.124 A 
ATOM     14  F   UNL A   1      34.189  28.685  27.359  1.00  0.00    -0.207 F 
BRANCH   9  15
ATOM     15  N   UNL A   1      30.895  25.068  24.725  1.00  0.00    -0.367 N 
BRANCH  15  16
ATOM     16  C   UNL A   1      31.134  23.638  24.986  1.00  0.00     0.146 C 
BRANCH  16  17
ATOM     17  C   UNL A   1      30.964  23.170  26.408  1.00  0.00    -0.061 C 
ATOM     18  C   UNL A   1      29.772  23.017  27.008  1.00  0.00     0.009 C 
ATOM     19  C   UNL A   1      32.255  22.973  27.160  1.00  0.00     0.041 C 
ENDBRANCH  16  17
ENDBRANCH  15  16
BRANCH  15  20
ATOM     20  C   UNL A   1      30.024  25.444  23.602  1.00  0.00     0.113 C 
ATOM     21  C   UNL A   1      28.949  26.462  23.952  1.00  0.00     0.027 C 
ENDBRANCH  15  20
ENDBRANCH   9  15
ENDBRANCH   5   8
ENDBRANCH   3   4
ENDBRANCH   2   3
ENDBRANCH   1   2
BRANCH   1  22
ATOM     22  C   UNL A   1      36.482  20.515  25.024  1.00  0.00     0.002 C 
BRANCH  22  23
ATOM     23  C   UNL A   1      37.848  19.884  24.751  1.00  0.00     0.021 C 
BRANCH  23  24
ATOM     24  C   UNL A   1      38.960  20.189  25.745  1.00  0.00     0.116 C 
BRANCH  24  25
ATOM     25  N   UNL A   1      40.006  19.183  25.772  1.00  0.00    -0.352 N 
ATOM     26  C   UNL A   1      41.340  19.306  26.070  1.00  0.00     0.251 C 
ATOM     27  H   UNL A   1      39.713  18.273  25.541  1.00  0.00     0.163 HD
ATOM     28  O   UNL A   1      42.081  18.331  25.954  1.00  0.00    -0.269 OA
BRANCH  26  29
ATOM     29  C   UNL A   1      41.911  20.608  26.490  1.00  0.00     0.039 A 
ATOM     30  C   UNL A   1      42.265  21.528  25.499  1.00  0.00     0.014 A 
ATOM     31  C   UNL A   1      42.116  20.926  27.835  1.00  0.00     0.014 A 
ATOM     32  C   UNL A   1      42.759  22.786  25.856  1.00  0.00     0.010 A 
ATOM     33  C   UNL A   1      42.535  22.208  28.192  1.00  0.00     0.010 A 
ATOM     34  C   UNL A   1      42.860  23.153  27.207  1.00  0.00    -0.014 A 
BRANCH  34  35
ATOM     35  C   UNL A   1      43.293  24.519  27.604  1.00  0.00     0.031 A 
ATOM     36  C   UNL A   1      42.275  25.568  27.957  1.00  0.00     0.074 A 
ATOM     37  C   UNL A   1      44.605  24.829  27.601  1.00  0.00     0.049 A 
ATOM     38  N   UNL A   1      42.459  26.828  28.262  1.00  0.00    -0.248 NA
ATOM     39  C   UNL A   1      40.862  25.155  27.948  1.00  0.00     0.031 C 
ATOM     40  C   UNL A   1      45.688  23.910  27.249  1.00  0.00     0.029 A 
ATOM     41  N   UNL A   1      45.253  26.004  27.899  1.00  0.00    -0.354 N 
ATOM     42  C   UNL A   1      41.192  27.355  28.475  1.00  0.00     0.074 A 
ATOM     43  C   UNL A   1      40.243  26.296  28.211  1.00  0.00     0.031 C 
ATOM     44  C   UNL A   1      46.864  24.543  27.381  1.00  0.00     0.029 A 
ATOM     45  C   UNL A   1      46.620  25.926  27.781  1.00  0.00     0.049 A 
ATOM     46  H   UNL A   1      44.781  26.824  28.172  1.00  0.00     0.167 HD
ATOM     47  C   UNL A   1      40.854  28.601  28.881  1.00  0.00     0.037 A 
ATOM     48  C   UNL A   1      47.570  26.864  27.968  1.00  0.00     0.037 A 
ATOM     49  C   UNL A   1      41.802  29.646  29.169  1.00  0.00     0.049 A 
ATOM     50  C   UNL A   1      47.163  28.250  28.387  1.00  0.00     0.074 A 
ATOM     51  C   UNL A   1      41.553  30.928  29.627  1.00  0.00     0.029 A 
ATOM     52  N   UNL A   1      43.176  29.529  29.030  1.00  0.00    -0.354 N 
ATOM     53  N   UNL A   1      45.964  28.722  28.628  1.00  0.00    -0.248 NA
ATOM     54  C   UNL A   1      48.239  29.237  28.561  1.00  0.00     0.031 C 
ATOM     55  C   UNL A   1      42.773  31.604  29.716  1.00  0.00     0.029 A 
ATOM     56  C   UNL A   1      43.787  30.726  29.372  1.00  0.00     0.049 A 
ATOM     57  H   UNL A   1      43.648  28.717  28.733  1.00  0.00     0.167 HD
ATOM     58  C   UNL A   1      46.142  30.045  29.011  1.00  0.00     0.074 A 
ATOM     59  C   UNL A   1      47.567  30.299  28.981  1.00  0.00     0.031 C 
ATOM     60  C   UNL A   1      45.208  30.963  29.353  1.00  0.00     0.037 A 
BRANCH  47  61
ATOM     61  C   UNL A   1      39.397  28.914  29.064  1.00  0.00     0.064 A 
ATOM     62  C   UNL A   1      38.635  29.417  27.998  1.00  0.00     0.173 A 
ATOM     63  C   UNL A   1      38.779  28.812  30.320  1.00  0.00     0.173 A 
ATOM     64  F   UNL A   1      39.179  29.543  26.777  1.00  0.00    -0.203 F 
ATOM     65  C   UNL A   1      37.317  29.824  28.188  1.00  0.00     0.198 A 
ATOM     66  C   UNL A   1      37.452  29.192  30.499  1.00  0.00     0.198 A 
ATOM     67  F   UNL A   1      39.461  28.329  31.369  1.00  0.00    -0.203 F 
ATOM     68  F   UNL A   1      36.624  30.341  27.163  1.00  0.00    -0.200 F 
ATOM     69  C   UNL A   1      36.727  29.710  29.436  1.00  0.00     0.200 A 
ATOM     70  F   UNL A   1      36.875  29.059  31.701  1.00  0.00    -0.200 F 
ATOM     71  F   UNL A   1      35.458  30.100  29.617  1.00  0.00    -0.200 F 
ENDBRANCH  47  61
BRANCH  48  72
ATOM     72  C   UNL A   1      49.003  26.511  27.785  1.00  0.00     0.064 A 
ATOM     73  C   UNL A   1      49.844  26.270  28.882  1.00  0.00     0.173 A 
ATOM     74  C   UNL A   1      49.563  26.418  26.504  1.00  0.00     0.173 A 
ATOM     75  F   UNL A   1      49.361  26.349  30.130  1.00  0.00    -0.203 F 
ATOM     76  C   UNL A   1      51.193  25.969  28.703  1.00  0.00     0.198 A 
ATOM     77  C   UNL A   1      50.905  26.087  26.325  1.00  0.00     0.198 A 
ATOM     78  F   UNL A   1      48.795  26.617  25.422  1.00  0.00    -0.203 F 
ATOM     79  F   UNL A   1      51.982  25.778  29.770  1.00  0.00    -0.200 F 
ATOM     80  C   UNL A   1      51.722  25.871  27.425  1.00  0.00     0.200 A 
ATOM     81  F   UNL A   1      51.403  25.965  25.087  1.00  0.00    -0.200 F 
ATOM     82  F   UNL A   1      53.014  25.564  27.254  1.00  0.00    -0.200 F 
ENDBRANCH  48  72
BRANCH  60  83
ATOM     83  C   UNL A   1      45.681  32.330  29.759  1.00  0.00     0.064 A 
ATOM     84  C   UNL A   1      45.918  32.625  31.111  1.00  0.00     0.173 A 
ATOM     85  C   UNL A   1      45.810  33.369  28.828  1.00  0.00     0.173 A 
ATOM     86  F   UNL A   1      45.800  31.668  32.043  1.00  0.00    -0.203 F 
ATOM     87  C   UNL A   1      46.246  33.915  31.516  1.00  0.00     0.198 A 
ATOM     88  C   UNL A   1      46.169  34.652  29.232  1.00  0.00     0.198 A 
ATOM     89  F   UNL A   1      45.605  33.136  27.522  1.00  0.00    -0.203 F 
ATOM     90  F   UNL A   1      46.425  34.183  32.817  1.00  0.00    -0.200 F 
ATOM     91  C   UNL A   1      46.374  34.927  30.576  1.00  0.00     0.200 A 
ATOM     92  F   UNL A   1      46.316  35.623  28.321  1.00  0.00    -0.200 F 
ATOM     93  F   UNL A   1      46.696  36.168  30.967  1.00  0.00    -0.200 F 
ENDBRANCH  60  83
ENDBRANCH  34  35
ENDBRANCH  26  29
ENDBRANCH  24  25
ENDBRANCH  23  24
ENDBRANCH  22  23
ENDBRANCH   1  22
TORSDOF 17
ENDMDL
MODEL 3
REMARK VINA RESULT:     -11.1      5.743     11.183
REMARK SMILES C=C(C)CN(CC)c1ccc(F)cc1C(=O)NCCCCCCNC(=O)c1ccc(-c2c3nc(c(-c4c(F)c(F)c(F)c(F)c4F)c4ccc([nH]4)c(-c4c(F)c(F)c(F)c(F)c4F)c4nc(c(-c5c(F)c(F)c(F)c(F)c5F)c5ccc2[nH]5)C=C4)C=C3)cc1
REMARK SMILES IDX 20 1 19 2 18 3 17 4 15 5 16 6 14 8 8 9 9 10 10 11 13 12
REMARK SMILES IDX 11 13 12 14 5 15 4 16 2 17 1 18 3 19 6 20 7 21 21 22 22 23
REMARK SMILES IDX 23 24 24 25 25 26 26 28 27 29 28 30 89 31 29 32 88 33 30 34
REMARK SMILES IDX 31 35 32 36 82 37 33 38 87 39 81 40 83 41 34 42 86 43 80 44
REMARK SMILES IDX 79 45 35 47 67 48 47 49 66 50 48 51 51 52 65 53 84 54 49 55
REMARK SMILES IDX 50 56 64 58 85 59 52 60 36 61 37 62 45 63 38 64 39 65 43 66
REMARK SMILES IDX 46 67 40 68 41 69 44 70 42 71 68 72 69 73 77 74 70 75 71 76
REMARK SMILES IDX 75 77 78 78 72 79 73 80 76 81 74 82 53 83 54 84 62 85 55 86
REMARK SMILES IDX 56 87 60 88 63 89 57 90 58 91 61 92 59 93
REMARK H PARENT 17 7 24 27 83 46 51 57
REMARK Flexibility Score: inf
ROOT
ATOM      1  C   UNL A   1      37.141  22.157  24.481  1.00  0.00     0.002 C 
ENDROOT
BRANCH   1   2
ATOM      2  C   UNL A   1      36.827  23.297  25.458  1.00  0.00     0.021 C 
BRANCH   2   3
ATOM      3  C   UNL A   1      35.606  24.139  25.120  1.00  0.00     0.116 C 
BRANCH   3   4
ATOM      4  N   UNL A   1      34.529  24.127  26.066  1.00  0.00    -0.352 N 
ATOM      5  C   UNL A   1      33.381  23.367  26.030  1.00  0.00     0.253 C 
ATOM      6  O   UNL A   1      32.633  23.439  27.009  1.00  0.00    -0.269 OA
ATOM      7  H   UNL A   1      34.621  24.736  26.834  1.00  0.00     0.163 HD
BRANCH   5   8
ATOM      8  C   UNL A   1      32.939  22.544  24.852  1.00  0.00     0.066 A 
ATOM      9  C   UNL A   1      32.313  22.972  23.648  1.00  0.00     0.050 A 
ATOM     10  C   UNL A   1      32.015  21.975  22.686  1.00  0.00     0.030 A 
ATOM     11  C   UNL A   1      32.322  20.629  22.871  1.00  0.00     0.041 A 
ATOM     12  C   UNL A   1      33.283  21.180  25.001  1.00  0.00     0.055 A 
ATOM     13  C   UNL A   1      32.973  20.246  24.024  1.00  0.00     0.124 A 
ATOM     14  F   UNL A   1      33.317  18.963  24.194  1.00  0.00    -0.207 F 
BRANCH   9  15
ATOM     15  N   UNL A   1      32.034  24.295  23.304  1.00  0.00    -0.367 N 
BRANCH  15  16
ATOM     16  C   UNL A   1      30.636  24.758  23.244  1.00  0.00     0.146 C 
BRANCH  16  17
ATOM     17  C   UNL A   1      30.212  25.772  24.273  1.00  0.00    -0.061 C 
ATOM     18  C   UNL A   1      30.898  26.027  25.399  1.00  0.00     0.009 C 
ATOM     19  C   UNL A   1      28.886  26.429  23.994  1.00  0.00     0.041 C 
ENDBRANCH  16  17
ENDBRANCH  15  16
BRANCH  15  20
ATOM     20  C   UNL A   1      33.070  25.093  22.633  1.00  0.00     0.113 C 
ATOM     21  C   UNL A   1      32.666  25.628  21.266  1.00  0.00     0.027 C 
ENDBRANCH  15  20
ENDBRANCH   9  15
ENDBRANCH   5   8
ENDBRANCH   3   4
ENDBRANCH   2   3
ENDBRANCH   1   2
BRANCH   1  22
ATOM     22  C   UNL A   1      36.812  20.722  24.914  1.00  0.00     0.002 C 
BRANCH  22  23
ATOM     23  C   UNL A   1      37.962  19.720  25.016  1.00  0.00     0.021 C 
BRANCH  23  24
ATOM     24  C   UNL A   1      39.189  20.155  25.805  1.00  0.00     0.116 C 
BRANCH  24  25
ATOM     25  N   UNL A   1      40.228  19.144  25.868  1.00  0.00    -0.352 N 
ATOM     26  C   UNL A   1      41.571  19.273  26.121  1.00  0.00     0.251 C 
ATOM     27  H   UNL A   1      39.922  18.223  25.705  1.00  0.00     0.163 HD
ATOM     28  O   UNL A   1      42.301  18.286  26.048  1.00  0.00    -0.269 OA
BRANCH  26  29
ATOM     29  C   UNL A   1      42.163  20.593  26.440  1.00  0.00     0.039 A 
ATOM     30  C   UNL A   1      42.606  21.396  25.384  1.00  0.00     0.014 A 
ATOM     31  C   UNL A   1      42.301  21.043  27.757  1.00  0.00     0.014 A 
ATOM     32  C   UNL A   1      43.122  22.669  25.641  1.00  0.00     0.010 A 
ATOM     33  C   UNL A   1      42.745  22.342  28.006  1.00  0.00     0.010 A 
ATOM     34  C   UNL A   1      43.159  23.170  26.952  1.00  0.00    -0.014 A 
BRANCH  34  35
ATOM     35  C   UNL A   1      43.617  24.556  27.233  1.00  0.00     0.031 A 
ATOM     36  C   UNL A   1      42.660  25.579  27.781  1.00  0.00     0.074 A 
ATOM     37  C   UNL A   1      44.888  24.908  26.951  1.00  0.00     0.049 A 
ATOM     38  N   UNL A   1      42.859  26.849  28.027  1.00  0.00    -0.248 NA
ATOM     39  C   UNL A   1      41.292  25.120  28.074  1.00  0.00     0.031 C 
ATOM     40  C   UNL A   1      45.904  24.018  26.389  1.00  0.00     0.029 A 
ATOM     41  N   UNL A   1      45.541  26.108  27.093  1.00  0.00    -0.354 N 
ATOM     42  C   UNL A   1      41.647  27.339  28.495  1.00  0.00     0.074 A 
ATOM     43  C   UNL A   1      40.701  26.245  28.448  1.00  0.00     0.031 C 
ATOM     44  C   UNL A   1      47.059  24.691  26.264  1.00  0.00     0.029 A 
ATOM     45  C   UNL A   1      46.855  26.073  26.692  1.00  0.00     0.049 A 
ATOM     46  H   UNL A   1      45.109  26.918  27.450  1.00  0.00     0.167 HD
ATOM     47  C   UNL A   1      41.358  28.581  28.949  1.00  0.00     0.037 A 
ATOM     48  C   UNL A   1      47.790  27.044  26.664  1.00  0.00     0.037 A 
ATOM     49  C   UNL A   1      42.308  29.660  29.020  1.00  0.00     0.049 A 
ATOM     50  C   UNL A   1      47.431  28.424  27.144  1.00  0.00     0.074 A 
ATOM     51  C   UNL A   1      42.116  30.942  29.506  1.00  0.00     0.029 A 
ATOM     52  N   UNL A   1      43.625  29.585  28.596  1.00  0.00    -0.354 N 
ATOM     53  N   UNL A   1      46.294  28.862  27.626  1.00  0.00    -0.248 NA
ATOM     54  C   UNL A   1      48.484  29.448  27.077  1.00  0.00     0.031 C 
ATOM     55  C   UNL A   1      43.302  31.658  29.329  1.00  0.00     0.029 A 
ATOM     56  C   UNL A   1      44.251  30.807  28.789  1.00  0.00     0.049 A 
ATOM     57  H   UNL A   1      44.053  28.784  28.216  1.00  0.00     0.167 HD
ATOM     58  C   UNL A   1      46.501  30.196  27.948  1.00  0.00     0.074 A 
ATOM     59  C   UNL A   1      47.878  30.496  27.617  1.00  0.00     0.031 C 
ATOM     60  C   UNL A   1      45.627  31.090  28.469  1.00  0.00     0.037 A 
BRANCH  47  61
ATOM     61  C   UNL A   1      39.962  28.850  29.431  1.00  0.00     0.064 A 
ATOM     62  C   UNL A   1      39.595  28.562  30.755  1.00  0.00     0.173 A 
ATOM     63  C   UNL A   1      38.960  29.299  28.557  1.00  0.00     0.173 A 
ATOM     64  F   UNL A   1      40.512  28.122  31.631  1.00  0.00    -0.203 F 
ATOM     65  C   UNL A   1      38.275  28.694  31.178  1.00  0.00     0.198 A 
ATOM     66  C   UNL A   1      37.648  29.459  28.991  1.00  0.00     0.198 A 
ATOM     67  F   UNL A   1      39.261  29.597  27.284  1.00  0.00    -0.203 F 
ATOM     68  F   UNL A   1      37.942  28.372  32.436  1.00  0.00    -0.200 F 
ATOM     69  C   UNL A   1      37.303  29.144  30.297  1.00  0.00     0.200 A 
ATOM     70  F   UNL A   1      36.714  29.915  28.145  1.00  0.00    -0.200 F 
ATOM     71  F   UNL A   1      36.034  29.272  30.707  1.00  0.00    -0.200 F 
ENDBRANCH  47  61
BRANCH  48  72
ATOM     72  C   UNL A   1      49.165  26.734  26.188  1.00  0.00     0.064 A 
ATOM     73  C   UNL A   1      50.140  26.216  27.053  1.00  0.00     0.173 A 
ATOM     74  C   UNL A   1      49.532  26.962  24.855  1.00  0.00     0.173 A 
ATOM     75  F   UNL A   1      49.842  25.981  28.339  1.00  0.00    -0.203 F 
ATOM     76  C   UNL A   1      51.434  25.956  26.606  1.00  0.00     0.198 A 
ATOM     77  C   UNL A   1      50.818  26.673  24.401  1.00  0.00     0.198 A 
ATOM     78  F   UNL A   1      48.629  27.436  23.984  1.00  0.00    -0.203 F 
ATOM     79  F   UNL A   1      52.357  25.494  27.462  1.00  0.00    -0.200 F 
ATOM     80  C   UNL A   1      51.771  26.178  25.280  1.00  0.00     0.200 A 
ATOM     81  F   UNL A   1      51.130  26.863  23.112  1.00  0.00    -0.200 F 
ATOM     82  F   UNL A   1      53.010  25.911  24.846  1.00  0.00    -0.200 F 
ENDBRANCH  48  72
BRANCH  60  83
ATOM     83  C   UNL A   1      46.127  32.478  28.751  1.00  0.00     0.064 A 
ATOM     84  C   UNL A   1      46.076  33.466  27.755  1.00  0.00     0.173 A 
ATOM     85  C   UNL A   1      46.737  32.806  29.970  1.00  0.00     0.173 A 
ATOM     86  F   UNL A   1      45.510  33.201  26.568  1.00  0.00    -0.203 F 
ATOM     87  C   UNL A   1      46.637  34.722  27.962  1.00  0.00     0.198 A 
ATOM     88  C   UNL A   1      47.269  34.074  30.185  1.00  0.00     0.198 A 
ATOM     89  F   UNL A   1      46.800  31.901  30.959  1.00  0.00    -0.203 F 
ATOM     90  F   UNL A   1      46.616  35.634  26.980  1.00  0.00    -0.200 F 
ATOM     91  C   UNL A   1      47.231  35.026  29.178  1.00  0.00     0.200 A 
ATOM     92  F   UNL A   1      47.821  34.375  31.369  1.00  0.00    -0.200 F 
ATOM     93  F   UNL A   1      47.766  36.239  29.378  1.00  0.00    -0.200 F 
ENDBRANCH  60  83
ENDBRANCH  34  35
ENDBRANCH  26  29
ENDBRANCH  24  25
ENDBRANCH  23  24
ENDBRANCH  22  23
ENDBRANCH   1  22
TORSDOF 17
ENDMDL
