MODEL 1
REMARK VINA RESULT:      -9.8      0.000      0.000
REMARK SMILES O=C(NCCCCCCNC(=O)c1ccc2nc(C3CCCCC3)[nH]c2c1)c1ccc(-c2c3nc(c(-c4c(F)c(F)c(F)c(F)c4F)c4ccc([nH]4)c(-c4c(F)c(F)c(F)c(F)c4F)c4nc(c(-c5c(F)c(F)c(F)c(F)c5F)c5ccc2[nH]5)C=C4)C=C3)cc1
REMARK SMILES IDX 6 1 5 2 4 3 3 4 1 5 2 6 28 8 29 9 90 10 30 11 89 12 31 13
REMARK SMILES IDX 32 14 33 15 83 16 34 17 88 18 82 19 84 20 35 21 87 22 81 23
REMARK SMILES IDX 80 24 36 26 68 27 48 28 67 29 49 30 52 31 66 32 85 33 50 34
REMARK SMILES IDX 51 35 65 37 86 38 53 39 37 40 38 41 46 42 39 43 40 44 44 45
REMARK SMILES IDX 47 46 41 47 42 48 45 49 43 50 69 51 70 52 78 53 71 54 72 55
REMARK SMILES IDX 76 56 79 57 73 58 74 59 77 60 75 61 54 62 55 63 63 64 56 65
REMARK SMILES IDX 57 66 61 67 64 68 58 69 59 70 62 71 60 72 7 73 8 74 9 75
REMARK SMILES IDX 10 76 11 77 12 79 13 80 14 81 27 82 15 83 26 84 16 85 25 86
REMARK SMILES IDX 17 87 18 88 19 90 20 91 24 92 21 93 23 94 22 95
REMARK H PARENT 3 7 84 25 52 36 10 78 25 89
REMARK Flexibility Score: inf
ROOT
ATOM      1  C   UNL A   1      37.055  33.436  28.823  1.00  0.00     0.002 C 
ENDROOT
BRANCH   1   2
ATOM      2  C   UNL A   1      35.640  33.340  28.250  1.00  0.00     0.021 C 
BRANCH   2   3
ATOM      3  C   UNL A   1      34.671  32.506  29.082  1.00  0.00     0.116 C 
BRANCH   3   4
ATOM      4  N   UNL A   1      34.061  31.438  28.306  1.00  0.00    -0.352 N 
ATOM      5  O   UNL A   1      34.009  29.602  26.999  1.00  0.00    -0.269 OA
ATOM      6  C   UNL A   1      34.629  30.298  27.800  1.00  0.00     0.251 C 
ATOM      7  H   UNL A   1      33.102  31.551  28.117  1.00  0.00     0.163 HD
BRANCH   6   8
ATOM      8  C   UNL A   1      35.995  29.913  28.204  1.00  0.00     0.039 A 
ATOM      9  C   UNL A   1      36.243  29.361  29.464  1.00  0.00     0.014 A 
ATOM     10  C   UNL A   1      37.038  30.082  27.291  1.00  0.00     0.014 A 
ATOM     11  C   UNL A   1      37.550  29.083  29.855  1.00  0.00     0.010 A 
ATOM     12  C   UNL A   1      38.340  29.736  27.658  1.00  0.00     0.010 A 
ATOM     13  C   UNL A   1      38.608  29.255  28.951  1.00  0.00    -0.014 A 
BRANCH  13  14
ATOM     14  C   UNL A   1      39.992  28.883  29.332  1.00  0.00     0.031 A 
ATOM     15  C   UNL A   1      40.850  29.836  30.113  1.00  0.00     0.074 A 
ATOM     16  C   UNL A   1      40.488  27.701  28.927  1.00  0.00     0.049 A 
ATOM     17  N   UNL A   1      42.115  29.738  30.435  1.00  0.00    -0.248 NA
ATOM     18  C   UNL A   1      40.203  31.069  30.581  1.00  0.00     0.031 C 
ATOM     19  C   UNL A   1      39.747  26.696  28.164  1.00  0.00     0.029 A 
ATOM     20  N   UNL A   1      41.736  27.153  29.078  1.00  0.00    -0.354 N 
ATOM     21  C   UNL A   1      42.422  30.904  31.121  1.00  0.00     0.074 A 
ATOM     22  C   UNL A   1      41.217  31.707  31.145  1.00  0.00     0.031 C 
ATOM     23  C   UNL A   1      40.552  25.655  27.913  1.00  0.00     0.029 A 
ATOM     24  C   UNL A   1      41.881  25.947  28.439  1.00  0.00     0.049 A 
ATOM     25  H   UNL A   1      42.457  27.583  29.593  1.00  0.00     0.167 HD
ATOM     26  C   UNL A   1      43.604  31.266  31.680  1.00  0.00     0.037 A 
ATOM     27  C   UNL A   1      42.973  25.180  28.257  1.00  0.00     0.037 A 
ATOM     28  C   UNL A   1      44.794  30.455  31.645  1.00  0.00     0.049 A 
ATOM     29  C   UNL A   1      44.283  25.623  28.841  1.00  0.00     0.074 A 
ATOM     30  C   UNL A   1      46.029  30.710  32.214  1.00  0.00     0.029 A 
ATOM     31  N   UNL A   1      44.902  29.236  30.988  1.00  0.00    -0.354 N 
ATOM     32  N   UNL A   1      44.559  26.708  29.521  1.00  0.00    -0.248 NA
ATOM     33  C   UNL A   1      45.436  24.735  28.635  1.00  0.00     0.031 C 
ATOM     34  C   UNL A   1      46.902  29.680  31.846  1.00  0.00     0.029 A 
ATOM     35  C   UNL A   1      46.192  28.744  31.112  1.00  0.00     0.049 A 
ATOM     36  H   UNL A   1      44.170  28.787  30.507  1.00  0.00     0.167 HD
ATOM     37  C   UNL A   1      45.904  26.622  29.853  1.00  0.00     0.074 A 
ATOM     38  C   UNL A   1      46.390  25.375  29.296  1.00  0.00     0.031 C 
ATOM     39  C   UNL A   1      46.661  27.494  30.563  1.00  0.00     0.037 A 
BRANCH  26  40
ATOM     40  C   UNL A   1      43.675  32.616  32.337  1.00  0.00     0.064 A 
ATOM     41  C   UNL A   1      43.488  32.782  33.718  1.00  0.00     0.173 A 
ATOM     42  C   UNL A   1      43.941  33.763  31.574  1.00  0.00     0.173 A 
ATOM     43  F   UNL A   1      43.223  31.723  34.498  1.00  0.00    -0.203 F 
ATOM     44  C   UNL A   1      43.518  34.049  34.301  1.00  0.00     0.198 A 
ATOM     45  C   UNL A   1      44.007  35.022  32.163  1.00  0.00     0.198 A 
ATOM     46  F   UNL A   1      44.140  33.663  30.250  1.00  0.00    -0.203 F 
ATOM     47  F   UNL A   1      43.268  34.188  35.610  1.00  0.00    -0.200 F 
ATOM     48  C   UNL A   1      43.782  35.166  33.523  1.00  0.00     0.200 A 
ATOM     49  F   UNL A   1      44.280  36.099  31.413  1.00  0.00    -0.200 F 
ATOM     50  F   UNL A   1      43.808  36.383  34.084  1.00  0.00    -0.200 F 
ENDBRANCH  26  40
BRANCH  27  51
ATOM     51  C   UNL A   1      42.850  23.923  27.477  1.00  0.00     0.064 A 
ATOM     52  C   UNL A   1      43.158  23.889  26.112  1.00  0.00     0.173 A 
ATOM     53  C   UNL A   1      42.478  22.719  28.095  1.00  0.00     0.173 A 
ATOM     54  F   UNL A   1      43.504  25.017  25.474  1.00  0.00    -0.203 F 
ATOM     55  C   UNL A   1      43.096  22.698  25.391  1.00  0.00     0.198 A 
ATOM     56  C   UNL A   1      42.445  21.524  27.382  1.00  0.00     0.198 A 
ATOM     57  F   UNL A   1      42.183  22.699  29.403  1.00  0.00    -0.203 F 
ATOM     58  F   UNL A   1      43.370  22.695  24.080  1.00  0.00    -0.200 F 
ATOM     59  C   UNL A   1      42.749  21.515  26.029  1.00  0.00     0.200 A 
ATOM     60  F   UNL A   1      42.131  20.381  28.006  1.00  0.00    -0.200 F 
ATOM     61  F   UNL A   1      42.711  20.366  25.340  1.00  0.00    -0.200 F 
ENDBRANCH  27  51
BRANCH  39  62
ATOM     62  C   UNL A   1      48.087  27.115  30.837  1.00  0.00     0.064 A 
ATOM     63  C   UNL A   1      48.440  26.270  31.898  1.00  0.00     0.173 A 
ATOM     64  C   UNL A   1      49.106  27.543  29.970  1.00  0.00     0.173 A 
ATOM     65  F   UNL A   1      47.508  25.847  32.766  1.00  0.00    -0.203 F 
ATOM     66  C   UNL A   1      49.763  25.873  32.087  1.00  0.00     0.198 A 
ATOM     67  C   UNL A   1      50.419  27.120  30.143  1.00  0.00     0.198 A 
ATOM     68  F   UNL A   1      48.818  28.349  28.937  1.00  0.00    -0.203 F 
ATOM     69  F   UNL A   1      50.085  25.091  33.127  1.00  0.00    -0.200 F 
ATOM     70  C   UNL A   1      50.748  26.288  31.203  1.00  0.00     0.200 A 
ATOM     71  F   UNL A   1      51.366  27.510  29.278  1.00  0.00    -0.200 F 
ATOM     72  F   UNL A   1      52.016  25.888  31.373  1.00  0.00    -0.200 F 
ENDBRANCH  39  62
ENDBRANCH  13  14
ENDBRANCH   6   8
ENDBRANCH   3   4
ENDBRANCH   2   3
ENDBRANCH   1   2
BRANCH   1  73
ATOM     73  C   UNL A   1      37.187  33.058  30.301  1.00  0.00     0.002 C 
BRANCH  73  74
ATOM     74  C   UNL A   1      36.992  34.211  31.290  1.00  0.00     0.021 C 
BRANCH  74  75
ATOM     75  C   UNL A   1      38.065  34.316  32.371  1.00  0.00     0.116 C 
BRANCH  75  76
ATOM     76  N   UNL A   1      37.497  34.239  33.707  1.00  0.00    -0.352 N 
ATOM     77  C   UNL A   1      37.325  33.136  34.502  1.00  0.00     0.251 C 
ATOM     78  H   UNL A   1      37.197  35.093  34.092  1.00  0.00     0.163 HD
ATOM     79  O   UNL A   1      36.652  33.203  35.527  1.00  0.00    -0.269 OA
BRANCH  77  80
ATOM     80  C   UNL A   1      37.932  31.851  34.102  1.00  0.00     0.042 A 
ATOM     81  C   UNL A   1      37.206  30.937  33.324  1.00  0.00     0.016 A 
ATOM     82  C   UNL A   1      39.243  31.587  34.520  1.00  0.00     0.042 A 
ATOM     83  C   UNL A   1      37.750  29.689  33.002  1.00  0.00     0.031 A 
ATOM     84  C   UNL A   1      39.757  30.338  34.172  1.00  0.00     0.066 A 
ATOM     85  C   UNL A   1      39.046  29.390  33.444  1.00  0.00     0.089 A 
ATOM     86  N   UNL A   1      40.968  29.744  34.407  1.00  0.00    -0.342 N 
ATOM     87  N   UNL A   1      39.790  28.254  33.264  1.00  0.00    -0.233 NA
ATOM     88  C   UNL A   1      40.952  28.492  33.838  1.00  0.00     0.110 A 
ATOM     89  H   UNL A   1      41.722  30.144  34.898  1.00  0.00     0.168 HD
BRANCH  88  90
ATOM     90  C   UNL A   1      42.136  27.574  33.849  1.00  0.00     0.055 C 
ATOM     91  C   UNL A   1      43.425  28.360  34.135  1.00  0.00     0.011 C 
ATOM     92  C   UNL A   1      41.951  26.414  34.837  1.00  0.00     0.011 C 
ATOM     93  C   UNL A   1      44.645  27.446  34.185  1.00  0.00     0.001 C 
ATOM     94  C   UNL A   1      43.181  25.513  34.882  1.00  0.00     0.001 C 
ATOM     95  C   UNL A   1      44.448  26.308  35.183  1.00  0.00     0.000 C 
ENDBRANCH  88  90
ENDBRANCH  77  80
ENDBRANCH  75  76
ENDBRANCH  74  75
ENDBRANCH  73  74
ENDBRANCH   1  73
TORSDOF 14
ENDMDL
MODEL 2
REMARK VINA RESULT:      -9.7      4.381     10.935
REMARK SMILES O=C(NCCCCCCNC(=O)c1ccc2nc(C3CCCCC3)[nH]c2c1)c1ccc(-c2c3nc(c(-c4c(F)c(F)c(F)c(F)c4F)c4ccc([nH]4)c(-c4c(F)c(F)c(F)c(F)c4F)c4nc(c(-c5c(F)c(F)c(F)c(F)c5F)c5ccc2[nH]5)C=C4)C=C3)cc1
REMARK SMILES IDX 6 1 5 2 4 3 3 4 1 5 2 6 28 8 29 9 90 10 30 11 89 12 31 13
REMARK SMILES IDX 32 14 33 15 83 16 34 17 88 18 82 19 84 20 35 21 87 22 81 23
REMARK SMILES IDX 80 24 36 26 68 27 48 28 67 29 49 30 52 31 66 32 85 33 50 34
REMARK SMILES IDX 51 35 65 37 86 38 53 39 37 40 38 41 46 42 39 43 40 44 44 45
REMARK SMILES IDX 47 46 41 47 42 48 45 49 43 50 69 51 70 52 78 53 71 54 72 55
REMARK SMILES IDX 76 56 79 57 73 58 74 59 77 60 75 61 54 62 55 63 63 64 56 65
REMARK SMILES IDX 57 66 61 67 64 68 58 69 59 70 62 71 60 72 7 73 8 74 9 75
REMARK SMILES IDX 10 76 11 77 12 79 13 80 14 81 27 82 15 83 26 84 16 85 25 86
REMARK SMILES IDX 17 87 18 88 19 90 20 91 24 92 21 93 23 94 22 95
REMARK H PARENT 3 7 84 25 52 36 10 78 25 89
REMARK Flexibility Score: inf
ROOT
ATOM      1  C   UNL A   1      32.965  26.447  26.065  1.00  0.00     0.002 C 
ENDROOT
BRANCH   1   2
ATOM      2  C   UNL A   1      32.375  27.848  25.894  1.00  0.00     0.021 C 
BRANCH   2   3
ATOM      3  C   UNL A   1      33.398  28.939  25.603  1.00  0.00     0.116 C 
BRANCH   3   4
ATOM      4  N   UNL A   1      32.911  30.259  25.969  1.00  0.00    -0.352 N 
ATOM      5  O   UNL A   1      32.692  32.100  27.254  1.00  0.00    -0.269 OA
ATOM      6  C   UNL A   1      33.348  31.104  26.956  1.00  0.00     0.251 C 
ATOM      7  H   UNL A   1      32.158  30.594  25.431  1.00  0.00     0.163 HD
BRANCH   6   8
ATOM      8  C   UNL A   1      34.602  30.809  27.677  1.00  0.00     0.039 A 
ATOM      9  C   UNL A   1      34.825  29.552  28.246  1.00  0.00     0.014 A 
ATOM     10  C   UNL A   1      35.581  31.802  27.755  1.00  0.00     0.014 A 
ATOM     11  C   UNL A   1      35.978  29.323  28.993  1.00  0.00     0.010 A 
ATOM     12  C   UNL A   1      36.768  31.548  28.443  1.00  0.00     0.010 A 
ATOM     13  C   UNL A   1      36.965  30.313  29.086  1.00  0.00    -0.014 A 
BRANCH  13  14
ATOM     14  C   UNL A   1      38.231  30.048  29.811  1.00  0.00     0.031 A 
ATOM     15  C   UNL A   1      39.250  29.101  29.245  1.00  0.00     0.074 A 
ATOM     16  C   UNL A   1      38.435  30.627  31.007  1.00  0.00     0.049 A 
ATOM     17  N   UNL A   1      40.356  28.655  29.786  1.00  0.00    -0.248 NA
ATOM     18  C   UNL A   1      38.982  28.576  27.900  1.00  0.00     0.031 C 
ATOM     19  C   UNL A   1      37.515  31.563  31.655  1.00  0.00     0.029 A 
ATOM     20  N   UNL A   1      39.467  30.498  31.902  1.00  0.00    -0.354 N 
ATOM     21  C   UNL A   1      40.904  27.779  28.858  1.00  0.00     0.074 A 
ATOM     22  C   UNL A   1      39.994  27.737  27.733  1.00  0.00     0.031 C 
ATOM     23  C   UNL A   1      38.023  31.924  32.842  1.00  0.00     0.029 A 
ATOM     24  C   UNL A   1      39.266  31.196  33.067  1.00  0.00     0.049 A 
ATOM     25  H   UNL A   1      40.271  29.957  31.726  1.00  0.00     0.167 HD
ATOM     26  C   UNL A   1      42.061  27.079  28.944  1.00  0.00     0.037 A 
ATOM     27  C   UNL A   1      39.981  31.216  34.208  1.00  0.00     0.037 A 
ATOM     28  C   UNL A   1      42.955  27.132  30.073  1.00  0.00     0.049 A 
ATOM     29  C   UNL A   1      41.234  30.394  34.301  1.00  0.00     0.074 A 
ATOM     30  C   UNL A   1      44.171  26.494  30.241  1.00  0.00     0.029 A 
ATOM     31  N   UNL A   1      42.718  27.854  31.236  1.00  0.00    -0.354 N 
ATOM     32  N   UNL A   1      41.766  29.597  33.407  1.00  0.00    -0.248 NA
ATOM     33  C   UNL A   1      41.988  30.473  35.559  1.00  0.00     0.031 C 
ATOM     34  C   UNL A   1      44.637  26.776  31.531  1.00  0.00     0.029 A 
ATOM     35  C   UNL A   1      43.750  27.650  32.138  1.00  0.00     0.049 A 
ATOM     36  H   UNL A   1      41.933  28.426  31.395  1.00  0.00     0.167 HD
ATOM     37  C   UNL A   1      42.932  29.105  33.977  1.00  0.00     0.074 A 
ATOM     38  C   UNL A   1      43.028  29.693  35.298  1.00  0.00     0.031 C 
ATOM     39  C   UNL A   1      43.842  28.252  33.447  1.00  0.00     0.037 A 
BRANCH  26  40
ATOM     40  C   UNL A   1      42.403  26.163  27.801  1.00  0.00     0.064 A 
ATOM     41  C   UNL A   1      43.320  26.527  26.804  1.00  0.00     0.173 A 
ATOM     42  C   UNL A   1      41.807  24.896  27.707  1.00  0.00     0.173 A 
ATOM     43  F   UNL A   1      43.916  27.729  26.839  1.00  0.00    -0.203 F 
ATOM     44  C   UNL A   1      43.592  25.678  25.732  1.00  0.00     0.198 A 
ATOM     45  C   UNL A   1      42.107  24.036  26.655  1.00  0.00     0.198 A 
ATOM     46  F   UNL A   1      40.930  24.490  28.638  1.00  0.00    -0.203 F 
ATOM     47  F   UNL A   1      44.419  26.077  24.756  1.00  0.00    -0.200 F 
ATOM     48  C   UNL A   1      42.987  24.432  25.661  1.00  0.00     0.200 A 
ATOM     49  F   UNL A   1      41.535  22.824  26.598  1.00  0.00    -0.200 F 
ATOM     50  F   UNL A   1      43.247  23.618  24.629  1.00  0.00    -0.200 F 
ENDBRANCH  26  40
BRANCH  27  51
ATOM     51  C   UNL A   1      39.503  32.043  35.344  1.00  0.00     0.064 A 
ATOM     52  C   UNL A   1      39.846  33.396  35.446  1.00  0.00     0.173 A 
ATOM     53  C   UNL A   1      38.646  31.509  36.319  1.00  0.00     0.173 A 
ATOM     54  F   UNL A   1      40.675  33.947  34.546  1.00  0.00    -0.203 F 
ATOM     55  C   UNL A   1      39.353  34.186  36.482  1.00  0.00     0.198 A 
ATOM     56  C   UNL A   1      38.130  32.305  37.338  1.00  0.00     0.198 A 
ATOM     57  F   UNL A   1      38.281  30.220  36.259  1.00  0.00    -0.203 F 
ATOM     58  F   UNL A   1      39.716  35.472  36.573  1.00  0.00    -0.200 F 
ATOM     59  C   UNL A   1      38.488  33.642  37.422  1.00  0.00     0.200 A 
ATOM     60  F   UNL A   1      37.278  31.782  38.230  1.00  0.00    -0.200 F 
ATOM     61  F   UNL A   1      37.996  34.408  38.405  1.00  0.00    -0.200 F 
ENDBRANCH  27  51
BRANCH  39  62
ATOM     62  C   UNL A   1      45.060  27.937  34.265  1.00  0.00     0.064 A 
ATOM     63  C   UNL A   1      45.115  26.828  35.119  1.00  0.00     0.173 A 
ATOM     64  C   UNL A   1      46.219  28.719  34.127  1.00  0.00     0.173 A 
ATOM     65  F   UNL A   1      44.031  26.059  35.300  1.00  0.00    -0.203 F 
ATOM     66  C   UNL A   1      46.283  26.516  35.812  1.00  0.00     0.198 A 
ATOM     67  C   UNL A   1      47.392  28.387  34.796  1.00  0.00     0.198 A 
ATOM     68  F   UNL A   1      46.218  29.789  33.318  1.00  0.00    -0.203 F 
ATOM     69  F   UNL A   1      46.306  25.469  36.649  1.00  0.00    -0.200 F 
ATOM     70  C   UNL A   1      47.424  27.288  35.640  1.00  0.00     0.200 A 
ATOM     71  F   UNL A   1      48.496  29.126  34.615  1.00  0.00    -0.200 F 
ATOM     72  F   UNL A   1      48.553  26.973  36.290  1.00  0.00    -0.200 F 
ENDBRANCH  39  62
ENDBRANCH  13  14
ENDBRANCH   6   8
ENDBRANCH   3   4
ENDBRANCH   2   3
ENDBRANCH   1   2
BRANCH   1  73
ATOM     73  C   UNL A   1      34.308  26.215  25.366  1.00  0.00     0.002 C 
BRANCH  73  74
ATOM     74  C   UNL A   1      34.851  24.786  25.452  1.00  0.00     0.021 C 
BRANCH  74  75
ATOM     75  C   UNL A   1      33.935  23.716  24.864  1.00  0.00     0.116 C 
BRANCH  75  76
ATOM     76  N   UNL A   1      34.095  23.597  23.424  1.00  0.00    -0.352 N 
ATOM     77  C   UNL A   1      33.255  24.026  22.430  1.00  0.00     0.251 C 
ATOM     78  H   UNL A   1      34.918  23.149  23.123  1.00  0.00     0.163 HD
ATOM     79  O   UNL A   1      33.435  23.678  21.266  1.00  0.00    -0.269 OA
BRANCH  77  80
ATOM     80  C   UNL A   1      32.107  24.889  22.772  1.00  0.00     0.042 A 
ATOM     81  C   UNL A   1      31.070  24.400  23.581  1.00  0.00     0.016 A 
ATOM     82  C   UNL A   1      32.098  26.196  22.268  1.00  0.00     0.042 A 
ATOM     83  C   UNL A   1      29.946  25.191  23.849  1.00  0.00     0.031 A 
ATOM     84  C   UNL A   1      30.967  26.959  22.564  1.00  0.00     0.066 A 
ATOM     85  C   UNL A   1      29.900  26.488  23.321  1.00  0.00     0.089 A 
ATOM     86  N   UNL A   1      30.614  28.242  22.244  1.00  0.00    -0.342 N 
ATOM     87  N   UNL A   1      28.925  27.444  23.437  1.00  0.00    -0.233 NA
ATOM     88  C   UNL A   1      29.380  28.499  22.794  1.00  0.00     0.110 A 
ATOM     89  H   UNL A   1      31.151  28.873  21.712  1.00  0.00     0.168 HD
BRANCH  88  90
ATOM     90  C   UNL A   1      28.704  29.833  22.695  1.00  0.00     0.055 C 
ATOM     91  C   UNL A   1      29.309  30.821  23.703  1.00  0.00     0.011 C 
ATOM     92  C   UNL A   1      28.745  30.389  21.265  1.00  0.00     0.011 C 
ATOM     93  C   UNL A   1      28.662  32.199  23.603  1.00  0.00     0.001 C 
ATOM     94  C   UNL A   1      28.101  31.770  21.181  1.00  0.00     0.001 C 
ATOM     95  C   UNL A   1      28.726  32.742  22.178  1.00  0.00     0.000 C 
ENDBRANCH  88  90
ENDBRANCH  77  80
ENDBRANCH  75  76
ENDBRANCH  74  75
ENDBRANCH  73  74
ENDBRANCH   1  73
TORSDOF 14
ENDMDL
MODEL 3
REMARK VINA RESULT:      -9.6      4.628     10.305
REMARK SMILES O=C(NCCCCCCNC(=O)c1ccc2nc(C3CCCCC3)[nH]c2c1)c1ccc(-c2c3nc(c(-c4c(F)c(F)c(F)c(F)c4F)c4ccc([nH]4)c(-c4c(F)c(F)c(F)c(F)c4F)c4nc(c(-c5c(F)c(F)c(F)c(F)c5F)c5ccc2[nH]5)C=C4)C=C3)cc1
REMARK SMILES IDX 6 1 5 2 4 3 3 4 1 5 2 6 28 8 29 9 90 10 30 11 89 12 31 13
REMARK SMILES IDX 32 14 33 15 83 16 34 17 88 18 82 19 84 20 35 21 87 22 81 23
REMARK SMILES IDX 80 24 36 26 68 27 48 28 67 29 49 30 52 31 66 32 85 33 50 34
REMARK SMILES IDX 51 35 65 37 86 38 53 39 37 40 38 41 46 42 39 43 40 44 44 45
REMARK SMILES IDX 47 46 41 47 42 48 45 49 43 50 69 51 70 52 78 53 71 54 72 55
REMARK SMILES IDX 76 56 79 57 73 58 74 59 77 60 75 61 54 62 55 63 63 64 56 65
REMARK SMILES IDX 57 66 61 67 64 68 58 69 59 70 62 71 60 72 7 73 8 74 9 75
REMARK SMILES IDX 10 76 11 77 12 79 13 80 14 81 27 82 15 83 26 84 16 85 25 86
REMARK SMILES IDX 17 87 18 88 19 90 20 91 24 92 21 93 23 94 22 95
REMARK H PARENT 3 7 84 25 52 36 10 78 25 89
REMARK Flexibility Score: inf
ROOT
ATOM      1  C   UNL A   1      33.719  27.668  23.031  1.00  0.00     0.002 C 
ENDROOT
BRANCH   1   2
ATOM      2  C   UNL A   1      33.232  28.993  23.620  1.00  0.00     0.021 C 
BRANCH   2   3
ATOM      3  C   UNL A   1      33.582  29.203  25.089  1.00  0.00     0.116 C 
BRANCH   3   4
ATOM      4  N   UNL A   1      32.916  30.368  25.649  1.00  0.00    -0.352 N 
ATOM      5  O   UNL A   1      32.409  31.903  27.221  1.00  0.00    -0.269 OA
ATOM      6  C   UNL A   1      33.198  31.061  26.797  1.00  0.00     0.251 C 
ATOM      7  H   UNL A   1      32.152  30.707  25.129  1.00  0.00     0.163 HD
BRANCH   6   8
ATOM      8  C   UNL A   1      34.445  30.786  27.537  1.00  0.00     0.039 A 
ATOM      9  C   UNL A   1      34.690  29.524  28.086  1.00  0.00     0.014 A 
ATOM     10  C   UNL A   1      35.395  31.803  27.656  1.00  0.00     0.014 A 
ATOM     11  C   UNL A   1      35.834  29.311  28.852  1.00  0.00     0.010 A 
ATOM     12  C   UNL A   1      36.574  31.567  28.363  1.00  0.00     0.010 A 
ATOM     13  C   UNL A   1      36.792  30.325  28.985  1.00  0.00    -0.014 A 
BRANCH  13  14
ATOM     14  C   UNL A   1      38.050  30.079  29.730  1.00  0.00     0.031 A 
ATOM     15  C   UNL A   1      39.094  29.151  29.180  1.00  0.00     0.074 A 
ATOM     16  C   UNL A   1      38.224  30.659  30.931  1.00  0.00     0.049 A 
ATOM     17  N   UNL A   1      40.198  28.723  29.738  1.00  0.00    -0.248 NA
ATOM     18  C   UNL A   1      38.857  28.625  27.829  1.00  0.00     0.031 C 
ATOM     19  C   UNL A   1      37.278  31.578  31.566  1.00  0.00     0.029 A 
ATOM     20  N   UNL A   1      39.242  30.545  31.843  1.00  0.00    -0.354 N 
ATOM     21  C   UNL A   1      40.776  27.858  28.818  1.00  0.00     0.074 A 
ATOM     22  C   UNL A   1      39.885  27.803  27.677  1.00  0.00     0.031 C 
ATOM     23  C   UNL A   1      37.759  31.944  32.762  1.00  0.00     0.029 A 
ATOM     24  C   UNL A   1      39.011  31.237  33.006  1.00  0.00     0.049 A 
ATOM     25  H   UNL A   1      40.058  30.018  31.680  1.00  0.00     0.167 HD
ATOM     26  C   UNL A   1      41.943  27.178  28.922  1.00  0.00     0.037 A 
ATOM     27  C   UNL A   1      39.705  31.265  34.159  1.00  0.00     0.037 A 
ATOM     28  C   UNL A   1      42.816  27.243  30.065  1.00  0.00     0.049 A 
ATOM     29  C   UNL A   1      40.970  30.464  34.271  1.00  0.00     0.074 A 
ATOM     30  C   UNL A   1      44.040  26.625  30.253  1.00  0.00     0.029 A 
ATOM     31  N   UNL A   1      42.548  27.957  31.226  1.00  0.00    -0.354 N 
ATOM     32  N   UNL A   1      41.531  29.679  33.384  1.00  0.00    -0.248 NA
ATOM     33  C   UNL A   1      41.702  30.553  35.542  1.00  0.00     0.031 C 
ATOM     34  C   UNL A   1      44.480  26.911  31.550  1.00  0.00     0.029 A 
ATOM     35  C   UNL A   1      43.569  27.769  32.145  1.00  0.00     0.049 A 
ATOM     36  H   UNL A   1      41.751  28.516  31.373  1.00  0.00     0.167 HD
ATOM     37  C   UNL A   1      42.695  29.205  33.973  1.00  0.00     0.074 A 
ATOM     38  C   UNL A   1      42.759  29.791  35.297  1.00  0.00     0.031 C 
ATOM     39  C   UNL A   1      43.628  28.368  33.456  1.00  0.00     0.037 A 
BRANCH  26  40
ATOM     40  C   UNL A   1      42.319  26.270  27.783  1.00  0.00     0.064 A 
ATOM     41  C   UNL A   1      41.766  24.988  27.638  1.00  0.00     0.173 A 
ATOM     42  C   UNL A   1      43.243  26.694  26.816  1.00  0.00     0.173 A 
ATOM     43  F   UNL A   1      40.882  24.528  28.537  1.00  0.00    -0.203 F 
ATOM     44  C   UNL A   1      42.159  24.149  26.597  1.00  0.00     0.198 A 
ATOM     45  C   UNL A   1      43.607  25.867  25.756  1.00  0.00     0.198 A 
ATOM     46  F   UNL A   1      43.797  27.913  26.896  1.00  0.00    -0.203 F 
ATOM     47  F   UNL A   1      41.668  22.905  26.520  1.00  0.00    -0.200 F 
ATOM     48  C   UNL A   1      43.076  24.591  25.655  1.00  0.00     0.200 A 
ATOM     49  F   UNL A   1      44.480  26.303  24.837  1.00  0.00    -0.200 F 
ATOM     50  F   UNL A   1      43.455  23.782  24.656  1.00  0.00    -0.200 F 
ENDBRANCH  26  40
BRANCH  27  51
ATOM     51  C   UNL A   1      39.195  32.081  35.289  1.00  0.00     0.064 A 
ATOM     52  C   UNL A   1      38.427  31.504  36.307  1.00  0.00     0.173 A 
ATOM     53  C   UNL A   1      39.515  33.443  35.403  1.00  0.00     0.173 A 
ATOM     54  F   UNL A   1      38.084  30.209  36.235  1.00  0.00    -0.203 F 
ATOM     55  C   UNL A   1      37.995  32.257  37.396  1.00  0.00     0.198 A 
ATOM     56  C   UNL A   1      39.107  34.189  36.505  1.00  0.00     0.198 A 
ATOM     57  F   UNL A   1      40.256  34.040  34.457  1.00  0.00    -0.203 F 
ATOM     58  F   UNL A   1      37.239  31.688  38.345  1.00  0.00    -0.200 F 
ATOM     59  C   UNL A   1      38.343  33.597  37.499  1.00  0.00     0.200 A 
ATOM     60  F   UNL A   1      39.465  35.476  36.611  1.00  0.00    -0.200 F 
ATOM     61  F   UNL A   1      37.945  34.315  38.558  1.00  0.00    -0.200 F 
ENDBRANCH  27  51
BRANCH  39  62
ATOM     62  C   UNL A   1      44.838  28.073  34.294  1.00  0.00     0.064 A 
ATOM     63  C   UNL A   1      44.903  26.953  35.135  1.00  0.00     0.173 A 
ATOM     64  C   UNL A   1      45.979  28.884  34.189  1.00  0.00     0.173 A 
ATOM     65  F   UNL A   1      43.834  26.156  35.285  1.00  0.00    -0.203 F 
ATOM     66  C   UNL A   1      46.065  26.660  35.847  1.00  0.00     0.198 A 
ATOM     67  C   UNL A   1      47.147  28.571  34.876  1.00  0.00     0.198 A 
ATOM     68  F   UNL A   1      45.968  29.964  33.394  1.00  0.00    -0.203 F 
ATOM     69  F   UNL A   1      46.096  25.603  36.670  1.00  0.00    -0.200 F 
ATOM     70  C   UNL A   1      47.189  27.462  35.707  1.00  0.00     0.200 A 
ATOM     71  F   UNL A   1      48.236  29.338  34.727  1.00  0.00    -0.200 F 
ATOM     72  F   UNL A   1      48.312  27.166  36.375  1.00  0.00    -0.200 F 
ENDBRANCH  39  62
ENDBRANCH  13  14
ENDBRANCH   6   8
ENDBRANCH   3   4
ENDBRANCH   2   3
ENDBRANCH   1   2
BRANCH   1  73
ATOM     73  C   UNL A   1      32.635  26.807  22.375  1.00  0.00     0.002 C 
BRANCH  73  74
ATOM     74  C   UNL A   1      31.201  27.316  22.554  1.00  0.00     0.021 C 
BRANCH  74  75
ATOM     75  C   UNL A   1      30.365  26.531  23.561  1.00  0.00     0.116 C 
BRANCH  75  76
ATOM     76  N   UNL A   1      30.525  27.041  24.913  1.00  0.00    -0.352 N 
ATOM     77  C   UNL A   1      31.176  26.467  25.973  1.00  0.00     0.251 C 
ATOM     78  H   UNL A   1      30.110  27.915  25.090  1.00  0.00     0.163 HD
ATOM     79  O   UNL A   1      31.057  26.929  27.105  1.00  0.00    -0.269 OA
BRANCH  77  80
ATOM     80  C   UNL A   1      32.003  25.264  25.752  1.00  0.00     0.042 A 
ATOM     81  C   UNL A   1      33.403  25.359  25.740  1.00  0.00     0.016 A 
ATOM     82  C   UNL A   1      31.344  24.042  25.563  1.00  0.00     0.042 A 
ATOM     83  C   UNL A   1      34.188  24.235  25.460  1.00  0.00     0.031 A 
ATOM     84  C   UNL A   1      32.159  22.941  25.298  1.00  0.00     0.066 A 
ATOM     85  C   UNL A   1      33.546  23.011  25.229  1.00  0.00     0.089 A 
ATOM     86  N   UNL A   1      31.876  21.623  25.060  1.00  0.00    -0.342 N 
ATOM     87  N   UNL A   1      34.083  21.785  24.939  1.00  0.00    -0.233 NA
ATOM     88  C   UNL A   1      33.061  20.957  24.855  1.00  0.00     0.110 A 
ATOM     89  H   UNL A   1      30.978  21.220  25.040  1.00  0.00     0.168 HD
BRANCH  88  90
ATOM     90  C   UNL A   1      33.139  19.479  24.623  1.00  0.00     0.055 C 
ATOM     91  C   UNL A   1      32.465  19.105  23.294  1.00  0.00     0.011 C 
ATOM     92  C   UNL A   1      34.584  18.967  24.687  1.00  0.00     0.011 C 
ATOM     93  C   UNL A   1      32.558  17.609  23.014  1.00  0.00     0.001 C 
ATOM     94  C   UNL A   1      34.663  17.470  24.397  1.00  0.00     0.001 C 
ATOM     95  C   UNL A   1      34.003  17.121  23.067  1.00  0.00     0.000 C 
ENDBRANCH  88  90
ENDBRANCH  77  80
ENDBRANCH  75  76
ENDBRANCH  74  75
ENDBRANCH  73  74
ENDBRANCH   1  73
TORSDOF 14
ENDMDL
