MODEL 1
REMARK VINA RESULT:     -12.2      0.000      0.000
REMARK SMILES COc1cccc(C(=O)N[C@H]2C=C[C@@H](C(=O)NCCCCCCNC(=O)c3ccc(-c4c5nc(c(-c6c(F)c(F)c(F)c(F)c6F)c6ccc([nH]6)c(-c6c(F)c(F)c(F)c(F)c6F)c6nc(c(-c7c(F)c(F)c(F)c(F)c7F)c7ccc4[nH]7)C=C6)C=C5)cc3)C2)c1
REMARK SMILES IDX 20 1 19 2 18 3 17 4 15 5 16 6 14 8 11 9 12 10 90 11 13 12
REMARK SMILES IDX 10 13 8 14 9 15 7 17 3 18 4 19 91 20 5 21 6 22 2 23 1 24
REMARK SMILES IDX 21 25 22 26 23 27 24 28 25 29 26 31 27 32 28 33 89 34 29 35
REMARK SMILES IDX 88 36 30 37 31 38 32 39 82 40 33 41 87 42 81 43 83 44 34 45
REMARK SMILES IDX 86 46 80 47 79 48 35 50 67 51 47 52 66 53 48 54 51 55 65 56
REMARK SMILES IDX 84 57 49 58 50 59 64 61 85 62 52 63 36 64 37 65 45 66 38 67
REMARK SMILES IDX 39 68 43 69 46 70 40 71 41 72 44 73 42 74 68 75 69 76 77 77
REMARK SMILES IDX 70 78 71 79 75 80 78 81 72 82 73 83 76 84 74 85 53 86 54 87
REMARK SMILES IDX 62 88 55 89 56 90 60 91 63 92 57 93 58 94 61 95 59 96
REMARK H PARENT 17 7 10 16 24 30 83 49 51 60
REMARK Flexibility Score: inf
ROOT
ATOM      1  C   UNL A   1      32.256  29.799  27.135  1.00  0.00     0.002 C 
ENDROOT
BRANCH   1   2
ATOM      2  C   UNL A   1      32.269  28.351  26.642  1.00  0.00     0.021 C 
BRANCH   2   3
ATOM      3  C   UNL A   1      33.650  27.881  26.195  1.00  0.00     0.116 C 
BRANCH   3   4
ATOM      4  N   UNL A   1      34.048  28.552  24.973  1.00  0.00    -0.356 N 
ATOM      5  C   UNL A   1      33.900  28.187  23.673  1.00  0.00     0.227 C 
ATOM      6  O   UNL A   1      34.376  28.930  22.810  1.00  0.00    -0.274 OA
ATOM      7  H   UNL A   1      34.502  29.416  25.109  1.00  0.00     0.163 HD
BRANCH   5   8
ATOM      8  C   UNL A   1      33.128  26.935  23.268  1.00  0.00     0.103 C 
ATOM      9  C   UNL A   1      31.889  25.106  24.318  1.00  0.00     0.106 C 
ATOM     10  C   UNL A   1      30.985  26.209  23.866  1.00  0.00    -0.006 C 
ATOM     11  C   UNL A   1      33.295  25.714  24.184  1.00  0.00     0.047 C 
ATOM     12  C   UNL A   1      31.654  27.195  23.263  1.00  0.00    -0.016 C 
BRANCH   9  13
ATOM     13  N   UNL A   1      31.514  24.692  25.651  1.00  0.00    -0.346 N 
ATOM     14  C   UNL A   1      31.880  23.605  26.419  1.00  0.00     0.251 C 
ATOM     15  O   UNL A   1      31.386  23.538  27.547  1.00  0.00    -0.269 OA
ATOM     16  H   UNL A   1      30.877  25.299  26.094  1.00  0.00     0.164 HD
BRANCH  14  17
ATOM     17  C   UNL A   1      32.781  22.493  25.957  1.00  0.00     0.043 A 
ATOM     18  C   UNL A   1      34.969  21.441  25.632  1.00  0.00     0.119 A 
ATOM     19  C   UNL A   1      34.378  20.422  24.897  1.00  0.00     0.046 A 
ATOM     20  C   UNL A   1      34.160  22.438  26.177  1.00  0.00     0.060 A 
ATOM     21  C   UNL A   1      32.994  20.402  24.720  1.00  0.00     0.005 A 
ATOM     22  C   UNL A   1      32.203  21.436  25.238  1.00  0.00     0.014 A 
BRANCH  18  23
ATOM     23  O   UNL A   1      36.333  21.392  25.748  1.00  0.00    -0.497 OA
ATOM     24  C   UNL A   1      37.017  20.431  24.944  1.00  0.00     0.278 C 
ENDBRANCH  18  23
ENDBRANCH  14  17
ENDBRANCH   9  13
ENDBRANCH   5   8
ENDBRANCH   3   4
ENDBRANCH   2   3
ENDBRANCH   1   2
BRANCH   1  25
ATOM     25  C   UNL A   1      31.646  30.798  26.148  1.00  0.00     0.002 C 
BRANCH  25  26
ATOM     26  C   UNL A   1      31.422  32.200  26.719  1.00  0.00     0.021 C 
BRANCH  26  27
ATOM     27  C   UNL A   1      32.670  32.832  27.326  1.00  0.00     0.116 C 
BRANCH  27  28
ATOM     28  N   UNL A   1      32.464  34.238  27.641  1.00  0.00    -0.352 N 
ATOM     29  C   UNL A   1      33.028  34.993  28.636  1.00  0.00     0.251 C 
ATOM     30  H   UNL A   1      31.830  34.713  27.058  1.00  0.00     0.163 HD
ATOM     31  O   UNL A   1      32.577  36.102  28.910  1.00  0.00    -0.269 OA
BRANCH  29  32
ATOM     32  C   UNL A   1      34.170  34.452  29.396  1.00  0.00     0.039 A 
ATOM     33  C   UNL A   1      33.934  33.824  30.620  1.00  0.00     0.014 A 
ATOM     34  C   UNL A   1      35.467  34.540  28.881  1.00  0.00     0.014 A 
ATOM     35  C   UNL A   1      34.992  33.211  31.292  1.00  0.00     0.010 A 
ATOM     36  C   UNL A   1      36.506  33.868  29.515  1.00  0.00     0.010 A 
ATOM     37  C   UNL A   1      36.276  33.186  30.720  1.00  0.00    -0.014 A 
BRANCH  37  38
ATOM     38  C   UNL A   1      37.379  32.411  31.340  1.00  0.00     0.031 A 
ATOM     39  C   UNL A   1      37.908  32.793  32.691  1.00  0.00     0.074 A 
ATOM     40  C   UNL A   1      37.955  31.414  30.642  1.00  0.00     0.049 A 
ATOM     41  N   UNL A   1      38.922  32.295  33.352  1.00  0.00    -0.248 NA
ATOM     42  C   UNL A   1      37.223  33.896  33.382  1.00  0.00     0.031 C 
ATOM     43  C   UNL A   1      37.555  30.979  29.302  1.00  0.00     0.029 A 
ATOM     44  N   UNL A   1      39.012  30.595  30.954  1.00  0.00    -0.354 N 
ATOM     45  C   UNL A   1      39.000  33.026  34.530  1.00  0.00     0.074 A 
ATOM     46  C   UNL A   1      37.965  34.035  34.471  1.00  0.00     0.031 C 
ATOM     47  C   UNL A   1      38.341  29.964  28.916  1.00  0.00     0.029 A 
ATOM     48  C   UNL A   1      39.334  29.709  29.954  1.00  0.00     0.049 A 
ATOM     49  H   UNL A   1      39.493  30.638  31.811  1.00  0.00     0.167 HD
ATOM     50  C   UNL A   1      39.848  32.855  35.572  1.00  0.00     0.037 A 
ATOM     51  C   UNL A   1      40.331  28.806  29.875  1.00  0.00     0.037 A 
ATOM     52  C   UNL A   1      40.871  31.844  35.625  1.00  0.00     0.049 A 
ATOM     53  C   UNL A   1      41.287  28.670  31.030  1.00  0.00     0.074 A 
ATOM     54  C   UNL A   1      41.740  31.552  36.663  1.00  0.00     0.029 A 
ATOM     55  N   UNL A   1      41.172  30.967  34.593  1.00  0.00    -0.354 N 
ATOM     56  N   UNL A   1      41.303  29.313  32.172  1.00  0.00    -0.248 NA
ATOM     57  C   UNL A   1      42.363  27.681  30.884  1.00  0.00     0.031 C 
ATOM     58  C   UNL A   1      42.607  30.541  36.234  1.00  0.00     0.029 A 
ATOM     59  C   UNL A   1      42.239  30.159  34.954  1.00  0.00     0.049 A 
ATOM     60  H   UNL A   1      40.697  30.925  33.732  1.00  0.00     0.167 HD
ATOM     61  C   UNL A   1      42.373  28.794  32.888  1.00  0.00     0.074 A 
ATOM     62  C   UNL A   1      42.969  27.766  32.060  1.00  0.00     0.031 C 
ATOM     63  C   UNL A   1      42.822  29.139  34.120  1.00  0.00     0.037 A 
BRANCH  50  64
ATOM     64  C   UNL A   1      39.710  33.788  36.742  1.00  0.00     0.064 A 
ATOM     65  C   UNL A   1      40.344  35.040  36.765  1.00  0.00     0.173 A 
ATOM     66  C   UNL A   1      38.898  33.445  37.833  1.00  0.00     0.173 A 
ATOM     67  F   UNL A   1      41.139  35.414  35.751  1.00  0.00    -0.203 F 
ATOM     68  C   UNL A   1      40.193  35.901  37.850  1.00  0.00     0.198 A 
ATOM     69  C   UNL A   1      38.722  34.322  38.901  1.00  0.00     0.198 A 
ATOM     70  F   UNL A   1      38.262  32.265  37.860  1.00  0.00    -0.203 F 
ATOM     71  F   UNL A   1      40.847  37.070  37.871  1.00  0.00    -0.200 F 
ATOM     72  C   UNL A   1      39.376  35.545  38.912  1.00  0.00     0.200 A 
ATOM     73  F   UNL A   1      37.919  33.984  39.920  1.00  0.00    -0.200 F 
ATOM     74  F   UNL A   1      39.223  36.379  39.950  1.00  0.00    -0.200 F 
ENDBRANCH  50  64
BRANCH  51  75
ATOM     75  C   UNL A   1      40.475  27.962  28.661  1.00  0.00     0.064 A 
ATOM     76  C   UNL A   1      41.241  28.396  27.569  1.00  0.00     0.173 A 
ATOM     77  C   UNL A   1      39.848  26.712  28.560  1.00  0.00     0.173 A 
ATOM     78  F   UNL A   1      41.844  29.594  27.608  1.00  0.00    -0.203 F 
ATOM     79  C   UNL A   1      41.356  27.621  26.416  1.00  0.00     0.198 A 
ATOM     80  C   UNL A   1      39.989  25.924  27.419  1.00  0.00     0.198 A 
ATOM     81  F   UNL A   1      39.107  26.247  29.576  1.00  0.00    -0.203 F 
ATOM     82  F   UNL A   1      42.051  28.084  25.369  1.00  0.00    -0.200 F 
ATOM     83  C   UNL A   1      40.735  26.384  26.345  1.00  0.00     0.200 A 
ATOM     84  F   UNL A   1      39.402  24.720  27.362  1.00  0.00    -0.200 F 
ATOM     85  F   UNL A   1      40.849  25.638  25.238  1.00  0.00    -0.200 F 
ENDBRANCH  51  75
BRANCH  63  86
ATOM     86  C   UNL A   1      44.003  28.385  34.660  1.00  0.00     0.064 A 
ATOM     87  C   UNL A   1      45.314  28.857  34.503  1.00  0.00     0.173 A 
ATOM     88  C   UNL A   1      43.816  27.200  35.390  1.00  0.00     0.173 A 
ATOM     89  F   UNL A   1      45.548  29.976  33.800  1.00  0.00    -0.203 F 
ATOM     90  C   UNL A   1      46.395  28.162  35.037  1.00  0.00     0.198 A 
ATOM     91  C   UNL A   1      44.896  26.524  35.951  1.00  0.00     0.198 A 
ATOM     92  F   UNL A   1      42.583  26.706  35.574  1.00  0.00    -0.203 F 
ATOM     93  F   UNL A   1      47.642  28.608  34.835  1.00  0.00    -0.200 F 
ATOM     94  C   UNL A   1      46.185  27.003  35.769  1.00  0.00     0.200 A 
ATOM     95  F   UNL A   1      44.689  25.414  36.671  1.00  0.00    -0.200 F 
ATOM     96  F   UNL A   1      47.226  26.342  36.295  1.00  0.00    -0.200 F 
ENDBRANCH  63  86
ENDBRANCH  37  38
ENDBRANCH  29  32
ENDBRANCH  27  28
ENDBRANCH  26  27
ENDBRANCH  25  26
ENDBRANCH   1  25
TORSDOF 16
ENDMDL
MODEL 2
REMARK VINA RESULT:     -12.1      5.257     10.094
REMARK SMILES COc1cccc(C(=O)N[C@H]2C=C[C@@H](C(=O)NCCCCCCNC(=O)c3ccc(-c4c5nc(c(-c6c(F)c(F)c(F)c(F)c6F)c6ccc([nH]6)c(-c6c(F)c(F)c(F)c(F)c6F)c6nc(c(-c7c(F)c(F)c(F)c(F)c7F)c7ccc4[nH]7)C=C6)C=C5)cc3)C2)c1
REMARK SMILES IDX 20 1 19 2 18 3 17 4 15 5 16 6 14 8 11 9 12 10 90 11 13 12
REMARK SMILES IDX 10 13 8 14 9 15 7 17 3 18 4 19 91 20 5 21 6 22 2 23 1 24
REMARK SMILES IDX 21 25 22 26 23 27 24 28 25 29 26 31 27 32 28 33 89 34 29 35
REMARK SMILES IDX 88 36 30 37 31 38 32 39 82 40 33 41 87 42 81 43 83 44 34 45
REMARK SMILES IDX 86 46 80 47 79 48 35 50 67 51 47 52 66 53 48 54 51 55 65 56
REMARK SMILES IDX 84 57 49 58 50 59 64 61 85 62 52 63 36 64 37 65 45 66 38 67
REMARK SMILES IDX 39 68 43 69 46 70 40 71 41 72 44 73 42 74 68 75 69 76 77 77
REMARK SMILES IDX 70 78 71 79 75 80 78 81 72 82 73 83 76 84 74 85 53 86 54 87
REMARK SMILES IDX 62 88 55 89 56 90 60 91 63 92 57 93 58 94 61 95 59 96
REMARK H PARENT 17 7 10 16 24 30 83 49 51 60
REMARK Flexibility Score: inf
ROOT
ATOM      1  C   UNL A   1      35.307  20.730  24.544  1.00  0.00     0.002 C 
ENDROOT
BRANCH   1   2
ATOM      2  C   UNL A   1      34.497  19.437  24.667  1.00  0.00     0.021 C 
BRANCH   2   3
ATOM      3  C   UNL A   1      33.146  19.637  25.346  1.00  0.00     0.116 C 
BRANCH   3   4
ATOM      4  N   UNL A   1      33.305  20.341  26.604  1.00  0.00    -0.356 N 
ATOM      5  C   UNL A   1      32.996  21.619  26.949  1.00  0.00     0.227 C 
ATOM      6  O   UNL A   1      33.279  21.988  28.092  1.00  0.00    -0.274 OA
ATOM      7  H   UNL A   1      33.703  19.804  27.327  1.00  0.00     0.163 HD
BRANCH   5   8
ATOM      8  C   UNL A   1      32.276  22.563  25.992  1.00  0.00     0.103 C 
ATOM      9  C   UNL A   1      31.404  24.849  25.957  1.00  0.00     0.106 C 
ATOM     10  C   UNL A   1      32.774  24.762  25.363  1.00  0.00    -0.006 C 
ATOM     11  C   UNL A   1      31.210  23.474  26.619  1.00  0.00     0.047 C 
ATOM     12  C   UNL A   1      33.241  23.511  25.350  1.00  0.00    -0.016 C 
BRANCH   9  13
ATOM     13  N   UNL A   1      31.337  25.984  26.848  1.00  0.00    -0.346 N 
ATOM     14  C   UNL A   1      31.399  27.344  26.619  1.00  0.00     0.251 C 
ATOM     15  O   UNL A   1      31.296  28.073  27.609  1.00  0.00    -0.269 OA
ATOM     16  H   UNL A   1      31.227  25.743  27.797  1.00  0.00     0.164 HD
BRANCH  14  17
ATOM     17  C   UNL A   1      31.634  27.977  25.276  1.00  0.00     0.043 A 
ATOM     18  C   UNL A   1      30.947  28.648  23.022  1.00  0.00     0.119 A 
ATOM     19  C   UNL A   1      32.248  29.040  22.735  1.00  0.00     0.046 A 
ATOM     20  C   UNL A   1      30.655  28.157  24.294  1.00  0.00     0.060 A 
ATOM     21  C   UNL A   1      33.237  28.947  23.715  1.00  0.00     0.005 A 
ATOM     22  C   UNL A   1      32.934  28.410  24.972  1.00  0.00     0.014 A 
BRANCH  18  23
ATOM     23  O   UNL A   1      30.040  28.762  22.002  1.00  0.00    -0.497 OA
ATOM     24  C   UNL A   1      29.558  30.074  21.708  1.00  0.00     0.278 C 
ENDBRANCH  18  23
ENDBRANCH  14  17
ENDBRANCH   9  13
ENDBRANCH   5   8
ENDBRANCH   3   4
ENDBRANCH   2   3
ENDBRANCH   1   2
BRANCH   1  25
ATOM     25  C   UNL A   1      36.508  20.817  25.490  1.00  0.00     0.002 C 
BRANCH  25  26
ATOM     26  C   UNL A   1      37.757  20.079  25.000  1.00  0.00     0.021 C 
BRANCH  26  27
ATOM     27  C   UNL A   1      39.039  20.483  25.720  1.00  0.00     0.116 C 
BRANCH  27  28
ATOM     28  N   UNL A   1      39.927  19.347  25.917  1.00  0.00    -0.352 N 
ATOM     29  C   UNL A   1      41.282  19.334  26.127  1.00  0.00     0.251 C 
ATOM     30  H   UNL A   1      39.494  18.464  25.897  1.00  0.00     0.163 HD
ATOM     31  O   UNL A   1      41.916  18.285  26.047  1.00  0.00    -0.269 OA
BRANCH  29  32
ATOM     32  C   UNL A   1      41.979  20.598  26.428  1.00  0.00     0.039 A 
ATOM     33  C   UNL A   1      42.409  21.404  25.373  1.00  0.00     0.014 A 
ATOM     34  C   UNL A   1      42.179  20.996  27.754  1.00  0.00     0.014 A 
ATOM     35  C   UNL A   1      42.969  22.652  25.646  1.00  0.00     0.010 A 
ATOM     36  C   UNL A   1      42.671  22.270  28.022  1.00  0.00     0.010 A 
ATOM     37  C   UNL A   1      43.058  23.114  26.970  1.00  0.00    -0.014 A 
BRANCH  37  38
ATOM     38  C   UNL A   1      43.507  24.495  27.274  1.00  0.00     0.031 A 
ATOM     39  C   UNL A   1      42.538  25.509  27.808  1.00  0.00     0.074 A 
ATOM     40  C   UNL A   1      44.775  24.853  26.989  1.00  0.00     0.049 A 
ATOM     41  N   UNL A   1      42.722  26.782  28.048  1.00  0.00    -0.248 NA
ATOM     42  C   UNL A   1      41.174  25.035  28.088  1.00  0.00     0.031 C 
ATOM     43  C   UNL A   1      45.796  23.966  26.428  1.00  0.00     0.029 A 
ATOM     44  N   UNL A   1      45.416  26.059  27.115  1.00  0.00    -0.354 N 
ATOM     45  C   UNL A   1      41.500  27.262  28.499  1.00  0.00     0.074 A 
ATOM     46  C   UNL A   1      40.568  26.156  28.451  1.00  0.00     0.031 C 
ATOM     47  C   UNL A   1      46.938  24.652  26.276  1.00  0.00     0.029 A 
ATOM     48  C   UNL A   1      46.719  26.038  26.677  1.00  0.00     0.049 A 
ATOM     49  H   UNL A   1      44.984  26.864  27.482  1.00  0.00     0.167 HD
ATOM     50  C   UNL A   1      41.192  28.508  28.931  1.00  0.00     0.037 A 
ATOM     51  C   UNL A   1      47.627  27.028  26.590  1.00  0.00     0.037 A 
ATOM     52  C   UNL A   1      42.128  29.601  28.981  1.00  0.00     0.049 A 
ATOM     53  C   UNL A   1      47.243  28.414  27.035  1.00  0.00     0.074 A 
ATOM     54  C   UNL A   1      41.927  30.885  29.459  1.00  0.00     0.029 A 
ATOM     55  N   UNL A   1      43.437  29.544  28.526  1.00  0.00    -0.354 N 
ATOM     56  N   UNL A   1      46.108  28.839  27.533  1.00  0.00    -0.248 NA
ATOM     57  C   UNL A   1      48.268  29.458  26.904  1.00  0.00     0.031 C 
ATOM     58  C   UNL A   1      43.095  31.620  29.236  1.00  0.00     0.029 A 
ATOM     59  C   UNL A   1      44.045  30.781  28.676  1.00  0.00     0.049 A 
ATOM     60  H   UNL A   1      43.870  28.743  28.152  1.00  0.00     0.167 HD
ATOM     61  C   UNL A   1      46.287  30.190  27.796  1.00  0.00     0.074 A 
ATOM     62  C   UNL A   1      47.648  30.510  27.422  1.00  0.00     0.031 C 
ATOM     63  C   UNL A   1      45.402  31.085  28.300  1.00  0.00     0.037 A 
BRANCH  50  64
ATOM     64  C   UNL A   1      39.780  28.761  29.380  1.00  0.00     0.064 A 
ATOM     65  C   UNL A   1      39.389  28.579  30.716  1.00  0.00     0.173 A 
ATOM     66  C   UNL A   1      38.820  29.235  28.475  1.00  0.00     0.173 A 
ATOM     67  F   UNL A   1      40.266  28.119  31.621  1.00  0.00    -0.203 F 
ATOM     68  C   UNL A   1      38.081  28.834  31.121  1.00  0.00     0.198 A 
ATOM     69  C   UNL A   1      37.521  29.521  28.891  1.00  0.00     0.198 A 
ATOM     70  F   UNL A   1      39.141  29.435  27.189  1.00  0.00    -0.203 F 
ATOM     71  F   UNL A   1      37.718  28.606  32.391  1.00  0.00    -0.200 F 
ATOM     72  C   UNL A   1      37.151  29.312  30.211  1.00  0.00     0.200 A 
ATOM     73  F   UNL A   1      36.628  30.000  28.013  1.00  0.00    -0.200 F 
ATOM     74  F   UNL A   1      35.896  29.568  30.605  1.00  0.00    -0.200 F 
ENDBRANCH  50  64
BRANCH  51  75
ATOM     75  C   UNL A   1      48.987  26.745  26.062  1.00  0.00     0.064 A 
ATOM     76  C   UNL A   1      49.998  26.253  26.901  1.00  0.00     0.173 A 
ATOM     77  C   UNL A   1      49.310  26.967  24.715  1.00  0.00     0.173 A 
ATOM     78  F   UNL A   1      49.745  26.045  28.202  1.00  0.00    -0.203 F 
ATOM     79  C   UNL A   1      51.283  26.015  26.417  1.00  0.00     0.198 A 
ATOM     80  C   UNL A   1      50.586  26.698  24.226  1.00  0.00     0.198 A 
ATOM     81  F   UNL A   1      48.380  27.433  23.869  1.00  0.00    -0.203 F 
ATOM     82  F   UNL A   1      52.242  25.594  27.253  1.00  0.00    -0.200 F 
ATOM     83  C   UNL A   1      51.574  26.231  25.079  1.00  0.00     0.200 A 
ATOM     84  F   UNL A   1      50.859  26.891  22.928  1.00  0.00    -0.200 F 
ATOM     85  F   UNL A   1      52.809  25.998  24.614  1.00  0.00    -0.200 F 
ENDBRANCH  51  75
BRANCH  63  86
ATOM     86  C   UNL A   1      45.883  32.494  28.499  1.00  0.00     0.064 A 
ATOM     87  C   UNL A   1      46.531  32.892  29.677  1.00  0.00     0.173 A 
ATOM     88  C   UNL A   1      45.739  33.445  27.477  1.00  0.00     0.173 A 
ATOM     89  F   UNL A   1      46.679  32.025  30.691  1.00  0.00    -0.203 F 
ATOM     90  C   UNL A   1      46.999  34.194  29.833  1.00  0.00     0.198 A 
ATOM     91  C   UNL A   1      46.236  34.736  27.622  1.00  0.00     0.198 A 
ATOM     92  F   UNL A   1      45.130  33.115  26.327  1.00  0.00    -0.203 F 
ATOM     93  F   UNL A   1      47.574  34.564  30.985  1.00  0.00    -0.200 F 
ATOM     94  C   UNL A   1      46.861  35.111  28.803  1.00  0.00     0.200 A 
ATOM     95  F   UNL A   1      46.116  35.616  26.619  1.00  0.00    -0.200 F 
ATOM     96  F   UNL A   1      47.323  36.361  28.948  1.00  0.00    -0.200 F 
ENDBRANCH  63  86
ENDBRANCH  37  38
ENDBRANCH  29  32
ENDBRANCH  27  28
ENDBRANCH  26  27
ENDBRANCH  25  26
ENDBRANCH   1  25
TORSDOF 16
ENDMDL
MODEL 3
REMARK VINA RESULT:     -12.1      5.418      9.944
REMARK SMILES COc1cccc(C(=O)N[C@H]2C=C[C@@H](C(=O)NCCCCCCNC(=O)c3ccc(-c4c5nc(c(-c6c(F)c(F)c(F)c(F)c6F)c6ccc([nH]6)c(-c6c(F)c(F)c(F)c(F)c6F)c6nc(c(-c7c(F)c(F)c(F)c(F)c7F)c7ccc4[nH]7)C=C6)C=C5)cc3)C2)c1
REMARK SMILES IDX 20 1 19 2 18 3 17 4 15 5 16 6 14 8 11 9 12 10 90 11 13 12
REMARK SMILES IDX 10 13 8 14 9 15 7 17 3 18 4 19 91 20 5 21 6 22 2 23 1 24
REMARK SMILES IDX 21 25 22 26 23 27 24 28 25 29 26 31 27 32 28 33 89 34 29 35
REMARK SMILES IDX 88 36 30 37 31 38 32 39 82 40 33 41 87 42 81 43 83 44 34 45
REMARK SMILES IDX 86 46 80 47 79 48 35 50 67 51 47 52 66 53 48 54 51 55 65 56
REMARK SMILES IDX 84 57 49 58 50 59 64 61 85 62 52 63 36 64 37 65 45 66 38 67
REMARK SMILES IDX 39 68 43 69 46 70 40 71 41 72 44 73 42 74 68 75 69 76 77 77
REMARK SMILES IDX 70 78 71 79 75 80 78 81 72 82 73 83 76 84 74 85 53 86 54 87
REMARK SMILES IDX 62 88 55 89 56 90 60 91 63 92 57 93 58 94 61 95 59 96
REMARK H PARENT 17 7 10 16 24 30 83 49 51 60
REMARK Flexibility Score: inf
ROOT
ATOM      1  C   UNL A   1      36.596  21.888  25.747  1.00  0.00     0.002 C 
ENDROOT
BRANCH   1   2
ATOM      2  C   UNL A   1      36.834  23.397  25.649  1.00  0.00     0.021 C 
BRANCH   2   3
ATOM      3  C   UNL A   1      35.562  24.189  25.364  1.00  0.00     0.116 C 
BRANCH   3   4
ATOM      4  N   UNL A   1      35.179  24.057  23.972  1.00  0.00    -0.356 N 
ATOM      5  C   UNL A   1      34.054  23.545  23.406  1.00  0.00     0.227 C 
ATOM      6  O   UNL A   1      33.996  23.509  22.174  1.00  0.00    -0.274 OA
ATOM      7  H   UNL A   1      35.845  24.394  23.329  1.00  0.00     0.163 HD
BRANCH   5   8
ATOM      8  C   UNL A   1      32.870  23.074  24.245  1.00  0.00     0.103 C 
ATOM      9  C   UNL A   1      31.442  23.897  26.053  1.00  0.00     0.106 C 
ATOM     10  C   UNL A   1      30.825  24.113  24.707  1.00  0.00    -0.006 C 
ATOM     11  C   UNL A   1      32.887  23.484  25.725  1.00  0.00     0.047 C 
ATOM     12  C   UNL A   1      31.586  23.637  23.719  1.00  0.00    -0.016 C 
BRANCH   9  13
ATOM     13  N   UNL A   1      31.301  25.096  26.846  1.00  0.00    -0.346 N 
ATOM     14  C   UNL A   1      31.392  26.435  26.522  1.00  0.00     0.251 C 
ATOM     15  O   UNL A   1      31.203  27.236  27.440  1.00  0.00    -0.269 OA
ATOM     16  H   UNL A   1      31.103  24.927  27.796  1.00  0.00     0.164 HD
BRANCH  14  17
ATOM     17  C   UNL A   1      31.753  26.965  25.162  1.00  0.00     0.043 A 
ATOM     18  C   UNL A   1      31.211  27.861  22.947  1.00  0.00     0.119 A 
ATOM     19  C   UNL A   1      32.549  27.782  22.580  1.00  0.00     0.046 A 
ATOM     20  C   UNL A   1      30.842  27.485  24.238  1.00  0.00     0.060 A 
ATOM     21  C   UNL A   1      33.500  27.340  23.501  1.00  0.00     0.005 A 
ATOM     22  C   UNL A   1      33.103  26.925  24.779  1.00  0.00     0.014 A 
BRANCH  18  23
ATOM     23  O   UNL A   1      30.342  28.295  21.982  1.00  0.00    -0.497 OA
ATOM     24  C   UNL A   1      29.444  29.344  22.343  1.00  0.00     0.278 C 
ENDBRANCH  18  23
ENDBRANCH  14  17
ENDBRANCH   9  13
ENDBRANCH   5   8
ENDBRANCH   3   4
ENDBRANCH   2   3
ENDBRANCH   1   2
BRANCH   1  25
ATOM     25  C   UNL A   1      37.170  21.080  24.580  1.00  0.00     0.002 C 
BRANCH  25  26
ATOM     26  C   UNL A   1      38.047  19.897  24.996  1.00  0.00     0.021 C 
BRANCH  26  27
ATOM     27  C   UNL A   1      39.302  20.293  25.767  1.00  0.00     0.116 C 
BRANCH  27  28
ATOM     28  N   UNL A   1      40.225  19.176  25.905  1.00  0.00    -0.352 N 
ATOM     29  C   UNL A   1      41.582  19.194  26.094  1.00  0.00     0.251 C 
ATOM     30  H   UNL A   1      39.816  18.282  25.856  1.00  0.00     0.163 HD
ATOM     31  O   UNL A   1      42.244  18.168  25.962  1.00  0.00    -0.269 OA
BRANCH  29  32
ATOM     32  C   UNL A   1      42.248  20.464  26.435  1.00  0.00     0.039 A 
ATOM     33  C   UNL A   1      42.843  21.213  25.419  1.00  0.00     0.014 A 
ATOM     34  C   UNL A   1      42.257  20.925  27.756  1.00  0.00     0.014 A 
ATOM     35  C   UNL A   1      43.377  22.468  25.713  1.00  0.00     0.010 A 
ATOM     36  C   UNL A   1      42.725  22.205  28.033  1.00  0.00     0.010 A 
ATOM     37  C   UNL A   1      43.277  22.994  27.012  1.00  0.00    -0.014 A 
BRANCH  37  38
ATOM     38  C   UNL A   1      43.700  24.383  27.314  1.00  0.00     0.031 A 
ATOM     39  C   UNL A   1      42.701  25.390  27.806  1.00  0.00     0.074 A 
ATOM     40  C   UNL A   1      44.971  24.754  27.065  1.00  0.00     0.049 A 
ATOM     41  N   UNL A   1      42.862  26.669  28.037  1.00  0.00    -0.248 NA
ATOM     42  C   UNL A   1      41.335  24.902  28.049  1.00  0.00     0.031 C 
ATOM     43  C   UNL A   1      46.020  23.874  26.546  1.00  0.00     0.029 A 
ATOM     44  N   UNL A   1      45.593  25.970  27.197  1.00  0.00    -0.354 N 
ATOM     45  C   UNL A   1      41.621  27.138  28.444  1.00  0.00     0.074 A 
ATOM     46  C   UNL A   1      40.705  26.020  28.380  1.00  0.00     0.031 C 
ATOM     47  C   UNL A   1      47.158  24.573  26.422  1.00  0.00     0.029 A 
ATOM     48  C   UNL A   1      46.909  25.960  26.800  1.00  0.00     0.049 A 
ATOM     49  H   UNL A   1      45.140  26.773  27.541  1.00  0.00     0.167 HD
ATOM     50  C   UNL A   1      41.284  28.384  28.852  1.00  0.00     0.037 A 
ATOM     51  C   UNL A   1      47.807  26.960  26.730  1.00  0.00     0.037 A 
ATOM     52  C   UNL A   1      42.204  29.490  28.919  1.00  0.00     0.049 A 
ATOM     53  C   UNL A   1      47.392  28.347  27.147  1.00  0.00     0.074 A 
ATOM     54  C   UNL A   1      41.973  30.776  29.376  1.00  0.00     0.029 A 
ATOM     55  N   UNL A   1      43.528  29.444  28.505  1.00  0.00    -0.354 N 
ATOM     56  N   UNL A   1      46.237  28.762  27.604  1.00  0.00    -0.248 NA
ATOM     57  C   UNL A   1      48.408  29.402  27.036  1.00  0.00     0.031 C 
ATOM     58  C   UNL A   1      43.138  31.524  29.180  1.00  0.00     0.029 A 
ATOM     59  C   UNL A   1      44.115  30.690  28.660  1.00  0.00     0.049 A 
ATOM     60  H   UNL A   1      43.982  28.644  28.154  1.00  0.00     0.167 HD
ATOM     61  C   UNL A   1      46.391  30.118  27.857  1.00  0.00     0.074 A 
ATOM     62  C   UNL A   1      47.759  30.452  27.522  1.00  0.00     0.031 C 
ATOM     63  C   UNL A   1      45.480  31.007  28.323  1.00  0.00     0.037 A 
BRANCH  50  64
ATOM     64  C   UNL A   1      39.856  28.624  29.254  1.00  0.00     0.064 A 
ATOM     65  C   UNL A   1      39.418  28.420  30.572  1.00  0.00     0.173 A 
ATOM     66  C   UNL A   1      38.926  29.108  28.323  1.00  0.00     0.173 A 
ATOM     67  F   UNL A   1      40.264  27.950  31.501  1.00  0.00    -0.203 F 
ATOM     68  C   UNL A   1      38.095  28.663  30.934  1.00  0.00     0.198 A 
ATOM     69  C   UNL A   1      37.612  29.382  28.696  1.00  0.00     0.198 A 
ATOM     70  F   UNL A   1      39.292  29.329  27.052  1.00  0.00    -0.203 F 
ATOM     71  F   UNL A   1      37.688  28.415  32.186  1.00  0.00    -0.200 F 
ATOM     72  C   UNL A   1      37.196  29.152  29.998  1.00  0.00     0.200 A 
ATOM     73  F   UNL A   1      36.748  29.870  27.794  1.00  0.00    -0.200 F 
ATOM     74  F   UNL A   1      35.927  29.396  30.351  1.00  0.00    -0.200 F 
ENDBRANCH  50  64
BRANCH  51  75
ATOM     75  C   UNL A   1      49.187  26.689  26.248  1.00  0.00     0.064 A 
ATOM     76  C   UNL A   1      49.540  26.917  24.910  1.00  0.00     0.173 A 
ATOM     77  C   UNL A   1      50.177  26.191  27.107  1.00  0.00     0.173 A 
ATOM     78  F   UNL A   1      48.622  27.374  24.044  1.00  0.00    -0.203 F 
ATOM     79  C   UNL A   1      50.823  26.637  24.446  1.00  0.00     0.198 A 
ATOM     80  C   UNL A   1      51.469  25.941  26.648  1.00  0.00     0.198 A 
ATOM     81  F   UNL A   1      49.894  25.959  28.396  1.00  0.00    -0.203 F 
ATOM     82  F   UNL A   1      51.118  26.816  23.151  1.00  0.00    -0.200 F 
ATOM     83  C   UNL A   1      51.788  26.155  25.317  1.00  0.00     0.200 A 
ATOM     84  F   UNL A   1      52.404  25.492  27.498  1.00  0.00    -0.200 F 
ATOM     85  F   UNL A   1      53.024  25.890  24.871  1.00  0.00    -0.200 F 
ENDBRANCH  51  75
BRANCH  63  86
ATOM     86  C   UNL A   1      45.937  32.425  28.521  1.00  0.00     0.064 A 
ATOM     87  C   UNL A   1      45.791  33.393  27.518  1.00  0.00     0.173 A 
ATOM     88  C   UNL A   1      46.482  32.830  29.750  1.00  0.00     0.173 A 
ATOM     89  F   UNL A   1      45.290  33.053  26.320  1.00  0.00    -0.203 F 
ATOM     90  C   UNL A   1      46.191  34.710  27.729  1.00  0.00     0.198 A 
ATOM     91  C   UNL A   1      46.851  34.154  29.969  1.00  0.00     0.198 A 
ATOM     92  F   UNL A   1      46.639  31.945  30.745  1.00  0.00    -0.203 F 
ATOM     93  F   UNL A   1      46.083  35.607  26.740  1.00  0.00    -0.200 F 
ATOM     94  C   UNL A   1      46.710  35.091  28.956  1.00  0.00     0.200 A 
ATOM     95  F   UNL A   1      47.337  34.524  31.161  1.00  0.00    -0.200 F 
ATOM     96  F   UNL A   1      47.083  36.362  29.163  1.00  0.00    -0.200 F 
ENDBRANCH  63  86
ENDBRANCH  37  38
ENDBRANCH  29  32
ENDBRANCH  27  28
ENDBRANCH  26  27
ENDBRANCH  25  26
ENDBRANCH   1  25
TORSDOF 16
ENDMDL
