MODEL 1
REMARK VINA RESULT:     -13.0      0.000      0.000
REMARK SMILES O=C(NCCCCCCNC(=O)C1(c2ccccc2)CCN(S(=O)(=O)c2cccs2)CC1)c1ccc(-c2c3nc(c(-c4c(F)c(F)c(F)c(F)c4F)c4ccc([nH]4)c(-c4c(F)c(F)c(F)c(F)c4F)c4nc(c(-c5c(F)c(F)c(F)c(F)c5F)c5ccc2[nH]5)C=C4)C=C3)cc1
REMARK SMILES IDX 6 1 5 2 4 3 3 4 1 5 2 6 33 8 34 9 95 10 35 11 94 12 36 13
REMARK SMILES IDX 37 14 38 15 88 16 39 17 93 18 87 19 89 20 40 21 92 22 86 23
REMARK SMILES IDX 85 24 41 26 73 27 53 28 72 29 54 30 57 31 71 32 90 33 55 34
REMARK SMILES IDX 56 35 70 37 91 38 58 39 42 40 43 41 51 42 44 43 45 44 49 45
REMARK SMILES IDX 52 46 46 47 47 48 50 49 48 50 74 51 75 52 83 53 76 54 77 55
REMARK SMILES IDX 81 56 84 57 78 58 79 59 82 60 80 61 59 62 60 63 68 64 61 65
REMARK SMILES IDX 62 66 66 67 69 68 63 69 64 70 67 71 65 72 7 73 8 74 9 75
REMARK SMILES IDX 10 76 11 77 12 79 13 80 20 81 32 82 21 83 31 84 22 85 14 86
REMARK SMILES IDX 15 87 19 88 16 89 18 90 17 91 23 92 24 93 25 94 26 95 27 96
REMARK SMILES IDX 30 97 28 98 29 99
REMARK H PARENT 3 7 89 25 57 36 10 78
REMARK Flexibility Score: inf
ROOT
ATOM      1  C   UNL A   1      31.160  30.943  25.646  1.00  0.00     0.002 C 
ENDROOT
BRANCH   1   2
ATOM      2  C   UNL A   1      31.072  32.269  26.402  1.00  0.00     0.021 C 
BRANCH   2   3
ATOM      3  C   UNL A   1      32.385  32.687  27.048  1.00  0.00     0.116 C 
BRANCH   3   4
ATOM      4  N   UNL A   1      32.324  34.053  27.548  1.00  0.00    -0.352 N 
ATOM      5  O   UNL A   1      32.700  35.717  29.027  1.00  0.00    -0.269 OA
ATOM      6  C   UNL A   1      33.048  34.642  28.553  1.00  0.00     0.251 C 
ATOM      7  H   UNL A   1      31.668  34.637  27.101  1.00  0.00     0.163 HD
BRANCH   6   8
ATOM      8  C   UNL A   1      34.251  33.958  29.069  1.00  0.00     0.039 A 
ATOM      9  C   UNL A   1      34.118  32.847  29.902  1.00  0.00     0.014 A 
ATOM     10  C   UNL A   1      35.518  34.435  28.724  1.00  0.00     0.014 A 
ATOM     11  C   UNL A   1      35.238  32.320  30.527  1.00  0.00     0.010 A 
ATOM     12  C   UNL A   1      36.653  33.832  29.272  1.00  0.00     0.010 A 
ATOM     13  C   UNL A   1      36.521  32.795  30.208  1.00  0.00    -0.014 A 
BRANCH  13  14
ATOM     14  C   UNL A   1      37.699  32.159  30.848  1.00  0.00     0.031 A 
ATOM     15  C   UNL A   1      38.104  32.506  32.253  1.00  0.00     0.074 A 
ATOM     16  C   UNL A   1      38.378  31.221  30.158  1.00  0.00     0.049 A 
ATOM     17  N   UNL A   1      39.077  32.011  32.978  1.00  0.00    -0.248 NA
ATOM     18  C   UNL A   1      37.326  33.551  32.934  1.00  0.00     0.031 C 
ATOM     19  C   UNL A   1      38.080  30.810  28.783  1.00  0.00     0.029 A 
ATOM     20  N   UNL A   1      39.433  30.426  30.520  1.00  0.00    -0.354 N 
ATOM     21  C   UNL A   1      39.044  32.698  34.184  1.00  0.00     0.074 A 
ATOM     22  C   UNL A   1      37.972  33.666  34.086  1.00  0.00     0.031 C 
ATOM     23  C   UNL A   1      38.891  29.800  28.440  1.00  0.00     0.029 A 
ATOM     24  C   UNL A   1      39.810  29.539  29.542  1.00  0.00     0.049 A 
ATOM     25  H   UNL A   1      39.877  30.484  31.397  1.00  0.00     0.167 HD
ATOM     26  C   UNL A   1      39.833  32.530  35.273  1.00  0.00     0.037 A 
ATOM     27  C   UNL A   1      40.796  28.625  29.527  1.00  0.00     0.037 A 
ATOM     28  C   UNL A   1      40.885  31.550  35.366  1.00  0.00     0.049 A 
ATOM     29  C   UNL A   1      41.663  28.473  30.743  1.00  0.00     0.074 A 
ATOM     30  C   UNL A   1      41.714  31.272  36.440  1.00  0.00     0.029 A 
ATOM     31  N   UNL A   1      41.259  30.689  34.343  1.00  0.00    -0.354 N 
ATOM     32  N   UNL A   1      41.594  29.099  31.893  1.00  0.00    -0.248 NA
ATOM     33  C   UNL A   1      42.745  27.483  30.660  1.00  0.00     0.031 C 
ATOM     34  C   UNL A   1      42.624  30.284  36.048  1.00  0.00     0.029 A 
ATOM     35  C   UNL A   1      42.322  29.898  34.752  1.00  0.00     0.049 A 
ATOM     36  H   UNL A   1      40.833  30.647  33.457  1.00  0.00     0.167 HD
ATOM     37  C   UNL A   1      42.601  28.562  32.680  1.00  0.00     0.074 A 
ATOM     38  C   UNL A   1      43.255  27.544  31.882  1.00  0.00     0.031 C 
ATOM     39  C   UNL A   1      42.954  28.882  33.950  1.00  0.00     0.037 A 
BRANCH  26  40
ATOM     40  C   UNL A   1      39.608  33.442  36.447  1.00  0.00     0.064 A 
ATOM     41  C   UNL A   1      40.230  34.696  36.543  1.00  0.00     0.173 A 
ATOM     42  C   UNL A   1      38.724  33.072  37.472  1.00  0.00     0.173 A 
ATOM     43  F   UNL A   1      41.092  35.098  35.597  1.00  0.00    -0.203 F 
ATOM     44  C   UNL A   1      39.996  35.532  37.634  1.00  0.00     0.198 A 
ATOM     45  C   UNL A   1      38.469  33.921  38.545  1.00  0.00     0.198 A 
ATOM     46  F   UNL A   1      38.097  31.886  37.429  1.00  0.00    -0.203 F 
ATOM     47  F   UNL A   1      40.640  36.703  37.729  1.00  0.00    -0.200 F 
ATOM     48  C   UNL A   1      39.112  35.146  38.630  1.00  0.00     0.200 A 
ATOM     49  F   UNL A   1      37.602  33.553  39.499  1.00  0.00    -0.200 F 
ATOM     50  F   UNL A   1      38.884  35.955  39.675  1.00  0.00    -0.200 F 
ENDBRANCH  26  40
BRANCH  27  51
ATOM     51  C   UNL A   1      41.005  27.779  28.323  1.00  0.00     0.064 A 
ATOM     52  C   UNL A   1      41.814  28.217  27.265  1.00  0.00     0.173 A 
ATOM     53  C   UNL A   1      40.404  26.517  28.205  1.00  0.00     0.173 A 
ATOM     54  F   UNL A   1      42.398  29.423  27.324  1.00  0.00    -0.203 F 
ATOM     55  C   UNL A   1      41.997  27.434  26.128  1.00  0.00     0.198 A 
ATOM     56  C   UNL A   1      40.615  25.721  27.083  1.00  0.00     0.198 A 
ATOM     57  F   UNL A   1      39.626  26.048  29.193  1.00  0.00    -0.203 F 
ATOM     58  F   UNL A   1      42.736  27.897  25.111  1.00  0.00    -0.200 F 
ATOM     59  C   UNL A   1      41.402  26.184  26.040  1.00  0.00     0.200 A 
ATOM     60  F   UNL A   1      40.055  24.506  27.011  1.00  0.00    -0.200 F 
ATOM     61  F   UNL A   1      41.583  25.429  24.948  1.00  0.00    -0.200 F 
ENDBRANCH  27  51
BRANCH  39  62
ATOM     62  C   UNL A   1      44.062  28.081  34.571  1.00  0.00     0.064 A 
ATOM     63  C   UNL A   1      45.401  28.498  34.517  1.00  0.00     0.173 A 
ATOM     64  C   UNL A   1      43.776  26.883  35.243  1.00  0.00     0.173 A 
ATOM     65  F   UNL A   1      45.730  29.629  33.872  1.00  0.00    -0.203 F 
ATOM     66  C   UNL A   1      46.415  27.726  35.077  1.00  0.00     0.198 A 
ATOM     67  C   UNL A   1      44.787  26.132  35.834  1.00  0.00     0.198 A 
ATOM     68  F   UNL A   1      42.512  26.442  35.331  1.00  0.00    -0.203 F 
ATOM     69  F   UNL A   1      47.693  28.112  34.957  1.00  0.00    -0.200 F 
ATOM     70  C   UNL A   1      46.107  26.548  35.740  1.00  0.00     0.200 A 
ATOM     71  F   UNL A   1      44.486  25.002  36.487  1.00  0.00    -0.200 F 
ATOM     72  F   UNL A   1      47.084  25.807  36.281  1.00  0.00    -0.200 F 
ENDBRANCH  39  62
ENDBRANCH  13  14
ENDBRANCH   6   8
ENDBRANCH   3   4
ENDBRANCH   2   3
ENDBRANCH   1   2
BRANCH   1  73
ATOM     73  C   UNL A   1      32.267  29.999  26.138  1.00  0.00     0.002 C 
BRANCH  73  74
ATOM     74  C   UNL A   1      31.825  28.997  27.212  1.00  0.00     0.021 C 
BRANCH  74  75
ATOM     75  C   UNL A   1      32.276  27.573  26.905  1.00  0.00     0.116 C 
BRANCH  75  76
ATOM     76  N   UNL A   1      31.144  26.680  26.847  1.00  0.00    -0.355 N 
ATOM     77  C   UNL A   1      30.472  26.048  25.864  1.00  0.00     0.230 C 
ATOM     78  H   UNL A   1      30.774  26.486  27.738  1.00  0.00     0.163 HD
ATOM     79  O   UNL A   1      29.487  25.431  26.298  1.00  0.00    -0.274 OA
BRANCH  77  80
ATOM     80  C   UNL A   1      30.788  26.041  24.332  1.00  0.00     0.077 C 
ATOM     81  C   UNL A   1      30.220  24.733  23.709  1.00  0.00     0.038 C 
ATOM     82  C   UNL A   1      32.336  25.960  24.186  1.00  0.00     0.038 C 
ATOM     83  C   UNL A   1      30.883  23.443  24.188  1.00  0.00     0.104 C 
ATOM     84  C   UNL A   1      32.979  24.658  24.651  1.00  0.00     0.104 C 
ATOM     85  N   UNL A   1      32.362  23.477  24.007  1.00  0.00    -0.197 NA
BRANCH  80  86
ATOM     86  C   UNL A   1      30.267  27.285  23.561  1.00  0.00    -0.032 A 
ATOM     87  C   UNL A   1      31.156  28.202  22.960  1.00  0.00     0.005 A 
ATOM     88  C   UNL A   1      28.891  27.598  23.499  1.00  0.00     0.005 A 
ATOM     89  C   UNL A   1      30.701  29.387  22.370  1.00  0.00     0.000 A 
ATOM     90  C   UNL A   1      28.440  28.792  22.923  1.00  0.00     0.000 A 
ATOM     91  C   UNL A   1      29.345  29.690  22.368  1.00  0.00     0.000 A 
ENDBRANCH  80  86
BRANCH  85  92
ATOM     92  S   UNL A   1      33.064  21.977  24.529  1.00  0.00     0.252 S 
ATOM     93  O   UNL A   1      32.910  21.903  25.972  1.00  0.00    -0.206 OA
ATOM     94  O   UNL A   1      32.557  20.932  23.673  1.00  0.00    -0.206 OA
BRANCH  92  95
ATOM     95  C   UNL A   1      34.834  22.071  24.301  1.00  0.00     0.135 A 
ATOM     96  C   UNL A   1      35.596  22.787  23.391  1.00  0.00     0.033 A 
ATOM     97  S   UNL A   1      35.822  21.161  25.356  1.00  0.00    -0.131 S 
ATOM     98  C   UNL A   1      36.991  22.560  23.546  1.00  0.00     0.013 A 
ATOM     99  C   UNL A   1      37.255  21.711  24.597  1.00  0.00     0.066 A 
ENDBRANCH  92  95
ENDBRANCH  85  92
ENDBRANCH  77  80
ENDBRANCH  75  76
ENDBRANCH  74  75
ENDBRANCH  73  74
ENDBRANCH   1  73
TORSDOF 16
ENDMDL
MODEL 2
REMARK VINA RESULT:     -13.0      0.392      1.347
REMARK SMILES O=C(NCCCCCCNC(=O)C1(c2ccccc2)CCN(S(=O)(=O)c2cccs2)CC1)c1ccc(-c2c3nc(c(-c4c(F)c(F)c(F)c(F)c4F)c4ccc([nH]4)c(-c4c(F)c(F)c(F)c(F)c4F)c4nc(c(-c5c(F)c(F)c(F)c(F)c5F)c5ccc2[nH]5)C=C4)C=C3)cc1
REMARK SMILES IDX 6 1 5 2 4 3 3 4 1 5 2 6 33 8 34 9 95 10 35 11 94 12 36 13
REMARK SMILES IDX 37 14 38 15 88 16 39 17 93 18 87 19 89 20 40 21 92 22 86 23
REMARK SMILES IDX 85 24 41 26 73 27 53 28 72 29 54 30 57 31 71 32 90 33 55 34
REMARK SMILES IDX 56 35 70 37 91 38 58 39 42 40 43 41 51 42 44 43 45 44 49 45
REMARK SMILES IDX 52 46 46 47 47 48 50 49 48 50 74 51 75 52 83 53 76 54 77 55
REMARK SMILES IDX 81 56 84 57 78 58 79 59 82 60 80 61 59 62 60 63 68 64 61 65
REMARK SMILES IDX 62 66 66 67 69 68 63 69 64 70 67 71 65 72 7 73 8 74 9 75
REMARK SMILES IDX 10 76 11 77 12 79 13 80 20 81 32 82 21 83 31 84 22 85 14 86
REMARK SMILES IDX 15 87 19 88 16 89 18 90 17 91 23 92 24 93 25 94 26 95 27 96
REMARK SMILES IDX 30 97 28 98 29 99
REMARK H PARENT 3 7 89 25 57 36 10 78
REMARK Flexibility Score: inf
ROOT
ATOM      1  C   UNL A   1      31.515  30.910  25.930  1.00  0.00     0.002 C 
ENDROOT
BRANCH   1   2
ATOM      2  C   UNL A   1      31.296  32.266  26.602  1.00  0.00     0.021 C 
BRANCH   2   3
ATOM      3  C   UNL A   1      32.554  32.837  27.240  1.00  0.00     0.116 C 
BRANCH   3   4
ATOM      4  N   UNL A   1      32.386  34.241  27.587  1.00  0.00    -0.352 N 
ATOM      5  O   UNL A   1      32.537  36.059  28.918  1.00  0.00    -0.269 OA
ATOM      6  C   UNL A   1      32.975  34.962  28.595  1.00  0.00     0.251 C 
ATOM      7  H   UNL A   1      31.759  34.745  27.017  1.00  0.00     0.163 HD
BRANCH   6   8
ATOM      8  C   UNL A   1      34.142  34.392  29.299  1.00  0.00     0.039 A 
ATOM      9  C   UNL A   1      35.428  34.602  28.800  1.00  0.00     0.014 A 
ATOM     10  C   UNL A   1      33.948  33.637  30.458  1.00  0.00     0.014 A 
ATOM     11  C   UNL A   1      36.500  33.921  29.356  1.00  0.00     0.010 A 
ATOM     12  C   UNL A   1      35.046  33.038  31.080  1.00  0.00     0.010 A 
ATOM     13  C   UNL A   1      36.325  33.142  30.512  1.00  0.00    -0.014 A 
BRANCH  13  14
ATOM     14  C   UNL A   1      37.509  32.482  31.116  1.00  0.00     0.031 A 
ATOM     15  C   UNL A   1      37.972  32.833  32.503  1.00  0.00     0.074 A 
ATOM     16  C   UNL A   1      38.141  31.522  30.413  1.00  0.00     0.049 A 
ATOM     17  N   UNL A   1      38.958  32.320  33.198  1.00  0.00    -0.248 NA
ATOM     18  C   UNL A   1      37.244  33.902  33.201  1.00  0.00     0.031 C 
ATOM     19  C   UNL A   1      37.785  31.106  29.053  1.00  0.00     0.029 A 
ATOM     20  N   UNL A   1      39.189  30.705  30.746  1.00  0.00    -0.354 N 
ATOM     21  C   UNL A   1      38.984  33.019  34.398  1.00  0.00     0.074 A 
ATOM     22  C   UNL A   1      37.933  34.011  34.328  1.00  0.00     0.031 C 
ATOM     23  C   UNL A   1      38.559  30.074  28.692  1.00  0.00     0.029 A 
ATOM     24  C   UNL A   1      39.510  29.801  29.763  1.00  0.00     0.049 A 
ATOM     25  H   UNL A   1      39.665  30.760  31.606  1.00  0.00     0.167 HD
ATOM     26  C   UNL A   1      39.806  32.842  35.460  1.00  0.00     0.037 A 
ATOM     27  C   UNL A   1      40.473  28.862  29.723  1.00  0.00     0.037 A 
ATOM     28  C   UNL A   1      40.837  31.837  35.527  1.00  0.00     0.049 A 
ATOM     29  C   UNL A   1      41.378  28.700  30.910  1.00  0.00     0.074 A 
ATOM     30  C   UNL A   1      41.697  31.549  36.573  1.00  0.00     0.029 A 
ATOM     31  N   UNL A   1      41.154  30.959  34.499  1.00  0.00    -0.354 N 
ATOM     32  N   UNL A   1      41.364  29.339  32.055  1.00  0.00    -0.248 NA
ATOM     33  C   UNL A   1      42.432  27.684  30.798  1.00  0.00     0.031 C 
ATOM     34  C   UNL A   1      42.568  30.536  36.160  1.00  0.00     0.029 A 
ATOM     35  C   UNL A   1      42.211  30.145  34.879  1.00  0.00     0.049 A 
ATOM     36  H   UNL A   1      40.696  30.919  33.629  1.00  0.00     0.167 HD
ATOM     37  C   UNL A   1      42.386  28.784  32.812  1.00  0.00     0.074 A 
ATOM     38  C   UNL A   1      42.987  27.744  32.001  1.00  0.00     0.031 C 
ATOM     39  C   UNL A   1      42.790  29.107  34.065  1.00  0.00     0.037 A 
BRANCH  26  40
ATOM     40  C   UNL A   1      39.645  33.769  36.632  1.00  0.00     0.064 A 
ATOM     41  C   UNL A   1      38.842  33.441  37.735  1.00  0.00     0.173 A 
ATOM     42  C   UNL A   1      40.339  34.989  36.670  1.00  0.00     0.173 A 
ATOM     43  F   UNL A   1      38.148  32.293  37.749  1.00  0.00    -0.203 F 
ATOM     44  C   UNL A   1      38.718  34.311  38.817  1.00  0.00     0.198 A 
ATOM     45  C   UNL A   1      40.238  35.842  37.766  1.00  0.00     0.198 A 
ATOM     46  F   UNL A   1      41.127  35.351  35.645  1.00  0.00    -0.203 F 
ATOM     47  F   UNL A   1      37.906  33.999  39.836  1.00  0.00    -0.200 F 
ATOM     48  C   UNL A   1      39.421  35.506  38.834  1.00  0.00     0.200 A 
ATOM     49  F   UNL A   1      40.930  36.989  37.788  1.00  0.00    -0.200 F 
ATOM     50  F   UNL A   1      39.306  36.338  39.880  1.00  0.00    -0.200 F 
ENDBRANCH  26  40
BRANCH  27  51
ATOM     51  C   UNL A   1      40.619  28.001  28.521  1.00  0.00     0.064 A 
ATOM     52  C   UNL A   1      41.396  28.412  27.429  1.00  0.00     0.173 A 
ATOM     53  C   UNL A   1      39.989  26.750  28.439  1.00  0.00     0.173 A 
ATOM     54  F   UNL A   1      42.005  29.607  27.452  1.00  0.00    -0.203 F 
ATOM     55  C   UNL A   1      41.519  27.614  26.294  1.00  0.00     0.198 A 
ATOM     56  C   UNL A   1      40.141  25.939  27.318  1.00  0.00     0.198 A 
ATOM     57  F   UNL A   1      39.241  26.306  29.461  1.00  0.00    -0.203 F 
ATOM     58  F   UNL A   1      42.228  28.053  25.244  1.00  0.00    -0.200 F 
ATOM     59  C   UNL A   1      40.897  26.376  26.241  1.00  0.00     0.200 A 
ATOM     60  F   UNL A   1      39.555  24.735  27.281  1.00  0.00    -0.200 F 
ATOM     61  F   UNL A   1      41.021  25.607  25.151  1.00  0.00    -0.200 F 
ENDBRANCH  27  51
BRANCH  39  62
ATOM     62  C   UNL A   1      43.901  28.286  34.655  1.00  0.00     0.064 A 
ATOM     63  C   UNL A   1      45.247  28.664  34.541  1.00  0.00     0.173 A 
ATOM     64  C   UNL A   1      43.609  27.105  35.357  1.00  0.00     0.173 A 
ATOM     65  F   UNL A   1      45.580  29.775  33.866  1.00  0.00    -0.203 F 
ATOM     66  C   UNL A   1      46.261  27.873  35.074  1.00  0.00     0.198 A 
ATOM     67  C   UNL A   1      44.622  26.336  35.920  1.00  0.00     0.198 A 
ATOM     68  F   UNL A   1      42.338  26.701  35.502  1.00  0.00    -0.203 F 
ATOM     69  F   UNL A   1      47.543  28.221  34.897  1.00  0.00    -0.200 F 
ATOM     70  C   UNL A   1      45.948  26.713  35.767  1.00  0.00     0.200 A 
ATOM     71  F   UNL A   1      44.316  25.224  36.603  1.00  0.00    -0.200 F 
ATOM     72  F   UNL A   1      46.925  25.954  36.281  1.00  0.00    -0.200 F 
ENDBRANCH  39  62
ENDBRANCH  13  14
ENDBRANCH   6   8
ENDBRANCH   3   4
ENDBRANCH   2   3
ENDBRANCH   1   2
BRANCH   1  73
ATOM     73  C   UNL A   1      32.461  29.966  26.688  1.00  0.00     0.002 C 
BRANCH  73  74
ATOM     74  C   UNL A   1      31.760  28.857  27.480  1.00  0.00     0.021 C 
BRANCH  74  75
ATOM     75  C   UNL A   1      32.227  27.463  27.075  1.00  0.00     0.116 C 
BRANCH  75  76
ATOM     76  N   UNL A   1      31.103  26.568  26.935  1.00  0.00    -0.355 N 
ATOM     77  C   UNL A   1      30.452  26.002  25.899  1.00  0.00     0.230 C 
ATOM     78  H   UNL A   1      30.720  26.310  27.804  1.00  0.00     0.163 HD
ATOM     79  O   UNL A   1      29.466  25.350  26.273  1.00  0.00    -0.274 OA
BRANCH  77  80
ATOM     80  C   UNL A   1      30.793  26.104  24.376  1.00  0.00     0.077 C 
ATOM     81  C   UNL A   1      30.206  24.862  23.646  1.00  0.00     0.038 C 
ATOM     82  C   UNL A   1      32.342  25.998  24.247  1.00  0.00     0.038 C 
ATOM     83  C   UNL A   1      30.833  23.524  24.034  1.00  0.00     0.104 C 
ATOM     84  C   UNL A   1      32.947  24.650  24.620  1.00  0.00     0.104 C 
ATOM     85  N   UNL A   1      32.315  23.537  23.879  1.00  0.00    -0.197 NA
BRANCH  80  86
ATOM     86  C   UNL A   1      30.313  27.415  23.695  1.00  0.00    -0.032 A 
ATOM     87  C   UNL A   1      28.941  27.683  23.500  1.00  0.00     0.005 A 
ATOM     88  C   UNL A   1      31.227  28.356  23.169  1.00  0.00     0.005 A 
ATOM     89  C   UNL A   1      28.506  28.802  22.781  1.00  0.00     0.000 A 
ATOM     90  C   UNL A   1      30.790  29.466  22.435  1.00  0.00     0.000 A 
ATOM     91  C   UNL A   1      29.430  29.683  22.233  1.00  0.00     0.000 A 
ENDBRANCH  80  86
BRANCH  85  92
ATOM     92  S   UNL A   1      32.974  21.985  24.294  1.00  0.00     0.252 S 
ATOM     93  O   UNL A   1      32.730  21.773  25.710  1.00  0.00    -0.206 OA
ATOM     94  O   UNL A   1      32.515  21.034  23.311  1.00  0.00    -0.206 OA
BRANCH  92  95
ATOM     95  C   UNL A   1      34.755  22.079  24.185  1.00  0.00     0.135 A 
ATOM     96  C   UNL A   1      35.576  22.843  23.370  1.00  0.00     0.033 A 
ATOM     97  S   UNL A   1      35.671  21.100  25.244  1.00  0.00    -0.131 S 
ATOM     98  C   UNL A   1      36.958  22.597  23.599  1.00  0.00     0.013 A 
ATOM     99  C   UNL A   1      37.151  21.684  24.611  1.00  0.00     0.066 A 
ENDBRANCH  92  95
ENDBRANCH  85  92
ENDBRANCH  77  80
ENDBRANCH  75  76
ENDBRANCH  74  75
ENDBRANCH  73  74
ENDBRANCH   1  73
TORSDOF 16
ENDMDL
MODEL 3
REMARK VINA RESULT:     -12.9      0.963      2.250
REMARK SMILES O=C(NCCCCCCNC(=O)C1(c2ccccc2)CCN(S(=O)(=O)c2cccs2)CC1)c1ccc(-c2c3nc(c(-c4c(F)c(F)c(F)c(F)c4F)c4ccc([nH]4)c(-c4c(F)c(F)c(F)c(F)c4F)c4nc(c(-c5c(F)c(F)c(F)c(F)c5F)c5ccc2[nH]5)C=C4)C=C3)cc1
REMARK SMILES IDX 6 1 5 2 4 3 3 4 1 5 2 6 33 8 34 9 95 10 35 11 94 12 36 13
REMARK SMILES IDX 37 14 38 15 88 16 39 17 93 18 87 19 89 20 40 21 92 22 86 23
REMARK SMILES IDX 85 24 41 26 73 27 53 28 72 29 54 30 57 31 71 32 90 33 55 34
REMARK SMILES IDX 56 35 70 37 91 38 58 39 42 40 43 41 51 42 44 43 45 44 49 45
REMARK SMILES IDX 52 46 46 47 47 48 50 49 48 50 74 51 75 52 83 53 76 54 77 55
REMARK SMILES IDX 81 56 84 57 78 58 79 59 82 60 80 61 59 62 60 63 68 64 61 65
REMARK SMILES IDX 62 66 66 67 69 68 63 69 64 70 67 71 65 72 7 73 8 74 9 75
REMARK SMILES IDX 10 76 11 77 12 79 13 80 20 81 32 82 21 83 31 84 22 85 14 86
REMARK SMILES IDX 15 87 19 88 16 89 18 90 17 91 23 92 24 93 25 94 26 95 27 96
REMARK SMILES IDX 30 97 28 98 29 99
REMARK H PARENT 3 7 89 25 57 36 10 78
REMARK Flexibility Score: inf
ROOT
ATOM      1  C   UNL A   1      31.480  30.842  26.148  1.00  0.00     0.002 C 
ENDROOT
BRANCH   1   2
ATOM      2  C   UNL A   1      31.372  32.328  26.493  1.00  0.00     0.021 C 
BRANCH   2   3
ATOM      3  C   UNL A   1      32.586  32.869  27.233  1.00  0.00     0.116 C 
BRANCH   3   4
ATOM      4  N   UNL A   1      32.408  34.267  27.601  1.00  0.00    -0.352 N 
ATOM      5  O   UNL A   1      32.542  36.066  28.959  1.00  0.00    -0.269 OA
ATOM      6  C   UNL A   1      32.988  34.976  28.623  1.00  0.00     0.251 C 
ATOM      7  H   UNL A   1      31.782  34.776  27.035  1.00  0.00     0.163 HD
BRANCH   6   8
ATOM      8  C   UNL A   1      34.154  34.402  29.324  1.00  0.00     0.039 A 
ATOM      9  C   UNL A   1      35.440  34.601  28.818  1.00  0.00     0.014 A 
ATOM     10  C   UNL A   1      33.961  33.655  30.488  1.00  0.00     0.014 A 
ATOM     11  C   UNL A   1      36.509  33.915  29.372  1.00  0.00     0.010 A 
ATOM     12  C   UNL A   1      35.058  33.052  31.109  1.00  0.00     0.010 A 
ATOM     13  C   UNL A   1      36.335  33.144  30.534  1.00  0.00    -0.014 A 
BRANCH  13  14
ATOM     14  C   UNL A   1      37.518  32.480  31.136  1.00  0.00     0.031 A 
ATOM     15  C   UNL A   1      37.981  32.825  32.524  1.00  0.00     0.074 A 
ATOM     16  C   UNL A   1      38.147  31.521  30.429  1.00  0.00     0.049 A 
ATOM     17  N   UNL A   1      38.965  32.308  33.218  1.00  0.00    -0.248 NA
ATOM     18  C   UNL A   1      37.255  33.894  33.225  1.00  0.00     0.031 C 
ATOM     19  C   UNL A   1      37.790  31.110  29.069  1.00  0.00     0.029 A 
ATOM     20  N   UNL A   1      39.193  30.699  30.760  1.00  0.00    -0.354 N 
ATOM     21  C   UNL A   1      38.993  33.003  34.419  1.00  0.00     0.074 A 
ATOM     22  C   UNL A   1      37.944  33.998  34.353  1.00  0.00     0.031 C 
ATOM     23  C   UNL A   1      38.562  30.076  28.704  1.00  0.00     0.029 A 
ATOM     24  C   UNL A   1      39.512  29.798  29.775  1.00  0.00     0.049 A 
ATOM     25  H   UNL A   1      39.669  30.751  31.620  1.00  0.00     0.167 HD
ATOM     26  C   UNL A   1      39.814  32.820  35.481  1.00  0.00     0.037 A 
ATOM     27  C   UNL A   1      40.473  28.857  29.732  1.00  0.00     0.037 A 
ATOM     28  C   UNL A   1      40.843  31.813  35.545  1.00  0.00     0.049 A 
ATOM     29  C   UNL A   1      41.378  28.690  30.918  1.00  0.00     0.074 A 
ATOM     30  C   UNL A   1      41.702  31.520  36.591  1.00  0.00     0.029 A 
ATOM     31  N   UNL A   1      41.159  30.937  34.515  1.00  0.00    -0.354 N 
ATOM     32  N   UNL A   1      41.365  29.325  32.065  1.00  0.00    -0.248 NA
ATOM     33  C   UNL A   1      42.429  27.672  30.804  1.00  0.00     0.031 C 
ATOM     34  C   UNL A   1      42.571  30.506  36.174  1.00  0.00     0.029 A 
ATOM     35  C   UNL A   1      42.214  30.120  34.892  1.00  0.00     0.049 A 
ATOM     36  H   UNL A   1      40.700  30.901  33.644  1.00  0.00     0.167 HD
ATOM     37  C   UNL A   1      42.385  28.765  32.820  1.00  0.00     0.074 A 
ATOM     38  C   UNL A   1      42.984  27.726  32.006  1.00  0.00     0.031 C 
ATOM     39  C   UNL A   1      42.790  29.083  34.075  1.00  0.00     0.037 A 
BRANCH  26  40
ATOM     40  C   UNL A   1      39.655  33.745  36.656  1.00  0.00     0.064 A 
ATOM     41  C   UNL A   1      38.847  33.417  37.755  1.00  0.00     0.173 A 
ATOM     42  C   UNL A   1      40.356  34.960  36.701  1.00  0.00     0.173 A 
ATOM     43  F   UNL A   1      38.146  32.274  37.763  1.00  0.00    -0.203 F 
ATOM     44  C   UNL A   1      38.725  34.284  38.840  1.00  0.00     0.198 A 
ATOM     45  C   UNL A   1      40.257  35.809  37.800  1.00  0.00     0.198 A 
ATOM     46  F   UNL A   1      41.150  35.321  35.680  1.00  0.00    -0.203 F 
ATOM     47  F   UNL A   1      37.908  33.973  39.856  1.00  0.00    -0.200 F 
ATOM     48  C   UNL A   1      39.435  35.475  38.864  1.00  0.00     0.200 A 
ATOM     49  F   UNL A   1      40.956  36.953  37.827  1.00  0.00    -0.200 F 
ATOM     50  F   UNL A   1      39.321  36.304  39.912  1.00  0.00    -0.200 F 
ENDBRANCH  26  40
BRANCH  27  51
ATOM     51  C   UNL A   1      40.617  28.000  28.527  1.00  0.00     0.064 A 
ATOM     52  C   UNL A   1      39.989  26.749  28.452  1.00  0.00     0.173 A 
ATOM     53  C   UNL A   1      41.382  28.413  27.425  1.00  0.00     0.173 A 
ATOM     54  F   UNL A   1      39.260  26.302  29.485  1.00  0.00    -0.203 F 
ATOM     55  C   UNL A   1      40.139  25.936  27.331  1.00  0.00     0.198 A 
ATOM     56  C   UNL A   1      41.502  27.614  26.292  1.00  0.00     0.198 A 
ATOM     57  F   UNL A   1      41.997  29.606  27.444  1.00  0.00    -0.203 F 
ATOM     58  F   UNL A   1      39.568  24.724  27.305  1.00  0.00    -0.200 F 
ATOM     59  C   UNL A   1      40.890  26.371  26.250  1.00  0.00     0.200 A 
ATOM     60  F   UNL A   1      42.212  28.048  25.242  1.00  0.00    -0.200 F 
ATOM     61  F   UNL A   1      41.028  25.591  25.169  1.00  0.00    -0.200 F 
ENDBRANCH  27  51
BRANCH  39  62
ATOM     62  C   UNL A   1      43.899  28.258  34.662  1.00  0.00     0.064 A 
ATOM     63  C   UNL A   1      43.649  27.062  35.352  1.00  0.00     0.173 A 
ATOM     64  C   UNL A   1      45.234  28.666  34.522  1.00  0.00     0.173 A 
ATOM     65  F   UNL A   1      42.389  26.635  35.528  1.00  0.00    -0.203 F 
ATOM     66  C   UNL A   1      44.691  26.327  35.911  1.00  0.00     0.198 A 
ATOM     67  C   UNL A   1      46.276  27.911  35.050  1.00  0.00     0.198 A 
ATOM     68  F   UNL A   1      45.529  29.799  33.865  1.00  0.00    -0.203 F 
ATOM     69  F   UNL A   1      44.424  25.221  36.621  1.00  0.00    -0.200 F 
ATOM     70  C   UNL A   1      46.003  26.748  35.755  1.00  0.00     0.200 A 
ATOM     71  F   UNL A   1      47.544  28.312  34.884  1.00  0.00    -0.200 F 
ATOM     72  F   UNL A   1      47.005  26.039  36.292  1.00  0.00    -0.200 F 
ENDBRANCH  39  62
ENDBRANCH  13  14
ENDBRANCH   6   8
ENDBRANCH   3   4
ENDBRANCH   2   3
ENDBRANCH   1   2
BRANCH   1  73
ATOM     73  C   UNL A   1      32.267  30.005  27.168  1.00  0.00     0.002 C 
BRANCH  73  74
ATOM     74  C   UNL A   1      33.554  29.375  26.624  1.00  0.00     0.021 C 
BRANCH  74  75
ATOM     75  C   UNL A   1      33.281  28.246  25.635  1.00  0.00     0.116 C 
BRANCH  75  76
ATOM     76  N   UNL A   1      32.239  27.376  26.128  1.00  0.00    -0.355 N 
ATOM     77  C   UNL A   1      31.200  26.718  25.577  1.00  0.00     0.230 C 
ATOM     78  H   UNL A   1      32.304  27.229  27.099  1.00  0.00     0.163 HD
ATOM     79  O   UNL A   1      30.511  26.143  26.432  1.00  0.00    -0.274 OA
BRANCH  77  80
ATOM     80  C   UNL A   1      30.803  26.638  24.066  1.00  0.00     0.077 C 
ATOM     81  C   UNL A   1      30.208  25.231  23.778  1.00  0.00     0.038 C 
ATOM     82  C   UNL A   1      32.121  26.736  23.242  1.00  0.00     0.038 C 
ATOM     83  C   UNL A   1      31.189  24.068  23.921  1.00  0.00     0.104 C 
ATOM     84  C   UNL A   1      33.079  25.558  23.383  1.00  0.00     0.104 C 
ATOM     85  N   UNL A   1      32.414  24.268  23.096  1.00  0.00    -0.197 NA
BRANCH  80  86
ATOM     86  C   UNL A   1      29.826  27.751  23.598  1.00  0.00    -0.032 A 
ATOM     87  C   UNL A   1      30.274  29.067  23.349  1.00  0.00     0.005 A 
ATOM     88  C   UNL A   1      28.437  27.520  23.481  1.00  0.00     0.005 A 
ATOM     89  C   UNL A   1      29.382  30.102  23.046  1.00  0.00     0.000 A 
ATOM     90  C   UNL A   1      27.545  28.561  23.193  1.00  0.00     0.000 A 
ATOM     91  C   UNL A   1      28.017  29.853  22.986  1.00  0.00     0.000 A 
ENDBRANCH  80  86
BRANCH  85  92
ATOM     92  S   UNL A   1      33.477  22.906  23.263  1.00  0.00     0.252 S 
ATOM     93  O   UNL A   1      32.744  21.727  22.834  1.00  0.00    -0.206 OA
ATOM     94  O   UNL A   1      34.740  23.256  22.660  1.00  0.00    -0.206 OA
BRANCH  92  95
ATOM     95  C   UNL A   1      33.755  22.615  25.004  1.00  0.00     0.135 A 
ATOM     96  C   UNL A   1      34.116  23.483  26.023  1.00  0.00     0.033 A 
ATOM     97  S   UNL A   1      33.547  21.024  25.589  1.00  0.00    -0.131 S 
ATOM     98  C   UNL A   1      34.250  22.828  27.279  1.00  0.00     0.013 A 
ATOM     99  C   UNL A   1      33.946  21.488  27.189  1.00  0.00     0.066 A 
ENDBRANCH  92  95
ENDBRANCH  85  92
ENDBRANCH  77  80
ENDBRANCH  75  76
ENDBRANCH  74  75
ENDBRANCH  73  74
ENDBRANCH   1  73
TORSDOF 16
ENDMDL
