MODEL 1
REMARK VINA RESULT:     -13.0      0.000      0.000
REMARK SMILES O=C(CCC(=O)N1N=C(c2ccccc2)C[C@@H]1c1ccc2c(c1)OCO2)NCCCCCCNC(=O)c1ccc(-c2c3nc(c(-c4c(F)c(F)c(F)c(F)c4F)c4ccc([nH]4)c(-c4c(F)c(F)c(F)c(F)c4F)c4nc(c(-c5c(F)c(F)c(F)c(F)c5F)c5ccc2[nH]5)C=C4)C=C3)cc1
REMARK SMILES IDX 29 1 28 2 27 3 1 4 2 5 3 7 4 8 5 9 6 10 7 11 8 12 17 13 9 14
REMARK SMILES IDX 16 15 18 16 19 17 23 18 20 19 22 20 21 21 24 22 26 23 25 24
REMARK SMILES IDX 10 25 11 26 15 27 12 28 14 29 13 30 30 31 31 32 32 33 33 34
REMARK SMILES IDX 34 35 35 36 36 38 37 39 38 40 99 41 39 42 98 43 40 44 41 45
REMARK SMILES IDX 42 46 92 47 43 48 97 49 91 50 93 51 44 52 96 53 90 54 89 55
REMARK SMILES IDX 45 57 77 58 57 59 76 60 58 61 61 62 75 63 94 64 59 65 60 66
REMARK SMILES IDX 74 68 95 69 62 70 46 71 47 72 55 73 48 74 49 75 53 76 56 77
REMARK SMILES IDX 50 78 51 79 54 80 52 81 78 82 79 83 87 84 80 85 81 86 85 87
REMARK SMILES IDX 88 88 82 89 83 90 86 91 84 92 63 93 64 94 72 95 65 96 66 97
REMARK SMILES IDX 70 98 73 99 67 100 68 101 71 102 69 103
REMARK H PARENT 27 6 34 37 93 56 61 67
REMARK Flexibility Score: inf
ROOT
ATOM      1  C   UNL A   1      34.192  24.255  26.027  1.00  0.00     0.021 C 
ENDROOT
BRANCH   1   2
ATOM      2  C   UNL A   1      33.174  23.092  26.030  1.00  0.00     0.116 C 
BRANCH   2   3
ATOM      3  N   UNL A   1      32.238  22.929  24.917  1.00  0.00    -0.356 N 
ATOM      4  O   UNL A   1      30.613  24.203  25.921  1.00  0.00    -0.275 OA
ATOM      5  C   UNL A   1      31.051  23.670  24.906  1.00  0.00     0.220 C 
ATOM      6  H   UNL A   1      32.441  22.304  24.185  1.00  0.00     0.163 HD
BRANCH   5   7
ATOM      7  C   UNL A   1      30.441  23.941  23.516  1.00  0.00     0.110 C 
BRANCH   7   8
ATOM      8  C   UNL A   1      30.601  25.411  23.057  1.00  0.00     0.112 C 
BRANCH   8   9
ATOM      9  C   UNL A   1      29.897  26.650  23.683  1.00  0.00     0.243 C 
ATOM     10  O   UNL A   1      28.683  26.575  23.912  1.00  0.00    -0.273 OA
BRANCH   9  11
ATOM     11  N   UNL A   1      30.660  27.705  24.146  1.00  0.00    -0.225 N 
ATOM     12  N   UNL A   1      31.146  27.772  25.468  1.00  0.00    -0.174 NA
ATOM     13  C   UNL A   1      31.081  28.855  23.384  1.00  0.00     0.147 C 
ATOM     14  C   UNL A   1      32.052  28.706  25.444  1.00  0.00     0.071 C 
ATOM     15  C   UNL A   1      32.325  29.273  24.099  1.00  0.00     0.091 C 
BRANCH  13  16
ATOM     16  C   UNL A   1      29.953  29.833  23.075  1.00  0.00    -0.019 A 
ATOM     17  C   UNL A   1      29.682  30.869  24.007  1.00  0.00     0.010 A 
ATOM     18  C   UNL A   1      29.327  29.901  21.825  1.00  0.00     0.056 A 
ATOM     19  C   UNL A   1      28.916  31.991  23.708  1.00  0.00     0.051 A 
ATOM     20  C   UNL A   1      28.604  31.044  21.529  1.00  0.00     0.166 A 
ATOM     21  C   UNL A   1      28.425  32.066  22.436  1.00  0.00     0.165 A 
ATOM     22  O   UNL A   1      28.075  31.357  20.313  1.00  0.00    -0.454 OA
ATOM     23  O   UNL A   1      27.786  33.139  21.902  1.00  0.00    -0.454 OA
ATOM     24  C   UNL A   1      27.766  32.753  20.515  1.00  0.00     0.468 C 
ENDBRANCH  13  16
BRANCH  14  25
ATOM     25  C   UNL A   1      32.957  29.183  26.496  1.00  0.00    -0.002 A 
ATOM     26  C   UNL A   1      34.185  28.543  26.666  1.00  0.00     0.010 A 
ATOM     27  C   UNL A   1      32.760  30.478  26.998  1.00  0.00     0.010 A 
ATOM     28  C   UNL A   1      35.212  29.201  27.350  1.00  0.00     0.001 A 
ATOM     29  C   UNL A   1      33.789  31.131  27.676  1.00  0.00     0.001 A 
ATOM     30  C   UNL A   1      35.016  30.492  27.849  1.00  0.00     0.000 A 
ENDBRANCH  14  25
ENDBRANCH   9  11
ENDBRANCH   8   9
ENDBRANCH   7   8
ENDBRANCH   5   7
ENDBRANCH   2   3
ENDBRANCH   1   2
BRANCH   1  31
ATOM     31  C   UNL A   1      35.406  24.381  25.077  1.00  0.00     0.002 C 
BRANCH  31  32
ATOM     32  C   UNL A   1      35.673  23.364  23.959  1.00  0.00     0.002 C 
BRANCH  32  33
ATOM     33  C   UNL A   1      36.353  22.044  24.328  1.00  0.00     0.021 C 
BRANCH  33  34
ATOM     34  C   UNL A   1      37.139  22.119  25.632  1.00  0.00     0.116 C 
BRANCH  34  35
ATOM     35  N   UNL A   1      38.215  21.131  25.740  1.00  0.00    -0.352 N 
ATOM     36  C   UNL A   1      39.506  21.339  26.183  1.00  0.00     0.251 C 
ATOM     37  H   UNL A   1      37.992  20.212  25.464  1.00  0.00     0.163 HD
ATOM     38  O   UNL A   1      40.356  20.457  26.093  1.00  0.00    -0.269 OA
BRANCH  36  39
ATOM     39  C   UNL A   1      39.871  22.670  26.724  1.00  0.00     0.039 A 
ATOM     40  C   UNL A   1      40.715  22.762  27.834  1.00  0.00     0.014 A 
ATOM     41  C   UNL A   1      39.438  23.826  26.074  1.00  0.00     0.014 A 
ATOM     42  C   UNL A   1      41.208  24.012  28.219  1.00  0.00     0.010 A 
ATOM     43  C   UNL A   1      40.011  25.050  26.389  1.00  0.00     0.010 A 
ATOM     44  C   UNL A   1      40.902  25.158  27.464  1.00  0.00    -0.014 A 
BRANCH  44  45
ATOM     45  C   UNL A   1      41.495  26.482  27.775  1.00  0.00     0.031 A 
ATOM     46  C   UNL A   1      42.904  26.791  27.350  1.00  0.00     0.074 A 
ATOM     47  C   UNL A   1      40.805  27.363  28.525  1.00  0.00     0.049 A 
ATOM     48  N   UNL A   1      43.631  27.852  27.595  1.00  0.00    -0.248 NA
ATOM     49  C   UNL A   1      43.607  25.747  26.586  1.00  0.00     0.031 C 
ATOM     50  C   UNL A   1      39.464  27.145  29.070  1.00  0.00     0.029 A 
ATOM     51  N   UNL A   1      41.140  28.619  28.965  1.00  0.00    -0.354 N 
ATOM     52  C   UNL A   1      44.879  27.587  27.045  1.00  0.00     0.074 A 
ATOM     53  C   UNL A   1      44.832  26.245  26.509  1.00  0.00     0.031 C 
ATOM     54  C   UNL A   1      39.074  28.243  29.736  1.00  0.00     0.029 A 
ATOM     55  C   UNL A   1      40.148  29.231  29.691  1.00  0.00     0.049 A 
ATOM     56  H   UNL A   1      42.009  29.041  28.778  1.00  0.00     0.167 HD
ATOM     57  C   UNL A   1      45.957  28.403  26.962  1.00  0.00     0.037 A 
ATOM     58  C   UNL A   1      40.107  30.456  30.246  1.00  0.00     0.037 A 
ATOM     59  C   UNL A   1      45.978  29.756  27.447  1.00  0.00     0.049 A 
ATOM     60  C   UNL A   1      41.294  31.367  30.092  1.00  0.00     0.074 A 
ATOM     61  C   UNL A   1      46.982  30.700  27.334  1.00  0.00     0.029 A 
ATOM     62  N   UNL A   1      44.936  30.360  28.137  1.00  0.00    -0.354 N 
ATOM     63  N   UNL A   1      42.438  31.138  29.495  1.00  0.00    -0.248 NA
ATOM     64  C   UNL A   1      41.181  32.707  30.683  1.00  0.00     0.031 C 
ATOM     65  C   UNL A   1      46.560  31.866  27.984  1.00  0.00     0.029 A 
ATOM     66  C   UNL A   1      45.277  31.659  28.469  1.00  0.00     0.049 A 
ATOM     67  H   UNL A   1      44.079  29.927  28.358  1.00  0.00     0.167 HD
ATOM     68  C   UNL A   1      43.173  32.309  29.617  1.00  0.00     0.074 A 
ATOM     69  C   UNL A   1      42.337  33.252  30.332  1.00  0.00     0.031 C 
ATOM     70  C   UNL A   1      44.427  32.579  29.181  1.00  0.00     0.037 A 
BRANCH  57  71
ATOM     71  C   UNL A   1      47.190  27.851  26.309  1.00  0.00     0.064 A 
ATOM     72  C   UNL A   1      47.343  27.841  24.913  1.00  0.00     0.173 A 
ATOM     73  C   UNL A   1      48.233  27.322  27.085  1.00  0.00     0.173 A 
ATOM     74  F   UNL A   1      46.369  28.320  24.125  1.00  0.00    -0.203 F 
ATOM     75  C   UNL A   1      48.473  27.285  24.318  1.00  0.00     0.198 A 
ATOM     76  C   UNL A   1      49.376  26.798  26.488  1.00  0.00     0.198 A 
ATOM     77  F   UNL A   1      48.141  27.310  28.424  1.00  0.00    -0.203 F 
ATOM     78  F   UNL A   1      48.565  27.229  22.983  1.00  0.00    -0.200 F 
ATOM     79  C   UNL A   1      49.490  26.769  25.106  1.00  0.00     0.200 A 
ATOM     80  F   UNL A   1      50.363  26.306  27.250  1.00  0.00    -0.200 F 
ATOM     81  F   UNL A   1      50.576  26.232  24.532  1.00  0.00    -0.200 F 
ENDBRANCH  57  71
BRANCH  58  82
ATOM     82  C   UNL A   1      38.876  30.913  30.942  1.00  0.00     0.064 A 
ATOM     83  C   UNL A   1      38.721  30.711  32.321  1.00  0.00     0.173 A 
ATOM     84  C   UNL A   1      37.847  31.573  30.258  1.00  0.00     0.173 A 
ATOM     85  F   UNL A   1      39.672  30.068  33.014  1.00  0.00    -0.203 F 
ATOM     86  C   UNL A   1      37.575  31.141  32.987  1.00  0.00     0.198 A 
ATOM     87  C   UNL A   1      36.711  32.023  30.930  1.00  0.00     0.198 A 
ATOM     88  F   UNL A   1      37.950  31.798  28.940  1.00  0.00    -0.203 F 
ATOM     89  F   UNL A   1      37.439  30.906  34.299  1.00  0.00    -0.200 F 
ATOM     90  C   UNL A   1      36.575  31.802  32.293  1.00  0.00     0.200 A 
ATOM     91  F   UNL A   1      35.751  32.675  30.260  1.00  0.00    -0.200 F 
ATOM     92  F   UNL A   1      35.476  32.224  32.936  1.00  0.00    -0.200 F 
ENDBRANCH  58  82
BRANCH  70  93
ATOM     93  C   UNL A   1      44.962  33.954  29.449  1.00  0.00     0.064 A 
ATOM     94  C   UNL A   1      44.736  35.011  28.556  1.00  0.00     0.173 A 
ATOM     95  C   UNL A   1      45.673  34.225  30.627  1.00  0.00     0.173 A 
ATOM     96  F   UNL A   1      44.075  34.797  27.408  1.00  0.00    -0.203 F 
ATOM     97  C   UNL A   1      45.224  36.287  28.823  1.00  0.00     0.198 A 
ATOM     98  C   UNL A   1      46.136  35.508  30.904  1.00  0.00     0.198 A 
ATOM     99  F   UNL A   1      45.908  33.246  31.514  1.00  0.00    -0.203 F 
ATOM    100  F   UNL A   1      45.036  37.274  27.936  1.00  0.00    -0.200 F 
ATOM    101  C   UNL A   1      45.918  36.535  29.998  1.00  0.00     0.200 A 
ATOM    102  F   UNL A   1      46.796  35.748  32.045  1.00  0.00    -0.200 F 
ATOM    103  F   UNL A   1      46.383  37.766  30.257  1.00  0.00    -0.200 F 
ENDBRANCH  70  93
ENDBRANCH  44  45
ENDBRANCH  36  39
ENDBRANCH  34  35
ENDBRANCH  33  34
ENDBRANCH  32  33
ENDBRANCH  31  32
ENDBRANCH   1  31
TORSDOF 18
ENDMDL
MODEL 2
REMARK VINA RESULT:     -12.9      4.364     10.406
REMARK SMILES O=C(CCC(=O)N1N=C(c2ccccc2)C[C@@H]1c1ccc2c(c1)OCO2)NCCCCCCNC(=O)c1ccc(-c2c3nc(c(-c4c(F)c(F)c(F)c(F)c4F)c4ccc([nH]4)c(-c4c(F)c(F)c(F)c(F)c4F)c4nc(c(-c5c(F)c(F)c(F)c(F)c5F)c5ccc2[nH]5)C=C4)C=C3)cc1
REMARK SMILES IDX 29 1 28 2 27 3 1 4 2 5 3 7 4 8 5 9 6 10 7 11 8 12 17 13 9 14
REMARK SMILES IDX 16 15 18 16 19 17 23 18 20 19 22 20 21 21 24 22 26 23 25 24
REMARK SMILES IDX 10 25 11 26 15 27 12 28 14 29 13 30 30 31 31 32 32 33 33 34
REMARK SMILES IDX 34 35 35 36 36 38 37 39 38 40 99 41 39 42 98 43 40 44 41 45
REMARK SMILES IDX 42 46 92 47 43 48 97 49 91 50 93 51 44 52 96 53 90 54 89 55
REMARK SMILES IDX 45 57 77 58 57 59 76 60 58 61 61 62 75 63 94 64 59 65 60 66
REMARK SMILES IDX 74 68 95 69 62 70 46 71 47 72 55 73 48 74 49 75 53 76 56 77
REMARK SMILES IDX 50 78 51 79 54 80 52 81 78 82 79 83 87 84 80 85 81 86 85 87
REMARK SMILES IDX 88 88 82 89 83 90 86 91 84 92 63 93 64 94 72 95 65 96 66 97
REMARK SMILES IDX 70 98 73 99 67 100 68 101 71 102 69 103
REMARK H PARENT 27 6 34 37 93 56 61 67
REMARK Flexibility Score: inf
ROOT
ATOM      1  C   UNL A   1      30.821  27.738  23.900  1.00  0.00     0.021 C 
ENDROOT
BRANCH   1   2
ATOM      2  C   UNL A   1      30.992  27.188  22.466  1.00  0.00     0.116 C 
BRANCH   2   3
ATOM      3  N   UNL A   1      31.408  25.801  22.254  1.00  0.00    -0.356 N 
ATOM      4  O   UNL A   1      33.258  26.401  21.033  1.00  0.00    -0.275 OA
ATOM      5  C   UNL A   1      32.650  25.541  21.662  1.00  0.00     0.220 C 
ATOM      6  H   UNL A   1      30.821  25.059  22.523  1.00  0.00     0.163 HD
BRANCH   5   7
ATOM      7  C   UNL A   1      33.292  24.184  22.015  1.00  0.00     0.110 C 
BRANCH   7   8
ATOM      8  C   UNL A   1      32.338  23.242  22.788  1.00  0.00     0.112 C 
BRANCH   8   9
ATOM      9  C   UNL A   1      32.664  21.799  23.273  1.00  0.00     0.243 C 
ATOM     10  O   UNL A   1      32.013  20.863  22.792  1.00  0.00    -0.273 OA
BRANCH   9  11
ATOM     11  N   UNL A   1      33.782  21.580  24.055  1.00  0.00    -0.225 N 
ATOM     12  N   UNL A   1      35.026  22.188  23.795  1.00  0.00    -0.174 NA
ATOM     13  C   UNL A   1      33.854  20.740  25.226  1.00  0.00     0.147 C 
ATOM     14  C   UNL A   1      35.721  22.005  24.880  1.00  0.00     0.071 C 
ATOM     15  C   UNL A   1      34.979  21.357  25.991  1.00  0.00     0.091 C 
BRANCH  13  16
ATOM     16  C   UNL A   1      33.802  19.248  24.916  1.00  0.00    -0.019 A 
ATOM     17  C   UNL A   1      35.018  18.575  24.626  1.00  0.00     0.010 A 
ATOM     18  C   UNL A   1      32.659  18.468  25.125  1.00  0.00     0.056 A 
ATOM     19  C   UNL A   1      35.154  17.191  24.640  1.00  0.00     0.051 A 
ATOM     20  C   UNL A   1      32.820  17.093  25.179  1.00  0.00     0.166 A 
ATOM     21  C   UNL A   1      34.034  16.478  24.966  1.00  0.00     0.165 A 
ATOM     22  O   UNL A   1      31.861  16.195  25.537  1.00  0.00    -0.454 OA
ATOM     23  O   UNL A   1      33.992  15.138  25.181  1.00  0.00    -0.454 OA
ATOM     24  C   UNL A   1      32.671  15.017  25.743  1.00  0.00     0.468 C 
ENDBRANCH  13  16
BRANCH  14  25
ATOM     25  C   UNL A   1      37.064  22.474  25.242  1.00  0.00    -0.002 A 
ATOM     26  C   UNL A   1      37.204  23.744  25.804  1.00  0.00     0.010 A 
ATOM     27  C   UNL A   1      38.075  21.514  25.403  1.00  0.00     0.010 A 
ATOM     28  C   UNL A   1      38.365  24.053  26.519  1.00  0.00     0.001 A 
ATOM     29  C   UNL A   1      39.229  21.827  26.121  1.00  0.00     0.001 A 
ATOM     30  C   UNL A   1      39.371  23.096  26.681  1.00  0.00     0.000 A 
ENDBRANCH  14  25
ENDBRANCH   9  11
ENDBRANCH   8   9
ENDBRANCH   7   8
ENDBRANCH   5   7
ENDBRANCH   2   3
ENDBRANCH   1   2
BRANCH   1  31
ATOM     31  C   UNL A   1      30.779  26.883  25.189  1.00  0.00     0.002 C 
BRANCH  31  32
ATOM     32  C   UNL A   1      31.786  27.079  26.329  1.00  0.00     0.002 C 
BRANCH  32  33
ATOM     33  C   UNL A   1      31.852  28.448  27.010  1.00  0.00     0.021 C 
BRANCH  33  34
ATOM     34  C   UNL A   1      32.989  29.321  26.492  1.00  0.00     0.116 C 
BRANCH  34  35
ATOM     35  N   UNL A   1      32.798  30.753  26.727  1.00  0.00    -0.352 N 
ATOM     36  C   UNL A   1      33.637  31.612  27.410  1.00  0.00     0.251 C 
ATOM     37  H   UNL A   1      31.977  31.151  26.355  1.00  0.00     0.163 HD
ATOM     38  O   UNL A   1      33.295  32.765  27.660  1.00  0.00    -0.269 OA
BRANCH  36  39
ATOM     39  C   UNL A   1      34.943  31.105  27.892  1.00  0.00     0.039 A 
ATOM     40  C   UNL A   1      36.030  31.976  28.004  1.00  0.00     0.014 A 
ATOM     41  C   UNL A   1      35.062  29.778  28.309  1.00  0.00     0.014 A 
ATOM     42  C   UNL A   1      37.198  31.539  28.636  1.00  0.00     0.010 A 
ATOM     43  C   UNL A   1      36.178  29.380  29.030  1.00  0.00     0.010 A 
ATOM     44  C   UNL A   1      37.259  30.254  29.203  1.00  0.00    -0.014 A 
BRANCH  44  45
ATOM     45  C   UNL A   1      38.437  29.795  29.978  1.00  0.00     0.031 A 
ATOM     46  C   UNL A   1      38.648  30.286  31.383  1.00  0.00     0.074 A 
ATOM     47  C   UNL A   1      39.366  29.020  29.384  1.00  0.00     0.049 A 
ATOM     48  N   UNL A   1      39.652  30.071  32.196  1.00  0.00    -0.248 NA
ATOM     49  C   UNL A   1      37.614  31.178  31.933  1.00  0.00     0.031 C 
ATOM     50  C   UNL A   1      39.317  28.551  27.999  1.00  0.00     0.029 A 
ATOM     51  N   UNL A   1      40.539  28.498  29.869  1.00  0.00    -0.354 N 
ATOM     52  C   UNL A   1      39.383  30.823  33.332  1.00  0.00     0.074 A 
ATOM     53  C   UNL A   1      38.157  31.548  33.082  1.00  0.00     0.031 C 
ATOM     54  C   UNL A   1      40.388  27.777  27.757  1.00  0.00     0.029 A 
ATOM     55  C   UNL A   1      41.213  27.720  28.960  1.00  0.00     0.049 A 
ATOM     56  H   UNL A   1      40.865  28.665  30.782  1.00  0.00     0.167 HD
ATOM     57  C   UNL A   1      40.077  30.878  34.494  1.00  0.00     0.037 A 
ATOM     58  C   UNL A   1      42.362  27.031  29.089  1.00  0.00     0.037 A 
ATOM     59  C   UNL A   1      41.265  30.110  34.755  1.00  0.00     0.049 A 
ATOM     60  C   UNL A   1      43.086  27.060  30.407  1.00  0.00     0.074 A 
ATOM     61  C   UNL A   1      41.995  30.018  35.927  1.00  0.00     0.029 A 
ATOM     62  N   UNL A   1      41.895  29.296  33.825  1.00  0.00    -0.354 N 
ATOM     63  N   UNL A   1      42.777  27.707  31.505  1.00  0.00    -0.248 NA
ATOM     64  C   UNL A   1      44.313  26.258  30.505  1.00  0.00     0.031 C 
ATOM     65  C   UNL A   1      43.086  29.171  35.695  1.00  0.00     0.029 A 
ATOM     66  C   UNL A   1      43.013  28.707  34.391  1.00  0.00     0.049 A 
ATOM     67  H   UNL A   1      41.590  29.155  32.899  1.00  0.00     0.167 HD
ATOM     68  C   UNL A   1      43.756  27.375  32.431  1.00  0.00     0.074 A 
ATOM     69  C   UNL A   1      44.660  26.455  31.769  1.00  0.00     0.031 C 
ATOM     70  C   UNL A   1      43.897  27.794  33.712  1.00  0.00     0.037 A 
BRANCH  57  71
ATOM     71  C   UNL A   1      39.554  31.786  35.567  1.00  0.00     0.064 A 
ATOM     72  C   UNL A   1      40.009  33.109  35.698  1.00  0.00     0.173 A 
ATOM     73  C   UNL A   1      38.590  31.332  36.479  1.00  0.00     0.173 A 
ATOM     74  F   UNL A   1      40.942  33.588  34.862  1.00  0.00    -0.203 F 
ATOM     75  C   UNL A   1      39.548  33.928  36.727  1.00  0.00     0.198 A 
ATOM     76  C   UNL A   1      38.107  32.164  37.486  1.00  0.00     0.198 A 
ATOM     77  F   UNL A   1      38.119  30.079  36.397  1.00  0.00    -0.203 F 
ATOM     78  F   UNL A   1      40.045  35.164  36.869  1.00  0.00    -0.200 F 
ATOM     79  C   UNL A   1      38.595  33.457  37.616  1.00  0.00     0.200 A 
ATOM     80  F   UNL A   1      37.180  31.712  38.341  1.00  0.00    -0.200 F 
ATOM     81  F   UNL A   1      38.155  34.245  38.607  1.00  0.00    -0.200 F 
ENDBRANCH  57  71
BRANCH  58  82
ATOM     82  C   UNL A   1      42.861  26.206  27.959  1.00  0.00     0.064 A 
ATOM     83  C   UNL A   1      42.471  24.865  27.830  1.00  0.00     0.173 A 
ATOM     84  C   UNL A   1      43.710  26.736  26.979  1.00  0.00     0.173 A 
ATOM     85  F   UNL A   1      41.674  24.308  28.753  1.00  0.00    -0.203 F 
ATOM     86  C   UNL A   1      42.925  24.081  26.771  1.00  0.00     0.198 A 
ATOM     87  C   UNL A   1      44.145  25.958  25.908  1.00  0.00     0.198 A 
ATOM     88  F   UNL A   1      44.104  28.016  27.052  1.00  0.00    -0.203 F 
ATOM     89  F   UNL A   1      42.564  22.794  26.691  1.00  0.00    -0.200 F 
ATOM     90  C   UNL A   1      43.756  24.630  25.807  1.00  0.00     0.200 A 
ATOM     91  F   UNL A   1      44.937  26.495  24.969  1.00  0.00    -0.200 F 
ATOM     92  F   UNL A   1      44.186  23.880  24.783  1.00  0.00    -0.200 F 
ENDBRANCH  58  82
BRANCH  70  93
ATOM     93  C   UNL A   1      45.059  27.248  34.485  1.00  0.00     0.064 A 
ATOM     94  C   UNL A   1      46.281  27.932  34.547  1.00  0.00     0.173 A 
ATOM     95  C   UNL A   1      44.937  26.048  35.201  1.00  0.00     0.173 A 
ATOM     96  F   UNL A   1      46.451  29.076  33.866  1.00  0.00    -0.203 F 
ATOM     97  C   UNL A   1      47.348  27.422  35.281  1.00  0.00     0.198 A 
ATOM     98  C   UNL A   1      45.997  25.555  35.955  1.00  0.00     0.198 A 
ATOM     99  F   UNL A   1      43.785  25.361  35.176  1.00  0.00    -0.203 F 
ATOM    100  F   UNL A   1      48.522  28.069  35.292  1.00  0.00    -0.200 F 
ATOM    101  C   UNL A   1      47.204  26.238  35.989  1.00  0.00     0.200 A 
ATOM    102  F   UNL A   1      45.852  24.417  36.648  1.00  0.00    -0.200 F 
ATOM    103  F   UNL A   1      48.230  25.751  36.699  1.00  0.00    -0.200 F 
ENDBRANCH  70  93
ENDBRANCH  44  45
ENDBRANCH  36  39
ENDBRANCH  34  35
ENDBRANCH  33  34
ENDBRANCH  32  33
ENDBRANCH  31  32
ENDBRANCH   1  31
TORSDOF 18
ENDMDL
MODEL 3
REMARK VINA RESULT:     -12.8      3.579      9.496
REMARK SMILES O=C(CCC(=O)N1N=C(c2ccccc2)C[C@@H]1c1ccc2c(c1)OCO2)NCCCCCCNC(=O)c1ccc(-c2c3nc(c(-c4c(F)c(F)c(F)c(F)c4F)c4ccc([nH]4)c(-c4c(F)c(F)c(F)c(F)c4F)c4nc(c(-c5c(F)c(F)c(F)c(F)c5F)c5ccc2[nH]5)C=C4)C=C3)cc1
REMARK SMILES IDX 29 1 28 2 27 3 1 4 2 5 3 7 4 8 5 9 6 10 7 11 8 12 17 13 9 14
REMARK SMILES IDX 16 15 18 16 19 17 23 18 20 19 22 20 21 21 24 22 26 23 25 24
REMARK SMILES IDX 10 25 11 26 15 27 12 28 14 29 13 30 30 31 31 32 32 33 33 34
REMARK SMILES IDX 34 35 35 36 36 38 37 39 38 40 99 41 39 42 98 43 40 44 41 45
REMARK SMILES IDX 42 46 92 47 43 48 97 49 91 50 93 51 44 52 96 53 90 54 89 55
REMARK SMILES IDX 45 57 77 58 57 59 76 60 58 61 61 62 75 63 94 64 59 65 60 66
REMARK SMILES IDX 74 68 95 69 62 70 46 71 47 72 55 73 48 74 49 75 53 76 56 77
REMARK SMILES IDX 50 78 51 79 54 80 52 81 78 82 79 83 87 84 80 85 81 86 85 87
REMARK SMILES IDX 88 88 82 89 83 90 86 91 84 92 63 93 64 94 72 95 65 96 66 97
REMARK SMILES IDX 70 98 73 99 67 100 68 101 71 102 69 103
REMARK H PARENT 27 6 34 37 93 56 61 67
REMARK Flexibility Score: inf
ROOT
ATOM      1  C   UNL A   1      32.989  28.805  23.375  1.00  0.00     0.021 C 
ENDROOT
BRANCH   1   2
ATOM      2  C   UNL A   1      33.594  27.576  22.657  1.00  0.00     0.116 C 
BRANCH   2   3
ATOM      3  N   UNL A   1      32.758  26.413  22.358  1.00  0.00    -0.356 N 
ATOM      4  O   UNL A   1      33.458  25.263  24.218  1.00  0.00    -0.275 OA
ATOM      5  C   UNL A   1      32.650  25.386  23.302  1.00  0.00     0.220 C 
ATOM      6  H   UNL A   1      32.278  26.353  21.501  1.00  0.00     0.163 HD
BRANCH   5   7
ATOM      7  C   UNL A   1      31.357  24.548  23.240  1.00  0.00     0.110 C 
BRANCH   7   8
ATOM      8  C   UNL A   1      31.469  23.198  23.987  1.00  0.00     0.112 C 
BRANCH   8   9
ATOM      9  C   UNL A   1      32.328  21.975  23.551  1.00  0.00     0.243 C 
ATOM     10  O   UNL A   1      32.029  21.402  22.496  1.00  0.00    -0.273 OA
BRANCH   9  11
ATOM     11  N   UNL A   1      33.499  21.688  24.226  1.00  0.00    -0.225 N 
ATOM     12  N   UNL A   1      34.730  22.296  23.909  1.00  0.00    -0.174 NA
ATOM     13  C   UNL A   1      33.646  20.772  25.331  1.00  0.00     0.147 C 
ATOM     14  C   UNL A   1      35.504  22.032  24.922  1.00  0.00     0.071 C 
ATOM     15  C   UNL A   1      34.839  21.321  26.043  1.00  0.00     0.091 C 
BRANCH  13  16
ATOM     16  C   UNL A   1      33.542  19.305  24.929  1.00  0.00    -0.019 A 
ATOM     17  C   UNL A   1      34.682  18.676  24.363  1.00  0.00     0.010 A 
ATOM     18  C   UNL A   1      32.464  18.491  25.296  1.00  0.00     0.056 A 
ATOM     19  C   UNL A   1      34.824  17.297  24.251  1.00  0.00     0.051 A 
ATOM     20  C   UNL A   1      32.638  17.119  25.218  1.00  0.00     0.166 A 
ATOM     21  C   UNL A   1      33.791  16.542  24.733  1.00  0.00     0.165 A 
ATOM     22  O   UNL A   1      31.770  16.180  25.688  1.00  0.00    -0.454 OA
ATOM     23  O   UNL A   1      33.798  15.190  24.854  1.00  0.00    -0.454 OA
ATOM     24  C   UNL A   1      32.610  15.006  25.648  1.00  0.00     0.468 C 
ENDBRANCH  13  16
BRANCH  14  25
ATOM     25  C   UNL A   1      36.879  22.457  25.207  1.00  0.00    -0.002 A 
ATOM     26  C   UNL A   1      37.091  23.718  25.765  1.00  0.00     0.010 A 
ATOM     27  C   UNL A   1      37.869  21.466  25.303  1.00  0.00     0.010 A 
ATOM     28  C   UNL A   1      38.301  23.987  26.413  1.00  0.00     0.001 A 
ATOM     29  C   UNL A   1      39.071  21.738  25.953  1.00  0.00     0.001 A 
ATOM     30  C   UNL A   1      39.286  22.999  26.511  1.00  0.00     0.000 A 
ENDBRANCH  14  25
ENDBRANCH   9  11
ENDBRANCH   8   9
ENDBRANCH   7   8
ENDBRANCH   5   7
ENDBRANCH   2   3
ENDBRANCH   1   2
BRANCH   1  31
ATOM     31  C   UNL A   1      31.634  28.830  24.121  1.00  0.00     0.002 C 
BRANCH  31  32
ATOM     32  C   UNL A   1      31.547  28.950  25.648  1.00  0.00     0.002 C 
BRANCH  32  33
ATOM     33  C   UNL A   1      32.298  27.923  26.498  1.00  0.00     0.021 C 
BRANCH  33  34
ATOM     34  C   UNL A   1      33.555  28.488  27.149  1.00  0.00     0.116 C 
BRANCH  34  35
ATOM     35  N   UNL A   1      33.429  29.879  27.587  1.00  0.00    -0.352 N 
ATOM     36  C   UNL A   1      34.395  30.663  28.185  1.00  0.00     0.251 C 
ATOM     37  H   UNL A   1      32.553  30.306  27.437  1.00  0.00     0.163 HD
ATOM     38  O   UNL A   1      34.121  31.773  28.634  1.00  0.00    -0.269 OA
BRANCH  36  39
ATOM     39  C   UNL A   1      35.767  30.122  28.331  1.00  0.00     0.039 A 
ATOM     40  C   UNL A   1      36.677  30.241  27.277  1.00  0.00     0.014 A 
ATOM     41  C   UNL A   1      36.171  29.570  29.547  1.00  0.00     0.014 A 
ATOM     42  C   UNL A   1      38.017  29.903  27.486  1.00  0.00     0.010 A 
ATOM     43  C   UNL A   1      37.517  29.339  29.786  1.00  0.00     0.010 A 
ATOM     44  C   UNL A   1      38.457  29.502  28.760  1.00  0.00    -0.014 A 
BRANCH  44  45
ATOM     45  C   UNL A   1      39.889  29.245  29.050  1.00  0.00     0.031 A 
ATOM     46  C   UNL A   1      40.704  30.277  29.779  1.00  0.00     0.074 A 
ATOM     47  C   UNL A   1      40.477  28.133  28.568  1.00  0.00     0.049 A 
ATOM     48  N   UNL A   1      41.983  30.280  30.055  1.00  0.00    -0.248 NA
ATOM     49  C   UNL A   1      39.994  31.490  30.217  1.00  0.00     0.031 C 
ATOM     50  C   UNL A   1      39.813  27.100  27.772  1.00  0.00     0.029 A 
ATOM     51  N   UNL A   1      41.772  27.689  28.672  1.00  0.00    -0.354 N 
ATOM     52  C   UNL A   1      42.233  31.502  30.667  1.00  0.00     0.074 A 
ATOM     53  C   UNL A   1      40.989  32.240  30.665  1.00  0.00     0.031 C 
ATOM     54  C   UNL A   1      40.693  26.124  27.494  1.00  0.00     0.029 A 
ATOM     55  C   UNL A   1      41.989  26.476  28.066  1.00  0.00     0.049 A 
ATOM     56  H   UNL A   1      42.478  28.193  29.137  1.00  0.00     0.167 HD
ATOM     57  C   UNL A   1      43.386  31.956  31.211  1.00  0.00     0.037 A 
ATOM     58  C   UNL A   1      43.105  25.728  27.993  1.00  0.00     0.037 A 
ATOM     59  C   UNL A   1      44.605  31.194  31.259  1.00  0.00     0.049 A 
ATOM     60  C   UNL A   1      44.361  26.225  28.655  1.00  0.00     0.074 A 
ATOM     61  C   UNL A   1      45.804  31.518  31.867  1.00  0.00     0.029 A 
ATOM     62  N   UNL A   1      44.775  29.947  30.675  1.00  0.00    -0.354 N 
ATOM     63  N   UNL A   1      44.564  27.345  29.306  1.00  0.00    -0.248 NA
ATOM     64  C   UNL A   1      45.539  25.351  28.579  1.00  0.00     0.031 C 
ATOM     65  C   UNL A   1      46.711  30.479  31.622  1.00  0.00     0.029 A 
ATOM     66  C   UNL A   1      46.063  29.492  30.896  1.00  0.00     0.049 A 
ATOM     67  H   UNL A   1      44.080  29.456  30.177  1.00  0.00     0.167 HD
ATOM     68  C   UNL A   1      45.882  27.303  29.735  1.00  0.00     0.074 A 
ATOM     69  C   UNL A   1      46.426  26.038  29.285  1.00  0.00     0.031 C 
ATOM     70  C   UNL A   1      46.582  28.228  30.437  1.00  0.00     0.037 A 
BRANCH  57  71
ATOM     71  C   UNL A   1      43.372  33.332  31.811  1.00  0.00     0.064 A 
ATOM     72  C   UNL A   1      43.076  33.541  33.168  1.00  0.00     0.173 A 
ATOM     73  C   UNL A   1      43.653  34.457  31.021  1.00  0.00     0.173 A 
ATOM     74  F   UNL A   1      42.784  32.501  33.962  1.00  0.00    -0.203 F 
ATOM     75  C   UNL A   1      43.022  34.826  33.701  1.00  0.00     0.198 A 
ATOM     76  C   UNL A   1      43.631  35.738  31.566  1.00  0.00     0.198 A 
ATOM     77  F   UNL A   1      43.946  34.314  29.720  1.00  0.00    -0.203 F 
ATOM     78  F   UNL A   1      42.674  35.003  34.983  1.00  0.00    -0.200 F 
ATOM     79  C   UNL A   1      43.304  35.923  32.902  1.00  0.00     0.200 A 
ATOM     80  F   UNL A   1      43.911  36.798  30.795  1.00  0.00    -0.200 F 
ATOM     81  F   UNL A   1      43.248  37.160  33.415  1.00  0.00    -0.200 F 
ENDBRANCH  57  71
BRANCH  58  82
ATOM     82  C   UNL A   1      43.066  24.404  27.320  1.00  0.00     0.064 A 
ATOM     83  C   UNL A   1      43.402  24.285  25.964  1.00  0.00     0.173 A 
ATOM     84  C   UNL A   1      42.718  23.237  28.012  1.00  0.00     0.173 A 
ATOM     85  F   UNL A   1      43.725  25.376  25.256  1.00  0.00    -0.203 F 
ATOM     86  C   UNL A   1      43.377  23.048  25.322  1.00  0.00     0.198 A 
ATOM     87  C   UNL A   1      42.716  21.997  27.375  1.00  0.00     0.198 A 
ATOM     88  F   UNL A   1      42.397  23.297  29.313  1.00  0.00    -0.203 F 
ATOM     89  F   UNL A   1      43.671  22.967  24.017  1.00  0.00    -0.200 F 
ATOM     90  C   UNL A   1      43.040  21.905  26.029  1.00  0.00     0.200 A 
ATOM     91  F   UNL A   1      42.404  20.891  28.065  1.00  0.00    -0.200 F 
ATOM     92  F   UNL A   1      43.025  20.714  25.415  1.00  0.00    -0.200 F 
ENDBRANCH  58  82
BRANCH  70  93
ATOM     93  C   UNL A   1      48.004  27.897  30.774  1.00  0.00     0.064 A 
ATOM     94  C   UNL A   1      48.331  27.176  31.931  1.00  0.00     0.173 A 
ATOM     95  C   UNL A   1      49.046  28.271  29.913  1.00  0.00     0.173 A 
ATOM     96  F   UNL A   1      47.370  26.810  32.793  1.00  0.00    -0.203 F 
ATOM     97  C   UNL A   1      49.654  26.861  32.226  1.00  0.00     0.198 A 
ATOM     98  C   UNL A   1      50.365  27.931  30.197  1.00  0.00     0.198 A 
ATOM     99  F   UNL A   1      48.782  28.957  28.791  1.00  0.00    -0.203 F 
ATOM    100  F   UNL A   1      49.949  26.209  33.359  1.00  0.00    -0.200 F 
ATOM    101  C   UNL A   1      50.668  27.233  31.357  1.00  0.00     0.200 A 
ATOM    102  F   UNL A   1      51.343  28.281  29.351  1.00  0.00    -0.200 F 
ATOM    103  F   UNL A   1      51.942  26.924  31.639  1.00  0.00    -0.200 F 
ENDBRANCH  70  93
ENDBRANCH  44  45
ENDBRANCH  36  39
ENDBRANCH  34  35
ENDBRANCH  33  34
ENDBRANCH  32  33
ENDBRANCH  31  32
ENDBRANCH   1  31
TORSDOF 18
ENDMDL
