MODEL 1
REMARK VINA RESULT:     -13.1      0.000      0.000
REMARK SMILES Cc1ccc(N2C(=O)[NH+]=C(NCCCCCCNC(=O)c3ccc(-c4c5nc(c(-c6c(F)c(F)c(F)c(F)c6F)c6ccc([nH]6)c(-c6c(F)c(F)c(F)c(F)c6F)c6nc(c(-c7c(F)c(F)c(F)c(F)c7F)c7ccc4[nH]7)C=C6)C=C5)cc3)/C(=C\c3ccccc3OCc3cccc(C(=O)[O-])c3)C2=O)cc1
REMARK SMILES IDX 13 1 12 2 11 3 6 4 7 5 103 6 8 7 9 8 84 9 104 10 10 11 85 13
REMARK SMILES IDX 5 15 1 16 2 17 3 18 106 19 4 20 105 21 86 22 87 23 91 24
REMARK SMILES IDX 88 25 90 26 89 27 92 28 93 29 94 30 95 31 102 32 96 33 98 34
REMARK SMILES IDX 97 35 99 36 100 37 101 38 14 39 15 40 16 41 17 42 18 43
REMARK SMILES IDX 19 44 20 46 21 47 22 48 83 49 23 50 82 51 24 52 25 53 26 54
REMARK SMILES IDX 76 55 27 56 81 57 75 58 77 59 28 60 80 61 74 62 73 63 29 65
REMARK SMILES IDX 61 66 41 67 60 68 42 69 45 70 59 71 78 72 43 73 44 74 58 76
REMARK SMILES IDX 79 77 46 78 30 79 31 80 39 81 32 82 33 83 37 84 40 85 34 86
REMARK SMILES IDX 35 87 38 88 36 89 62 90 63 91 71 92 64 93 65 94 69 95 72 96
REMARK SMILES IDX 66 97 67 98 70 99 68 100 47 101 48 102 56 103 49 104 50 105
REMARK SMILES IDX 54 106 57 107 51 108 52 109 55 110 53 111
REMARK H PARENT 9 12 11 14 18 45 77 64 45 75
REMARK Flexibility Score: inf
ROOT
ATOM      1  C   UNL A   1      35.821  23.220  24.157  1.00  0.00     0.037 C 
ENDROOT
BRANCH   1   2
ATOM      2  C   UNL A   1      35.816  23.583  25.642  1.00  0.00     0.194 C 
BRANCH   2   3
ATOM      3  N   UNL A   1      34.463  23.801  26.132  1.00  0.00    -0.305 N 
ATOM      4  N   UNL A   1      32.782  27.599  26.272  1.00  0.00    -0.155 N 
ATOM      5  C   UNL A   1      34.159  27.363  26.123  1.00  0.00     0.448 C 
ATOM      6  C   UNL A   1      31.856  26.568  26.403  1.00  0.00     0.328 C 
ATOM      7  O   UNL A   1      34.979  28.276  26.030  1.00  0.00    -0.212 OA
ATOM      8  N   UNL A   1      34.635  26.083  26.142  1.00  0.00    -0.209 N 
ATOM      9  C   UNL A   1      32.392  25.220  26.068  1.00  0.00     0.129 C 
ATOM     10  O   UNL A   1      30.653  26.699  26.636  1.00  0.00    -0.249 OA
ATOM     11  C   UNL A   1      33.865  25.042  26.113  1.00  0.00     0.236 C 
ATOM     12  H   UNL A   1      35.609  25.946  26.180  1.00  0.00     0.270 HD
ATOM     13  C   UNL A   1      31.498  24.355  25.544  1.00  0.00     0.034 C 
ATOM     14  H   UNL A   1      33.957  23.035  26.489  1.00  0.00     0.256 HD
BRANCH   4  15
ATOM     15  C   UNL A   1      32.311  28.962  26.272  1.00  0.00     0.111 A 
ATOM     16  C   UNL A   1      30.885  33.052  26.239  1.00  0.00     0.044 C 
ATOM     17  C   UNL A   1      31.380  31.637  26.258  1.00  0.00    -0.051 A 
ATOM     18  C   UNL A   1      30.900  30.716  25.326  1.00  0.00     0.007 A 
ATOM     19  C   UNL A   1      32.310  31.212  27.210  1.00  0.00     0.007 A 
ATOM     20  C   UNL A   1      31.367  29.399  25.327  1.00  0.00     0.044 A 
ATOM     21  C   UNL A   1      32.763  29.889  27.222  1.00  0.00     0.044 A 
ENDBRANCH   4  15
BRANCH  13  22
ATOM     22  C   UNL A   1      31.723  23.097  24.814  1.00  0.00     0.018 A 
ATOM     23  C   UNL A   1      31.893  21.938  25.594  1.00  0.00     0.012 A 
ATOM     24  C   UNL A   1      31.731  22.968  23.413  1.00  0.00     0.127 A 
ATOM     25  C   UNL A   1      32.154  20.700  25.003  1.00  0.00     0.001 A 
ATOM     26  C   UNL A   1      31.991  21.721  22.831  1.00  0.00     0.047 A 
ATOM     27  C   UNL A   1      32.221  20.595  23.619  1.00  0.00     0.004 A 
BRANCH  24  28
ATOM     28  O   UNL A   1      31.666  24.010  22.524  1.00  0.00    -0.488 OA
BRANCH  28  29
ATOM     29  C   UNL A   1      32.900  24.683  22.265  1.00  0.00     0.265 C 
BRANCH  29  30
ATOM     30  C   UNL A   1      32.684  26.181  22.270  1.00  0.00    -0.010 A 
ATOM     31  C   UNL A   1      33.777  27.043  22.461  1.00  0.00     0.007 A 
ATOM     32  C   UNL A   1      31.400  26.733  22.171  1.00  0.00     0.017 A 
ATOM     33  C   UNL A   1      33.592  28.424  22.554  1.00  0.00     0.001 A 
ATOM     34  C   UNL A   1      31.206  28.117  22.291  1.00  0.00    -0.002 A 
ATOM     35  C   UNL A   1      32.307  28.960  22.481  1.00  0.00     0.010 A 
BRANCH  34  36
ATOM     36  C   UNL A   1      29.853  28.714  22.278  1.00  0.00     0.071 C 
ATOM     37  O   UNL A   1      28.935  28.422  23.037  1.00  0.00    -0.545 OA
ATOM     38  O   UNL A   1      29.689  29.633  21.315  1.00  0.00    -0.545 OA
ENDBRANCH  34  36
ENDBRANCH  29  30
ENDBRANCH  28  29
ENDBRANCH  24  28
ENDBRANCH  13  22
ENDBRANCH   2   3
ENDBRANCH   1   2
BRANCH   1  39
ATOM     39  C   UNL A   1      35.795  21.717  23.852  1.00  0.00     0.003 C 
BRANCH  39  40
ATOM     40  C   UNL A   1      36.205  20.795  25.007  1.00  0.00     0.002 C 
BRANCH  40  41
ATOM     41  C   UNL A   1      37.694  20.531  25.200  1.00  0.00     0.021 C 
BRANCH  41  42
ATOM     42  C   UNL A   1      38.529  21.780  25.390  1.00  0.00     0.116 C 
BRANCH  42  43
ATOM     43  N   UNL A   1      39.566  21.697  26.406  1.00  0.00    -0.352 N 
ATOM     44  C   UNL A   1      40.289  22.704  27.026  1.00  0.00     0.251 C 
ATOM     45  H   UNL A   1      39.791  20.783  26.698  1.00  0.00     0.163 HD
ATOM     46  O   UNL A   1      41.257  22.403  27.721  1.00  0.00    -0.269 OA
BRANCH  44  47
ATOM     47  C   UNL A   1      39.792  24.111  27.041  1.00  0.00     0.039 A 
ATOM     48  C   UNL A   1      40.459  25.032  26.216  1.00  0.00     0.014 A 
ATOM     49  C   UNL A   1      39.071  24.577  28.124  1.00  0.00     0.014 A 
ATOM     50  C   UNL A   1      40.690  26.317  26.684  1.00  0.00     0.010 A 
ATOM     51  C   UNL A   1      39.514  25.725  28.714  1.00  0.00     0.010 A 
ATOM     52  C   UNL A   1      40.352  26.581  28.000  1.00  0.00    -0.014 A 
BRANCH  52  53
ATOM     53  C   UNL A   1      40.669  27.776  28.741  1.00  0.00     0.031 A 
ATOM     54  C   UNL A   1      39.663  28.849  28.693  1.00  0.00     0.074 A 
ATOM     55  C   UNL A   1      41.639  27.698  29.676  1.00  0.00     0.049 A 
ATOM     56  N   UNL A   1      39.834  30.007  29.210  1.00  0.00    -0.248 NA
ATOM     57  C   UNL A   1      38.371  28.709  28.023  1.00  0.00     0.031 C 
ATOM     58  C   UNL A   1      41.802  28.516  30.872  1.00  0.00     0.029 A 
ATOM     59  N   UNL A   1      42.809  26.920  29.635  1.00  0.00    -0.354 N 
ATOM     60  C   UNL A   1      38.611  30.639  29.229  1.00  0.00     0.074 A 
ATOM     61  C   UNL A   1      37.768  29.849  28.372  1.00  0.00     0.031 C 
ATOM     62  C   UNL A   1      43.082  28.442  31.278  1.00  0.00     0.029 A 
ATOM     63  C   UNL A   1      43.807  27.726  30.245  1.00  0.00     0.049 A 
ATOM     64  H   UNL A   1      42.913  26.014  29.264  1.00  0.00     0.167 HD
ATOM     65  C   UNL A   1      38.466  31.685  30.090  1.00  0.00     0.037 A 
ATOM     66  C   UNL A   1      44.811  28.262  29.482  1.00  0.00     0.037 A 
ATOM     67  C   UNL A   1      39.748  31.965  30.740  1.00  0.00     0.049 A 
ATOM     68  C   UNL A   1      44.802  29.779  29.416  1.00  0.00     0.074 A 
ATOM     69  C   UNL A   1      40.306  31.675  31.974  1.00  0.00     0.029 A 
ATOM     70  N   UNL A   1      40.797  32.353  29.934  1.00  0.00    -0.354 N 
ATOM     71  N   UNL A   1      43.832  30.525  29.870  1.00  0.00    -0.248 NA
ATOM     72  C   UNL A   1      45.843  30.573  28.769  1.00  0.00     0.031 C 
ATOM     73  C   UNL A   1      41.709  31.934  31.890  1.00  0.00     0.029 A 
ATOM     74  C   UNL A   1      41.987  32.399  30.618  1.00  0.00     0.049 A 
ATOM     75  H   UNL A   1      40.704  32.574  28.979  1.00  0.00     0.167 HD
ATOM     76  C   UNL A   1      44.064  31.840  29.564  1.00  0.00     0.074 A 
ATOM     77  C   UNL A   1      45.333  31.816  28.857  1.00  0.00     0.031 C 
ATOM     78  C   UNL A   1      43.170  32.826  29.885  1.00  0.00     0.037 A 
BRANCH  65  79
ATOM     79  C   UNL A   1      37.189  32.375  30.508  1.00  0.00     0.064 A 
ATOM     80  C   UNL A   1      36.568  33.277  29.613  1.00  0.00     0.173 A 
ATOM     81  C   UNL A   1      36.542  32.256  31.753  1.00  0.00     0.173 A 
ATOM     82  F   UNL A   1      37.016  33.444  28.361  1.00  0.00    -0.203 F 
ATOM     83  C   UNL A   1      35.457  34.047  29.962  1.00  0.00     0.198 A 
ATOM     84  C   UNL A   1      35.427  33.027  32.103  1.00  0.00     0.198 A 
ATOM     85  F   UNL A   1      36.929  31.384  32.683  1.00  0.00    -0.203 F 
ATOM     86  F   UNL A   1      34.943  34.907  29.074  1.00  0.00    -0.200 F 
ATOM     87  C   UNL A   1      34.894  33.933  31.214  1.00  0.00     0.200 A 
ATOM     88  F   UNL A   1      34.880  32.882  33.318  1.00  0.00    -0.200 F 
ATOM     89  F   UNL A   1      33.837  34.679  31.556  1.00  0.00    -0.200 F 
ENDBRANCH  65  79
BRANCH  66  90
ATOM     90  C   UNL A   1      45.182  27.340  28.364  1.00  0.00     0.064 A 
ATOM     91  C   UNL A   1      45.784  26.113  28.716  1.00  0.00     0.173 A 
ATOM     92  C   UNL A   1      44.500  27.398  27.141  1.00  0.00     0.173 A 
ATOM     93  F   UNL A   1      46.474  26.011  29.865  1.00  0.00    -0.203 F 
ATOM     94  C   UNL A   1      45.530  24.951  27.990  1.00  0.00     0.198 A 
ATOM     95  C   UNL A   1      44.283  26.236  26.396  1.00  0.00     0.198 A 
ATOM     96  F   UNL A   1      43.917  28.537  26.743  1.00  0.00    -0.203 F 
ATOM     97  F   UNL A   1      45.964  23.768  28.448  1.00  0.00    -0.200 F 
ATOM     98  C   UNL A   1      44.741  25.009  26.854  1.00  0.00     0.200 A 
ATOM     99  F   UNL A   1      43.533  26.289  25.286  1.00  0.00    -0.200 F 
ATOM    100  F   UNL A   1      44.387  23.879  26.225  1.00  0.00    -0.200 F 
ENDBRANCH  66  90
BRANCH  78 101
ATOM    101  C   UNL A   1      43.284  34.284  29.496  1.00  0.00     0.064 A 
ATOM    102  C   UNL A   1      43.347  35.322  30.433  1.00  0.00     0.173 A 
ATOM    103  C   UNL A   1      43.244  34.702  28.138  1.00  0.00     0.173 A 
ATOM    104  F   UNL A   1      43.262  35.070  31.746  1.00  0.00    -0.203 F 
ATOM    105  C   UNL A   1      43.464  36.662  30.043  1.00  0.00     0.198 A 
ATOM    106  C   UNL A   1      43.299  36.038  27.754  1.00  0.00     0.198 A 
ATOM    107  F   UNL A   1      43.183  33.836  27.118  1.00  0.00    -0.203 F 
ATOM    108  F   UNL A   1      43.598  37.613  30.977  1.00  0.00    -0.200 F 
ATOM    109  C   UNL A   1      43.438  37.019  28.706  1.00  0.00     0.200 A 
ATOM    110  F   UNL A   1      43.231  36.356  26.453  1.00  0.00    -0.200 F 
ATOM    111  F   UNL A   1      43.544  38.301  28.337  1.00  0.00    -0.200 F 
ENDBRANCH  78 101
ENDBRANCH  52  53
ENDBRANCH  44  47
ENDBRANCH  42  43
ENDBRANCH  41  42
ENDBRANCH  40  41
ENDBRANCH  39  40
ENDBRANCH   1  39
TORSDOF 18
ENDMDL
MODEL 2
REMARK VINA RESULT:     -13.0      5.414      8.617
REMARK SMILES Cc1ccc(N2C(=O)[NH+]=C(NCCCCCCNC(=O)c3ccc(-c4c5nc(c(-c6c(F)c(F)c(F)c(F)c6F)c6ccc([nH]6)c(-c6c(F)c(F)c(F)c(F)c6F)c6nc(c(-c7c(F)c(F)c(F)c(F)c7F)c7ccc4[nH]7)C=C6)C=C5)cc3)/C(=C\c3ccccc3OCc3cccc(C(=O)[O-])c3)C2=O)cc1
REMARK SMILES IDX 13 1 12 2 11 3 6 4 7 5 103 6 8 7 9 8 84 9 104 10 10 11 85 13
REMARK SMILES IDX 5 15 1 16 2 17 3 18 106 19 4 20 105 21 86 22 87 23 91 24
REMARK SMILES IDX 88 25 90 26 89 27 92 28 93 29 94 30 95 31 102 32 96 33 98 34
REMARK SMILES IDX 97 35 99 36 100 37 101 38 14 39 15 40 16 41 17 42 18 43
REMARK SMILES IDX 19 44 20 46 21 47 22 48 83 49 23 50 82 51 24 52 25 53 26 54
REMARK SMILES IDX 76 55 27 56 81 57 75 58 77 59 28 60 80 61 74 62 73 63 29 65
REMARK SMILES IDX 61 66 41 67 60 68 42 69 45 70 59 71 78 72 43 73 44 74 58 76
REMARK SMILES IDX 79 77 46 78 30 79 31 80 39 81 32 82 33 83 37 84 40 85 34 86
REMARK SMILES IDX 35 87 38 88 36 89 62 90 63 91 71 92 64 93 65 94 69 95 72 96
REMARK SMILES IDX 66 97 67 98 70 99 68 100 47 101 48 102 56 103 49 104 50 105
REMARK SMILES IDX 54 106 57 107 51 108 52 109 55 110 53 111
REMARK H PARENT 9 12 11 14 18 45 77 64 45 75
REMARK Flexibility Score: inf
ROOT
ATOM      1  C   UNL A   1      43.546  23.369  24.642  1.00  0.00     0.037 C 
ENDROOT
BRANCH   1   2
ATOM      2  C   UNL A   1      43.025  24.742  25.067  1.00  0.00     0.194 C 
BRANCH   2   3
ATOM      3  N   UNL A   1      42.436  24.700  26.398  1.00  0.00    -0.305 N 
ATOM      4  N   UNL A   1      40.041  27.785  27.818  1.00  0.00    -0.155 N 
ATOM      5  C   UNL A   1      40.883  27.907  26.701  1.00  0.00     0.448 C 
ATOM      6  C   UNL A   1      39.948  26.611  28.562  1.00  0.00     0.328 C 
ATOM      7  O   UNL A   1      40.981  28.952  26.059  1.00  0.00    -0.212 OA
ATOM      8  N   UNL A   1      41.680  26.860  26.334  1.00  0.00    -0.209 N 
ATOM      9  C   UNL A   1      40.566  25.425  27.908  1.00  0.00     0.129 C 
ATOM     10  O   UNL A   1      39.310  26.462  29.605  1.00  0.00    -0.249 OA
ATOM     11  C   UNL A   1      41.579  25.678  26.853  1.00  0.00     0.236 C 
ATOM     12  H   UNL A   1      42.363  27.011  25.641  1.00  0.00     0.270 HD
ATOM     13  C   UNL A   1      39.981  24.239  28.187  1.00  0.00     0.034 C 
ATOM     14  H   UNL A   1      42.659  23.948  26.992  1.00  0.00     0.256 HD
BRANCH   4  15
ATOM     15  C   UNL A   1      39.229  28.914  28.198  1.00  0.00     0.111 A 
ATOM     16  C   UNL A   1      36.772  32.304  29.307  1.00  0.00     0.044 C 
ATOM     17  C   UNL A   1      37.625  31.132  28.930  1.00  0.00    -0.051 A 
ATOM     18  C   UNL A   1      37.158  30.194  28.008  1.00  0.00     0.007 A 
ATOM     19  C   UNL A   1      38.887  30.946  29.501  1.00  0.00     0.007 A 
ATOM     20  C   UNL A   1      37.954  29.106  27.640  1.00  0.00     0.044 A 
ATOM     21  C   UNL A   1      39.675  29.847  29.145  1.00  0.00     0.044 A 
ENDBRANCH   4  15
BRANCH  13  22
ATOM     22  C   UNL A   1      40.100  22.946  27.495  1.00  0.00     0.018 A 
ATOM     23  C   UNL A   1      41.153  22.108  27.907  1.00  0.00     0.012 A 
ATOM     24  C   UNL A   1      39.220  22.479  26.502  1.00  0.00     0.127 A 
ATOM     25  C   UNL A   1      41.381  20.877  27.287  1.00  0.00     0.001 A 
ATOM     26  C   UNL A   1      39.456  21.241  25.890  1.00  0.00     0.047 A 
ATOM     27  C   UNL A   1      40.542  20.451  26.265  1.00  0.00     0.004 A 
BRANCH  24  28
ATOM     28  O   UNL A   1      38.206  23.209  25.939  1.00  0.00    -0.488 OA
BRANCH  28  29
ATOM     29  C   UNL A   1      37.308  22.481  25.099  1.00  0.00     0.265 C 
BRANCH  29  30
ATOM     30  C   UNL A   1      36.112  23.341  24.750  1.00  0.00    -0.010 A 
ATOM     31  C   UNL A   1      35.696  24.350  25.634  1.00  0.00     0.007 A 
ATOM     32  C   UNL A   1      35.352  23.100  23.597  1.00  0.00     0.017 A 
ATOM     33  C   UNL A   1      34.547  25.100  25.376  1.00  0.00     0.001 A 
ATOM     34  C   UNL A   1      34.183  23.832  23.347  1.00  0.00    -0.002 A 
ATOM     35  C   UNL A   1      33.784  24.834  24.240  1.00  0.00     0.010 A 
BRANCH  34  36
ATOM     36  C   UNL A   1      33.318  23.537  22.185  1.00  0.00     0.071 C 
ATOM     37  O   UNL A   1      32.693  22.497  22.002  1.00  0.00    -0.545 OA
ATOM     38  O   UNL A   1      33.278  24.534  21.287  1.00  0.00    -0.545 OA
ENDBRANCH  34  36
ENDBRANCH  29  30
ENDBRANCH  28  29
ENDBRANCH  24  28
ENDBRANCH  13  22
ENDBRANCH   2   3
ENDBRANCH   1   2
BRANCH   1  39
ATOM     39  C   UNL A   1      44.129  22.514  25.774  1.00  0.00     0.003 C 
BRANCH  39  40
ATOM     40  C   UNL A   1      45.638  22.246  25.698  1.00  0.00     0.002 C 
BRANCH  40  41
ATOM     41  C   UNL A   1      46.511  23.324  25.068  1.00  0.00     0.021 C 
BRANCH  41  42
ATOM     42  C   UNL A   1      47.136  24.281  26.063  1.00  0.00     0.116 C 
BRANCH  42  43
ATOM     43  N   UNL A   1      46.371  25.486  26.345  1.00  0.00    -0.352 N 
ATOM     44  C   UNL A   1      45.560  25.793  27.426  1.00  0.00     0.251 C 
ATOM     45  H   UNL A   1      46.439  26.192  25.662  1.00  0.00     0.163 HD
ATOM     46  O   UNL A   1      44.851  26.795  27.375  1.00  0.00    -0.269 OA
BRANCH  44  47
ATOM     47  C   UNL A   1      45.690  25.059  28.719  1.00  0.00     0.039 A 
ATOM     48  C   UNL A   1      44.662  24.158  29.047  1.00  0.00     0.014 A 
ATOM     49  C   UNL A   1      46.481  25.573  29.729  1.00  0.00     0.014 A 
ATOM     50  C   UNL A   1      44.225  24.078  30.361  1.00  0.00     0.010 A 
ATOM     51  C   UNL A   1      45.901  25.719  30.955  1.00  0.00     0.010 A 
ATOM     52  C   UNL A   1      44.750  24.991  31.258  1.00  0.00    -0.014 A 
BRANCH  52  53
ATOM     53  C   UNL A   1      44.310  25.208  32.613  1.00  0.00     0.031 A 
ATOM     54  C   UNL A   1      43.806  26.557  32.919  1.00  0.00     0.074 A 
ATOM     55  C   UNL A   1      44.056  24.123  33.374  1.00  0.00     0.049 A 
ATOM     56  N   UNL A   1      43.473  26.943  34.092  1.00  0.00    -0.248 NA
ATOM     57  C   UNL A   1      43.660  27.607  31.911  1.00  0.00     0.031 C 
ATOM     58  C   UNL A   1      43.148  24.014  34.511  1.00  0.00     0.029 A 
ATOM     59  N   UNL A   1      44.725  22.887  33.355  1.00  0.00    -0.354 N 
ATOM     60  C   UNL A   1      42.792  28.133  33.962  1.00  0.00     0.074 A 
ATOM     61  C   UNL A   1      43.044  28.563  32.612  1.00  0.00     0.031 C 
ATOM     62  C   UNL A   1      43.508  22.953  35.253  1.00  0.00     0.029 A 
ATOM     63  C   UNL A   1      44.765  22.471  34.713  1.00  0.00     0.049 A 
ATOM     64  H   UNL A   1      45.087  22.414  32.571  1.00  0.00     0.167 HD
ATOM     65  C   UNL A   1      41.998  28.510  35.002  1.00  0.00     0.037 A 
ATOM     66  C   UNL A   1      45.955  22.466  35.391  1.00  0.00     0.037 A 
ATOM     67  C   UNL A   1      42.156  27.563  36.107  1.00  0.00     0.049 A 
ATOM     68  C   UNL A   1      46.014  23.442  36.553  1.00  0.00     0.074 A 
ATOM     69  C   UNL A   1      41.426  26.491  36.592  1.00  0.00     0.029 A 
ATOM     70  N   UNL A   1      43.406  27.456  36.678  1.00  0.00    -0.354 N 
ATOM     71  N   UNL A   1      45.108  24.350  36.792  1.00  0.00    -0.248 NA
ATOM     72  C   UNL A   1      47.130  23.524  37.492  1.00  0.00     0.031 C 
ATOM     73  C   UNL A   1      42.264  25.763  37.492  1.00  0.00     0.029 A 
ATOM     74  C   UNL A   1      43.485  26.410  37.564  1.00  0.00     0.049 A 
ATOM     75  H   UNL A   1      44.156  28.060  36.476  1.00  0.00     0.167 HD
ATOM     76  C   UNL A   1      45.499  25.143  37.839  1.00  0.00     0.074 A 
ATOM     77  C   UNL A   1      46.784  24.594  38.233  1.00  0.00     0.031 C 
ATOM     78  C   UNL A   1      44.747  26.208  38.260  1.00  0.00     0.037 A 
BRANCH  65  79
ATOM     79  C   UNL A   1      40.953  29.602  35.026  1.00  0.00     0.064 A 
ATOM     80  C   UNL A   1      39.903  29.571  34.079  1.00  0.00     0.173 A 
ATOM     81  C   UNL A   1      40.927  30.717  35.885  1.00  0.00     0.173 A 
ATOM     82  F   UNL A   1      39.743  28.536  33.243  1.00  0.00    -0.203 F 
ATOM     83  C   UNL A   1      38.967  30.598  33.952  1.00  0.00     0.198 A 
ATOM     84  C   UNL A   1      39.988  31.747  35.758  1.00  0.00     0.198 A 
ATOM     85  F   UNL A   1      41.781  30.864  36.897  1.00  0.00    -0.203 F 
ATOM     86  F   UNL A   1      38.019  30.517  33.009  1.00  0.00    -0.200 F 
ATOM     87  C   UNL A   1      39.018  31.697  34.782  1.00  0.00     0.200 A 
ATOM     88  F   UNL A   1      40.041  32.795  36.593  1.00  0.00    -0.200 F 
ATOM     89  F   UNL A   1      38.131  32.690  34.654  1.00  0.00    -0.200 F 
ENDBRANCH  65  79
BRANCH  66  90
ATOM     90  C   UNL A   1      47.089  22.126  34.476  1.00  0.00     0.064 A 
ATOM     91  C   UNL A   1      47.996  23.162  34.166  1.00  0.00     0.173 A 
ATOM     92  C   UNL A   1      47.557  20.809  34.386  1.00  0.00     0.173 A 
ATOM     93  F   UNL A   1      47.592  24.442  34.209  1.00  0.00    -0.203 F 
ATOM     94  C   UNL A   1      49.355  22.902  33.990  1.00  0.00     0.198 A 
ATOM     95  C   UNL A   1      48.913  20.552  34.169  1.00  0.00     0.198 A 
ATOM     96  F   UNL A   1      46.742  19.779  34.656  1.00  0.00    -0.203 F 
ATOM     97  F   UNL A   1      50.221  23.918  33.879  1.00  0.00    -0.200 F 
ATOM     98  C   UNL A   1      49.817  21.598  34.037  1.00  0.00     0.200 A 
ATOM     99  F   UNL A   1      49.364  19.290  34.197  1.00  0.00    -0.200 F 
ATOM    100  F   UNL A   1      51.134  21.350  33.998  1.00  0.00    -0.200 F 
ENDBRANCH  66  90
BRANCH  78 101
ATOM    101  C   UNL A   1      45.144  27.203  39.328  1.00  0.00     0.064 A 
ATOM    102  C   UNL A   1      45.890  28.356  39.058  1.00  0.00     0.173 A 
ATOM    103  C   UNL A   1      44.857  26.981  40.702  1.00  0.00     0.173 A 
ATOM    104  F   UNL A   1      46.335  28.613  37.820  1.00  0.00    -0.203 F 
ATOM    105  C   UNL A   1      46.234  29.266  40.066  1.00  0.00     0.198 A 
ATOM    106  C   UNL A   1      45.252  27.855  41.709  1.00  0.00     0.198 A 
ATOM    107  F   UNL A   1      44.153  25.926  41.131  1.00  0.00    -0.203 F 
ATOM    108  F   UNL A   1      46.883  30.393  39.745  1.00  0.00    -0.200 F 
ATOM    109  C   UNL A   1      45.917  29.014  41.389  1.00  0.00     0.200 A 
ATOM    110  F   UNL A   1      44.966  27.566  42.987  1.00  0.00    -0.200 F 
ATOM    111  F   UNL A   1      46.252  29.883  42.350  1.00  0.00    -0.200 F 
ENDBRANCH  78 101
ENDBRANCH  52  53
ENDBRANCH  44  47
ENDBRANCH  42  43
ENDBRANCH  41  42
ENDBRANCH  40  41
ENDBRANCH  39  40
ENDBRANCH   1  39
TORSDOF 18
ENDMDL
MODEL 3
REMARK VINA RESULT:     -13.0      1.733      3.517
REMARK SMILES Cc1ccc(N2C(=O)[NH+]=C(NCCCCCCNC(=O)c3ccc(-c4c5nc(c(-c6c(F)c(F)c(F)c(F)c6F)c6ccc([nH]6)c(-c6c(F)c(F)c(F)c(F)c6F)c6nc(c(-c7c(F)c(F)c(F)c(F)c7F)c7ccc4[nH]7)C=C6)C=C5)cc3)/C(=C\c3ccccc3OCc3cccc(C(=O)[O-])c3)C2=O)cc1
REMARK SMILES IDX 13 1 12 2 11 3 6 4 7 5 103 6 8 7 9 8 84 9 104 10 10 11 85 13
REMARK SMILES IDX 5 15 1 16 2 17 3 18 106 19 4 20 105 21 86 22 87 23 91 24
REMARK SMILES IDX 88 25 90 26 89 27 92 28 93 29 94 30 95 31 102 32 96 33 98 34
REMARK SMILES IDX 97 35 99 36 100 37 101 38 14 39 15 40 16 41 17 42 18 43
REMARK SMILES IDX 19 44 20 46 21 47 22 48 83 49 23 50 82 51 24 52 25 53 26 54
REMARK SMILES IDX 76 55 27 56 81 57 75 58 77 59 28 60 80 61 74 62 73 63 29 65
REMARK SMILES IDX 61 66 41 67 60 68 42 69 45 70 59 71 78 72 43 73 44 74 58 76
REMARK SMILES IDX 79 77 46 78 30 79 31 80 39 81 32 82 33 83 37 84 40 85 34 86
REMARK SMILES IDX 35 87 38 88 36 89 62 90 63 91 71 92 64 93 65 94 69 95 72 96
REMARK SMILES IDX 66 97 67 98 70 99 68 100 47 101 48 102 56 103 49 104 50 105
REMARK SMILES IDX 54 106 57 107 51 108 52 109 55 110 53 111
REMARK H PARENT 9 12 11 14 18 45 77 64 45 75
REMARK Flexibility Score: inf
ROOT
ATOM      1  C   UNL A   1      35.580  22.580  23.807  1.00  0.00     0.037 C 
ENDROOT
BRANCH   1   2
ATOM      2  C   UNL A   1      35.544  24.107  23.745  1.00  0.00     0.194 C 
BRANCH   2   3
ATOM      3  N   UNL A   1      34.787  24.668  24.855  1.00  0.00    -0.305 N 
ATOM      4  N   UNL A   1      31.722  27.406  24.240  1.00  0.00    -0.155 N 
ATOM      5  C   UNL A   1      32.683  27.083  23.267  1.00  0.00     0.448 C 
ATOM      6  C   UNL A   1      31.726  26.841  25.513  1.00  0.00     0.328 C 
ATOM      7  O   UNL A   1      32.692  27.601  22.151  1.00  0.00    -0.212 OA
ATOM      8  N   UNL A   1      33.691  26.213  23.570  1.00  0.00    -0.209 N 
ATOM      9  C   UNL A   1      32.624  25.662  25.653  1.00  0.00     0.129 C 
ATOM     10  O   UNL A   1      30.980  27.147  26.444  1.00  0.00    -0.249 OA
ATOM     11  C   UNL A   1      33.719  25.517  24.662  1.00  0.00     0.236 C 
ATOM     12  H   UNL A   1      34.430  26.110  22.929  1.00  0.00     0.270 HD
ATOM     13  C   UNL A   1      32.216  24.725  26.537  1.00  0.00     0.034 C 
ATOM     14  H   UNL A   1      35.047  24.432  25.775  1.00  0.00     0.256 HD
BRANCH   4  15
ATOM     15  C   UNL A   1      30.684  28.347  23.900  1.00  0.00     0.111 A 
ATOM     16  C   UNL A   1      27.575  31.194  22.906  1.00  0.00     0.044 C 
ATOM     17  C   UNL A   1      28.648  30.204  23.244  1.00  0.00    -0.051 A 
ATOM     18  C   UNL A   1      29.790  30.619  23.932  1.00  0.00     0.007 A 
ATOM     19  C   UNL A   1      28.538  28.864  22.866  1.00  0.00     0.007 A 
ATOM     20  C   UNL A   1      30.789  29.700  24.264  1.00  0.00     0.044 A 
ATOM     21  C   UNL A   1      29.546  27.949  23.183  1.00  0.00     0.044 A 
ENDBRANCH   4  15
BRANCH  13  22
ATOM     22  C   UNL A   1      32.652  23.329  26.695  1.00  0.00     0.018 A 
ATOM     23  C   UNL A   1      33.554  23.067  27.743  1.00  0.00     0.012 A 
ATOM     24  C   UNL A   1      32.198  22.249  25.915  1.00  0.00     0.127 A 
ATOM     25  C   UNL A   1      34.063  21.783  27.954  1.00  0.00     0.001 A 
ATOM     26  C   UNL A   1      32.713  20.966  26.138  1.00  0.00     0.047 A 
ATOM     27  C   UNL A   1      33.655  20.734  27.139  1.00  0.00     0.004 A 
BRANCH  24  28
ATOM     28  O   UNL A   1      31.391  22.356  24.812  1.00  0.00    -0.488 OA
BRANCH  28  29
ATOM     29  C   UNL A   1      32.066  22.470  23.558  1.00  0.00     0.265 C 
BRANCH  29  30
ATOM     30  C   UNL A   1      32.180  21.108  22.906  1.00  0.00    -0.010 A 
ATOM     31  C   UNL A   1      31.805  20.944  21.562  1.00  0.00     0.007 A 
ATOM     32  C   UNL A   1      32.575  19.980  23.638  1.00  0.00     0.017 A 
ATOM     33  C   UNL A   1      31.820  19.683  20.963  1.00  0.00     0.001 A 
ATOM     34  C   UNL A   1      32.567  18.707  23.048  1.00  0.00    -0.002 A 
ATOM     35  C   UNL A   1      32.189  18.564  21.708  1.00  0.00     0.010 A 
BRANCH  34  36
ATOM     36  C   UNL A   1      32.894  17.493  23.824  1.00  0.00     0.071 C 
ATOM     37  O   UNL A   1      32.590  17.286  24.994  1.00  0.00    -0.545 OA
ATOM     38  O   UNL A   1      33.602  16.592  23.125  1.00  0.00    -0.545 OA
ENDBRANCH  34  36
ENDBRANCH  29  30
ENDBRANCH  28  29
ENDBRANCH  24  28
ENDBRANCH  13  22
ENDBRANCH   2   3
ENDBRANCH   1   2
BRANCH   1  39
ATOM     39  C   UNL A   1      36.118  21.994  25.119  1.00  0.00     0.003 C 
BRANCH  39  40
ATOM     40  C   UNL A   1      37.057  20.789  24.976  1.00  0.00     0.002 C 
BRANCH  40  41
ATOM     41  C   UNL A   1      38.493  20.960  25.457  1.00  0.00     0.021 C 
BRANCH  41  42
ATOM     42  C   UNL A   1      38.813  22.341  25.991  1.00  0.00     0.116 C 
BRANCH  42  43
ATOM     43  N   UNL A   1      39.948  22.419  26.899  1.00  0.00    -0.352 N 
ATOM     44  C   UNL A   1      40.598  23.528  27.417  1.00  0.00     0.251 C 
ATOM     45  H   UNL A   1      40.311  21.550  27.188  1.00  0.00     0.163 HD
ATOM     46  O   UNL A   1      41.660  23.370  28.016  1.00  0.00    -0.269 OA
BRANCH  44  47
ATOM     47  C   UNL A   1      39.936  24.865  27.448  1.00  0.00     0.039 A 
ATOM     48  C   UNL A   1      40.416  25.835  26.551  1.00  0.00     0.014 A 
ATOM     49  C   UNL A   1      39.256  25.272  28.579  1.00  0.00     0.014 A 
ATOM     50  C   UNL A   1      40.526  27.152  26.974  1.00  0.00     0.010 A 
ATOM     51  C   UNL A   1      39.603  26.481  29.107  1.00  0.00     0.010 A 
ATOM     52  C   UNL A   1      40.269  27.411  28.308  1.00  0.00    -0.014 A 
BRANCH  52  53
ATOM     53  C   UNL A   1      40.498  28.656  28.997  1.00  0.00     0.031 A 
ATOM     54  C   UNL A   1      39.434  29.666  28.872  1.00  0.00     0.074 A 
ATOM     55  C   UNL A   1      41.445  28.679  29.958  1.00  0.00     0.049 A 
ATOM     56  N   UNL A   1      39.525  30.855  29.336  1.00  0.00    -0.248 NA
ATOM     57  C   UNL A   1      38.170  29.420  28.179  1.00  0.00     0.031 C 
ATOM     58  C   UNL A   1      41.529  29.562  31.116  1.00  0.00     0.029 A 
ATOM     59  N   UNL A   1      42.657  27.969  29.984  1.00  0.00    -0.354 N 
ATOM     60  C   UNL A   1      38.268  31.416  29.295  1.00  0.00     0.074 A 
ATOM     61  C   UNL A   1      37.494  30.538  28.457  1.00  0.00     0.031 C 
ATOM     62  C   UNL A   1      42.800  29.581  31.555  1.00  0.00     0.029 A 
ATOM     63  C   UNL A   1      43.592  28.860  30.577  1.00  0.00     0.049 A 
ATOM     64  H   UNL A   1      42.823  27.054  29.660  1.00  0.00     0.167 HD
ATOM     65  C   UNL A   1      38.042  32.491  30.099  1.00  0.00     0.037 A 
ATOM     66  C   UNL A   1      44.584  29.416  29.813  1.00  0.00     0.037 A 
ATOM     67  C   UNL A   1      39.288  32.875  30.766  1.00  0.00     0.049 A 
ATOM     68  C   UNL A   1      44.491  30.925  29.672  1.00  0.00     0.074 A 
ATOM     69  C   UNL A   1      39.828  32.678  32.025  1.00  0.00     0.029 A 
ATOM     70  N   UNL A   1      40.335  33.285  29.967  1.00  0.00    -0.354 N 
ATOM     71  N   UNL A   1      43.469  31.634  30.065  1.00  0.00    -0.248 NA
ATOM     72  C   UNL A   1      45.503  31.745  29.012  1.00  0.00     0.031 C 
ATOM     73  C   UNL A   1      41.216  33.013  31.962  1.00  0.00     0.029 A 
ATOM     74  C   UNL A   1      41.502  33.432  30.675  1.00  0.00     0.049 A 
ATOM     75  H   UNL A   1      40.255  33.454  29.000  1.00  0.00     0.167 HD
ATOM     76  C   UNL A   1      43.634  32.945  29.701  1.00  0.00     0.074 A 
ATOM     77  C   UNL A   1      44.921  32.960  29.026  1.00  0.00     0.031 C 
ATOM     78  C   UNL A   1      42.677  33.892  29.952  1.00  0.00     0.037 A 
BRANCH  65  79
ATOM     79  C   UNL A   1      36.717  33.125  30.452  1.00  0.00     0.064 A 
ATOM     80  C   UNL A   1      35.972  33.776  29.440  1.00  0.00     0.173 A 
ATOM     81  C   UNL A   1      36.133  33.189  31.732  1.00  0.00     0.173 A 
ATOM     82  F   UNL A   1      36.353  33.739  28.156  1.00  0.00    -0.203 F 
ATOM     83  C   UNL A   1      34.801  34.490  29.701  1.00  0.00     0.198 A 
ATOM     84  C   UNL A   1      34.959  33.904  31.993  1.00  0.00     0.198 A 
ATOM     85  F   UNL A   1      36.644  32.553  32.786  1.00  0.00    -0.203 F 
ATOM     86  F   UNL A   1      34.168  35.110  28.697  1.00  0.00    -0.200 F 
ATOM     87  C   UNL A   1      34.302  34.568  30.982  1.00  0.00     0.200 A 
ATOM     88  F   UNL A   1      34.476  33.945  33.244  1.00  0.00    -0.200 F 
ATOM     89  F   UNL A   1      33.187  35.262  31.237  1.00  0.00    -0.200 F 
ENDBRANCH  65  79
BRANCH  66  90
ATOM     90  C   UNL A   1      45.036  28.465  28.750  1.00  0.00     0.064 A 
ATOM     91  C   UNL A   1      45.742  27.318  29.174  1.00  0.00     0.173 A 
ATOM     92  C   UNL A   1      44.355  28.390  27.528  1.00  0.00     0.173 A 
ATOM     93  F   UNL A   1      46.434  27.344  30.325  1.00  0.00    -0.203 F 
ATOM     94  C   UNL A   1      45.591  26.096  28.518  1.00  0.00     0.198 A 
ATOM     95  C   UNL A   1      44.242  27.172  26.854  1.00  0.00     0.198 A 
ATOM     96  F   UNL A   1      43.677  29.449  27.065  1.00  0.00    -0.203 F 
ATOM     97  F   UNL A   1      46.124  24.985  29.045  1.00  0.00    -0.200 F 
ATOM     98  C   UNL A   1      44.803  26.018  27.383  1.00  0.00     0.200 A 
ATOM     99  F   UNL A   1      43.493  27.093  25.745  1.00  0.00    -0.200 F 
ATOM    100  F   UNL A   1      44.549  24.827  26.823  1.00  0.00    -0.200 F 
ENDBRANCH  66  90
BRANCH  78 101
ATOM    101  C   UNL A   1      42.719  35.333  29.494  1.00  0.00     0.064 A 
ATOM    102  C   UNL A   1      42.198  35.760  28.266  1.00  0.00     0.173 A 
ATOM    103  C   UNL A   1      43.376  36.341  30.250  1.00  0.00     0.173 A 
ATOM    104  F   UNL A   1      41.667  34.883  27.402  1.00  0.00    -0.203 F 
ATOM    105  C   UNL A   1      42.241  37.103  27.873  1.00  0.00     0.198 A 
ATOM    106  C   UNL A   1      43.472  37.663  29.829  1.00  0.00     0.198 A 
ATOM    107  F   UNL A   1      43.930  36.100  31.445  1.00  0.00    -0.203 F 
ATOM    108  F   UNL A   1      41.661  37.474  26.724  1.00  0.00    -0.200 F 
ATOM    109  C   UNL A   1      42.878  38.052  28.653  1.00  0.00     0.200 A 
ATOM    110  F   UNL A   1      44.130  38.553  30.586  1.00  0.00    -0.200 F 
ATOM    111  F   UNL A   1      42.922  39.335  28.271  1.00  0.00    -0.200 F 
ENDBRANCH  78 101
ENDBRANCH  52  53
ENDBRANCH  44  47
ENDBRANCH  42  43
ENDBRANCH  41  42
ENDBRANCH  40  41
ENDBRANCH  39  40
ENDBRANCH   1  39
TORSDOF 18
ENDMDL
