MODEL 1
REMARK VINA RESULT:     -11.7      0.000      0.000
REMARK SMILES CC(C)(C)N(CC(=O)NCCCCCCNC(=O)c1ccc(-c2c3nc(c(-c4c(F)c(F)c(F)c(F)c4F)c4ccc([nH]4)c(-c4c(F)c(F)c(F)c(F)c4F)c4nc(c(-c5c(F)c(F)c(F)c(F)c5F)c5ccc2[nH]5)C=C4)C=C3)cc1)C(=O)C1(c2ccccc2)CCC1
REMARK SMILES IDX 11 1 10 2 9 3 7 4 8 5 6 7 5 8 2 9 1 10 3 11 4 12 82 13 83 14
REMARK SMILES IDX 84 15 91 16 93 17 92 18 85 19 86 20 90 21 87 22 89 23 88 24
REMARK SMILES IDX 12 25 13 26 14 27 15 28 16 29 17 30 18 32 19 33 20 34 81 35
REMARK SMILES IDX 21 36 80 37 22 38 23 39 24 40 74 41 25 42 79 43 73 44 75 45
REMARK SMILES IDX 26 46 78 47 72 48 71 49 27 51 59 52 39 53 58 54 40 55 43 56
REMARK SMILES IDX 57 57 76 58 41 59 42 60 56 62 77 63 44 64 28 65 29 66 37 67
REMARK SMILES IDX 30 68 31 69 35 70 38 71 32 72 33 73 36 74 34 75 60 76 61 77
REMARK SMILES IDX 69 78 62 79 63 80 67 81 70 82 64 83 65 84 68 85 66 86 45 87
REMARK SMILES IDX 46 88 54 89 47 90 48 91 52 92 55 93 49 94 50 95 53 96 51 97
REMARK H PARENT 9 6 16 31 75 50 43 61
REMARK Flexibility Score: inf
ROOT
ATOM      1  C   UNL A   1      33.156  29.031  27.529  1.00  0.00     0.021 C 
ENDROOT
BRANCH   1   2
ATOM      2  C   UNL A   1      32.100  27.934  27.353  1.00  0.00     0.116 C 
BRANCH   2   3
ATOM      3  N   UNL A   1      32.415  26.978  26.319  1.00  0.00    -0.355 N 
ATOM      4  C   UNL A   1      31.431  26.071  26.029  1.00  0.00     0.239 C 
ATOM      5  O   UNL A   1      31.067  25.258  26.876  1.00  0.00    -0.273 OA
ATOM      6  H   UNL A   1      33.283  26.978  25.852  1.00  0.00     0.163 HD
BRANCH   4   7
ATOM      7  C   UNL A   1      30.769  26.223  24.669  1.00  0.00     0.220 C 
BRANCH   7   8
ATOM      8  N   UNL A   1      31.597  25.486  23.733  1.00  0.00    -0.328 N 
BRANCH   8   9
ATOM      9  C   UNL A   1      32.351  26.285  22.674  1.00  0.00     0.035 C 
ATOM     10  C   UNL A   1      31.597  27.575  22.233  1.00  0.00     0.034 C 
ATOM     11  C   UNL A   1      32.579  25.454  21.395  1.00  0.00     0.034 C 
ATOM     12  C   UNL A   1      33.712  26.792  23.197  1.00  0.00     0.034 C 
ENDBRANCH   8   9
BRANCH   8  13
ATOM     13  C   UNL A   1      31.384  24.070  23.579  1.00  0.00     0.234 C 
ATOM     14  O   UNL A   1      30.292  23.733  23.076  1.00  0.00    -0.274 OA
BRANCH  13  15
ATOM     15  C   UNL A   1      32.484  22.861  23.933  1.00  0.00     0.074 C 
ATOM     16  C   UNL A   1      31.901  21.908  25.100  1.00  0.00     0.022 C 
ATOM     17  C   UNL A   1      32.251  21.582  23.021  1.00  0.00     0.022 C 
ATOM     18  C   UNL A   1      32.380  20.706  24.279  1.00  0.00     0.003 C 
BRANCH  15  19
ATOM     19  C   UNL A   1      34.091  23.237  24.184  1.00  0.00    -0.032 A 
ATOM     20  C   UNL A   1      35.092  22.969  23.217  1.00  0.00     0.005 A 
ATOM     21  C   UNL A   1      34.565  23.865  25.358  1.00  0.00     0.005 A 
ATOM     22  C   UNL A   1      36.460  23.130  23.473  1.00  0.00     0.000 A 
ATOM     23  C   UNL A   1      35.933  23.999  25.640  1.00  0.00     0.000 A 
ATOM     24  C   UNL A   1      36.883  23.605  24.706  1.00  0.00     0.000 A 
ENDBRANCH  15  19
ENDBRANCH  13  15
ENDBRANCH   8  13
ENDBRANCH   7   8
ENDBRANCH   4   7
ENDBRANCH   2   3
ENDBRANCH   1   2
BRANCH   1  25
ATOM     25  C   UNL A   1      33.134  30.090  26.422  1.00  0.00     0.002 C 
BRANCH  25  26
ATOM     26  C   UNL A   1      31.729  30.594  26.089  1.00  0.00     0.002 C 
BRANCH  26  27
ATOM     27  C   UNL A   1      31.420  31.974  26.664  1.00  0.00     0.021 C 
BRANCH  27  28
ATOM     28  C   UNL A   1      32.633  32.675  27.257  1.00  0.00     0.116 C 
BRANCH  28  29
ATOM     29  N   UNL A   1      32.372  34.077  27.498  1.00  0.00    -0.352 N 
ATOM     30  C   UNL A   1      32.944  34.869  28.462  1.00  0.00     0.251 C 
ATOM     31  H   UNL A   1      31.713  34.510  26.907  1.00  0.00     0.163 HD
ATOM     32  O   UNL A   1      32.504  35.977  28.721  1.00  0.00    -0.269 OA
BRANCH  30  33
ATOM     33  C   UNL A   1      34.101  34.324  29.201  1.00  0.00     0.039 A 
ATOM     34  C   UNL A   1      33.870  33.484  30.290  1.00  0.00     0.014 A 
ATOM     35  C   UNL A   1      35.404  34.598  28.771  1.00  0.00     0.014 A 
ATOM     36  C   UNL A   1      34.955  32.895  30.939  1.00  0.00     0.010 A 
ATOM     37  C   UNL A   1      36.476  33.948  29.369  1.00  0.00     0.010 A 
ATOM     38  C   UNL A   1      36.264  33.110  30.475  1.00  0.00    -0.014 A 
BRANCH  38  39
ATOM     39  C   UNL A   1      37.434  32.523  31.174  1.00  0.00     0.031 A 
ATOM     40  C   UNL A   1      38.189  31.397  30.521  1.00  0.00     0.074 A 
ATOM     41  C   UNL A   1      37.791  32.966  32.394  1.00  0.00     0.049 A 
ATOM     42  N   UNL A   1      39.176  30.676  30.992  1.00  0.00    -0.248 NA
ATOM     43  C   UNL A   1      37.757  31.008  29.167  1.00  0.00     0.031 C 
ATOM     44  C   UNL A   1      37.120  34.032  33.140  1.00  0.00     0.029 A 
ATOM     45  N   UNL A   1      38.803  32.562  33.231  1.00  0.00    -0.354 N 
ATOM     46  C   UNL A   1      39.470  29.750  30.000  1.00  0.00     0.074 A 
ATOM     47  C   UNL A   1      38.522  29.953  28.929  1.00  0.00     0.031 C 
ATOM     48  C   UNL A   1      37.747  34.208  34.316  1.00  0.00     0.029 A 
ATOM     49  C   UNL A   1      38.836  33.242  34.425  1.00  0.00     0.049 A 
ATOM     50  H   UNL A   1      39.445  31.854  32.996  1.00  0.00     0.167 HD
ATOM     51  C   UNL A   1      40.465  28.832  29.971  1.00  0.00     0.037 A 
ATOM     52  C   UNL A   1      39.647  33.088  35.489  1.00  0.00     0.037 A 
ATOM     53  C   UNL A   1      41.425  28.651  31.025  1.00  0.00     0.049 A 
ATOM     54  C   UNL A   1      40.732  32.042  35.438  1.00  0.00     0.074 A 
ATOM     55  C   UNL A   1      42.486  27.766  31.084  1.00  0.00     0.029 A 
ATOM     56  N   UNL A   1      41.442  29.379  32.206  1.00  0.00    -0.354 N 
ATOM     57  N   UNL A   1      41.029  31.203  34.475  1.00  0.00    -0.248 NA
ATOM     58  C   UNL A   1      41.598  31.926  36.619  1.00  0.00     0.031 C 
ATOM     59  C   UNL A   1      43.124  27.931  32.316  1.00  0.00     0.029 A 
ATOM     60  C   UNL A   1      42.493  28.956  33.003  1.00  0.00     0.049 A 
ATOM     61  H   UNL A   1      40.803  30.089  32.442  1.00  0.00     0.167 HD
ATOM     62  C   UNL A   1      42.140  30.495  34.915  1.00  0.00     0.074 A 
ATOM     63  C   UNL A   1      42.469  31.007  36.228  1.00  0.00     0.031 C 
ATOM     64  C   UNL A   1      42.826  29.508  34.290  1.00  0.00     0.037 A 
BRANCH  51  65
ATOM     65  C   UNL A   1      40.579  27.965  28.751  1.00  0.00     0.064 A 
ATOM     66  C   UNL A   1      39.878  26.754  28.646  1.00  0.00     0.173 A 
ATOM     67  C   UNL A   1      41.349  28.375  27.652  1.00  0.00     0.173 A 
ATOM     68  F   UNL A   1      39.139  26.312  29.675  1.00  0.00    -0.203 F 
ATOM     69  C   UNL A   1      39.959  25.977  27.495  1.00  0.00     0.198 A 
ATOM     70  C   UNL A   1      41.403  27.610  26.490  1.00  0.00     0.198 A 
ATOM     71  F   UNL A   1      42.036  29.527  27.699  1.00  0.00    -0.203 F 
ATOM     72  F   UNL A   1      39.312  24.804  27.434  1.00  0.00    -0.200 F 
ATOM     73  C   UNL A   1      40.712  26.410  26.415  1.00  0.00     0.200 A 
ATOM     74  F   UNL A   1      42.119  28.037  25.442  1.00  0.00    -0.200 F 
ATOM     75  F   UNL A   1      40.776  25.668  25.300  1.00  0.00    -0.200 F 
ENDBRANCH  51  65
BRANCH  52  76
ATOM     76  C   UNL A   1      39.478  33.941  36.697  1.00  0.00     0.064 A 
ATOM     77  C   UNL A   1      40.104  35.192  36.792  1.00  0.00     0.173 A 
ATOM     78  C   UNL A   1      38.729  33.505  37.800  1.00  0.00     0.173 A 
ATOM     79  F   UNL A   1      40.847  35.647  35.771  1.00  0.00    -0.203 F 
ATOM     80  C   UNL A   1      40.022  35.955  37.955  1.00  0.00     0.198 A 
ATOM     81  C   UNL A   1      38.620  34.283  38.951  1.00  0.00     0.198 A 
ATOM     82  F   UNL A   1      38.104  32.319  37.761  1.00  0.00    -0.203 F 
ATOM     83  F   UNL A   1      40.687  37.115  38.042  1.00  0.00    -0.200 F 
ATOM     84  C   UNL A   1      39.278  35.501  39.033  1.00  0.00     0.200 A 
ATOM     85  F   UNL A   1      37.886  33.847  39.984  1.00  0.00    -0.200 F 
ATOM     86  F   UNL A   1      39.206  36.229  40.155  1.00  0.00    -0.200 F 
ENDBRANCH  52  76
BRANCH  64  87
ATOM     87  C   UNL A   1      44.044  28.964  34.979  1.00  0.00     0.064 A 
ATOM     88  C   UNL A   1      45.313  29.532  34.799  1.00  0.00     0.173 A 
ATOM     89  C   UNL A   1      43.922  27.893  35.879  1.00  0.00     0.173 A 
ATOM     90  F   UNL A   1      45.482  30.548  33.940  1.00  0.00    -0.203 F 
ATOM     91  C   UNL A   1      46.420  29.033  35.478  1.00  0.00     0.198 A 
ATOM     92  C   UNL A   1      45.026  27.418  36.580  1.00  0.00     0.198 A 
ATOM     93  F   UNL A   1      42.727  27.321  36.093  1.00  0.00    -0.203 F 
ATOM     94  F   UNL A   1      47.632  29.561  35.258  1.00  0.00    -0.200 F 
ATOM     95  C   UNL A   1      46.274  27.983  36.374  1.00  0.00     0.200 A 
ATOM     96  F   UNL A   1      44.879  26.416  37.458  1.00  0.00    -0.200 F 
ATOM     97  F   UNL A   1      47.340  27.513  37.036  1.00  0.00    -0.200 F 
ENDBRANCH  64  87
ENDBRANCH  38  39
ENDBRANCH  30  33
ENDBRANCH  28  29
ENDBRANCH  27  28
ENDBRANCH  26  27
ENDBRANCH  25  26
ENDBRANCH   1  25
TORSDOF 18
ENDMDL
MODEL 2
REMARK VINA RESULT:     -11.5      0.591      7.180
REMARK SMILES CC(C)(C)N(CC(=O)NCCCCCCNC(=O)c1ccc(-c2c3nc(c(-c4c(F)c(F)c(F)c(F)c4F)c4ccc([nH]4)c(-c4c(F)c(F)c(F)c(F)c4F)c4nc(c(-c5c(F)c(F)c(F)c(F)c5F)c5ccc2[nH]5)C=C4)C=C3)cc1)C(=O)C1(c2ccccc2)CCC1
REMARK SMILES IDX 11 1 10 2 9 3 7 4 8 5 6 7 5 8 2 9 1 10 3 11 4 12 82 13 83 14
REMARK SMILES IDX 84 15 91 16 93 17 92 18 85 19 86 20 90 21 87 22 89 23 88 24
REMARK SMILES IDX 12 25 13 26 14 27 15 28 16 29 17 30 18 32 19 33 20 34 81 35
REMARK SMILES IDX 21 36 80 37 22 38 23 39 24 40 74 41 25 42 79 43 73 44 75 45
REMARK SMILES IDX 26 46 78 47 72 48 71 49 27 51 59 52 39 53 58 54 40 55 43 56
REMARK SMILES IDX 57 57 76 58 41 59 42 60 56 62 77 63 44 64 28 65 29 66 37 67
REMARK SMILES IDX 30 68 31 69 35 70 38 71 32 72 33 73 36 74 34 75 60 76 61 77
REMARK SMILES IDX 69 78 62 79 63 80 67 81 70 82 64 83 65 84 68 85 66 86 45 87
REMARK SMILES IDX 46 88 54 89 47 90 48 91 52 92 55 93 49 94 50 95 53 96 51 97
REMARK H PARENT 9 6 16 31 75 50 43 61
REMARK Flexibility Score: inf
ROOT
ATOM      1  C   UNL A   1      33.340  29.062  26.965  1.00  0.00     0.021 C 
ENDROOT
BRANCH   1   2
ATOM      2  C   UNL A   1      32.454  27.839  27.231  1.00  0.00     0.116 C 
BRANCH   2   3
ATOM      3  N   UNL A   1      32.594  26.790  26.250  1.00  0.00    -0.355 N 
ATOM      4  C   UNL A   1      31.471  26.044  26.015  1.00  0.00     0.239 C 
ATOM      5  O   UNL A   1      30.988  25.350  26.907  1.00  0.00    -0.273 OA
ATOM      6  H   UNL A   1      33.444  26.621  25.781  1.00  0.00     0.163 HD
BRANCH   4   7
ATOM      7  C   UNL A   1      30.825  26.229  24.651  1.00  0.00     0.220 C 
BRANCH   7   8
ATOM      8  N   UNL A   1      31.622  25.452  23.720  1.00  0.00    -0.328 N 
BRANCH   8   9
ATOM      9  C   UNL A   1      32.368  26.209  22.625  1.00  0.00     0.035 C 
ATOM     10  C   UNL A   1      31.755  27.608  22.325  1.00  0.00     0.034 C 
ATOM     11  C   UNL A   1      32.357  25.432  21.293  1.00  0.00     0.034 C 
ATOM     12  C   UNL A   1      33.830  26.503  23.025  1.00  0.00     0.034 C 
ENDBRANCH   8   9
BRANCH   8  13
ATOM     13  C   UNL A   1      31.380  24.036  23.609  1.00  0.00     0.234 C 
ATOM     14  O   UNL A   1      30.278  23.706  23.124  1.00  0.00    -0.274 OA
BRANCH  13  15
ATOM     15  C   UNL A   1      32.460  22.817  23.989  1.00  0.00     0.074 C 
ATOM     16  C   UNL A   1      31.856  21.892  25.168  1.00  0.00     0.022 C 
ATOM     17  C   UNL A   1      32.213  21.527  23.096  1.00  0.00     0.022 C 
ATOM     18  C   UNL A   1      32.321  20.670  24.369  1.00  0.00     0.003 C 
BRANCH  15  19
ATOM     19  C   UNL A   1      34.070  23.173  24.244  1.00  0.00    -0.032 A 
ATOM     20  C   UNL A   1      35.061  22.953  23.255  1.00  0.00     0.005 A 
ATOM     21  C   UNL A   1      34.558  23.736  25.445  1.00  0.00     0.005 A 
ATOM     22  C   UNL A   1      36.432  23.096  23.505  1.00  0.00     0.000 A 
ATOM     23  C   UNL A   1      35.929  23.850  25.721  1.00  0.00     0.000 A 
ATOM     24  C   UNL A   1      36.869  23.503  24.758  1.00  0.00     0.000 A 
ENDBRANCH  15  19
ENDBRANCH  13  15
ENDBRANCH   8  13
ENDBRANCH   7   8
ENDBRANCH   4   7
ENDBRANCH   2   3
ENDBRANCH   1   2
BRANCH   1  25
ATOM     25  C   UNL A   1      32.697  30.099  26.039  1.00  0.00     0.002 C 
BRANCH  25  26
ATOM     26  C   UNL A   1      31.421  30.718  26.609  1.00  0.00     0.002 C 
BRANCH  26  27
ATOM     27  C   UNL A   1      31.436  32.244  26.633  1.00  0.00     0.021 C 
BRANCH  27  28
ATOM     28  C   UNL A   1      32.700  32.833  27.243  1.00  0.00     0.116 C 
BRANCH  28  29
ATOM     29  N   UNL A   1      32.501  34.204  27.657  1.00  0.00    -0.352 N 
ATOM     30  C   UNL A   1      33.122  34.850  28.697  1.00  0.00     0.251 C 
ATOM     31  H   UNL A   1      31.851  34.732  27.137  1.00  0.00     0.163 HD
ATOM     32  O   UNL A   1      32.732  35.935  29.098  1.00  0.00    -0.269 OA
BRANCH  30  33
ATOM     33  C   UNL A   1      34.266  34.174  29.341  1.00  0.00     0.039 A 
ATOM     34  C   UNL A   1      34.027  33.312  30.410  1.00  0.00     0.014 A 
ATOM     35  C   UNL A   1      35.561  34.351  28.838  1.00  0.00     0.014 A 
ATOM     36  C   UNL A   1      35.091  32.604  30.967  1.00  0.00     0.010 A 
ATOM     37  C   UNL A   1      36.604  33.584  29.343  1.00  0.00     0.010 A 
ATOM     38  C   UNL A   1      36.384  32.721  30.428  1.00  0.00    -0.014 A 
BRANCH  38  39
ATOM     39  C   UNL A   1      37.536  32.004  31.028  1.00  0.00     0.031 A 
ATOM     40  C   UNL A   1      38.025  32.412  32.392  1.00  0.00     0.074 A 
ATOM     41  C   UNL A   1      38.162  31.029  30.343  1.00  0.00     0.049 A 
ATOM     42  N   UNL A   1      39.069  31.990  33.060  1.00  0.00    -0.248 NA
ATOM     43  C   UNL A   1      37.253  33.457  33.086  1.00  0.00     0.031 C 
ATOM     44  C   UNL A   1      37.799  30.564  29.003  1.00  0.00     0.029 A 
ATOM     45  N   UNL A   1      39.249  30.258  30.677  1.00  0.00    -0.354 N 
ATOM     46  C   UNL A   1      39.080  32.723  34.239  1.00  0.00     0.074 A 
ATOM     47  C   UNL A   1      37.982  33.659  34.172  1.00  0.00     0.031 C 
ATOM     48  C   UNL A   1      38.637  29.580  28.636  1.00  0.00     0.029 A 
ATOM     49  C   UNL A   1      39.621  29.373  29.694  1.00  0.00     0.049 A 
ATOM     50  H   UNL A   1      39.717  30.333  31.540  1.00  0.00     0.167 HD
ATOM     51  C   UNL A   1      39.914  32.603  35.299  1.00  0.00     0.037 A 
ATOM     52  C   UNL A   1      40.650  28.505  29.652  1.00  0.00     0.037 A 
ATOM     53  C   UNL A   1      40.988  31.651  35.375  1.00  0.00     0.049 A 
ATOM     54  C   UNL A   1      41.576  28.409  30.837  1.00  0.00     0.074 A 
ATOM     55  C   UNL A   1      41.875  31.432  36.413  1.00  0.00     0.029 A 
ATOM     56  N   UNL A   1      41.314  30.752  34.370  1.00  0.00    -0.354 N 
ATOM     57  N   UNL A   1      41.549  29.075  31.966  1.00  0.00    -0.248 NA
ATOM     58  C   UNL A   1      42.673  27.435  30.746  1.00  0.00     0.031 C 
ATOM     59  C   UNL A   1      42.764  30.426  36.023  1.00  0.00     0.029 A 
ATOM     60  C   UNL A   1      42.396  29.981  34.763  1.00  0.00     0.049 A 
ATOM     61  H   UNL A   1      40.848  30.674  33.507  1.00  0.00     0.167 HD
ATOM     62  C   UNL A   1      42.591  28.570  32.732  1.00  0.00     0.074 A 
ATOM     63  C   UNL A   1      43.228  27.538  31.945  1.00  0.00     0.031 C 
ATOM     64  C   UNL A   1      42.988  28.930  33.978  1.00  0.00     0.037 A 
BRANCH  51  65
ATOM     65  C   UNL A   1      39.685  33.510  36.473  1.00  0.00     0.064 A 
ATOM     66  C   UNL A   1      40.273  34.782  36.539  1.00  0.00     0.173 A 
ATOM     67  C   UNL A   1      38.826  33.130  37.513  1.00  0.00     0.173 A 
ATOM     68  F   UNL A   1      41.114  35.188  35.575  1.00  0.00    -0.203 F 
ATOM     69  C   UNL A   1      40.024  35.632  37.612  1.00  0.00     0.198 A 
ATOM     70  C   UNL A   1      38.554  33.994  38.571  1.00  0.00     0.198 A 
ATOM     71  F   UNL A   1      38.234  31.925  37.497  1.00  0.00    -0.203 F 
ATOM     72  F   UNL A   1      40.628  36.827  37.673  1.00  0.00    -0.200 F 
ATOM     73  C   UNL A   1      39.157  35.242  38.621  1.00  0.00     0.200 A 
ATOM     74  F   UNL A   1      37.705  33.622  39.537  1.00  0.00    -0.200 F 
ATOM     75  F   UNL A   1      38.904  36.068  39.646  1.00  0.00    -0.200 F 
ENDBRANCH  51  65
BRANCH  52  76
ATOM     76  C   UNL A   1      40.867  27.648  28.454  1.00  0.00     0.064 A 
ATOM     77  C   UNL A   1      41.717  28.057  27.416  1.00  0.00     0.173 A 
ATOM     78  C   UNL A   1      40.194  26.427  28.299  1.00  0.00     0.173 A 
ATOM     79  F   UNL A   1      42.370  29.226  27.508  1.00  0.00    -0.203 F 
ATOM     80  C   UNL A   1      41.853  27.301  26.254  1.00  0.00     0.198 A 
ATOM     81  C   UNL A   1      40.357  25.655  27.150  1.00  0.00     0.198 A 
ATOM     82  F   UNL A   1      39.373  25.984  29.263  1.00  0.00    -0.203 F 
ATOM     83  F   UNL A   1      42.619  27.751  25.251  1.00  0.00    -0.200 F 
ATOM     84  C   UNL A   1      41.175  26.099  26.123  1.00  0.00     0.200 A 
ATOM     85  F   UNL A   1      39.711  24.486  27.035  1.00  0.00    -0.200 F 
ATOM     86  F   UNL A   1      41.299  25.376  25.001  1.00  0.00    -0.200 F 
ENDBRANCH  52  76
BRANCH  64  87
ATOM     87  C   UNL A   1      44.116  28.158  34.598  1.00  0.00     0.064 A 
ATOM     88  C   UNL A   1      45.448  28.583  34.498  1.00  0.00     0.173 A 
ATOM     89  C   UNL A   1      43.846  27.006  35.354  1.00  0.00     0.173 A 
ATOM     90  F   UNL A   1      45.757  29.670  33.775  1.00  0.00    -0.203 F 
ATOM     91  C   UNL A   1      46.473  27.869  35.113  1.00  0.00     0.198 A 
ATOM     92  C   UNL A   1      44.869  26.315  35.994  1.00  0.00     0.198 A 
ATOM     93  F   UNL A   1      42.587  26.565  35.488  1.00  0.00    -0.203 F 
ATOM     94  F   UNL A   1      47.744  28.267  34.968  1.00  0.00    -0.200 F 
ATOM     95  C   UNL A   1      46.181  26.742  35.868  1.00  0.00     0.200 A 
ATOM     96  F   UNL A   1      44.584  25.236  36.738  1.00  0.00    -0.200 F 
ATOM     97  F   UNL A   1      47.168  26.065  36.470  1.00  0.00    -0.200 F 
ENDBRANCH  64  87
ENDBRANCH  38  39
ENDBRANCH  30  33
ENDBRANCH  28  29
ENDBRANCH  27  28
ENDBRANCH  26  27
ENDBRANCH  25  26
ENDBRANCH   1  25
TORSDOF 18
ENDMDL
MODEL 3
REMARK VINA RESULT:     -11.5      0.842      1.970
REMARK SMILES CC(C)(C)N(CC(=O)NCCCCCCNC(=O)c1ccc(-c2c3nc(c(-c4c(F)c(F)c(F)c(F)c4F)c4ccc([nH]4)c(-c4c(F)c(F)c(F)c(F)c4F)c4nc(c(-c5c(F)c(F)c(F)c(F)c5F)c5ccc2[nH]5)C=C4)C=C3)cc1)C(=O)C1(c2ccccc2)CCC1
REMARK SMILES IDX 11 1 10 2 9 3 7 4 8 5 6 7 5 8 2 9 1 10 3 11 4 12 82 13 83 14
REMARK SMILES IDX 84 15 91 16 93 17 92 18 85 19 86 20 90 21 87 22 89 23 88 24
REMARK SMILES IDX 12 25 13 26 14 27 15 28 16 29 17 30 18 32 19 33 20 34 81 35
REMARK SMILES IDX 21 36 80 37 22 38 23 39 24 40 74 41 25 42 79 43 73 44 75 45
REMARK SMILES IDX 26 46 78 47 72 48 71 49 27 51 59 52 39 53 58 54 40 55 43 56
REMARK SMILES IDX 57 57 76 58 41 59 42 60 56 62 77 63 44 64 28 65 29 66 37 67
REMARK SMILES IDX 30 68 31 69 35 70 38 71 32 72 33 73 36 74 34 75 60 76 61 77
REMARK SMILES IDX 69 78 62 79 63 80 67 81 70 82 64 83 65 84 68 85 66 86 45 87
REMARK SMILES IDX 46 88 54 89 47 90 48 91 52 92 55 93 49 94 50 95 53 96 51 97
REMARK H PARENT 9 6 16 31 75 50 43 61
REMARK Flexibility Score: inf
ROOT
ATOM      1  C   UNL A   1      31.878  29.088  23.611  1.00  0.00     0.021 C 
ENDROOT
BRANCH   1   2
ATOM      2  C   UNL A   1      31.140  28.317  22.510  1.00  0.00     0.116 C 
BRANCH   2   3
ATOM      3  N   UNL A   1      31.310  26.886  22.583  1.00  0.00    -0.355 N 
ATOM      4  C   UNL A   1      32.600  26.436  22.490  1.00  0.00     0.239 C 
ATOM      5  O   UNL A   1      33.246  26.610  21.459  1.00  0.00    -0.273 OA
ATOM      6  H   UNL A   1      30.547  26.272  22.691  1.00  0.00     0.163 HD
BRANCH   4   7
ATOM      7  C   UNL A   1      33.186  25.834  23.757  1.00  0.00     0.220 C 
BRANCH   7   8
ATOM      8  N   UNL A   1      32.112  25.082  24.379  1.00  0.00    -0.328 N 
BRANCH   8   9
ATOM      9  C   UNL A   1      31.702  25.474  25.796  1.00  0.00     0.035 C 
ATOM     10  C   UNL A   1      31.799  24.295  26.808  1.00  0.00     0.034 C 
ATOM     11  C   UNL A   1      30.243  25.972  25.844  1.00  0.00     0.034 C 
ATOM     12  C   UNL A   1      32.626  26.564  26.380  1.00  0.00     0.034 C 
ENDBRANCH   8   9
BRANCH   8  13
ATOM     13  C   UNL A   1      31.754  23.798  23.834  1.00  0.00     0.234 C 
ATOM     14  O   UNL A   1      30.646  23.738  23.260  1.00  0.00    -0.274 OA
BRANCH  13  15
ATOM     15  C   UNL A   1      32.709  22.425  23.828  1.00  0.00     0.074 C 
ATOM     16  C   UNL A   1      32.024  21.273  24.729  1.00  0.00     0.022 C 
ATOM     17  C   UNL A   1      32.328  21.461  22.625  1.00  0.00     0.022 C 
ATOM     18  C   UNL A   1      32.359  20.279  23.611  1.00  0.00     0.003 C 
BRANCH  15  19
ATOM     19  C   UNL A   1      34.349  22.544  24.115  1.00  0.00    -0.032 A 
ATOM     20  C   UNL A   1      35.273  22.887  23.097  1.00  0.00     0.005 A 
ATOM     21  C   UNL A   1      34.929  22.336  25.386  1.00  0.00     0.005 A 
ATOM     22  C   UNL A   1      36.662  22.836  23.281  1.00  0.00     0.000 A 
ATOM     23  C   UNL A   1      36.317  22.247  25.575  1.00  0.00     0.000 A 
ATOM     24  C   UNL A   1      37.184  22.470  24.513  1.00  0.00     0.000 A 
ENDBRANCH  15  19
ENDBRANCH  13  15
ENDBRANCH   8  13
ENDBRANCH   7   8
ENDBRANCH   4   7
ENDBRANCH   2   3
ENDBRANCH   1   2
BRANCH   1  25
ATOM     25  C   UNL A   1      30.945  29.764  24.621  1.00  0.00     0.002 C 
BRANCH  25  26
ATOM     26  C   UNL A   1      31.641  30.161  25.923  1.00  0.00     0.002 C 
BRANCH  26  27
ATOM     27  C   UNL A   1      31.423  31.620  26.315  1.00  0.00     0.021 C 
BRANCH  27  28
ATOM     28  C   UNL A   1      32.630  32.258  26.986  1.00  0.00     0.116 C 
BRANCH  28  29
ATOM     29  N   UNL A   1      32.373  33.637  27.341  1.00  0.00    -0.352 N 
ATOM     30  C   UNL A   1      32.995  34.365  28.325  1.00  0.00     0.251 C 
ATOM     31  H   UNL A   1      31.677  34.103  26.823  1.00  0.00     0.163 HD
ATOM     32  O   UNL A   1      32.563  35.447  28.688  1.00  0.00    -0.269 OA
BRANCH  30  33
ATOM     33  C   UNL A   1      34.197  33.782  28.955  1.00  0.00     0.039 A 
ATOM     34  C   UNL A   1      35.447  34.317  28.646  1.00  0.00     0.014 A 
ATOM     35  C   UNL A   1      34.070  32.753  29.895  1.00  0.00     0.014 A 
ATOM     36  C   UNL A   1      36.578  33.831  29.302  1.00  0.00     0.010 A 
ATOM     37  C   UNL A   1      35.187  32.328  30.603  1.00  0.00     0.010 A 
ATOM     38  C   UNL A   1      36.455  32.845  30.296  1.00  0.00    -0.014 A 
BRANCH  38  39
ATOM     39  C   UNL A   1      37.649  32.288  30.980  1.00  0.00     0.031 A 
ATOM     40  C   UNL A   1      38.433  31.191  30.311  1.00  0.00     0.074 A 
ATOM     41  C   UNL A   1      38.001  32.731  32.201  1.00  0.00     0.049 A 
ATOM     42  N   UNL A   1      39.444  30.497  30.768  1.00  0.00    -0.248 NA
ATOM     43  C   UNL A   1      38.001  30.801  28.958  1.00  0.00     0.031 C 
ATOM     44  C   UNL A   1      37.305  33.769  32.962  1.00  0.00     0.029 A 
ATOM     45  N   UNL A   1      39.032  32.351  33.026  1.00  0.00    -0.354 N 
ATOM     46  C   UNL A   1      39.759  29.589  29.766  1.00  0.00     0.074 A 
ATOM     47  C   UNL A   1      38.796  29.772  28.704  1.00  0.00     0.031 C 
ATOM     48  C   UNL A   1      37.935  33.954  34.134  1.00  0.00     0.029 A 
ATOM     49  C   UNL A   1      39.054  33.021  34.226  1.00  0.00     0.049 A 
ATOM     50  H   UNL A   1      39.693  31.665  32.780  1.00  0.00     0.167 HD
ATOM     51  C   UNL A   1      40.780  28.702  29.720  1.00  0.00     0.037 A 
ATOM     52  C   UNL A   1      39.878  32.883  35.283  1.00  0.00     0.037 A 
ATOM     53  C   UNL A   1      41.754  28.542  30.766  1.00  0.00     0.049 A 
ATOM     54  C   UNL A   1      40.994  31.871  35.214  1.00  0.00     0.074 A 
ATOM     55  C   UNL A   1      42.842  27.689  30.808  1.00  0.00     0.029 A 
ATOM     56  N   UNL A   1      41.759  29.259  31.952  1.00  0.00    -0.354 N 
ATOM     57  N   UNL A   1      41.309  31.050  34.241  1.00  0.00    -0.248 NA
ATOM     58  C   UNL A   1      41.873  31.771  36.387  1.00  0.00     0.031 C 
ATOM     59  C   UNL A   1      43.485  27.862  32.037  1.00  0.00     0.029 A 
ATOM     60  C   UNL A   1      42.829  28.862  32.737  1.00  0.00     0.049 A 
ATOM     61  H   UNL A   1      41.101  29.947  32.200  1.00  0.00     0.167 HD
ATOM     62  C   UNL A   1      42.444  30.373  34.666  1.00  0.00     0.074 A 
ATOM     63  C   UNL A   1      42.767  30.883  35.981  1.00  0.00     0.031 C 
ATOM     64  C   UNL A   1      43.155  29.412  34.027  1.00  0.00     0.037 A 
BRANCH  51  65
ATOM     65  C   UNL A   1      40.912  27.850  28.492  1.00  0.00     0.064 A 
ATOM     66  C   UNL A   1      40.206  26.644  28.360  1.00  0.00     0.173 A 
ATOM     67  C   UNL A   1      41.703  28.268  27.412  1.00  0.00     0.173 A 
ATOM     68  F   UNL A   1      39.445  26.193  29.370  1.00  0.00    -0.203 F 
ATOM     69  C   UNL A   1      40.302  25.880  27.201  1.00  0.00     0.198 A 
ATOM     70  C   UNL A   1      41.773  27.517  26.242  1.00  0.00     0.198 A 
ATOM     71  F   UNL A   1      42.396  29.416  27.485  1.00  0.00    -0.203 F 
ATOM     72  F   UNL A   1      39.650  24.713  27.113  1.00  0.00    -0.200 F 
ATOM     73  C   UNL A   1      41.077  26.323  26.139  1.00  0.00     0.200 A 
ATOM     74  F   UNL A   1      42.511  27.953  25.212  1.00  0.00    -0.200 F 
ATOM     75  F   UNL A   1      41.156  25.594  25.017  1.00  0.00    -0.200 F 
ENDBRANCH  51  65
BRANCH  52  76
ATOM     76  C   UNL A   1      39.693  33.720  36.499  1.00  0.00     0.064 A 
ATOM     77  C   UNL A   1      38.881  33.289  37.558  1.00  0.00     0.173 A 
ATOM     78  C   UNL A   1      40.284  34.988  36.609  1.00  0.00     0.173 A 
ATOM     79  F   UNL A   1      38.278  32.092  37.493  1.00  0.00    -0.203 F 
ATOM     80  C   UNL A   1      38.634  34.107  38.658  1.00  0.00     0.198 A 
ATOM     81  C   UNL A   1      40.063  35.792  37.726  1.00  0.00     0.198 A 
ATOM     82  F   UNL A   1      41.075  35.448  35.628  1.00  0.00    -0.203 F 
ATOM     83  F   UNL A   1      37.799  33.696  39.622  1.00  0.00    -0.200 F 
ATOM     84  C   UNL A   1      39.228  35.357  38.743  1.00  0.00     0.200 A 
ATOM     85  F   UNL A   1      40.652  36.993  37.809  1.00  0.00    -0.200 F 
ATOM     86  F   UNL A   1      38.983  36.148  39.796  1.00  0.00    -0.200 F 
ENDBRANCH  52  76
BRANCH  64  87
ATOM     87  C   UNL A   1      44.394  28.900  34.701  1.00  0.00     0.064 A 
ATOM     88  C   UNL A   1      45.628  29.555  34.583  1.00  0.00     0.173 A 
ATOM     89  C   UNL A   1      44.326  27.767  35.528  1.00  0.00     0.173 A 
ATOM     90  F   UNL A   1      45.745  30.634  33.794  1.00  0.00    -0.203 F 
ATOM     91  C   UNL A   1      46.754  29.082  35.248  1.00  0.00     0.198 A 
ATOM     92  C   UNL A   1      45.448  27.316  36.217  1.00  0.00     0.198 A 
ATOM     93  F   UNL A   1      43.167  27.110  35.682  1.00  0.00    -0.203 F 
ATOM     94  F   UNL A   1      47.934  29.696  35.085  1.00  0.00    -0.200 F 
ATOM     95  C   UNL A   1      46.661  27.969  36.071  1.00  0.00     0.200 A 
ATOM     96  F   UNL A   1      45.352  26.251  37.025  1.00  0.00    -0.200 F 
ATOM     97  F   UNL A   1      47.745  27.522  36.721  1.00  0.00    -0.200 F 
ENDBRANCH  64  87
ENDBRANCH  38  39
ENDBRANCH  30  33
ENDBRANCH  28  29
ENDBRANCH  27  28
ENDBRANCH  26  27
ENDBRANCH  25  26
ENDBRANCH   1  25
TORSDOF 18
ENDMDL
