MODEL 1
REMARK VINA RESULT:     -12.1      0.000      0.000
REMARK SMILES O=C(NCCCCCCNC(=O)c1cncc(Oc2cc(F)ccc2F)n1)c1ccc(-c2c3nc(c(-c4c(F)c(F)c(F)c(F)c4F)c4ccc([nH]4)c(-c4c(F)c(F)c(F)c(F)c4F)c4nc(c(-c5c(F)c(F)c(F)c(F)c5F)c5ccc2[nH]5)C=C4)C=C3)cc1
REMARK SMILES IDX 6 1 5 2 4 3 3 4 1 5 2 6 28 8 29 9 90 10 30 11 89 12 31 13
REMARK SMILES IDX 32 14 33 15 83 16 34 17 88 18 82 19 84 20 35 21 87 22 81 23
REMARK SMILES IDX 80 24 36 26 68 27 48 28 67 29 49 30 52 31 66 32 85 33 50 34
REMARK SMILES IDX 51 35 65 37 86 38 53 39 37 40 38 41 46 42 39 43 40 44 44 45
REMARK SMILES IDX 47 46 41 47 42 48 45 49 43 50 69 51 70 52 78 53 71 54 72 55
REMARK SMILES IDX 76 56 79 57 73 58 74 59 77 60 75 61 54 62 55 63 63 64 56 65
REMARK SMILES IDX 57 66 61 67 64 68 58 69 59 70 62 71 60 72 7 73 8 74 9 75
REMARK SMILES IDX 10 76 11 77 12 79 13 80 14 81 27 82 15 83 17 84 16 85 18 86
REMARK SMILES IDX 19 87 20 88 25 89 21 90 24 91 26 92 22 93 23 94
REMARK H PARENT 3 7 84 25 52 36 10 78
REMARK Flexibility Score: inf
ROOT
ATOM      1  C   UNL A   1      31.822  30.699  26.793  1.00  0.00     0.002 C 
ENDROOT
BRANCH   1   2
ATOM      2  C   UNL A   1      31.527  32.195  26.924  1.00  0.00     0.021 C 
BRANCH   2   3
ATOM      3  C   UNL A   1      32.761  33.086  27.031  1.00  0.00     0.116 C 
BRANCH   3   4
ATOM      4  N   UNL A   1      32.467  34.358  27.670  1.00  0.00    -0.352 N 
ATOM      5  O   UNL A   1      32.516  35.923  29.293  1.00  0.00    -0.269 OA
ATOM      6  C   UNL A   1      33.023  34.920  28.789  1.00  0.00     0.251 C 
ATOM      7  H   UNL A   1      31.766  34.895  27.235  1.00  0.00     0.163 HD
BRANCH   6   8
ATOM      8  C   UNL A   1      34.221  34.318  29.408  1.00  0.00     0.039 A 
ATOM      9  C   UNL A   1      35.505  34.638  28.955  1.00  0.00     0.014 A 
ATOM     10  C   UNL A   1      34.056  33.446  30.487  1.00  0.00     0.014 A 
ATOM     11  C   UNL A   1      36.615  34.005  29.509  1.00  0.00     0.010 A 
ATOM     12  C   UNL A   1      35.174  32.863  31.087  1.00  0.00     0.010 A 
ATOM     13  C   UNL A   1      36.462  33.124  30.591  1.00  0.00    -0.014 A 
BRANCH  13  14
ATOM     14  C   UNL A   1      37.649  32.520  31.246  1.00  0.00     0.031 A 
ATOM     15  C   UNL A   1      38.406  31.404  30.582  1.00  0.00     0.074 A 
ATOM     16  C   UNL A   1      38.028  32.968  32.458  1.00  0.00     0.049 A 
ATOM     17  N   UNL A   1      39.385  30.674  31.054  1.00  0.00    -0.248 NA
ATOM     18  C   UNL A   1      38.010  31.059  29.207  1.00  0.00     0.031 C 
ATOM     19  C   UNL A   1      37.384  34.059  33.194  1.00  0.00     0.029 A 
ATOM     20  N   UNL A   1      39.040  32.559  33.291  1.00  0.00    -0.354 N 
ATOM     21  C   UNL A   1      39.715  29.780  30.045  1.00  0.00     0.074 A 
ATOM     22  C   UNL A   1      38.817  30.040  28.939  1.00  0.00     0.031 C 
ATOM     23  C   UNL A   1      38.022  34.240  34.360  1.00  0.00     0.029 A 
ATOM     24  C   UNL A   1      39.075  33.239  34.484  1.00  0.00     0.049 A 
ATOM     25  H   UNL A   1      39.677  31.847  33.056  1.00  0.00     0.167 HD
ATOM     26  C   UNL A   1      40.686  28.836  30.043  1.00  0.00     0.037 A 
ATOM     27  C   UNL A   1      39.845  33.051  35.572  1.00  0.00     0.037 A 
ATOM     28  C   UNL A   1      41.582  28.587  31.145  1.00  0.00     0.049 A 
ATOM     29  C   UNL A   1      40.866  31.948  35.563  1.00  0.00     0.074 A 
ATOM     30  C   UNL A   1      42.599  27.652  31.234  1.00  0.00     0.029 A 
ATOM     31  N   UNL A   1      41.570  29.280  32.346  1.00  0.00    -0.354 N 
ATOM     32  N   UNL A   1      41.170  31.108  34.603  1.00  0.00    -0.248 NA
ATOM     33  C   UNL A   1      41.650  31.764  36.791  1.00  0.00     0.031 C 
ATOM     34  C   UNL A   1      43.174  27.750  32.505  1.00  0.00     0.029 A 
ATOM     35  C   UNL A   1      42.553  28.782  33.187  1.00  0.00     0.049 A 
ATOM     36  H   UNL A   1      40.956  30.016  32.568  1.00  0.00     0.167 HD
ATOM     37  C   UNL A   1      42.193  30.313  35.102  1.00  0.00     0.074 A 
ATOM     38  C   UNL A   1      42.478  30.791  36.439  1.00  0.00     0.031 C 
ATOM     39  C   UNL A   1      42.832  29.274  34.512  1.00  0.00     0.037 A 
BRANCH  26  40
ATOM     40  C   UNL A   1      40.849  27.988  28.815  1.00  0.00     0.064 A 
ATOM     41  C   UNL A   1      41.672  28.412  27.760  1.00  0.00     0.173 A 
ATOM     42  C   UNL A   1      40.102  26.816  28.634  1.00  0.00     0.173 A 
ATOM     43  F   UNL A   1      42.403  29.531  27.881  1.00  0.00    -0.203 F 
ATOM     44  C   UNL A   1      41.720  27.709  26.560  1.00  0.00     0.198 A 
ATOM     45  C   UNL A   1      40.171  26.101  27.440  1.00  0.00     0.198 A 
ATOM     46  F   UNL A   1      39.309  26.362  29.616  1.00  0.00    -0.203 F 
ATOM     47  F   UNL A   1      42.480  28.158  25.550  1.00  0.00    -0.200 F 
ATOM     48  C   UNL A   1      40.969  26.555  26.400  1.00  0.00     0.200 A 
ATOM     49  F   UNL A   1      39.459  24.975  27.294  1.00  0.00    -0.200 F 
ATOM     50  F   UNL A   1      41.011  25.880  25.242  1.00  0.00    -0.200 F 
ENDBRANCH  26  40
BRANCH  27  51
ATOM     51  C   UNL A   1      39.671  33.915  36.770  1.00  0.00     0.064 A 
ATOM     52  C   UNL A   1      40.286  35.174  36.860  1.00  0.00     0.173 A 
ATOM     53  C   UNL A   1      38.863  33.507  37.838  1.00  0.00     0.173 A 
ATOM     54  F   UNL A   1      41.071  35.613  35.866  1.00  0.00    -0.203 F 
ATOM     55  C   UNL A   1      40.104  35.985  37.978  1.00  0.00     0.198 A 
ATOM     56  C   UNL A   1      38.653  34.335  38.939  1.00  0.00     0.198 A 
ATOM     57  F   UNL A   1      38.235  32.322  37.789  1.00  0.00    -0.203 F 
ATOM     58  F   UNL A   1      40.722  37.171  38.050  1.00  0.00    -0.200 F 
ATOM     59  C   UNL A   1      39.277  35.570  39.011  1.00  0.00     0.200 A 
ATOM     60  F   UNL A   1      37.827  33.943  39.919  1.00  0.00    -0.200 F 
ATOM     61  F   UNL A   1      39.075  36.366  40.070  1.00  0.00    -0.200 F 
ENDBRANCH  27  51
BRANCH  39  62
ATOM     62  C   UNL A   1      43.926  28.608  35.296  1.00  0.00     0.064 A 
ATOM     63  C   UNL A   1      43.626  27.585  36.208  1.00  0.00     0.173 A 
ATOM     64  C   UNL A   1      45.268  28.997  35.164  1.00  0.00     0.173 A 
ATOM     65  F   UNL A   1      42.359  27.181  36.380  1.00  0.00    -0.203 F 
ATOM     66  C   UNL A   1      44.629  26.977  36.959  1.00  0.00     0.198 A 
ATOM     67  C   UNL A   1      46.271  28.362  35.890  1.00  0.00     0.198 A 
ATOM     68  F   UNL A   1      45.610  29.960  34.294  1.00  0.00    -0.203 F 
ATOM     69  F   UNL A   1      44.314  26.019  37.842  1.00  0.00    -0.200 F 
ATOM     70  C   UNL A   1      45.950  27.358  36.791  1.00  0.00     0.200 A 
ATOM     71  F   UNL A   1      47.552  28.710  35.703  1.00  0.00    -0.200 F 
ATOM     72  F   UNL A   1      46.918  26.752  37.493  1.00  0.00    -0.200 F 
ENDBRANCH  39  62
ENDBRANCH  13  14
ENDBRANCH   6   8
ENDBRANCH   3   4
ENDBRANCH   2   3
ENDBRANCH   1   2
BRANCH   1  73
ATOM     73  C   UNL A   1      33.296  30.306  26.928  1.00  0.00     0.002 C 
BRANCH  73  74
ATOM     74  C   UNL A   1      33.562  28.830  27.239  1.00  0.00     0.021 C 
BRANCH  74  75
ATOM     75  C   UNL A   1      33.678  27.921  26.018  1.00  0.00     0.116 C 
BRANCH  75  76
ATOM     76  N   UNL A   1      34.065  28.654  24.825  1.00  0.00    -0.351 N 
ATOM     77  C   UNL A   1      33.416  28.752  23.615  1.00  0.00     0.271 C 
ATOM     78  H   UNL A   1      34.913  29.151  24.891  1.00  0.00     0.163 HD
ATOM     79  O   UNL A   1      33.964  29.324  22.676  1.00  0.00    -0.267 OA
BRANCH  77  80
ATOM     80  C   UNL A   1      32.056  28.190  23.460  1.00  0.00     0.150 A 
ATOM     81  C   UNL A   1      31.891  26.845  23.154  1.00  0.00     0.145 A 
ATOM     82  N   UNL A   1      31.010  29.039  23.624  1.00  0.00    -0.205 NA
ATOM     83  N   UNL A   1      30.671  26.291  22.955  1.00  0.00    -0.257 NA
ATOM     84  C   UNL A   1      29.790  28.480  23.459  1.00  0.00     0.238 A 
ATOM     85  C   UNL A   1      29.626  27.141  23.118  1.00  0.00     0.179 A 
BRANCH  84  86
ATOM     86  O   UNL A   1      28.634  29.239  23.592  1.00  0.00    -0.434 OA
BRANCH  86  87
ATOM     87  C   UNL A   1      28.542  30.364  22.811  1.00  0.00     0.168 A 
ATOM     88  C   UNL A   1      28.039  30.304  21.511  1.00  0.00     0.089 A 
ATOM     89  C   UNL A   1      28.873  31.597  23.374  1.00  0.00     0.166 A 
ATOM     90  C   UNL A   1      27.917  31.481  20.780  1.00  0.00     0.127 A 
ATOM     91  C   UNL A   1      28.740  32.774  22.639  1.00  0.00     0.046 A 
ATOM     92  F   UNL A   1      29.317  31.663  24.637  1.00  0.00    -0.203 F 
ATOM     93  F   UNL A   1      27.446  31.430  19.527  1.00  0.00    -0.207 F 
ATOM     94  C   UNL A   1      28.261  32.713  21.331  1.00  0.00     0.042 A 
ENDBRANCH  86  87
ENDBRANCH  84  86
ENDBRANCH  77  80
ENDBRANCH  75  76
ENDBRANCH  74  75
ENDBRANCH  73  74
ENDBRANCH   1  73
TORSDOF 15
ENDMDL
MODEL 2
REMARK VINA RESULT:     -12.0      1.177      1.887
REMARK SMILES O=C(NCCCCCCNC(=O)c1cncc(Oc2cc(F)ccc2F)n1)c1ccc(-c2c3nc(c(-c4c(F)c(F)c(F)c(F)c4F)c4ccc([nH]4)c(-c4c(F)c(F)c(F)c(F)c4F)c4nc(c(-c5c(F)c(F)c(F)c(F)c5F)c5ccc2[nH]5)C=C4)C=C3)cc1
REMARK SMILES IDX 6 1 5 2 4 3 3 4 1 5 2 6 28 8 29 9 90 10 30 11 89 12 31 13
REMARK SMILES IDX 32 14 33 15 83 16 34 17 88 18 82 19 84 20 35 21 87 22 81 23
REMARK SMILES IDX 80 24 36 26 68 27 48 28 67 29 49 30 52 31 66 32 85 33 50 34
REMARK SMILES IDX 51 35 65 37 86 38 53 39 37 40 38 41 46 42 39 43 40 44 44 45
REMARK SMILES IDX 47 46 41 47 42 48 45 49 43 50 69 51 70 52 78 53 71 54 72 55
REMARK SMILES IDX 76 56 79 57 73 58 74 59 77 60 75 61 54 62 55 63 63 64 56 65
REMARK SMILES IDX 57 66 61 67 64 68 58 69 59 70 62 71 60 72 7 73 8 74 9 75
REMARK SMILES IDX 10 76 11 77 12 79 13 80 14 81 27 82 15 83 17 84 16 85 18 86
REMARK SMILES IDX 19 87 20 88 25 89 21 90 24 91 26 92 22 93 23 94
REMARK H PARENT 3 7 84 25 52 36 10 78
REMARK Flexibility Score: inf
ROOT
ATOM      1  C   UNL A   1      31.582  30.621  26.587  1.00  0.00     0.002 C 
ENDROOT
BRANCH   1   2
ATOM      2  C   UNL A   1      31.447  32.139  26.722  1.00  0.00     0.021 C 
BRANCH   2   3
ATOM      3  C   UNL A   1      32.747  32.874  27.036  1.00  0.00     0.116 C 
BRANCH   3   4
ATOM      4  N   UNL A   1      32.511  34.204  27.573  1.00  0.00    -0.352 N 
ATOM      5  O   UNL A   1      32.629  35.884  29.073  1.00  0.00    -0.269 OA
ATOM      6  C   UNL A   1      33.089  34.823  28.651  1.00  0.00     0.251 C 
ATOM      7  H   UNL A   1      31.839  34.738  27.093  1.00  0.00     0.163 HD
BRANCH   6   8
ATOM      8  C   UNL A   1      34.253  34.214  29.323  1.00  0.00     0.039 A 
ATOM      9  C   UNL A   1      34.090  33.190  30.263  1.00  0.00     0.014 A 
ATOM     10  C   UNL A   1      35.536  34.650  28.979  1.00  0.00     0.014 A 
ATOM     11  C   UNL A   1      35.198  32.679  30.934  1.00  0.00     0.010 A 
ATOM     12  C   UNL A   1      36.651  34.090  29.604  1.00  0.00     0.010 A 
ATOM     13  C   UNL A   1      36.491  33.112  30.600  1.00  0.00    -0.014 A 
BRANCH  13  14
ATOM     14  C   UNL A   1      37.681  32.504  31.245  1.00  0.00     0.031 A 
ATOM     15  C   UNL A   1      38.429  31.386  30.575  1.00  0.00     0.074 A 
ATOM     16  C   UNL A   1      38.069  32.949  32.456  1.00  0.00     0.049 A 
ATOM     17  N   UNL A   1      39.409  30.652  31.040  1.00  0.00    -0.248 NA
ATOM     18  C   UNL A   1      38.023  31.044  29.203  1.00  0.00     0.031 C 
ATOM     19  C   UNL A   1      37.433  34.040  33.197  1.00  0.00     0.029 A 
ATOM     20  N   UNL A   1      39.084  32.535  33.282  1.00  0.00    -0.354 N 
ATOM     21  C   UNL A   1      39.729  29.758  30.027  1.00  0.00     0.074 A 
ATOM     22  C   UNL A   1      38.825  30.022  28.928  1.00  0.00     0.031 C 
ATOM     23  C   UNL A   1      38.079  34.217  34.360  1.00  0.00     0.029 A 
ATOM     24  C   UNL A   1      39.129  33.212  34.475  1.00  0.00     0.049 A 
ATOM     25  H   UNL A   1      39.718  31.821  33.041  1.00  0.00     0.167 HD
ATOM     26  C   UNL A   1      40.697  28.811  30.018  1.00  0.00     0.037 A 
ATOM     27  C   UNL A   1      39.906  33.021  35.558  1.00  0.00     0.037 A 
ATOM     28  C   UNL A   1      41.599  28.557  31.114  1.00  0.00     0.049 A 
ATOM     29  C   UNL A   1      40.923  31.914  35.540  1.00  0.00     0.074 A 
ATOM     30  C   UNL A   1      42.614  27.619  31.195  1.00  0.00     0.029 A 
ATOM     31  N   UNL A   1      41.598  29.249  32.315  1.00  0.00    -0.354 N 
ATOM     32  N   UNL A   1      41.218  31.074  34.578  1.00  0.00    -0.248 NA
ATOM     33  C   UNL A   1      41.714  31.726  36.763  1.00  0.00     0.031 C 
ATOM     34  C   UNL A   1      43.198  27.713  32.462  1.00  0.00     0.029 A 
ATOM     35  C   UNL A   1      42.584  28.746  33.150  1.00  0.00     0.049 A 
ATOM     36  H   UNL A   1      40.987  29.987  32.543  1.00  0.00     0.167 HD
ATOM     37  C   UNL A   1      42.241  30.276  35.070  1.00  0.00     0.074 A 
ATOM     38  C   UNL A   1      42.537  30.751  36.405  1.00  0.00     0.031 C 
ATOM     39  C   UNL A   1      42.874  29.235  34.473  1.00  0.00     0.037 A 
BRANCH  26  40
ATOM     40  C   UNL A   1      40.850  27.964  28.788  1.00  0.00     0.064 A 
ATOM     41  C   UNL A   1      41.673  28.383  27.731  1.00  0.00     0.173 A 
ATOM     42  C   UNL A   1      40.091  26.799  28.606  1.00  0.00     0.173 A 
ATOM     43  F   UNL A   1      42.414  29.495  27.853  1.00  0.00    -0.203 F 
ATOM     44  C   UNL A   1      41.712  27.682  26.529  1.00  0.00     0.198 A 
ATOM     45  C   UNL A   1      40.150  26.086  27.410  1.00  0.00     0.198 A 
ATOM     46  F   UNL A   1      39.297  26.350  29.589  1.00  0.00    -0.203 F 
ATOM     47  F   UNL A   1      42.473  28.126  25.519  1.00  0.00    -0.200 F 
ATOM     48  C   UNL A   1      40.950  26.535  26.369  1.00  0.00     0.200 A 
ATOM     49  F   UNL A   1      39.428  24.966  27.264  1.00  0.00    -0.200 F 
ATOM     50  F   UNL A   1      40.983  25.862  25.210  1.00  0.00    -0.200 F 
ENDBRANCH  26  40
BRANCH  27  51
ATOM     51  C   UNL A   1      39.743  33.884  36.759  1.00  0.00     0.064 A 
ATOM     52  C   UNL A   1      40.374  35.134  36.853  1.00  0.00     0.173 A 
ATOM     53  C   UNL A   1      38.928  33.484  37.825  1.00  0.00     0.173 A 
ATOM     54  F   UNL A   1      41.166  35.565  35.861  1.00  0.00    -0.203 F 
ATOM     55  C   UNL A   1      40.203  35.944  37.973  1.00  0.00     0.198 A 
ATOM     56  C   UNL A   1      38.729  34.311  38.928  1.00  0.00     0.198 A 
ATOM     57  F   UNL A   1      38.285  32.308  37.772  1.00  0.00    -0.203 F 
ATOM     58  F   UNL A   1      40.837  37.122  38.048  1.00  0.00    -0.200 F 
ATOM     59  C   UNL A   1      39.370  35.538  39.004  1.00  0.00     0.200 A 
ATOM     60  F   UNL A   1      37.897  33.927  39.907  1.00  0.00    -0.200 F 
ATOM     61  F   UNL A   1      39.177  36.333  40.065  1.00  0.00    -0.200 F 
ENDBRANCH  27  51
BRANCH  39  62
ATOM     62  C   UNL A   1      43.970  28.564  35.249  1.00  0.00     0.064 A 
ATOM     63  C   UNL A   1      45.298  29.004  35.131  1.00  0.00     0.173 A 
ATOM     64  C   UNL A   1      43.714  27.470  36.089  1.00  0.00     0.173 A 
ATOM     65  F   UNL A   1      45.600  30.040  34.335  1.00  0.00    -0.203 F 
ATOM     66  C   UNL A   1      46.326  28.373  35.826  1.00  0.00     0.198 A 
ATOM     67  C   UNL A   1      44.740  26.865  36.810  1.00  0.00     0.198 A 
ATOM     68  F   UNL A   1      42.460  27.019  36.248  1.00  0.00    -0.203 F 
ATOM     69  F   UNL A   1      47.589  28.797  35.679  1.00  0.00    -0.200 F 
ATOM     70  C   UNL A   1      46.045  27.312  36.672  1.00  0.00     0.200 A 
ATOM     71  F   UNL A   1      44.461  25.861  37.652  1.00  0.00    -0.200 F 
ATOM     72  F   UNL A   1      47.032  26.726  37.363  1.00  0.00    -0.200 F 
ENDBRANCH  39  62
ENDBRANCH  13  14
ENDBRANCH   6   8
ENDBRANCH   3   4
ENDBRANCH   2   3
ENDBRANCH   1   2
BRANCH   1  73
ATOM     73  C   UNL A   1      32.838  30.015  27.218  1.00  0.00     0.002 C 
BRANCH  73  74
ATOM     74  C   UNL A   1      32.766  28.516  27.527  1.00  0.00     0.021 C 
BRANCH  74  75
ATOM     75  C   UNL A   1      31.397  27.875  27.311  1.00  0.00     0.116 C 
BRANCH  75  76
ATOM     76  N   UNL A   1      31.497  26.453  27.032  1.00  0.00    -0.351 N 
ATOM     77  C   UNL A   1      31.639  25.811  25.822  1.00  0.00     0.271 C 
ATOM     78  H   UNL A   1      31.456  25.864  27.820  1.00  0.00     0.163 HD
ATOM     79  O   UNL A   1      31.582  24.585  25.774  1.00  0.00    -0.267 OA
BRANCH  77  80
ATOM     80  C   UNL A   1      31.883  26.599  24.593  1.00  0.00     0.150 A 
ATOM     81  C   UNL A   1      33.180  26.949  24.240  1.00  0.00     0.145 A 
ATOM     82  N   UNL A   1      30.800  26.953  23.856  1.00  0.00    -0.205 NA
ATOM     83  N   UNL A   1      33.455  27.709  23.152  1.00  0.00    -0.257 NA
ATOM     84  C   UNL A   1      31.076  27.684  22.752  1.00  0.00     0.238 A 
ATOM     85  C   UNL A   1      32.371  28.064  22.417  1.00  0.00     0.179 A 
BRANCH  84  86
ATOM     86  O   UNL A   1      30.058  28.118  21.912  1.00  0.00    -0.434 OA
BRANCH  86  87
ATOM     87  C   UNL A   1      29.314  29.187  22.347  1.00  0.00     0.168 A 
ATOM     88  C   UNL A   1      29.699  30.498  22.066  1.00  0.00     0.089 A 
ATOM     89  C   UNL A   1      28.105  28.939  22.998  1.00  0.00     0.166 A 
ATOM     90  C   UNL A   1      28.882  31.545  22.484  1.00  0.00     0.127 A 
ATOM     91  C   UNL A   1      27.287  29.991  23.406  1.00  0.00     0.046 A 
ATOM     92  F   UNL A   1      27.712  27.679  23.232  1.00  0.00    -0.203 F 
ATOM     93  F   UNL A   1      29.251  32.807  22.229  1.00  0.00    -0.207 F 
ATOM     94  C   UNL A   1      27.682  31.304  23.149  1.00  0.00     0.042 A 
ENDBRANCH  86  87
ENDBRANCH  84  86
ENDBRANCH  77  80
ENDBRANCH  75  76
ENDBRANCH  74  75
ENDBRANCH  73  74
ENDBRANCH   1  73
TORSDOF 15
ENDMDL
MODEL 3
REMARK VINA RESULT:     -11.9      6.493     11.576
REMARK SMILES O=C(NCCCCCCNC(=O)c1cncc(Oc2cc(F)ccc2F)n1)c1ccc(-c2c3nc(c(-c4c(F)c(F)c(F)c(F)c4F)c4ccc([nH]4)c(-c4c(F)c(F)c(F)c(F)c4F)c4nc(c(-c5c(F)c(F)c(F)c(F)c5F)c5ccc2[nH]5)C=C4)C=C3)cc1
REMARK SMILES IDX 6 1 5 2 4 3 3 4 1 5 2 6 28 8 29 9 90 10 30 11 89 12 31 13
REMARK SMILES IDX 32 14 33 15 83 16 34 17 88 18 82 19 84 20 35 21 87 22 81 23
REMARK SMILES IDX 80 24 36 26 68 27 48 28 67 29 49 30 52 31 66 32 85 33 50 34
REMARK SMILES IDX 51 35 65 37 86 38 53 39 37 40 38 41 46 42 39 43 40 44 44 45
REMARK SMILES IDX 47 46 41 47 42 48 45 49 43 50 69 51 70 52 78 53 71 54 72 55
REMARK SMILES IDX 76 56 79 57 73 58 74 59 77 60 75 61 54 62 55 63 63 64 56 65
REMARK SMILES IDX 57 66 61 67 64 68 58 69 59 70 62 71 60 72 7 73 8 74 9 75
REMARK SMILES IDX 10 76 11 77 12 79 13 80 14 81 27 82 15 83 17 84 16 85 18 86
REMARK SMILES IDX 19 87 20 88 25 89 21 90 24 91 26 92 22 93 23 94
REMARK H PARENT 3 7 84 25 52 36 10 78
REMARK Flexibility Score: inf
ROOT
ATOM      1  C   UNL A   1      36.944  20.614  24.706  1.00  0.00     0.002 C 
ENDROOT
BRANCH   1   2
ATOM      2  C   UNL A   1      38.031  19.579  25.002  1.00  0.00     0.021 C 
BRANCH   2   3
ATOM      3  C   UNL A   1      39.197  20.095  25.840  1.00  0.00     0.116 C 
BRANCH   3   4
ATOM      4  N   UNL A   1      40.309  19.159  25.869  1.00  0.00    -0.352 N 
ATOM      5  O   UNL A   1      42.467  18.504  25.854  1.00  0.00    -0.269 OA
ATOM      6  C   UNL A   1      41.646  19.401  26.047  1.00  0.00     0.251 C 
ATOM      7  H   UNL A   1      40.067  18.214  25.743  1.00  0.00     0.163 HD
BRANCH   6   8
ATOM      8  C   UNL A   1      42.113  20.742  26.453  1.00  0.00     0.039 A 
ATOM      9  C   UNL A   1      42.423  21.717  25.499  1.00  0.00     0.014 A 
ATOM     10  C   UNL A   1      42.207  21.041  27.814  1.00  0.00     0.014 A 
ATOM     11  C   UNL A   1      42.927  22.950  25.903  1.00  0.00     0.010 A 
ATOM     12  C   UNL A   1      42.648  22.301  28.221  1.00  0.00     0.010 A 
ATOM     13  C   UNL A   1      43.029  23.260  27.269  1.00  0.00    -0.014 A 
BRANCH  13  14
ATOM     14  C   UNL A   1      43.476  24.607  27.705  1.00  0.00     0.031 A 
ATOM     15  C   UNL A   1      42.475  25.665  28.074  1.00  0.00     0.074 A 
ATOM     16  C   UNL A   1      44.795  24.879  27.741  1.00  0.00     0.049 A 
ATOM     17  N   UNL A   1      42.674  26.929  28.356  1.00  0.00    -0.248 NA
ATOM     18  C   UNL A   1      41.064  25.253  28.132  1.00  0.00     0.031 C 
ATOM     19  C   UNL A   1      45.862  23.928  27.424  1.00  0.00     0.029 A 
ATOM     20  N   UNL A   1      45.465  26.036  28.053  1.00  0.00    -0.354 N 
ATOM     21  C   UNL A   1      41.419  27.464  28.613  1.00  0.00     0.074 A 
ATOM     22  C   UNL A   1      40.458  26.396  28.432  1.00  0.00     0.031 C 
ATOM     23  C   UNL A   1      47.050  24.535  27.568  1.00  0.00     0.029 A 
ATOM     24  C   UNL A   1      46.827  25.931  27.923  1.00  0.00     0.049 A 
ATOM     25  H   UNL A   1      45.011  26.861  28.341  1.00  0.00     0.167 HD
ATOM     26  C   UNL A   1      41.104  28.730  28.976  1.00  0.00     0.037 A 
ATOM     27  C   UNL A   1      47.789  26.866  28.041  1.00  0.00     0.037 A 
ATOM     28  C   UNL A   1      42.066  29.787  29.162  1.00  0.00     0.049 A 
ATOM     29  C   UNL A   1      47.398  28.278  28.376  1.00  0.00     0.074 A 
ATOM     30  C   UNL A   1      41.841  31.102  29.531  1.00  0.00     0.029 A 
ATOM     31  N   UNL A   1      43.436  29.647  28.998  1.00  0.00    -0.354 N 
ATOM     32  N   UNL A   1      46.209  28.774  28.617  1.00  0.00    -0.248 NA
ATOM     33  C   UNL A   1      48.484  29.264  28.451  1.00  0.00     0.031 C 
ATOM     34  C   UNL A   1      43.069  31.769  29.548  1.00  0.00     0.029 A 
ATOM     35  C   UNL A   1      44.066  30.858  29.243  1.00  0.00     0.049 A 
ATOM     36  H   UNL A   1      43.893  28.814  28.744  1.00  0.00     0.167 HD
ATOM     37  C   UNL A   1      46.406  30.119  28.895  1.00  0.00     0.074 A 
ATOM     38  C   UNL A   1      47.833  30.356  28.821  1.00  0.00     0.031 C 
ATOM     39  C   UNL A   1      45.488  31.076  29.176  1.00  0.00     0.037 A 
BRANCH  26  40
ATOM     40  C   UNL A   1      39.659  29.064  29.205  1.00  0.00     0.064 A 
ATOM     41  C   UNL A   1      39.093  28.948  30.484  1.00  0.00     0.173 A 
ATOM     42  C   UNL A   1      38.806  29.384  28.137  1.00  0.00     0.173 A 
ATOM     43  F   UNL A   1      39.865  28.637  31.538  1.00  0.00    -0.203 F 
ATOM     44  C   UNL A   1      37.726  29.115  30.683  1.00  0.00     0.198 A 
ATOM     45  C   UNL A   1      37.442  29.574  28.344  1.00  0.00     0.198 A 
ATOM     46  F   UNL A   1      39.299  29.517  26.897  1.00  0.00    -0.203 F 
ATOM     47  F   UNL A   1      37.202  28.956  31.907  1.00  0.00    -0.200 F 
ATOM     48  C   UNL A   1      36.901  29.426  29.613  1.00  0.00     0.200 A 
ATOM     49  F   UNL A   1      36.649  29.894  27.312  1.00  0.00    -0.200 F 
ATOM     50  F   UNL A   1      35.583  29.582  29.803  1.00  0.00    -0.200 F 
ENDBRANCH  26  40
BRANCH  27  51
ATOM     51  C   UNL A   1      49.216  26.504  27.823  1.00  0.00     0.064 A 
ATOM     52  C   UNL A   1      49.751  26.384  26.531  1.00  0.00     0.173 A 
ATOM     53  C   UNL A   1      50.078  26.298  28.907  1.00  0.00     0.173 A 
ATOM     54  F   UNL A   1      48.969  26.569  25.457  1.00  0.00    -0.203 F 
ATOM     55  C   UNL A   1      51.092  26.062  26.335  1.00  0.00     0.198 A 
ATOM     56  C   UNL A   1      51.427  26.012  28.709  1.00  0.00     0.198 A 
ATOM     57  F   UNL A   1      49.619  26.425  30.161  1.00  0.00    -0.203 F 
ATOM     58  F   UNL A   1      51.571  25.928  25.091  1.00  0.00    -0.200 F 
ATOM     59  C   UNL A   1      51.932  25.889  27.424  1.00  0.00     0.200 A 
ATOM     60  F   UNL A   1      52.241  25.879  29.766  1.00  0.00    -0.200 F 
ATOM     61  F   UNL A   1      53.230  25.614  27.235  1.00  0.00    -0.200 F 
ENDBRANCH  27  51
BRANCH  39  62
ATOM     62  C   UNL A   1      46.003  32.459  29.458  1.00  0.00     0.064 A 
ATOM     63  C   UNL A   1      46.162  33.385  28.416  1.00  0.00     0.173 A 
ATOM     64  C   UNL A   1      46.363  32.859  30.754  1.00  0.00     0.173 A 
ATOM     65  F   UNL A   1      45.842  33.051  27.158  1.00  0.00    -0.203 F 
ATOM     66  C   UNL A   1      46.663  34.661  28.662  1.00  0.00     0.198 A 
ATOM     67  C   UNL A   1      46.830  34.147  31.000  1.00  0.00     0.198 A 
ATOM     68  F   UNL A   1      46.217  32.016  31.787  1.00  0.00    -0.203 F 
ATOM     69  F   UNL A   1      46.829  35.520  27.647  1.00  0.00    -0.200 F 
ATOM     70  C   UNL A   1      46.986  35.044  29.955  1.00  0.00     0.200 A 
ATOM     71  F   UNL A   1      47.110  34.526  32.255  1.00  0.00    -0.200 F 
ATOM     72  F   UNL A   1      47.439  36.282  30.194  1.00  0.00    -0.200 F 
ENDBRANCH  39  62
ENDBRANCH  13  14
ENDBRANCH   6   8
ENDBRANCH   3   4
ENDBRANCH   2   3
ENDBRANCH   1   2
BRANCH   1  73
ATOM     73  C   UNL A   1      37.241  22.036  25.191  1.00  0.00     0.002 C 
BRANCH  73  74
ATOM     74  C   UNL A   1      37.067  23.142  24.144  1.00  0.00     0.021 C 
BRANCH  74  75
ATOM     75  C   UNL A   1      35.860  22.979  23.223  1.00  0.00     0.116 C 
BRANCH  75  76
ATOM     76  N   UNL A   1      34.866  24.016  23.435  1.00  0.00    -0.351 N 
ATOM     77  C   UNL A   1      33.754  24.003  24.247  1.00  0.00     0.271 C 
ATOM     78  H   UNL A   1      35.006  24.846  22.925  1.00  0.00     0.163 HD
ATOM     79  O   UNL A   1      32.957  24.937  24.201  1.00  0.00    -0.267 OA
BRANCH  77  80
ATOM     80  C   UNL A   1      33.539  22.879  25.186  1.00  0.00     0.150 A 
ATOM     81  C   UNL A   1      34.091  22.924  26.460  1.00  0.00     0.145 A 
ATOM     82  N   UNL A   1      32.798  21.832  24.743  1.00  0.00    -0.205 NA
ATOM     83  N   UNL A   1      33.965  21.903  27.341  1.00  0.00    -0.257 NA
ATOM     84  C   UNL A   1      32.644  20.826  25.634  1.00  0.00     0.238 A 
ATOM     85  C   UNL A   1      33.226  20.855  26.897  1.00  0.00     0.179 A 
BRANCH  84  86
ATOM     86  O   UNL A   1      31.914  19.690  25.306  1.00  0.00    -0.434 OA
BRANCH  86  87
ATOM     87  C   UNL A   1      32.610  18.653  24.736  1.00  0.00     0.168 A 
ATOM     88  C   UNL A   1      33.208  17.666  25.519  1.00  0.00     0.089 A 
ATOM     89  C   UNL A   1      32.629  18.548  23.344  1.00  0.00     0.166 A 
ATOM     90  C   UNL A   1      33.856  16.607  24.890  1.00  0.00     0.127 A 
ATOM     91  C   UNL A   1      33.273  17.480  22.721  1.00  0.00     0.046 A 
ATOM     92  F   UNL A   1      32.019  19.472  22.590  1.00  0.00    -0.203 F 
ATOM     93  F   UNL A   1      34.443  15.662  25.635  1.00  0.00    -0.207 F 
ATOM     94  C   UNL A   1      33.894  16.505  23.501  1.00  0.00     0.042 A 
ENDBRANCH  86  87
ENDBRANCH  84  86
ENDBRANCH  77  80
ENDBRANCH  75  76
ENDBRANCH  74  75
ENDBRANCH  73  74
ENDBRANCH   1  73
TORSDOF 15
ENDMDL
