MODEL 1
REMARK VINA RESULT:     -12.8      0.000      0.000
REMARK SMILES O=C(NCCCCCCNC(=O)C1(NC(=O)c2ccc3[nH]nnc3c2)CCCC1)c1ccc(-c2c3nc(c(-c4c(F)c(F)c(F)c(F)c4F)c4ccc([nH]4)c(-c4c(F)c(F)c(F)c(F)c4F)c4nc(c(-c5c(F)c(F)c(F)c(F)c5F)c5ccc2[nH]5)C=C4)C=C3)cc1
REMARK SMILES IDX 6 1 5 2 4 3 3 4 1 5 2 6 30 8 31 9 92 10 32 11 91 12 33 13
REMARK SMILES IDX 34 14 35 15 85 16 36 17 90 18 84 19 86 20 37 21 89 22 83 23
REMARK SMILES IDX 82 24 38 26 70 27 50 28 69 29 51 30 54 31 68 32 87 33 52 34
REMARK SMILES IDX 53 35 67 37 88 38 55 39 39 40 40 41 48 42 41 43 42 44 46 45
REMARK SMILES IDX 49 46 43 47 44 48 47 49 45 50 71 51 72 52 80 53 73 54 74 55
REMARK SMILES IDX 78 56 81 57 75 58 76 59 79 60 77 61 56 62 57 63 65 64 58 65
REMARK SMILES IDX 59 66 63 67 66 68 60 69 61 70 64 71 62 72 7 73 8 74 9 75
REMARK SMILES IDX 10 76 11 77 12 79 13 80 26 81 29 82 27 83 28 84 14 85 15 86
REMARK SMILES IDX 16 88 17 89 18 90 25 91 19 92 24 93 20 94 23 95 21 96 22 97
REMARK H PARENT 3 7 86 25 54 36 10 78 14 87 21 98
REMARK Flexibility Score: inf
ROOT
ATOM      1  C   UNL A   1      31.328  27.355  26.247  1.00  0.00     0.002 C 
ENDROOT
BRANCH   1   2
ATOM      2  C   UNL A   1      31.808  28.548  27.063  1.00  0.00     0.021 C 
BRANCH   2   3
ATOM      3  C   UNL A   1      32.770  29.472  26.337  1.00  0.00     0.116 C 
BRANCH   3   4
ATOM      4  N   UNL A   1      32.509  30.884  26.570  1.00  0.00    -0.352 N 
ATOM      5  O   UNL A   1      32.878  32.941  27.443  1.00  0.00    -0.269 OA
ATOM      6  C   UNL A   1      33.275  31.796  27.257  1.00  0.00     0.251 C 
ATOM      7  H   UNL A   1      31.672  31.233  26.186  1.00  0.00     0.163 HD
BRANCH   6   8
ATOM      8  C   UNL A   1      34.575  31.364  27.811  1.00  0.00     0.039 A 
ATOM      9  C   UNL A   1      34.768  30.039  28.201  1.00  0.00     0.014 A 
ATOM     10  C   UNL A   1      35.585  32.311  28.001  1.00  0.00     0.014 A 
ATOM     11  C   UNL A   1      35.888  29.703  28.946  1.00  0.00     0.010 A 
ATOM     12  C   UNL A   1      36.763  31.943  28.657  1.00  0.00     0.010 A 
ATOM     13  C   UNL A   1      36.904  30.646  29.176  1.00  0.00    -0.014 A 
BRANCH  13  14
ATOM     14  C   UNL A   1      38.113  30.228  29.931  1.00  0.00     0.031 A 
ATOM     15  C   UNL A   1      38.322  30.634  31.364  1.00  0.00     0.074 A 
ATOM     16  C   UNL A   1      39.002  29.422  29.318  1.00  0.00     0.049 A 
ATOM     17  N   UNL A   1      39.302  30.317  32.174  1.00  0.00    -0.248 NA
ATOM     18  C   UNL A   1      37.310  31.516  31.966  1.00  0.00     0.031 C 
ATOM     19  C   UNL A   1      38.908  28.975  27.926  1.00  0.00     0.029 A 
ATOM     20  N   UNL A   1      40.133  28.808  29.788  1.00  0.00    -0.354 N 
ATOM     21  C   UNL A   1      39.046  30.989  33.363  1.00  0.00     0.074 A 
ATOM     22  C   UNL A   1      37.824  31.740  33.168  1.00  0.00     0.031 C 
ATOM     23  C   UNL A   1      39.892  28.101  27.677  1.00  0.00     0.029 A 
ATOM     24  C   UNL A   1      40.727  27.981  28.866  1.00  0.00     0.049 A 
ATOM     25  H   UNL A   1      40.485  28.945  30.697  1.00  0.00     0.167 HD
ATOM     26  C   UNL A   1      39.766  30.974  34.511  1.00  0.00     0.037 A 
ATOM     27  C   UNL A   1      41.828  27.214  28.964  1.00  0.00     0.037 A 
ATOM     28  C   UNL A   1      40.961  30.192  34.710  1.00  0.00     0.049 A 
ATOM     29  C   UNL A   1      42.592  27.203  30.254  1.00  0.00     0.074 A 
ATOM     30  C   UNL A   1      41.739  30.078  35.849  1.00  0.00     0.029 A 
ATOM     31  N   UNL A   1      41.546  29.385  33.746  1.00  0.00    -0.354 N 
ATOM     32  N   UNL A   1      42.328  27.828  31.375  1.00  0.00    -0.248 NA
ATOM     33  C   UNL A   1      43.812  26.386  30.290  1.00  0.00     0.031 C 
ATOM     34  C   UNL A   1      42.816  29.233  35.562  1.00  0.00     0.029 A 
ATOM     35  C   UNL A   1      42.685  28.783  34.258  1.00  0.00     0.049 A 
ATOM     36  H   UNL A   1      41.204  29.259  32.831  1.00  0.00     0.167 HD
ATOM     37  C   UNL A   1      43.338  27.472  32.255  1.00  0.00     0.074 A 
ATOM     38  C   UNL A   1      44.207  26.555  31.543  1.00  0.00     0.031 C 
ATOM     39  C   UNL A   1      43.533  27.871  33.535  1.00  0.00     0.037 A 
BRANCH  26  40
ATOM     40  C   UNL A   1      39.300  31.848  35.640  1.00  0.00     0.064 A 
ATOM     41  C   UNL A   1      39.702  33.186  35.758  1.00  0.00     0.173 A 
ATOM     42  C   UNL A   1      38.397  31.349  36.593  1.00  0.00     0.173 A 
ATOM     43  F   UNL A   1      40.571  33.710  34.880  1.00  0.00    -0.203 F 
ATOM     44  C   UNL A   1      39.234  33.986  36.799  1.00  0.00     0.198 A 
ATOM     45  C   UNL A   1      37.911  32.159  37.617  1.00  0.00     0.198 A 
ATOM     46  F   UNL A   1      37.974  30.078  36.522  1.00  0.00    -0.203 F 
ATOM     47  F   UNL A   1      39.661  35.252  36.913  1.00  0.00    -0.200 F 
ATOM     48  C   UNL A   1      38.335  33.474  37.722  1.00  0.00     0.200 A 
ATOM     49  F   UNL A   1      37.032  31.665  38.500  1.00  0.00    -0.200 F 
ATOM     50  F   UNL A   1      37.879  34.248  38.717  1.00  0.00    -0.200 F 
ENDBRANCH  26  40
BRANCH  27  51
ATOM     51  C   UNL A   1      42.256  26.391  27.805  1.00  0.00     0.064 A 
ATOM     52  C   UNL A   1      43.246  26.848  26.926  1.00  0.00     0.173 A 
ATOM     53  C   UNL A   1      41.705  25.123  27.569  1.00  0.00     0.173 A 
ATOM     54  F   UNL A   1      43.791  28.061  27.101  1.00  0.00    -0.203 F 
ATOM     55  C   UNL A   1      43.662  26.071  25.846  1.00  0.00     0.198 A 
ATOM     56  C   UNL A   1      42.144  24.335  26.508  1.00  0.00     0.198 A 
ATOM     57  F   UNL A   1      40.760  24.639  28.387  1.00  0.00    -0.203 F 
ATOM     58  F   UNL A   1      44.587  26.544  25.000  1.00  0.00    -0.200 F 
ATOM     59  C   UNL A   1      43.117  24.812  25.644  1.00  0.00     0.200 A 
ATOM     60  F   UNL A   1      41.628  23.112  26.328  1.00  0.00    -0.200 F 
ATOM     61  F   UNL A   1      43.527  24.060  24.613  1.00  0.00    -0.200 F 
ENDBRANCH  27  51
BRANCH  39  62
ATOM     62  C   UNL A   1      44.716  27.292  34.251  1.00  0.00     0.064 A 
ATOM     63  C   UNL A   1      45.962  27.936  34.249  1.00  0.00     0.173 A 
ATOM     64  C   UNL A   1      44.598  26.085  34.954  1.00  0.00     0.173 A 
ATOM     65  F   UNL A   1      46.128  29.084  33.575  1.00  0.00    -0.203 F 
ATOM     66  C   UNL A   1      47.056  27.375  34.902  1.00  0.00     0.198 A 
ATOM     67  C   UNL A   1      45.688  25.541  35.628  1.00  0.00     0.198 A 
ATOM     68  F   UNL A   1      43.426  25.433  34.988  1.00  0.00    -0.203 F 
ATOM     69  F   UNL A   1      48.251  27.979  34.842  1.00  0.00    -0.200 F 
ATOM     70  C   UNL A   1      46.917  26.181  35.594  1.00  0.00     0.200 A 
ATOM     71  F   UNL A   1      45.550  24.391  36.303  1.00  0.00    -0.200 F 
ATOM     72  F   UNL A   1      47.972  25.641  36.219  1.00  0.00    -0.200 F 
ENDBRANCH  39  62
ENDBRANCH  13  14
ENDBRANCH   6   8
ENDBRANCH   3   4
ENDBRANCH   2   3
ENDBRANCH   1   2
BRANCH   1  73
ATOM     73  C   UNL A   1      32.055  26.032  26.490  1.00  0.00     0.002 C 
BRANCH  73  74
ATOM     74  C   UNL A   1      32.592  25.334  25.235  1.00  0.00     0.021 C 
BRANCH  74  75
ATOM     75  C   UNL A   1      34.113  25.349  25.089  1.00  0.00     0.116 C 
BRANCH  75  76
ATOM     76  N   UNL A   1      34.547  24.573  23.944  1.00  0.00    -0.354 N 
ATOM     77  C   UNL A   1      35.397  23.509  23.879  1.00  0.00     0.245 C 
ATOM     78  H   UNL A   1      34.167  24.857  23.081  1.00  0.00     0.163 HD
ATOM     79  O   UNL A   1      35.671  23.085  22.751  1.00  0.00    -0.272 OA
BRANCH  77  80
ATOM     80  C   UNL A   1      36.083  22.942  25.157  1.00  0.00     0.119 C 
ATOM     81  C   UNL A   1      37.061  21.788  24.846  1.00  0.00     0.038 C 
ATOM     82  C   UNL A   1      37.040  24.049  25.693  1.00  0.00     0.038 C 
ATOM     83  C   UNL A   1      38.141  21.896  25.912  1.00  0.00     0.003 C 
ATOM     84  C   UNL A   1      38.367  23.386  26.054  1.00  0.00     0.003 C 
BRANCH  80  85
ATOM     85  N   UNL A   1      35.157  22.536  26.243  1.00  0.00    -0.338 N 
ATOM     86  C   UNL A   1      34.318  21.452  26.374  1.00  0.00     0.252 C 
ATOM     87  H   UNL A   1      35.138  23.154  27.009  1.00  0.00     0.164 HD
ATOM     88  O   UNL A   1      33.873  21.168  27.483  1.00  0.00    -0.269 OA
BRANCH  86  89
ATOM     89  C   UNL A   1      33.785  20.751  25.188  1.00  0.00     0.042 A 
ATOM     90  C   UNL A   1      32.792  21.294  24.367  1.00  0.00     0.016 A 
ATOM     91  C   UNL A   1      34.283  19.458  24.960  1.00  0.00     0.046 A 
ATOM     92  C   UNL A   1      32.153  20.516  23.392  1.00  0.00     0.031 A 
ATOM     93  C   UNL A   1      33.642  18.668  23.997  1.00  0.00     0.113 A 
ATOM     94  C   UNL A   1      32.586  19.196  23.271  1.00  0.00     0.086 A 
ATOM     95  N   UNL A   1      33.834  17.360  23.640  1.00  0.00    -0.130 NA
ATOM     96  N   UNL A   1      32.161  18.132  22.526  1.00  0.00    -0.258 N 
ATOM     97  N   UNL A   1      32.903  17.035  22.752  1.00  0.00    -0.069 NA
ATOM     98  H   UNL A   1      31.404  18.165  21.899  1.00  0.00     0.192 HD
ENDBRANCH  86  89
ENDBRANCH  80  85
ENDBRANCH  77  80
ENDBRANCH  75  76
ENDBRANCH  74  75
ENDBRANCH  73  74
ENDBRANCH   1  73
TORSDOF 15
ENDMDL
MODEL 2
REMARK VINA RESULT:     -12.8      1.924      3.124
REMARK SMILES O=C(NCCCCCCNC(=O)C1(NC(=O)c2ccc3[nH]nnc3c2)CCCC1)c1ccc(-c2c3nc(c(-c4c(F)c(F)c(F)c(F)c4F)c4ccc([nH]4)c(-c4c(F)c(F)c(F)c(F)c4F)c4nc(c(-c5c(F)c(F)c(F)c(F)c5F)c5ccc2[nH]5)C=C4)C=C3)cc1
REMARK SMILES IDX 6 1 5 2 4 3 3 4 1 5 2 6 30 8 31 9 92 10 32 11 91 12 33 13
REMARK SMILES IDX 34 14 35 15 85 16 36 17 90 18 84 19 86 20 37 21 89 22 83 23
REMARK SMILES IDX 82 24 38 26 70 27 50 28 69 29 51 30 54 31 68 32 87 33 52 34
REMARK SMILES IDX 53 35 67 37 88 38 55 39 39 40 40 41 48 42 41 43 42 44 46 45
REMARK SMILES IDX 49 46 43 47 44 48 47 49 45 50 71 51 72 52 80 53 73 54 74 55
REMARK SMILES IDX 78 56 81 57 75 58 76 59 79 60 77 61 56 62 57 63 65 64 58 65
REMARK SMILES IDX 59 66 63 67 66 68 60 69 61 70 64 71 62 72 7 73 8 74 9 75
REMARK SMILES IDX 10 76 11 77 12 79 13 80 26 81 29 82 27 83 28 84 14 85 15 86
REMARK SMILES IDX 16 88 17 89 18 90 25 91 19 92 24 93 20 94 23 95 21 96 22 97
REMARK H PARENT 3 7 86 25 54 36 10 78 14 87 21 98
REMARK Flexibility Score: inf
ROOT
ATOM      1  C   UNL A   1      31.850  30.511  26.161  1.00  0.00     0.002 C 
ENDROOT
BRANCH   1   2
ATOM      2  C   UNL A   1      31.492  31.875  26.735  1.00  0.00     0.021 C 
BRANCH   2   3
ATOM      3  C   UNL A   1      32.667  32.665  27.286  1.00  0.00     0.116 C 
BRANCH   3   4
ATOM      4  N   UNL A   1      32.340  34.044  27.613  1.00  0.00    -0.352 N 
ATOM      5  O   UNL A   1      32.494  35.994  28.755  1.00  0.00    -0.269 OA
ATOM      6  C   UNL A   1      32.941  34.874  28.528  1.00  0.00     0.251 C 
ATOM      7  H   UNL A   1      31.587  34.434  27.112  1.00  0.00     0.163 HD
BRANCH   6   8
ATOM      8  C   UNL A   1      34.117  34.381  29.275  1.00  0.00     0.039 A 
ATOM      9  C   UNL A   1      35.406  34.645  28.813  1.00  0.00     0.014 A 
ATOM     10  C   UNL A   1      33.922  33.592  30.413  1.00  0.00     0.014 A 
ATOM     11  C   UNL A   1      36.482  33.972  29.370  1.00  0.00     0.010 A 
ATOM     12  C   UNL A   1      35.022  33.002  31.040  1.00  0.00     0.010 A 
ATOM     13  C   UNL A   1      36.307  33.150  30.496  1.00  0.00    -0.014 A 
BRANCH  13  14
ATOM     14  C   UNL A   1      37.496  32.493  31.097  1.00  0.00     0.031 A 
ATOM     15  C   UNL A   1      37.954  32.823  32.490  1.00  0.00     0.074 A 
ATOM     16  C   UNL A   1      38.129  31.543  30.382  1.00  0.00     0.049 A 
ATOM     17  N   UNL A   1      38.947  32.308  33.174  1.00  0.00    -0.248 NA
ATOM     18  C   UNL A   1      37.215  33.872  33.209  1.00  0.00     0.031 C 
ATOM     19  C   UNL A   1      37.781  31.148  29.015  1.00  0.00     0.029 A 
ATOM     20  N   UNL A   1      39.170  30.713  30.711  1.00  0.00    -0.354 N 
ATOM     21  C   UNL A   1      38.974  32.994  34.382  1.00  0.00     0.074 A 
ATOM     22  C   UNL A   1      37.906  33.970  34.337  1.00  0.00     0.031 C 
ATOM     23  C   UNL A   1      38.539  30.106  28.650  1.00  0.00     0.029 A 
ATOM     24  C   UNL A   1      39.475  29.805  29.726  1.00  0.00     0.049 A 
ATOM     25  H   UNL A   1      39.651  30.762  31.567  1.00  0.00     0.167 HD
ATOM     26  C   UNL A   1      39.814  32.819  35.431  1.00  0.00     0.037 A 
ATOM     27  C   UNL A   1      40.410  28.839  29.689  1.00  0.00     0.037 A 
ATOM     28  C   UNL A   1      40.850  31.818  35.484  1.00  0.00     0.049 A 
ATOM     29  C   UNL A   1      41.311  28.656  30.875  1.00  0.00     0.074 A 
ATOM     30  C   UNL A   1      41.726  31.534  36.518  1.00  0.00     0.029 A 
ATOM     31  N   UNL A   1      41.145  30.932  34.458  1.00  0.00    -0.354 N 
ATOM     32  N   UNL A   1      41.312  29.299  32.017  1.00  0.00    -0.248 NA
ATOM     33  C   UNL A   1      42.344  27.619  30.763  1.00  0.00     0.031 C 
ATOM     34  C   UNL A   1      42.575  30.503  36.103  1.00  0.00     0.029 A 
ATOM     35  C   UNL A   1      42.200  30.112  34.828  1.00  0.00     0.049 A 
ATOM     36  H   UNL A   1      40.674  30.892  33.594  1.00  0.00     0.167 HD
ATOM     37  C   UNL A   1      42.335  28.738  32.766  1.00  0.00     0.074 A 
ATOM     38  C   UNL A   1      42.916  27.685  31.956  1.00  0.00     0.031 C 
ATOM     39  C   UNL A   1      42.760  29.068  34.010  1.00  0.00     0.037 A 
BRANCH  26  40
ATOM     40  C   UNL A   1      39.668  33.744  36.605  1.00  0.00     0.064 A 
ATOM     41  C   UNL A   1      40.278  35.006  36.636  1.00  0.00     0.173 A 
ATOM     42  C   UNL A   1      38.864  33.379  37.697  1.00  0.00     0.173 A 
ATOM     43  F   UNL A   1      41.065  35.401  35.623  1.00  0.00    -0.203 F 
ATOM     44  C   UNL A   1      40.106  35.860  37.724  1.00  0.00     0.198 A 
ATOM     45  C   UNL A   1      38.673  34.245  38.771  1.00  0.00     0.198 A 
ATOM     46  F   UNL A   1      38.251  32.187  37.715  1.00  0.00    -0.203 F 
ATOM     47  F   UNL A   1      40.729  37.047  37.748  1.00  0.00    -0.200 F 
ATOM     48  C   UNL A   1      39.299  35.481  38.786  1.00  0.00     0.200 A 
ATOM     49  F   UNL A   1      37.882  33.882  39.790  1.00  0.00    -0.200 F 
ATOM     50  F   UNL A   1      39.127  36.308  39.828  1.00  0.00    -0.200 F 
ENDBRANCH  26  40
BRANCH  27  51
ATOM     51  C   UNL A   1      40.524  27.971  28.491  1.00  0.00     0.064 A 
ATOM     52  C   UNL A   1      41.299  28.363  27.391  1.00  0.00     0.173 A 
ATOM     53  C   UNL A   1      39.886  26.724  28.430  1.00  0.00     0.173 A 
ATOM     54  F   UNL A   1      41.915  29.554  27.395  1.00  0.00    -0.203 F 
ATOM     55  C   UNL A   1      41.422  27.544  26.271  1.00  0.00     0.198 A 
ATOM     56  C   UNL A   1      40.035  25.893  27.323  1.00  0.00     0.198 A 
ATOM     57  F   UNL A   1      39.141  26.301  29.461  1.00  0.00    -0.203 F 
ATOM     58  F   UNL A   1      42.142  27.956  25.218  1.00  0.00    -0.200 F 
ATOM     59  C   UNL A   1      40.798  26.306  26.242  1.00  0.00     0.200 A 
ATOM     60  F   UNL A   1      39.446  24.689  27.308  1.00  0.00    -0.200 F 
ATOM     61  F   UNL A   1      40.927  25.513  25.169  1.00  0.00    -0.200 F 
ENDBRANCH  27  51
BRANCH  39  62
ATOM     62  C   UNL A   1      43.888  28.258  34.576  1.00  0.00     0.064 A 
ATOM     63  C   UNL A   1      45.227  28.605  34.345  1.00  0.00     0.173 A 
ATOM     64  C   UNL A   1      43.624  27.130  35.364  1.00  0.00     0.173 A 
ATOM     65  F   UNL A   1      45.528  29.666  33.582  1.00  0.00    -0.203 F 
ATOM     66  C   UNL A   1      46.263  27.831  34.862  1.00  0.00     0.198 A 
ATOM     67  C   UNL A   1      44.662  26.374  35.901  1.00  0.00     0.198 A 
ATOM     68  F   UNL A   1      42.359  26.760  35.615  1.00  0.00    -0.203 F 
ATOM     69  F   UNL A   1      47.535  28.148  34.585  1.00  0.00    -0.200 F 
ATOM     70  C   UNL A   1      45.980  26.720  35.642  1.00  0.00     0.200 A 
ATOM     71  F   UNL A   1      44.388  25.305  36.661  1.00  0.00    -0.200 F 
ATOM     72  F   UNL A   1      46.978  25.975  36.134  1.00  0.00    -0.200 F 
ENDBRANCH  39  62
ENDBRANCH  13  14
ENDBRANCH   6   8
ENDBRANCH   3   4
ENDBRANCH   2   3
ENDBRANCH   1   2
BRANCH   1  73
ATOM     73  C   UNL A   1      32.212  29.424  27.173  1.00  0.00     0.002 C 
BRANCH  73  74
ATOM     74  C   UNL A   1      33.657  28.913  27.106  1.00  0.00     0.021 C 
BRANCH  74  75
ATOM     75  C   UNL A   1      33.878  27.723  26.174  1.00  0.00     0.116 C 
BRANCH  75  76
ATOM     76  N   UNL A   1      32.988  26.624  26.493  1.00  0.00    -0.354 N 
ATOM     77  C   UNL A   1      32.426  25.687  25.676  1.00  0.00     0.245 C 
ATOM     78  H   UNL A   1      32.754  26.541  27.446  1.00  0.00     0.163 HD
ATOM     79  O   UNL A   1      31.621  24.908  26.198  1.00  0.00    -0.272 OA
BRANCH  77  80
ATOM     80  C   UNL A   1      32.694  25.685  24.142  1.00  0.00     0.119 C 
ATOM     81  C   UNL A   1      31.596  24.944  23.347  1.00  0.00     0.038 C 
ATOM     82  C   UNL A   1      32.526  27.153  23.646  1.00  0.00     0.038 C 
ATOM     83  C   UNL A   1      31.540  25.659  22.005  1.00  0.00     0.003 C 
ATOM     84  C   UNL A   1      31.699  27.122  22.363  1.00  0.00     0.003 C 
BRANCH  80  85
ATOM     85  N   UNL A   1      34.031  25.187  23.736  1.00  0.00    -0.338 N 
ATOM     86  C   UNL A   1      34.565  23.919  23.704  1.00  0.00     0.252 C 
ATOM     87  H   UNL A   1      34.649  25.891  23.435  1.00  0.00     0.164 HD
ATOM     88  O   UNL A   1      35.585  23.714  23.051  1.00  0.00    -0.269 OA
BRANCH  86  89
ATOM     89  C   UNL A   1      34.059  22.854  24.593  1.00  0.00     0.042 A 
ATOM     90  C   UNL A   1      34.420  22.753  25.940  1.00  0.00     0.016 A 
ATOM     91  C   UNL A   1      33.234  21.888  23.993  1.00  0.00     0.046 A 
ATOM     92  C   UNL A   1      34.104  21.611  26.691  1.00  0.00     0.031 A 
ATOM     93  C   UNL A   1      32.924  20.739  24.730  1.00  0.00     0.113 A 
ATOM     94  C   UNL A   1      33.388  20.614  26.030  1.00  0.00     0.086 A 
ATOM     95  N   UNL A   1      32.244  19.605  24.376  1.00  0.00    -0.130 NA
ATOM     96  N   UNL A   1      32.986  19.355  26.381  1.00  0.00    -0.258 N 
ATOM     97  N   UNL A   1      32.309  18.752  25.391  1.00  0.00    -0.069 NA
ATOM     98  H   UNL A   1      33.170  18.942  27.255  1.00  0.00     0.192 HD
ENDBRANCH  86  89
ENDBRANCH  80  85
ENDBRANCH  77  80
ENDBRANCH  75  76
ENDBRANCH  74  75
ENDBRANCH  73  74
ENDBRANCH   1  73
TORSDOF 15
ENDMDL
MODEL 3
REMARK VINA RESULT:     -12.8      2.426      4.076
REMARK SMILES O=C(NCCCCCCNC(=O)C1(NC(=O)c2ccc3[nH]nnc3c2)CCCC1)c1ccc(-c2c3nc(c(-c4c(F)c(F)c(F)c(F)c4F)c4ccc([nH]4)c(-c4c(F)c(F)c(F)c(F)c4F)c4nc(c(-c5c(F)c(F)c(F)c(F)c5F)c5ccc2[nH]5)C=C4)C=C3)cc1
REMARK SMILES IDX 6 1 5 2 4 3 3 4 1 5 2 6 30 8 31 9 92 10 32 11 91 12 33 13
REMARK SMILES IDX 34 14 35 15 85 16 36 17 90 18 84 19 86 20 37 21 89 22 83 23
REMARK SMILES IDX 82 24 38 26 70 27 50 28 69 29 51 30 54 31 68 32 87 33 52 34
REMARK SMILES IDX 53 35 67 37 88 38 55 39 39 40 40 41 48 42 41 43 42 44 46 45
REMARK SMILES IDX 49 46 43 47 44 48 47 49 45 50 71 51 72 52 80 53 73 54 74 55
REMARK SMILES IDX 78 56 81 57 75 58 76 59 79 60 77 61 56 62 57 63 65 64 58 65
REMARK SMILES IDX 59 66 63 67 66 68 60 69 61 70 64 71 62 72 7 73 8 74 9 75
REMARK SMILES IDX 10 76 11 77 12 79 13 80 26 81 29 82 27 83 28 84 14 85 15 86
REMARK SMILES IDX 16 88 17 89 18 90 25 91 19 92 24 93 20 94 23 95 21 96 22 97
REMARK H PARENT 3 7 86 25 54 36 10 78 14 87 21 98
REMARK Flexibility Score: inf
ROOT
ATOM      1  C   UNL A   1      31.843  30.629  26.181  1.00  0.00     0.002 C 
ENDROOT
BRANCH   1   2
ATOM      2  C   UNL A   1      31.495  31.949  26.856  1.00  0.00     0.021 C 
BRANCH   2   3
ATOM      3  C   UNL A   1      32.689  32.766  27.314  1.00  0.00     0.116 C 
BRANCH   3   4
ATOM      4  N   UNL A   1      32.359  34.143  27.649  1.00  0.00    -0.352 N 
ATOM      5  O   UNL A   1      32.514  36.089  28.797  1.00  0.00    -0.269 OA
ATOM      6  C   UNL A   1      32.963  34.972  28.563  1.00  0.00     0.251 C 
ATOM      7  H   UNL A   1      31.601  34.532  27.155  1.00  0.00     0.163 HD
BRANCH   6   8
ATOM      8  C   UNL A   1      34.146  34.481  29.300  1.00  0.00     0.039 A 
ATOM      9  C   UNL A   1      35.422  34.619  28.754  1.00  0.00     0.014 A 
ATOM     10  C   UNL A   1      33.966  33.818  30.517  1.00  0.00     0.014 A 
ATOM     11  C   UNL A   1      36.486  33.937  29.325  1.00  0.00     0.010 A 
ATOM     12  C   UNL A   1      35.061  33.224  31.149  1.00  0.00     0.010 A 
ATOM     13  C   UNL A   1      36.323  33.239  30.534  1.00  0.00    -0.014 A 
BRANCH  13  14
ATOM     14  C   UNL A   1      37.502  32.570  31.141  1.00  0.00     0.031 A 
ATOM     15  C   UNL A   1      37.948  32.886  32.541  1.00  0.00     0.074 A 
ATOM     16  C   UNL A   1      38.137  31.622  30.424  1.00  0.00     0.049 A 
ATOM     17  N   UNL A   1      38.930  32.359  33.231  1.00  0.00    -0.248 NA
ATOM     18  C   UNL A   1      37.207  33.932  33.262  1.00  0.00     0.031 C 
ATOM     19  C   UNL A   1      37.800  31.241  29.051  1.00  0.00     0.029 A 
ATOM     20  N   UNL A   1      39.169  30.783  30.756  1.00  0.00    -0.354 N 
ATOM     21  C   UNL A   1      38.949  33.034  34.445  1.00  0.00     0.074 A 
ATOM     22  C   UNL A   1      37.888  34.017  34.397  1.00  0.00     0.031 C 
ATOM     23  C   UNL A   1      38.555  30.197  28.684  1.00  0.00     0.029 A 
ATOM     24  C   UNL A   1      39.479  29.882  29.767  1.00  0.00     0.049 A 
ATOM     25  H   UNL A   1      39.642  30.823  31.619  1.00  0.00     0.167 HD
ATOM     26  C   UNL A   1      39.777  32.845  35.501  1.00  0.00     0.037 A 
ATOM     27  C   UNL A   1      40.409  28.911  29.732  1.00  0.00     0.037 A 
ATOM     28  C   UNL A   1      40.807  31.838  35.556  1.00  0.00     0.049 A 
ATOM     29  C   UNL A   1      41.297  28.713  30.925  1.00  0.00     0.074 A 
ATOM     30  C   UNL A   1      41.671  31.540  36.596  1.00  0.00     0.029 A 
ATOM     31  N   UNL A   1      41.107  30.959  34.526  1.00  0.00    -0.354 N 
ATOM     32  N   UNL A   1      41.290  29.346  32.072  1.00  0.00    -0.248 NA
ATOM     33  C   UNL A   1      42.325  27.671  30.814  1.00  0.00     0.031 C 
ATOM     34  C   UNL A   1      42.518  30.508  36.181  1.00  0.00     0.029 A 
ATOM     35  C   UNL A   1      42.154  30.130  34.899  1.00  0.00     0.049 A 
ATOM     36  H   UNL A   1      40.645  30.929  33.657  1.00  0.00     0.167 HD
ATOM     37  C   UNL A   1      42.302  28.772  32.827  1.00  0.00     0.074 A 
ATOM     38  C   UNL A   1      42.885  27.723  32.014  1.00  0.00     0.031 C 
ATOM     39  C   UNL A   1      42.716  29.089  34.078  1.00  0.00     0.037 A 
BRANCH  26  40
ATOM     40  C   UNL A   1      39.625  33.762  36.682  1.00  0.00     0.064 A 
ATOM     41  C   UNL A   1      40.229  35.026  36.722  1.00  0.00     0.173 A 
ATOM     42  C   UNL A   1      38.820  33.385  37.769  1.00  0.00     0.173 A 
ATOM     43  F   UNL A   1      41.016  35.431  35.714  1.00  0.00    -0.203 F 
ATOM     44  C   UNL A   1      40.051  35.871  37.817  1.00  0.00     0.198 A 
ATOM     45  C   UNL A   1      38.623  34.242  38.848  1.00  0.00     0.198 A 
ATOM     46  F   UNL A   1      38.212  32.190  37.777  1.00  0.00    -0.203 F 
ATOM     47  F   UNL A   1      40.669  37.060  37.850  1.00  0.00    -0.200 F 
ATOM     48  C   UNL A   1      39.243  35.481  38.874  1.00  0.00     0.200 A 
ATOM     49  F   UNL A   1      37.831  33.868  39.864  1.00  0.00    -0.200 F 
ATOM     50  F   UNL A   1      39.066  36.299  39.921  1.00  0.00    -0.200 F 
ENDBRANCH  26  40
BRANCH  27  51
ATOM     51  C   UNL A   1      40.530  28.053  28.527  1.00  0.00     0.064 A 
ATOM     52  C   UNL A   1      41.323  28.447  27.441  1.00  0.00     0.173 A 
ATOM     53  C   UNL A   1      39.881  26.812  28.447  1.00  0.00     0.173 A 
ATOM     54  F   UNL A   1      41.950  29.632  27.464  1.00  0.00    -0.203 F 
ATOM     55  C   UNL A   1      41.453  27.636  26.315  1.00  0.00     0.198 A 
ATOM     56  C   UNL A   1      40.037  25.989  27.335  1.00  0.00     0.198 A 
ATOM     57  F   UNL A   1      39.118  26.388  29.465  1.00  0.00    -0.203 F 
ATOM     58  F   UNL A   1      42.190  28.051  25.276  1.00  0.00    -0.200 F 
ATOM     59  C   UNL A   1      40.817  26.404  26.267  1.00  0.00     0.200 A 
ATOM     60  F   UNL A   1      39.435  24.792  27.301  1.00  0.00    -0.200 F 
ATOM     61  F   UNL A   1      40.953  25.620  25.189  1.00  0.00    -0.200 F 
ENDBRANCH  27  51
BRANCH  39  62
ATOM     62  C   UNL A   1      43.833  28.269  34.648  1.00  0.00     0.064 A 
ATOM     63  C   UNL A   1      45.174  28.657  34.509  1.00  0.00     0.173 A 
ATOM     64  C   UNL A   1      43.558  27.086  35.348  1.00  0.00     0.173 A 
ATOM     65  F   UNL A   1      45.487  29.772  33.831  1.00  0.00    -0.203 F 
ATOM     66  C   UNL A   1      46.201  27.873  35.028  1.00  0.00     0.198 A 
ATOM     67  C   UNL A   1      44.586  26.319  35.888  1.00  0.00     0.198 A 
ATOM     68  F   UNL A   1      42.291  26.674  35.510  1.00  0.00    -0.203 F 
ATOM     69  F   UNL A   1      47.478  28.234  34.837  1.00  0.00    -0.200 F 
ATOM     70  C   UNL A   1      45.906  26.708  35.720  1.00  0.00     0.200 A 
ATOM     71  F   UNL A   1      44.300  25.197  36.563  1.00  0.00    -0.200 F 
ATOM     72  F   UNL A   1      46.896  25.953  36.215  1.00  0.00    -0.200 F 
ENDBRANCH  39  62
ENDBRANCH  13  14
ENDBRANCH   6   8
ENDBRANCH   3   4
ENDBRANCH   2   3
ENDBRANCH   1   2
BRANCH   1  73
ATOM     73  C   UNL A   1      33.171  29.990  26.587  1.00  0.00     0.002 C 
BRANCH  73  74
ATOM     74  C   UNL A   1      33.066  28.597  27.220  1.00  0.00     0.021 C 
BRANCH  74  75
ATOM     75  C   UNL A   1      33.306  27.432  26.261  1.00  0.00     0.116 C 
BRANCH  75  76
ATOM     76  N   UNL A   1      32.109  26.633  26.084  1.00  0.00    -0.354 N 
ATOM     77  C   UNL A   1      31.965  25.369  25.592  1.00  0.00     0.245 C 
ATOM     78  H   UNL A   1      31.272  27.070  26.363  1.00  0.00     0.163 HD
ATOM     79  O   UNL A   1      30.809  24.953  25.462  1.00  0.00    -0.272 OA
BRANCH  77  80
ATOM     80  C   UNL A   1      33.194  24.545  25.105  1.00  0.00     0.119 C 
ATOM     81  C   UNL A   1      34.535  25.267  25.363  1.00  0.00     0.038 C 
ATOM     82  C   UNL A   1      33.307  23.299  26.034  1.00  0.00     0.038 C 
ATOM     83  C   UNL A   1      35.539  24.149  25.595  1.00  0.00     0.003 C 
ATOM     84  C   UNL A   1      34.774  23.136  26.422  1.00  0.00     0.003 C 
BRANCH  80  85
ATOM     85  N   UNL A   1      33.130  24.093  23.694  1.00  0.00    -0.338 N 
ATOM     86  C   UNL A   1      33.168  24.788  22.506  1.00  0.00     0.252 C 
ATOM     87  H   UNL A   1      33.045  23.118  23.586  1.00  0.00     0.164 HD
ATOM     88  O   UNL A   1      33.401  24.182  21.463  1.00  0.00    -0.269 OA
BRANCH  86  89
ATOM     89  C   UNL A   1      32.738  26.199  22.433  1.00  0.00     0.042 A 
ATOM     90  C   UNL A   1      33.620  27.272  22.598  1.00  0.00     0.016 A 
ATOM     91  C   UNL A   1      31.362  26.418  22.254  1.00  0.00     0.046 A 
ATOM     92  C   UNL A   1      33.146  28.583  22.747  1.00  0.00     0.031 A 
ATOM     93  C   UNL A   1      30.878  27.721  22.414  1.00  0.00     0.113 A 
ATOM     94  C   UNL A   1      31.763  28.752  22.687  1.00  0.00     0.086 A 
ATOM     95  N   UNL A   1      29.598  28.208  22.404  1.00  0.00    -0.130 NA
ATOM     96  N   UNL A   1      30.939  29.826  22.873  1.00  0.00    -0.258 N 
ATOM     97  N   UNL A   1      29.647  29.499  22.710  1.00  0.00    -0.069 NA
ATOM     98  H   UNL A   1      31.254  30.730  23.099  1.00  0.00     0.192 HD
ENDBRANCH  86  89
ENDBRANCH  80  85
ENDBRANCH  77  80
ENDBRANCH  75  76
ENDBRANCH  74  75
ENDBRANCH  73  74
ENDBRANCH   1  73
TORSDOF 15
ENDMDL
