MODEL 1
REMARK VINA RESULT:     -11.8      0.000      0.000
REMARK SMILES C[C@@H](Oc1cncc(C(=O)NCCCCCCNC(=O)c2ccc(-c3c4nc(c(-c5c(F)c(F)c(F)c(F)c5F)c5ccc([nH]5)c(-c5c(F)c(F)c(F)c(F)c5F)c5nc(c(-c6c(F)c(F)c(F)c(F)c6F)c6ccc3[nH]6)C=C5)C=C4)cc2)n1)C(F)(F)F
REMARK SMILES IDX 14 1 13 2 12 3 11 4 9 5 10 6 8 8 4 9 5 10 84 11 6 12 7 13
REMARK SMILES IDX 3 14 2 15 1 16 85 17 86 18 87 19 88 20 15 21 16 22 17 23
REMARK SMILES IDX 18 24 19 25 20 27 21 28 22 29 83 30 23 31 82 32 24 33 25 34
REMARK SMILES IDX 26 35 76 36 27 37 81 38 75 39 77 40 28 41 80 42 74 43 73 44
REMARK SMILES IDX 29 46 61 47 41 48 60 49 42 50 45 51 59 52 78 53 43 54 44 55
REMARK SMILES IDX 58 57 79 58 46 59 30 60 31 61 39 62 32 63 33 64 37 65 40 66
REMARK SMILES IDX 34 67 35 68 38 69 36 70 62 71 63 72 71 73 64 74 65 75 69 76
REMARK SMILES IDX 72 77 66 78 67 79 70 80 68 81 47 82 48 83 56 84 49 85 50 86
REMARK SMILES IDX 54 87 57 88 51 89 52 90 55 91 53 92
REMARK H PARENT 11 7 18 26 77 45 45 56
REMARK Flexibility Score: inf
ROOT
ATOM      1  C   UNL A   1      32.968  30.105  26.705  1.00  0.00     0.002 C 
ENDROOT
BRANCH   1   2
ATOM      2  C   UNL A   1      32.843  28.674  27.244  1.00  0.00     0.021 C 
BRANCH   2   3
ATOM      3  C   UNL A   1      31.403  28.235  27.509  1.00  0.00     0.116 C 
BRANCH   3   4
ATOM      4  N   UNL A   1      31.176  26.905  26.974  1.00  0.00    -0.351 N 
ATOM      5  C   UNL A   1      31.046  26.442  25.689  1.00  0.00     0.271 C 
ATOM      6  O   UNL A   1      30.743  25.254  25.549  1.00  0.00    -0.267 OA
ATOM      7  H   UNL A   1      31.102  26.204  27.662  1.00  0.00     0.163 HD
BRANCH   5   8
ATOM      8  C   UNL A   1      31.298  27.273  24.475  1.00  0.00     0.150 A 
ATOM      9  C   UNL A   1      30.657  28.801  22.892  1.00  0.00     0.233 A 
ATOM     10  C   UNL A   1      31.983  28.961  22.510  1.00  0.00     0.179 A 
ATOM     11  N   UNL A   1      30.288  27.961  23.878  1.00  0.00    -0.205 NA
ATOM     12  N   UNL A   1      32.989  28.235  23.047  1.00  0.00    -0.257 NA
ATOM     13  C   UNL A   1      32.617  27.397  24.047  1.00  0.00     0.145 A 
BRANCH   9  14
ATOM     14  O   UNL A   1      29.690  29.658  22.438  1.00  0.00    -0.464 OA
BRANCH  14  15
ATOM     15  C   UNL A   1      28.572  29.791  23.339  1.00  0.00     0.277 C 
ATOM     16  C   UNL A   1      27.357  29.068  22.752  1.00  0.00     0.063 C 
BRANCH  15  17
ATOM     17  C   UNL A   1      28.242  31.281  23.500  1.00  0.00     0.425 C 
ATOM     18  F   UNL A   1      28.121  31.882  22.292  1.00  0.00    -0.167 F 
ATOM     19  F   UNL A   1      27.073  31.466  24.153  1.00  0.00    -0.167 F 
ATOM     20  F   UNL A   1      29.208  31.938  24.181  1.00  0.00    -0.167 F 
ENDBRANCH  15  17
ENDBRANCH  14  15
ENDBRANCH   9  14
ENDBRANCH   5   8
ENDBRANCH   3   4
ENDBRANCH   2   3
ENDBRANCH   1   2
BRANCH   1  21
ATOM     21  C   UNL A   1      31.655  30.736  26.227  1.00  0.00     0.002 C 
BRANCH  21  22
ATOM     22  C   UNL A   1      31.464  32.203  26.618  1.00  0.00     0.021 C 
BRANCH  22  23
ATOM     23  C   UNL A   1      32.696  32.855  27.234  1.00  0.00     0.116 C 
BRANCH  23  24
ATOM     24  N   UNL A   1      32.445  34.233  27.627  1.00  0.00    -0.352 N 
ATOM     25  C   UNL A   1      33.002  34.958  28.646  1.00  0.00     0.251 C 
ATOM     26  H   UNL A   1      31.779  34.712  27.082  1.00  0.00     0.163 HD
ATOM     27  O   UNL A   1      32.526  36.046  28.967  1.00  0.00    -0.269 OA
BRANCH  25  28
ATOM     28  C   UNL A   1      34.168  34.423  29.378  1.00  0.00     0.039 A 
ATOM     29  C   UNL A   1      33.963  33.780  30.601  1.00  0.00     0.014 A 
ATOM     30  C   UNL A   1      35.461  34.559  28.863  1.00  0.00     0.014 A 
ATOM     31  C   UNL A   1      35.048  33.223  31.279  1.00  0.00     0.010 A 
ATOM     32  C   UNL A   1      36.529  33.936  29.500  1.00  0.00     0.010 A 
ATOM     33  C   UNL A   1      36.335  33.266  30.717  1.00  0.00    -0.014 A 
BRANCH  33  34
ATOM     34  C   UNL A   1      37.488  32.616  31.391  1.00  0.00     0.031 A 
ATOM     35  C   UNL A   1      38.210  31.478  30.725  1.00  0.00     0.074 A 
ATOM     36  C   UNL A   1      37.848  33.015  32.626  1.00  0.00     0.049 A 
ATOM     37  N   UNL A   1      39.193  30.742  31.178  1.00  0.00    -0.248 NA
ATOM     38  C   UNL A   1      37.748  31.099  29.380  1.00  0.00     0.031 C 
ATOM     39  C   UNL A   1      37.196  34.075  33.395  1.00  0.00     0.029 A 
ATOM     40  N   UNL A   1      38.843  32.566  33.458  1.00  0.00    -0.354 N 
ATOM     41  C   UNL A   1      39.462  29.814  30.180  1.00  0.00     0.074 A 
ATOM     42  C   UNL A   1      38.497  30.037  29.125  1.00  0.00     0.031 C 
ATOM     43  C   UNL A   1      37.818  34.208  34.577  1.00  0.00     0.029 A 
ATOM     44  C   UNL A   1      38.884  33.215  34.667  1.00  0.00     0.049 A 
ATOM     45  H   UNL A   1      39.470  31.847  33.211  1.00  0.00     0.167 HD
ATOM     46  C   UNL A   1      40.441  28.879  30.136  1.00  0.00     0.037 A 
ATOM     47  C   UNL A   1      39.682  33.022  35.735  1.00  0.00     0.037 A 
ATOM     48  C   UNL A   1      41.405  28.668  31.185  1.00  0.00     0.049 A 
ATOM     49  C   UNL A   1      40.748  31.960  35.671  1.00  0.00     0.074 A 
ATOM     50  C   UNL A   1      42.462  27.775  31.220  1.00  0.00     0.029 A 
ATOM     51  N   UNL A   1      41.425  29.356  32.389  1.00  0.00    -0.354 N 
ATOM     52  N   UNL A   1      41.035  31.133  34.694  1.00  0.00    -0.248 NA
ATOM     53  C   UNL A   1      41.608  31.813  36.852  1.00  0.00     0.031 C 
ATOM     54  C   UNL A   1      43.087  27.886  32.465  1.00  0.00     0.029 A 
ATOM     55  C   UNL A   1      42.461  28.892  33.183  1.00  0.00     0.049 A 
ATOM     56  H   UNL A   1      40.795  30.070  32.644  1.00  0.00     0.167 HD
ATOM     57  C   UNL A   1      42.123  30.389  35.131  1.00  0.00     0.074 A 
ATOM     58  C   UNL A   1      42.457  30.875  36.454  1.00  0.00     0.031 C 
ATOM     59  C   UNL A   1      42.785  29.392  34.496  1.00  0.00     0.037 A 
BRANCH  46  60
ATOM     60  C   UNL A   1      40.523  28.017  28.909  1.00  0.00     0.064 A 
ATOM     61  C   UNL A   1      41.314  28.379  27.807  1.00  0.00     0.173 A 
ATOM     62  C   UNL A   1      39.833  26.796  28.845  1.00  0.00     0.173 A 
ATOM     63  F   UNL A   1      41.986  29.540  27.811  1.00  0.00    -0.203 F 
ATOM     64  C   UNL A   1      41.385  27.568  26.676  1.00  0.00     0.198 A 
ATOM     65  C   UNL A   1      39.935  25.972  27.727  1.00  0.00     0.198 A 
ATOM     66  F   UNL A   1      39.067  26.397  29.872  1.00  0.00    -0.203 F 
ATOM     67  F   UNL A   1      42.105  27.962  25.617  1.00  0.00    -0.200 F 
ATOM     68  C   UNL A   1      40.702  26.362  26.641  1.00  0.00     0.200 A 
ATOM     69  F   UNL A   1      39.285  24.799  27.701  1.00  0.00    -0.200 F 
ATOM     70  F   UNL A   1      40.779  25.579  25.556  1.00  0.00    -0.200 F 
ENDBRANCH  46  60
BRANCH  47  71
ATOM     71  C   UNL A   1      39.509  33.856  36.953  1.00  0.00     0.064 A 
ATOM     72  C   UNL A   1      38.748  33.401  38.041  1.00  0.00     0.173 A 
ATOM     73  C   UNL A   1      40.089  35.129  37.054  1.00  0.00     0.173 A 
ATOM     74  F   UNL A   1      38.157  32.198  37.986  1.00  0.00    -0.203 F 
ATOM     75  C   UNL A   1      38.553  34.197  39.167  1.00  0.00     0.198 A 
ATOM     76  C   UNL A   1      39.920  35.911  38.194  1.00  0.00     0.198 A 
ATOM     77  F   UNL A   1      40.831  35.611  36.045  1.00  0.00    -0.203 F 
ATOM     78  F   UNL A   1      37.776  33.759  40.167  1.00  0.00    -0.200 F 
ATOM     79  C   UNL A   1      39.143  35.449  39.246  1.00  0.00     0.200 A 
ATOM     80  F   UNL A   1      40.507  37.114  38.273  1.00  0.00    -0.200 F 
ATOM     81  F   UNL A   1      38.957  36.213  40.330  1.00  0.00    -0.200 F 
ENDBRANCH  47  71
BRANCH  59  82
ATOM     82  C   UNL A   1      43.964  28.785  35.203  1.00  0.00     0.064 A 
ATOM     83  C   UNL A   1      45.261  29.298  35.054  1.00  0.00     0.173 A 
ATOM     84  C   UNL A   1      43.784  27.698  36.072  1.00  0.00     0.173 A 
ATOM     85  F   UNL A   1      45.489  30.327  34.224  1.00  0.00    -0.203 F 
ATOM     86  C   UNL A   1      46.338  28.726  35.727  1.00  0.00     0.198 A 
ATOM     87  C   UNL A   1      44.858  27.152  36.770  1.00  0.00     0.198 A 
ATOM     88  F   UNL A   1      42.563  27.172  36.257  1.00  0.00    -0.203 F 
ATOM     89  F   UNL A   1      47.576  29.200  35.529  1.00  0.00    -0.200 F 
ATOM     90  C   UNL A   1      46.135  27.661  36.589  1.00  0.00     0.200 A 
ATOM     91  F   UNL A   1      44.656  26.132  37.616  1.00  0.00    -0.200 F 
ATOM     92  F   UNL A   1      47.172  27.119  37.243  1.00  0.00    -0.200 F 
ENDBRANCH  59  82
ENDBRANCH  33  34
ENDBRANCH  25  28
ENDBRANCH  23  24
ENDBRANCH  22  23
ENDBRANCH  21  22
ENDBRANCH   1  21
TORSDOF 16
ENDMDL
MODEL 2
REMARK VINA RESULT:     -11.8      0.727      7.404
REMARK SMILES C[C@@H](Oc1cncc(C(=O)NCCCCCCNC(=O)c2ccc(-c3c4nc(c(-c5c(F)c(F)c(F)c(F)c5F)c5ccc([nH]5)c(-c5c(F)c(F)c(F)c(F)c5F)c5nc(c(-c6c(F)c(F)c(F)c(F)c6F)c6ccc3[nH]6)C=C5)C=C4)cc2)n1)C(F)(F)F
REMARK SMILES IDX 14 1 13 2 12 3 11 4 9 5 10 6 8 8 4 9 5 10 84 11 6 12 7 13
REMARK SMILES IDX 3 14 2 15 1 16 85 17 86 18 87 19 88 20 15 21 16 22 17 23
REMARK SMILES IDX 18 24 19 25 20 27 21 28 22 29 83 30 23 31 82 32 24 33 25 34
REMARK SMILES IDX 26 35 76 36 27 37 81 38 75 39 77 40 28 41 80 42 74 43 73 44
REMARK SMILES IDX 29 46 61 47 41 48 60 49 42 50 45 51 59 52 78 53 43 54 44 55
REMARK SMILES IDX 58 57 79 58 46 59 30 60 31 61 39 62 32 63 33 64 37 65 40 66
REMARK SMILES IDX 34 67 35 68 38 69 36 70 62 71 63 72 71 73 64 74 65 75 69 76
REMARK SMILES IDX 72 77 66 78 67 79 70 80 68 81 47 82 48 83 56 84 49 85 50 86
REMARK SMILES IDX 54 87 57 88 51 89 52 90 55 91 53 92
REMARK H PARENT 11 7 18 26 77 45 45 56
REMARK Flexibility Score: inf
ROOT
ATOM      1  C   UNL A   1      32.545  29.996  26.733  1.00  0.00     0.002 C 
ENDROOT
BRANCH   1   2
ATOM      2  C   UNL A   1      31.996  28.766  27.470  1.00  0.00     0.021 C 
BRANCH   2   3
ATOM      3  C   UNL A   1      32.505  27.435  26.919  1.00  0.00     0.116 C 
BRANCH   3   4
ATOM      4  N   UNL A   1      31.426  26.466  26.867  1.00  0.00    -0.351 N 
ATOM      5  C   UNL A   1      30.481  26.196  25.910  1.00  0.00     0.271 C 
ATOM      6  O   UNL A   1      29.608  25.373  26.201  1.00  0.00    -0.267 OA
ATOM      7  H   UNL A   1      31.360  25.897  27.667  1.00  0.00     0.163 HD
BRANCH   5   8
ATOM      8  C   UNL A   1      30.483  26.796  24.544  1.00  0.00     0.150 A 
ATOM      9  C   UNL A   1      30.154  28.537  23.090  1.00  0.00     0.233 A 
ATOM     10  C   UNL A   1      30.860  27.851  22.110  1.00  0.00     0.179 A 
ATOM     11  N   UNL A   1      29.953  28.029  24.321  1.00  0.00    -0.205 NA
ATOM     12  N   UNL A   1      31.334  26.599  22.293  1.00  0.00    -0.257 NA
ATOM     13  C   UNL A   1      31.140  26.093  23.537  1.00  0.00     0.145 A 
BRANCH   9  14
ATOM     14  O   UNL A   1      29.824  29.855  22.921  1.00  0.00    -0.464 OA
BRANCH  14  15
ATOM     15  C   UNL A   1      28.401  30.086  22.848  1.00  0.00     0.277 C 
ATOM     16  C   UNL A   1      27.965  30.108  21.381  1.00  0.00     0.063 C 
BRANCH  15  17
ATOM     17  C   UNL A   1      28.088  31.444  23.487  1.00  0.00     0.425 C 
ATOM     18  F   UNL A   1      29.074  31.816  24.339  1.00  0.00    -0.167 F 
ATOM     19  F   UNL A   1      27.981  32.420  22.558  1.00  0.00    -0.167 F 
ATOM     20  F   UNL A   1      26.936  31.414  24.194  1.00  0.00    -0.167 F 
ENDBRANCH  15  17
ENDBRANCH  14  15
ENDBRANCH   9  14
ENDBRANCH   5   8
ENDBRANCH   3   4
ENDBRANCH   2   3
ENDBRANCH   1   2
BRANCH   1  21
ATOM     21  C   UNL A   1      31.490  30.846  26.016  1.00  0.00     0.002 C 
BRANCH  21  22
ATOM     22  C   UNL A   1      31.357  32.280  26.533  1.00  0.00     0.021 C 
BRANCH  22  23
ATOM     23  C   UNL A   1      32.622  32.836  27.178  1.00  0.00     0.116 C 
BRANCH  23  24
ATOM     24  N   UNL A   1      32.451  34.212  27.615  1.00  0.00    -0.352 N 
ATOM     25  C   UNL A   1      33.072  34.881  28.637  1.00  0.00     0.251 C 
ATOM     26  H   UNL A   1      31.795  34.740  27.104  1.00  0.00     0.163 HD
ATOM     27  O   UNL A   1      32.661  35.981  29.000  1.00  0.00    -0.269 OA
BRANCH  25  28
ATOM     28  C   UNL A   1      34.230  34.268  29.320  1.00  0.00     0.039 A 
ATOM     29  C   UNL A   1      34.003  33.416  30.404  1.00  0.00     0.014 A 
ATOM     30  C   UNL A   1      35.535  34.536  28.896  1.00  0.00     0.014 A 
ATOM     31  C   UNL A   1      35.083  32.788  31.026  1.00  0.00     0.010 A 
ATOM     32  C   UNL A   1      36.603  33.849  29.466  1.00  0.00     0.010 A 
ATOM     33  C   UNL A   1      36.388  32.972  30.540  1.00  0.00    -0.014 A 
BRANCH  33  34
ATOM     34  C   UNL A   1      37.541  32.256  31.146  1.00  0.00     0.031 A 
ATOM     35  C   UNL A   1      38.044  32.648  32.507  1.00  0.00     0.074 A 
ATOM     36  C   UNL A   1      38.168  31.293  30.444  1.00  0.00     0.049 A 
ATOM     37  N   UNL A   1      39.073  32.190  33.173  1.00  0.00    -0.248 NA
ATOM     38  C   UNL A   1      37.307  33.716  33.202  1.00  0.00     0.031 C 
ATOM     39  C   UNL A   1      37.804  30.857  29.096  1.00  0.00     0.029 A 
ATOM     40  N   UNL A   1      39.253  30.515  30.763  1.00  0.00    -0.354 N 
ATOM     41  C   UNL A   1      39.110  32.914  34.357  1.00  0.00     0.074 A 
ATOM     42  C   UNL A   1      38.040  33.886  34.292  1.00  0.00     0.031 C 
ATOM     43  C   UNL A   1      38.638  29.878  28.710  1.00  0.00     0.029 A 
ATOM     44  C   UNL A   1      39.620  29.647  29.764  1.00  0.00     0.049 A 
ATOM     45  H   UNL A   1      39.723  30.572  31.626  1.00  0.00     0.167 HD
ATOM     46  C   UNL A   1      39.943  32.764  35.416  1.00  0.00     0.037 A 
ATOM     47  C   UNL A   1      40.643  28.773  29.700  1.00  0.00     0.037 A 
ATOM     48  C   UNL A   1      40.999  31.788  35.480  1.00  0.00     0.049 A 
ATOM     49  C   UNL A   1      41.570  28.641  30.879  1.00  0.00     0.074 A 
ATOM     50  C   UNL A   1      41.872  31.527  36.522  1.00  0.00     0.029 A 
ATOM     51  N   UNL A   1      41.332  30.915  34.454  1.00  0.00    -0.354 N 
ATOM     52  N   UNL A   1      41.554  29.286  32.021  1.00  0.00    -0.248 NA
ATOM     53  C   UNL A   1      42.650  27.653  30.765  1.00  0.00     0.031 C 
ATOM     54  C   UNL A   1      42.765  30.534  36.107  1.00  0.00     0.029 A 
ATOM     55  C   UNL A   1      42.410  30.130  34.831  1.00  0.00     0.049 A 
ATOM     56  H   UNL A   1      40.869  30.860  33.586  1.00  0.00     0.167 HD
ATOM     57  C   UNL A   1      42.599  28.763  32.769  1.00  0.00     0.074 A 
ATOM     58  C   UNL A   1      43.218  27.735  31.960  1.00  0.00     0.031 C 
ATOM     59  C   UNL A   1      43.011  29.105  34.015  1.00  0.00     0.037 A 
BRANCH  46  60
ATOM     60  C   UNL A   1      39.740  33.673  36.594  1.00  0.00     0.064 A 
ATOM     61  C   UNL A   1      40.387  34.916  36.683  1.00  0.00     0.173 A 
ATOM     62  C   UNL A   1      38.862  33.317  37.629  1.00  0.00     0.173 A 
ATOM     63  F   UNL A   1      41.244  35.301  35.726  1.00  0.00    -0.203 F 
ATOM     64  C   UNL A   1      40.187  35.752  37.779  1.00  0.00     0.198 A 
ATOM     65  C   UNL A   1      38.638  34.172  38.706  1.00  0.00     0.198 A 
ATOM     66  F   UNL A   1      38.212  32.143  37.593  1.00  0.00    -0.203 F 
ATOM     67  F   UNL A   1      40.857  36.909  37.867  1.00  0.00    -0.200 F 
ATOM     68  C   UNL A   1      39.307  35.383  38.785  1.00  0.00     0.200 A 
ATOM     69  F   UNL A   1      37.776  33.819  39.670  1.00  0.00    -0.200 F 
ATOM     70  F   UNL A   1      39.109  36.193  39.834  1.00  0.00    -0.200 F 
ENDBRANCH  46  60
BRANCH  47  71
ATOM     71  C   UNL A   1      40.841  27.950  28.478  1.00  0.00     0.064 A 
ATOM     72  C   UNL A   1      41.623  28.415  27.410  1.00  0.00     0.173 A 
ATOM     73  C   UNL A   1      40.246  26.686  28.345  1.00  0.00     0.173 A 
ATOM     74  F   UNL A   1      42.198  29.624  27.479  1.00  0.00    -0.203 F 
ATOM     75  C   UNL A   1      41.778  27.661  26.248  1.00  0.00     0.198 A 
ATOM     76  C   UNL A   1      40.429  25.919  27.197  1.00  0.00     0.198 A 
ATOM     77  F   UNL A   1      39.494  26.191  29.339  1.00  0.00    -0.203 F 
ATOM     78  F   UNL A   1      42.485  28.154  25.222  1.00  0.00    -0.200 F 
ATOM     79  C   UNL A   1      41.186  26.411  26.145  1.00  0.00     0.200 A 
ATOM     80  F   UNL A   1      39.868  24.705  27.109  1.00  0.00    -0.200 F 
ATOM     81  F   UNL A   1      41.338  25.686  25.029  1.00  0.00    -0.200 F 
ENDBRANCH  47  71
BRANCH  59  82
ATOM     82  C   UNL A   1      44.162  28.333  34.598  1.00  0.00     0.064 A 
ATOM     83  C   UNL A   1      45.487  28.778  34.477  1.00  0.00     0.173 A 
ATOM     84  C   UNL A   1      43.929  27.153  35.320  1.00  0.00     0.173 A 
ATOM     85  F   UNL A   1      45.765  29.892  33.784  1.00  0.00    -0.203 F 
ATOM     86  C   UNL A   1      46.538  28.053  35.032  1.00  0.00     0.198 A 
ATOM     87  C   UNL A   1      44.979  26.450  35.904  1.00  0.00     0.198 A 
ATOM     88  F   UNL A   1      42.680  26.687  35.472  1.00  0.00    -0.203 F 
ATOM     89  F   UNL A   1      47.800  28.469  34.859  1.00  0.00    -0.200 F 
ATOM     90  C   UNL A   1      46.283  26.896  35.751  1.00  0.00     0.200 A 
ATOM     91  F   UNL A   1      44.728  25.341  36.613  1.00  0.00    -0.200 F 
ATOM     92  F   UNL A   1      47.296  26.205  36.293  1.00  0.00    -0.200 F 
ENDBRANCH  59  82
ENDBRANCH  33  34
ENDBRANCH  25  28
ENDBRANCH  23  24
ENDBRANCH  22  23
ENDBRANCH  21  22
ENDBRANCH   1  21
TORSDOF 16
ENDMDL
MODEL 3
REMARK VINA RESULT:     -11.6      0.789      7.413
REMARK SMILES C[C@@H](Oc1cncc(C(=O)NCCCCCCNC(=O)c2ccc(-c3c4nc(c(-c5c(F)c(F)c(F)c(F)c5F)c5ccc([nH]5)c(-c5c(F)c(F)c(F)c(F)c5F)c5nc(c(-c6c(F)c(F)c(F)c(F)c6F)c6ccc3[nH]6)C=C5)C=C4)cc2)n1)C(F)(F)F
REMARK SMILES IDX 14 1 13 2 12 3 11 4 9 5 10 6 8 8 4 9 5 10 84 11 6 12 7 13
REMARK SMILES IDX 3 14 2 15 1 16 85 17 86 18 87 19 88 20 15 21 16 22 17 23
REMARK SMILES IDX 18 24 19 25 20 27 21 28 22 29 83 30 23 31 82 32 24 33 25 34
REMARK SMILES IDX 26 35 76 36 27 37 81 38 75 39 77 40 28 41 80 42 74 43 73 44
REMARK SMILES IDX 29 46 61 47 41 48 60 49 42 50 45 51 59 52 78 53 43 54 44 55
REMARK SMILES IDX 58 57 79 58 46 59 30 60 31 61 39 62 32 63 33 64 37 65 40 66
REMARK SMILES IDX 34 67 35 68 38 69 36 70 62 71 63 72 71 73 64 74 65 75 69 76
REMARK SMILES IDX 72 77 66 78 67 79 70 80 68 81 47 82 48 83 56 84 49 85 50 86
REMARK SMILES IDX 54 87 57 88 51 89 52 90 55 91 53 92
REMARK H PARENT 11 7 18 26 77 45 45 56
REMARK Flexibility Score: inf
ROOT
ATOM      1  C   UNL A   1      32.820  30.167  27.031  1.00  0.00     0.002 C 
ENDROOT
BRANCH   1   2
ATOM      2  C   UNL A   1      33.453  29.463  25.823  1.00  0.00     0.021 C 
BRANCH   2   3
ATOM      3  C   UNL A   1      33.835  28.007  26.084  1.00  0.00     0.116 C 
BRANCH   3   4
ATOM      4  N   UNL A   1      32.702  27.277  26.623  1.00  0.00    -0.351 N 
ATOM      5  C   UNL A   1      31.467  26.987  26.103  1.00  0.00     0.271 C 
ATOM      6  O   UNL A   1      30.659  26.434  26.854  1.00  0.00    -0.267 OA
ATOM      7  H   UNL A   1      32.849  26.924  27.531  1.00  0.00     0.163 HD
BRANCH   5   8
ATOM      8  C   UNL A   1      31.074  27.255  24.688  1.00  0.00     0.150 A 
ATOM      9  C   UNL A   1      30.349  28.635  23.009  1.00  0.00     0.233 A 
ATOM     10  C   UNL A   1      30.732  27.689  22.067  1.00  0.00     0.179 A 
ATOM     11  N   UNL A   1      30.513  28.441  24.332  1.00  0.00    -0.205 NA
ATOM     12  N   UNL A   1      31.228  26.479  22.408  1.00  0.00    -0.257 NA
ATOM     13  C   UNL A   1      31.402  26.290  23.740  1.00  0.00     0.145 A 
BRANCH   9  14
ATOM     14  O   UNL A   1      29.996  29.901  22.625  1.00  0.00    -0.464 OA
BRANCH  14  15
ATOM     15  C   UNL A   1      28.572  30.133  22.653  1.00  0.00     0.277 C 
ATOM     16  C   UNL A   1      28.066  30.361  21.226  1.00  0.00     0.063 C 
BRANCH  15  17
ATOM     17  C   UNL A   1      28.292  31.385  23.494  1.00  0.00     0.425 C 
ATOM     18  F   UNL A   1      27.188  31.215  24.260  1.00  0.00    -0.167 F 
ATOM     19  F   UNL A   1      29.316  31.663  24.331  1.00  0.00    -0.167 F 
ATOM     20  F   UNL A   1      28.080  32.473  22.719  1.00  0.00    -0.167 F 
ENDBRANCH  15  17
ENDBRANCH  14  15
ENDBRANCH   9  14
ENDBRANCH   5   8
ENDBRANCH   3   4
ENDBRANCH   2   3
ENDBRANCH   1   2
BRANCH   1  21
ATOM     21  C   UNL A   1      31.433  30.769  26.777  1.00  0.00     0.002 C 
BRANCH  21  22
ATOM     22  C   UNL A   1      31.391  32.298  26.736  1.00  0.00     0.021 C 
BRANCH  22  23
ATOM     23  C   UNL A   1      32.702  32.974  27.118  1.00  0.00     0.116 C 
BRANCH  23  24
ATOM     24  N   UNL A   1      32.494  34.324  27.618  1.00  0.00    -0.352 N 
ATOM     25  C   UNL A   1      33.078  34.952  28.687  1.00  0.00     0.251 C 
ATOM     26  H   UNL A   1      31.841  34.863  27.117  1.00  0.00     0.163 HD
ATOM     27  O   UNL A   1      32.637  36.025  29.093  1.00  0.00    -0.269 OA
BRANCH  25  28
ATOM     28  C   UNL A   1      34.231  34.327  29.367  1.00  0.00     0.039 A 
ATOM     29  C   UNL A   1      33.997  33.450  30.428  1.00  0.00     0.014 A 
ATOM     30  C   UNL A   1      35.540  34.610  28.962  1.00  0.00     0.014 A 
ATOM     31  C   UNL A   1      35.073  32.812  31.046  1.00  0.00     0.010 A 
ATOM     32  C   UNL A   1      36.604  33.914  29.527  1.00  0.00     0.010 A 
ATOM     33  C   UNL A   1      36.383  33.012  30.578  1.00  0.00    -0.014 A 
BRANCH  33  34
ATOM     34  C   UNL A   1      37.532  32.286  31.178  1.00  0.00     0.031 A 
ATOM     35  C   UNL A   1      38.037  32.667  32.542  1.00  0.00     0.074 A 
ATOM     36  C   UNL A   1      38.153  31.324  30.470  1.00  0.00     0.049 A 
ATOM     37  N   UNL A   1      39.065  32.199  33.204  1.00  0.00    -0.248 NA
ATOM     38  C   UNL A   1      37.307  33.734  33.244  1.00  0.00     0.031 C 
ATOM     39  C   UNL A   1      37.786  30.898  29.120  1.00  0.00     0.029 A 
ATOM     40  N   UNL A   1      39.235  30.539  30.784  1.00  0.00    -0.354 N 
ATOM     41  C   UNL A   1      39.106  32.916  34.393  1.00  0.00     0.074 A 
ATOM     42  C   UNL A   1      38.042  33.894  34.334  1.00  0.00     0.031 C 
ATOM     43  C   UNL A   1      38.614  29.917  28.727  1.00  0.00     0.029 A 
ATOM     44  C   UNL A   1      39.597  29.675  29.779  1.00  0.00     0.049 A 
ATOM     45  H   UNL A   1      39.705  30.588  31.647  1.00  0.00     0.167 HD
ATOM     46  C   UNL A   1      39.939  32.755  35.449  1.00  0.00     0.037 A 
ATOM     47  C   UNL A   1      40.615  28.796  29.708  1.00  0.00     0.037 A 
ATOM     48  C   UNL A   1      40.991  31.773  35.507  1.00  0.00     0.049 A 
ATOM     49  C   UNL A   1      41.542  28.652  30.886  1.00  0.00     0.074 A 
ATOM     50  C   UNL A   1      41.863  31.502  36.547  1.00  0.00     0.029 A 
ATOM     51  N   UNL A   1      41.318  30.905  34.475  1.00  0.00    -0.354 N 
ATOM     52  N   UNL A   1      41.530  29.290  32.032  1.00  0.00    -0.248 NA
ATOM     53  C   UNL A   1      42.617  27.659  30.765  1.00  0.00     0.031 C 
ATOM     54  C   UNL A   1      42.750  30.507  36.125  1.00  0.00     0.029 A 
ATOM     55  C   UNL A   1      42.393  30.112  34.846  1.00  0.00     0.049 A 
ATOM     56  H   UNL A   1      40.855  30.857  33.607  1.00  0.00     0.167 HD
ATOM     57  C   UNL A   1      42.573  28.757  32.777  1.00  0.00     0.074 A 
ATOM     58  C   UNL A   1      43.186  27.730  31.961  1.00  0.00     0.031 C 
ATOM     59  C   UNL A   1      42.988  29.089  34.024  1.00  0.00     0.037 A 
BRANCH  46  60
ATOM     60  C   UNL A   1      39.742  33.658  36.633  1.00  0.00     0.064 A 
ATOM     61  C   UNL A   1      38.868  33.319  37.679  1.00  0.00     0.173 A 
ATOM     62  C   UNL A   1      40.459  34.859  36.745  1.00  0.00     0.173 A 
ATOM     63  F   UNL A   1      38.149  32.188  37.619  1.00  0.00    -0.203 F 
ATOM     64  C   UNL A   1      38.697  34.163  38.774  1.00  0.00     0.198 A 
ATOM     65  C   UNL A   1      40.312  35.683  37.858  1.00  0.00     0.198 A 
ATOM     66  F   UNL A   1      41.313  35.229  35.777  1.00  0.00    -0.203 F 
ATOM     67  F   UNL A   1      37.817  33.842  39.732  1.00  0.00    -0.200 F 
ATOM     68  C   UNL A   1      39.425  35.340  38.866  1.00  0.00     0.200 A 
ATOM     69  F   UNL A   1      41.027  36.813  37.951  1.00  0.00    -0.200 F 
ATOM     70  F   UNL A   1      39.266  36.146  39.924  1.00  0.00    -0.200 F 
ENDBRANCH  46  60
BRANCH  47  71
ATOM     71  C   UNL A   1      40.808  27.979  28.481  1.00  0.00     0.064 A 
ATOM     72  C   UNL A   1      40.213  26.715  28.351  1.00  0.00     0.173 A 
ATOM     73  C   UNL A   1      41.599  28.438  27.417  1.00  0.00     0.173 A 
ATOM     74  F   UNL A   1      39.463  26.224  29.349  1.00  0.00    -0.203 F 
ATOM     75  C   UNL A   1      40.424  25.932  27.218  1.00  0.00     0.198 A 
ATOM     76  C   UNL A   1      41.783  27.668  26.271  1.00  0.00     0.198 A 
ATOM     77  F   UNL A   1      42.186  29.642  27.487  1.00  0.00    -0.203 F 
ATOM     78  F   UNL A   1      39.888  24.707  27.145  1.00  0.00    -0.200 F 
ATOM     79  C   UNL A   1      41.204  26.411  26.176  1.00  0.00     0.200 A 
ATOM     80  F   UNL A   1      42.523  28.142  25.259  1.00  0.00    -0.200 F 
ATOM     81  F   UNL A   1      41.404  25.659  25.086  1.00  0.00    -0.200 F 
ENDBRANCH  47  71
BRANCH  59  82
ATOM     82  C   UNL A   1      44.135  28.308  34.601  1.00  0.00     0.064 A 
ATOM     83  C   UNL A   1      45.460  28.758  34.503  1.00  0.00     0.173 A 
ATOM     84  C   UNL A   1      43.898  27.112  35.295  1.00  0.00     0.173 A 
ATOM     85  F   UNL A   1      45.741  29.888  33.837  1.00  0.00    -0.203 F 
ATOM     86  C   UNL A   1      46.507  28.024  35.053  1.00  0.00     0.198 A 
ATOM     87  C   UNL A   1      44.945  26.399  35.874  1.00  0.00     0.198 A 
ATOM     88  F   UNL A   1      42.649  26.639  35.425  1.00  0.00    -0.203 F 
ATOM     89  F   UNL A   1      47.770  28.447  34.901  1.00  0.00    -0.200 F 
ATOM     90  C   UNL A   1      46.248  26.851  35.744  1.00  0.00     0.200 A 
ATOM     91  F   UNL A   1      44.690  25.274  36.556  1.00  0.00    -0.200 F 
ATOM     92  F   UNL A   1      47.258  26.151  36.281  1.00  0.00    -0.200 F 
ENDBRANCH  59  82
ENDBRANCH  33  34
ENDBRANCH  25  28
ENDBRANCH  23  24
ENDBRANCH  22  23
ENDBRANCH  21  22
ENDBRANCH   1  21
TORSDOF 16
ENDMDL
