MODEL 1
REMARK VINA RESULT:     -11.6      0.000      0.000
REMARK SMILES O=C(NCCCCCCNC(=O)c1ccc(C[NH2+][C@H]2CCCNC2=O)nc1)c1ccc(-c2c3nc(c(-c4c(F)c(F)c(F)c(F)c4F)c4ccc([nH]4)c(-c4c(F)c(F)c(F)c(F)c4F)c4nc(c(-c5c(F)c(F)c(F)c(F)c5F)c5ccc2[nH]5)C=C4)C=C3)cc1
REMARK SMILES IDX 7 1 6 2 5 3 4 4 3 5 1 6 2 7 28 9 29 10 90 11 30 12 89 13
REMARK SMILES IDX 31 14 32 15 33 16 83 17 34 18 88 19 82 20 84 21 35 22 87 23
REMARK SMILES IDX 81 24 80 25 36 27 68 28 48 29 67 30 49 31 52 32 66 33 85 34
REMARK SMILES IDX 50 35 51 36 65 38 86 39 53 40 37 41 38 42 46 43 39 44 40 45
REMARK SMILES IDX 44 46 47 47 41 48 42 49 45 50 43 51 69 52 70 53 78 54 71 55
REMARK SMILES IDX 72 56 76 57 79 58 73 59 74 60 77 61 75 62 54 63 55 64 63 65
REMARK SMILES IDX 56 66 57 67 61 68 64 69 58 70 59 71 62 72 60 73 8 74 9 75
REMARK SMILES IDX 10 76 11 77 12 79 13 80 14 81 27 82 15 83 26 84 16 85 17 86
REMARK SMILES IDX 18 87 19 90 20 91 24 92 21 93 23 94 25 95 22 96
REMARK H PARENT 3 8 84 26 52 37 10 78 18 88 18 89 23 97
REMARK Flexibility Score: inf
ROOT
ATOM      1  C   UNL A   1      37.121  22.004  24.693  1.00  0.00     0.002 C 
ENDROOT
BRANCH   1   2
ATOM      2  C   UNL A   1      36.858  20.521  24.968  1.00  0.00     0.002 C 
BRANCH   2   3
ATOM      3  C   UNL A   1      38.094  19.621  24.952  1.00  0.00     0.021 C 
BRANCH   3   4
ATOM      4  C   UNL A   1      39.155  19.970  25.986  1.00  0.00     0.116 C 
BRANCH   4   5
ATOM      5  N   UNL A   1      40.281  19.053  25.962  1.00  0.00    -0.352 N 
ATOM      6  O   UNL A   1      42.454  18.445  25.866  1.00  0.00    -0.269 OA
ATOM      7  C   UNL A   1      41.623  19.325  26.063  1.00  0.00     0.251 C 
ATOM      8  H   UNL A   1      40.050  18.101  25.859  1.00  0.00     0.163 HD
BRANCH   7   9
ATOM      9  C   UNL A   1      42.068  20.697  26.389  1.00  0.00     0.039 A 
ATOM     10  C   UNL A   1      42.297  21.076  27.714  1.00  0.00     0.014 A 
ATOM     11  C   UNL A   1      42.267  21.612  25.352  1.00  0.00     0.014 A 
ATOM     12  C   UNL A   1      42.595  22.401  28.011  1.00  0.00     0.010 A 
ATOM     13  C   UNL A   1      42.649  22.923  25.646  1.00  0.00     0.010 A 
ATOM     14  C   UNL A   1      42.790  23.334  26.980  1.00  0.00    -0.014 A 
BRANCH  14  15
ATOM     15  C   UNL A   1      43.215  24.715  27.321  1.00  0.00     0.031 A 
ATOM     16  C   UNL A   1      44.613  25.191  27.050  1.00  0.00     0.074 A 
ATOM     17  C   UNL A   1      42.310  25.549  27.868  1.00  0.00     0.049 A 
ATOM     18  N   UNL A   1      45.140  26.369  27.273  1.00  0.00    -0.248 NA
ATOM     19  C   UNL A   1      45.544  24.218  26.459  1.00  0.00     0.031 C 
ATOM     20  C   UNL A   1      40.927  25.189  28.189  1.00  0.00     0.029 A 
ATOM     21  N   UNL A   1      42.406  26.865  28.236  1.00  0.00    -0.354 N 
ATOM     22  C   UNL A   1      46.466  26.276  26.867  1.00  0.00     0.074 A 
ATOM     23  C   UNL A   1      46.670  24.918  26.409  1.00  0.00     0.031 C 
ATOM     24  C   UNL A   1      40.291  26.270  28.662  1.00  0.00     0.029 A 
ATOM     25  C   UNL A   1      41.236  27.378  28.738  1.00  0.00     0.049 A 
ATOM     26  H   UNL A   1      43.234  27.390  28.149  1.00  0.00     0.167 HD
ATOM     27  C   UNL A   1      47.418  27.241  26.871  1.00  0.00     0.037 A 
ATOM     28  C   UNL A   1      40.958  28.602  29.222  1.00  0.00     0.037 A 
ATOM     29  C   UNL A   1      47.201  28.593  27.320  1.00  0.00     0.049 A 
ATOM     30  C   UNL A   1      42.039  29.641  29.242  1.00  0.00     0.074 A 
ATOM     31  C   UNL A   1      48.089  29.655  27.325  1.00  0.00     0.029 A 
ATOM     32  N   UNL A   1      46.012  29.068  27.856  1.00  0.00    -0.354 N 
ATOM     33  N   UNL A   1      43.277  29.554  28.818  1.00  0.00    -0.248 NA
ATOM     34  C   UNL A   1      41.688  30.948  29.813  1.00  0.00     0.031 C 
ATOM     35  C   UNL A   1      47.454  30.756  27.909  1.00  0.00     0.029 A 
ATOM     36  C   UNL A   1      46.153  30.399  28.220  1.00  0.00     0.049 A 
ATOM     37  H   UNL A   1      45.189  28.538  27.962  1.00  0.00     0.167 HD
ATOM     38  C   UNL A   1      43.848  30.795  29.054  1.00  0.00     0.074 A 
ATOM     39  C   UNL A   1      42.815  31.624  29.640  1.00  0.00     0.031 C 
ATOM     40  C   UNL A   1      45.116  31.208  28.809  1.00  0.00     0.037 A 
BRANCH  27  41
ATOM     41  C   UNL A   1      48.792  26.864  26.394  1.00  0.00     0.064 A 
ATOM     42  C   UNL A   1      49.177  27.016  25.053  1.00  0.00     0.173 A 
ATOM     43  C   UNL A   1      49.749  26.378  27.298  1.00  0.00     0.173 A 
ATOM     44  F   UNL A   1      48.298  27.466  24.145  1.00  0.00    -0.203 F 
ATOM     45  C   UNL A   1      50.459  26.668  24.630  1.00  0.00     0.198 A 
ATOM     46  C   UNL A   1      51.038  26.060  26.878  1.00  0.00     0.198 A 
ATOM     47  F   UNL A   1      49.437  26.221  28.593  1.00  0.00    -0.203 F 
ATOM     48  F   UNL A   1      50.788  26.776  23.336  1.00  0.00    -0.200 F 
ATOM     49  C   UNL A   1      51.389  26.195  25.544  1.00  0.00     0.200 A 
ATOM     50  F   UNL A   1      51.940  25.615  27.765  1.00  0.00    -0.200 F 
ATOM     51  F   UNL A   1      52.622  25.866  25.137  1.00  0.00    -0.200 F 
ENDBRANCH  27  41
BRANCH  28  52
ATOM     52  C   UNL A   1      39.590  28.897  29.720  1.00  0.00     0.064 A 
ATOM     53  C   UNL A   1      39.250  28.681  31.062  1.00  0.00     0.173 A 
ATOM     54  C   UNL A   1      38.606  29.429  28.874  1.00  0.00     0.173 A 
ATOM     55  F   UNL A   1      40.153  28.158  31.905  1.00  0.00    -0.203 F 
ATOM     56  C   UNL A   1      37.976  28.980  31.538  1.00  0.00     0.198 A 
ATOM     57  C   UNL A   1      37.342  29.755  29.357  1.00  0.00     0.198 A 
ATOM     58  F   UNL A   1      38.885  29.660  27.582  1.00  0.00    -0.203 F 
ATOM     59  F   UNL A   1      37.666  28.734  32.817  1.00  0.00    -0.200 F 
ATOM     60  C   UNL A   1      37.025  29.525  30.686  1.00  0.00     0.200 A 
ATOM     61  F   UNL A   1      36.433  30.298  28.535  1.00  0.00    -0.200 F 
ATOM     62  F   UNL A   1      35.804  29.825  31.147  1.00  0.00    -0.200 F 
ENDBRANCH  28  52
BRANCH  40  63
ATOM     63  C   UNL A   1      45.446  32.631  29.157  1.00  0.00     0.064 A 
ATOM     64  C   UNL A   1      45.899  32.988  30.436  1.00  0.00     0.173 A 
ATOM     65  C   UNL A   1      45.330  33.644  28.194  1.00  0.00     0.173 A 
ATOM     66  F   UNL A   1      46.007  32.059  31.398  1.00  0.00    -0.203 F 
ATOM     67  C   UNL A   1      46.196  34.312  30.744  1.00  0.00     0.198 A 
ATOM     68  C   UNL A   1      45.658  34.962  28.497  1.00  0.00     0.198 A 
ATOM     69  F   UNL A   1      44.906  33.353  26.954  1.00  0.00    -0.203 F 
ATOM     70  F   UNL A   1      46.578  34.639  31.988  1.00  0.00    -0.200 F 
ATOM     71  C   UNL A   1      46.083  35.296  29.773  1.00  0.00     0.200 A 
ATOM     72  F   UNL A   1      45.559  35.909  27.555  1.00  0.00    -0.200 F 
ATOM     73  F   UNL A   1      46.374  36.570  30.072  1.00  0.00    -0.200 F 
ENDBRANCH  40  63
ENDBRANCH  14  15
ENDBRANCH   7   9
ENDBRANCH   4   5
ENDBRANCH   3   4
ENDBRANCH   2   3
ENDBRANCH   1   2
BRANCH   1  74
ATOM     74  C   UNL A   1      36.379  22.986  25.606  1.00  0.00     0.021 C 
BRANCH  74  75
ATOM     75  C   UNL A   1      35.592  24.073  24.878  1.00  0.00     0.116 C 
BRANCH  75  76
ATOM     76  N   UNL A   1      34.424  24.495  25.632  1.00  0.00    -0.352 N 
ATOM     77  C   UNL A   1      33.165  23.955  25.629  1.00  0.00     0.252 C 
ATOM     78  H   UNL A   1      34.555  25.273  26.221  1.00  0.00     0.163 HD
ATOM     79  O   UNL A   1      32.233  24.530  26.179  1.00  0.00    -0.269 OA
BRANCH  77  80
ATOM     80  C   UNL A   1      32.937  22.677  24.949  1.00  0.00     0.058 A 
ATOM     81  C   UNL A   1      32.593  22.613  23.599  1.00  0.00     0.017 A 
ATOM     82  C   UNL A   1      33.057  21.502  25.667  1.00  0.00     0.125 A 
ATOM     83  C   UNL A   1      32.328  21.371  23.029  1.00  0.00     0.030 A 
ATOM     84  N   UNL A   1      32.795  20.286  25.136  1.00  0.00    -0.255 NA
ATOM     85  C   UNL A   1      32.429  20.231  23.826  1.00  0.00     0.094 A 
BRANCH  85  86
ATOM     86  C   UNL A   1      32.154  18.860  23.231  1.00  0.00     0.318 C 
BRANCH  86  87
ATOM     87  N   UNL A   1      32.162  17.823  24.267  1.00  0.00    -0.331 N 
ATOM     88  H   UNL A   1      31.195  17.600  24.504  1.00  0.00     0.347 HD
ATOM     89  H   UNL A   1      32.684  18.201  25.058  1.00  0.00     0.347 HD
BRANCH  87  90
ATOM     90  C   UNL A   1      32.839  16.577  23.865  1.00  0.00     0.272 C 
ATOM     91  C   UNL A   1      34.182  16.951  23.228  1.00  0.00     0.077 C 
ATOM     92  C   UNL A   1      33.049  15.640  25.071  1.00  0.00     0.278 C 
ATOM     93  C   UNL A   1      35.138  17.505  24.281  1.00  0.00     0.028 C 
ATOM     94  N   UNL A   1      34.211  15.754  25.781  1.00  0.00    -0.351 N 
ATOM     95  O   UNL A   1      32.171  14.865  25.456  1.00  0.00    -0.268 OA
ATOM     96  C   UNL A   1      35.399  16.448  25.341  1.00  0.00     0.116 C 
ATOM     97  H   UNL A   1      34.240  15.327  26.668  1.00  0.00     0.163 HD
ENDBRANCH  87  90
ENDBRANCH  86  87
ENDBRANCH  85  86
ENDBRANCH  77  80
ENDBRANCH  75  76
ENDBRANCH  74  75
ENDBRANCH   1  74
TORSDOF 16
ENDMDL
MODEL 2
REMARK VINA RESULT:     -11.5      5.350     10.869
REMARK SMILES O=C(NCCCCCCNC(=O)c1ccc(C[NH2+][C@H]2CCCNC2=O)nc1)c1ccc(-c2c3nc(c(-c4c(F)c(F)c(F)c(F)c4F)c4ccc([nH]4)c(-c4c(F)c(F)c(F)c(F)c4F)c4nc(c(-c5c(F)c(F)c(F)c(F)c5F)c5ccc2[nH]5)C=C4)C=C3)cc1
REMARK SMILES IDX 7 1 6 2 5 3 4 4 3 5 1 6 2 7 28 9 29 10 90 11 30 12 89 13
REMARK SMILES IDX 31 14 32 15 33 16 83 17 34 18 88 19 82 20 84 21 35 22 87 23
REMARK SMILES IDX 81 24 80 25 36 27 68 28 48 29 67 30 49 31 52 32 66 33 85 34
REMARK SMILES IDX 50 35 51 36 65 38 86 39 53 40 37 41 38 42 46 43 39 44 40 45
REMARK SMILES IDX 44 46 47 47 41 48 42 49 45 50 43 51 69 52 70 53 78 54 71 55
REMARK SMILES IDX 72 56 76 57 79 58 73 59 74 60 77 61 75 62 54 63 55 64 63 65
REMARK SMILES IDX 56 66 57 67 61 68 64 69 58 70 59 71 62 72 60 73 8 74 9 75
REMARK SMILES IDX 10 76 11 77 12 79 13 80 14 81 27 82 15 83 26 84 16 85 17 86
REMARK SMILES IDX 18 87 19 90 20 91 24 92 21 93 23 94 25 95 22 96
REMARK H PARENT 3 8 84 26 52 37 10 78 18 88 18 89 23 97
REMARK Flexibility Score: inf
ROOT
ATOM      1  C   UNL A   1      32.455  25.650  26.266  1.00  0.00     0.002 C 
ENDROOT
BRANCH   1   2
ATOM      2  C   UNL A   1      33.083  27.023  26.523  1.00  0.00     0.002 C 
BRANCH   2   3
ATOM      3  C   UNL A   1      32.320  28.214  25.943  1.00  0.00     0.021 C 
BRANCH   3   4
ATOM      4  C   UNL A   1      33.195  29.369  25.475  1.00  0.00     0.116 C 
BRANCH   4   5
ATOM      5  N   UNL A   1      32.698  30.660  25.917  1.00  0.00    -0.352 N 
ATOM      6  O   UNL A   1      32.510  32.448  27.284  1.00  0.00    -0.269 OA
ATOM      7  C   UNL A   1      33.145  31.455  26.944  1.00  0.00     0.251 C 
ATOM      8  H   UNL A   1      31.933  31.016  25.410  1.00  0.00     0.163 HD
BRANCH   7   9
ATOM      9  C   UNL A   1      34.389  31.096  27.657  1.00  0.00     0.039 A 
ATOM     10  C   UNL A   1      34.546  29.830  28.226  1.00  0.00     0.014 A 
ATOM     11  C   UNL A   1      35.417  32.040  27.748  1.00  0.00     0.014 A 
ATOM     12  C   UNL A   1      35.669  29.553  28.997  1.00  0.00     0.010 A 
ATOM     13  C   UNL A   1      36.583  31.730  28.453  1.00  0.00     0.010 A 
ATOM     14  C   UNL A   1      36.707  30.493  29.104  1.00  0.00    -0.014 A 
BRANCH  14  15
ATOM     15  C   UNL A   1      37.943  30.130  29.842  1.00  0.00     0.031 A 
ATOM     16  C   UNL A   1      38.194  30.629  31.235  1.00  0.00     0.074 A 
ATOM     17  C   UNL A   1      38.835  29.322  29.240  1.00  0.00     0.049 A 
ATOM     18  N   UNL A   1      39.213  30.393  32.024  1.00  0.00    -0.248 NA
ATOM     19  C   UNL A   1      37.175  31.513  31.820  1.00  0.00     0.031 C 
ATOM     20  C   UNL A   1      38.701  28.789  27.882  1.00  0.00     0.029 A 
ATOM     21  N   UNL A   1      40.018  28.796  29.688  1.00  0.00    -0.354 N 
ATOM     22  C   UNL A   1      38.970  31.110  33.188  1.00  0.00     0.074 A 
ATOM     23  C   UNL A   1      37.718  31.812  32.993  1.00  0.00     0.031 C 
ATOM     24  C   UNL A   1      39.735  27.976  27.625  1.00  0.00     0.029 A 
ATOM     25  C   UNL A   1      40.635  27.981  28.773  1.00  0.00     0.049 A 
ATOM     26  H   UNL A   1      40.389  28.985  30.580  1.00  0.00     0.167 HD
ATOM     27  C   UNL A   1      39.720  31.168  34.315  1.00  0.00     0.037 A 
ATOM     28  C   UNL A   1      41.806  27.321  28.841  1.00  0.00     0.037 A 
ATOM     29  C   UNL A   1      40.959  30.457  34.502  1.00  0.00     0.049 A 
ATOM     30  C   UNL A   1      42.630  27.428  30.089  1.00  0.00     0.074 A 
ATOM     31  C   UNL A   1      41.772  30.417  35.622  1.00  0.00     0.029 A 
ATOM     32  N   UNL A   1      41.573  29.668  33.538  1.00  0.00    -0.354 N 
ATOM     33  N   UNL A   1      42.369  28.076  31.199  1.00  0.00    -0.248 NA
ATOM     34  C   UNL A   1      43.914  26.715  30.095  1.00  0.00     0.031 C 
ATOM     35  C   UNL A   1      42.900  29.646  35.319  1.00  0.00     0.029 A 
ATOM     36  C   UNL A   1      42.766  29.161  34.029  1.00  0.00     0.049 A 
ATOM     37  H   UNL A   1      41.212  29.495  32.639  1.00  0.00     0.167 HD
ATOM     38  C   UNL A   1      43.446  27.838  32.040  1.00  0.00     0.074 A 
ATOM     39  C   UNL A   1      44.353  26.968  31.320  1.00  0.00     0.031 C 
ATOM     40  C   UNL A   1      43.662  28.301  33.296  1.00  0.00     0.037 A 
BRANCH  27  41
ATOM     41  C   UNL A   1      39.232  32.049  35.430  1.00  0.00     0.064 A 
ATOM     42  C   UNL A   1      38.437  31.549  36.473  1.00  0.00     0.173 A 
ATOM     43  C   UNL A   1      39.596  33.403  35.477  1.00  0.00     0.173 A 
ATOM     44  F   UNL A   1      38.051  30.264  36.473  1.00  0.00    -0.203 F 
ATOM     45  C   UNL A   1      38.000  32.380  37.504  1.00  0.00     0.198 A 
ATOM     46  C   UNL A   1      39.183  34.223  36.524  1.00  0.00     0.198 A 
ATOM     47  F   UNL A   1      40.362  33.931  34.510  1.00  0.00    -0.203 F 
ATOM     48  F   UNL A   1      37.202  31.892  38.463  1.00  0.00    -0.200 F 
ATOM     49  C   UNL A   1      38.378  33.714  37.531  1.00  0.00     0.200 A 
ATOM     50  F   UNL A   1      39.560  35.509  36.555  1.00  0.00    -0.200 F 
ATOM     51  F   UNL A   1      37.961  34.509  38.525  1.00  0.00    -0.200 F 
ENDBRANCH  27  41
BRANCH  28  52
ATOM     52  C   UNL A   1      42.253  26.503  27.685  1.00  0.00     0.064 A 
ATOM     53  C   UNL A   1      43.190  27.000  26.770  1.00  0.00     0.173 A 
ATOM     54  C   UNL A   1      41.776  25.198  27.489  1.00  0.00     0.173 A 
ATOM     55  F   UNL A   1      43.662  28.249  26.907  1.00  0.00    -0.203 F 
ATOM     56  C   UNL A   1      43.629  26.226  25.699  1.00  0.00     0.198 A 
ATOM     57  C   UNL A   1      42.237  24.415  26.435  1.00  0.00     0.198 A 
ATOM     58  F   UNL A   1      40.882  24.675  28.342  1.00  0.00    -0.203 F 
ATOM     59  F   UNL A   1      44.501  26.737  24.820  1.00  0.00    -0.200 F 
ATOM     60  C   UNL A   1      43.158  24.931  25.537  1.00  0.00     0.200 A 
ATOM     61  F   UNL A   1      41.794  23.158  26.293  1.00  0.00    -0.200 F 
ATOM     62  F   UNL A   1      43.592  24.182  24.514  1.00  0.00    -0.200 F 
ENDBRANCH  28  52
BRANCH  40  63
ATOM     63  C   UNL A   1      44.924  27.856  33.976  1.00  0.00     0.064 A 
ATOM     64  C   UNL A   1      44.978  26.667  34.719  1.00  0.00     0.173 A 
ATOM     65  C   UNL A   1      46.099  28.615  33.863  1.00  0.00     0.173 A 
ATOM     66  F   UNL A   1      43.876  25.916  34.873  1.00  0.00    -0.203 F 
ATOM     67  C   UNL A   1      46.155  26.270  35.347  1.00  0.00     0.198 A 
ATOM     68  C   UNL A   1      47.281  28.198  34.467  1.00  0.00     0.198 A 
ATOM     69  F   UNL A   1      46.100  29.757  33.160  1.00  0.00    -0.203 F 
ATOM     70  F   UNL A   1      46.170  25.157  36.095  1.00  0.00    -0.200 F 
ATOM     71  C   UNL A   1      47.306  27.031  35.215  1.00  0.00     0.200 A 
ATOM     72  F   UNL A   1      48.395  28.929  34.330  1.00  0.00    -0.200 F 
ATOM     73  F   UNL A   1      48.439  26.644  35.818  1.00  0.00    -0.200 F 
ENDBRANCH  40  63
ENDBRANCH  14  15
ENDBRANCH   7   9
ENDBRANCH   4   5
ENDBRANCH   3   4
ENDBRANCH   2   3
ENDBRANCH   1   2
BRANCH   1  74
ATOM     74  C   UNL A   1      33.382  24.609  25.630  1.00  0.00     0.021 C 
BRANCH  74  75
ATOM     75  C   UNL A   1      34.376  25.166  24.615  1.00  0.00     0.116 C 
BRANCH  75  76
ATOM     76  N   UNL A   1      34.285  24.485  23.335  1.00  0.00    -0.352 N 
ATOM     77  C   UNL A   1      33.300  24.578  22.387  1.00  0.00     0.252 C 
ATOM     78  H   UNL A   1      35.028  23.877  23.121  1.00  0.00     0.163 HD
ATOM     79  O   UNL A   1      33.267  23.806  21.435  1.00  0.00    -0.269 OA
BRANCH  77  80
ATOM     80  C   UNL A   1      32.270  25.613  22.526  1.00  0.00     0.058 A 
ATOM     81  C   UNL A   1      32.518  26.947  22.205  1.00  0.00     0.017 A 
ATOM     82  C   UNL A   1      31.020  25.258  22.996  1.00  0.00     0.125 A 
ATOM     83  C   UNL A   1      31.517  27.889  22.419  1.00  0.00     0.030 A 
ATOM     84  N   UNL A   1      30.035  26.157  23.221  1.00  0.00    -0.255 NA
ATOM     85  C   UNL A   1      30.294  27.464  22.936  1.00  0.00     0.094 A 
BRANCH  85  86
ATOM     86  C   UNL A   1      29.178  28.467  23.174  1.00  0.00     0.318 C 
BRANCH  86  87
ATOM     87  N   UNL A   1      29.088  29.429  22.072  1.00  0.00    -0.331 N 
ATOM     88  H   UNL A   1      29.061  28.909  21.195  1.00  0.00     0.347 HD
ATOM     89  H   UNL A   1      29.904  30.037  22.144  1.00  0.00     0.347 HD
BRANCH  87  90
ATOM     90  C   UNL A   1      27.901  30.301  22.129  1.00  0.00     0.272 C 
ATOM     91  C   UNL A   1      27.795  30.867  23.549  1.00  0.00     0.077 C 
ATOM     92  C   UNL A   1      27.991  31.439  21.093  1.00  0.00     0.278 C 
ATOM     93  C   UNL A   1      28.927  31.856  23.816  1.00  0.00     0.028 C 
ATOM     94  N   UNL A   1      28.570  32.615  21.477  1.00  0.00    -0.351 N 
ATOM     95  O   UNL A   1      27.639  31.285  19.922  1.00  0.00    -0.268 OA
ATOM     96  C   UNL A   1      28.833  33.016  22.839  1.00  0.00     0.116 C 
ATOM     97  H   UNL A   1      28.831  33.242  20.764  1.00  0.00     0.163 HD
ENDBRANCH  87  90
ENDBRANCH  86  87
ENDBRANCH  85  86
ENDBRANCH  77  80
ENDBRANCH  75  76
ENDBRANCH  74  75
ENDBRANCH   1  74
TORSDOF 16
ENDMDL
MODEL 3
REMARK VINA RESULT:     -11.5      5.385     10.651
REMARK SMILES O=C(NCCCCCCNC(=O)c1ccc(C[NH2+][C@H]2CCCNC2=O)nc1)c1ccc(-c2c3nc(c(-c4c(F)c(F)c(F)c(F)c4F)c4ccc([nH]4)c(-c4c(F)c(F)c(F)c(F)c4F)c4nc(c(-c5c(F)c(F)c(F)c(F)c5F)c5ccc2[nH]5)C=C4)C=C3)cc1
REMARK SMILES IDX 7 1 6 2 5 3 4 4 3 5 1 6 2 7 28 9 29 10 90 11 30 12 89 13
REMARK SMILES IDX 31 14 32 15 33 16 83 17 34 18 88 19 82 20 84 21 35 22 87 23
REMARK SMILES IDX 81 24 80 25 36 27 68 28 48 29 67 30 49 31 52 32 66 33 85 34
REMARK SMILES IDX 50 35 51 36 65 38 86 39 53 40 37 41 38 42 46 43 39 44 40 45
REMARK SMILES IDX 44 46 47 47 41 48 42 49 45 50 43 51 69 52 70 53 78 54 71 55
REMARK SMILES IDX 72 56 76 57 79 58 73 59 74 60 77 61 75 62 54 63 55 64 63 65
REMARK SMILES IDX 56 66 57 67 61 68 64 69 58 70 59 71 62 72 60 73 8 74 9 75
REMARK SMILES IDX 10 76 11 77 12 79 13 80 14 81 27 82 15 83 26 84 16 85 17 86
REMARK SMILES IDX 18 87 19 90 20 91 24 92 21 93 23 94 25 95 22 96
REMARK H PARENT 3 8 84 26 52 37 10 78 18 88 18 89 23 97
REMARK Flexibility Score: inf
ROOT
ATOM      1  C   UNL A   1      31.676  29.889  25.475  1.00  0.00     0.002 C 
ENDROOT
BRANCH   1   2
ATOM      2  C   UNL A   1      31.793  30.552  26.850  1.00  0.00     0.002 C 
BRANCH   2   3
ATOM      3  C   UNL A   1      31.486  32.049  26.885  1.00  0.00     0.021 C 
BRANCH   3   4
ATOM      4  C   UNL A   1      32.710  32.954  26.912  1.00  0.00     0.116 C 
BRANCH   4   5
ATOM      5  N   UNL A   1      32.455  34.217  27.585  1.00  0.00    -0.352 N 
ATOM      6  O   UNL A   1      32.610  35.751  29.235  1.00  0.00    -0.269 OA
ATOM      7  C   UNL A   1      33.054  34.738  28.705  1.00  0.00     0.251 C 
ATOM      8  H   UNL A   1      31.753  34.778  27.182  1.00  0.00     0.163 HD
BRANCH   7   9
ATOM      9  C   UNL A   1      34.231  34.058  29.288  1.00  0.00     0.039 A 
ATOM     10  C   UNL A   1      34.071  32.996  30.181  1.00  0.00     0.014 A 
ATOM     11  C   UNL A   1      35.511  34.485  28.925  1.00  0.00     0.014 A 
ATOM     12  C   UNL A   1      35.184  32.451  30.812  1.00  0.00     0.010 A 
ATOM     13  C   UNL A   1      36.633  33.879  29.496  1.00  0.00     0.010 A 
ATOM     14  C   UNL A   1      36.477  32.875  30.464  1.00  0.00    -0.014 A 
BRANCH  14  15
ATOM     15  C   UNL A   1      37.650  32.199  31.072  1.00  0.00     0.031 A 
ATOM     16  C   UNL A   1      38.109  32.534  32.462  1.00  0.00     0.074 A 
ATOM     17  C   UNL A   1      38.293  31.258  30.354  1.00  0.00     0.049 A 
ATOM     18  N   UNL A   1      39.105  32.026  33.145  1.00  0.00    -0.248 NA
ATOM     19  C   UNL A   1      37.361  33.578  33.177  1.00  0.00     0.031 C 
ATOM     20  C   UNL A   1      37.942  30.863  28.988  1.00  0.00     0.029 A 
ATOM     21  N   UNL A   1      39.357  30.456  30.671  1.00  0.00    -0.354 N 
ATOM     22  C   UNL A   1      39.114  32.698  34.361  1.00  0.00     0.074 A 
ATOM     23  C   UNL A   1      38.041  33.669  34.312  1.00  0.00     0.031 C 
ATOM     24  C   UNL A   1      38.747  29.862  28.601  1.00  0.00     0.029 A 
ATOM     25  C   UNL A   1      39.707  29.591  29.665  1.00  0.00     0.049 A 
ATOM     26  H   UNL A   1      39.826  30.497  31.535  1.00  0.00     0.167 HD
ATOM     27  C   UNL A   1      39.939  32.512  35.420  1.00  0.00     0.037 A 
ATOM     28  C   UNL A   1      40.702  28.687  29.597  1.00  0.00     0.037 A 
ATOM     29  C   UNL A   1      40.998  31.535  35.462  1.00  0.00     0.049 A 
ATOM     30  C   UNL A   1      41.618  28.524  30.773  1.00  0.00     0.074 A 
ATOM     31  C   UNL A   1      41.861  31.241  36.504  1.00  0.00     0.029 A 
ATOM     32  N   UNL A   1      41.346  30.700  34.410  1.00  0.00    -0.354 N 
ATOM     33  N   UNL A   1      41.591  29.136  31.933  1.00  0.00    -0.248 NA
ATOM     34  C   UNL A   1      42.706  27.548  30.631  1.00  0.00     0.031 C 
ATOM     35  C   UNL A   1      42.762  30.265  36.065  1.00  0.00     0.029 A 
ATOM     36  C   UNL A   1      42.429  29.910  34.768  1.00  0.00     0.049 A 
ATOM     37  H   UNL A   1      40.891  30.671  33.538  1.00  0.00     0.167 HD
ATOM     38  C   UNL A   1      42.646  28.611  32.664  1.00  0.00     0.074 A 
ATOM     39  C   UNL A   1      43.280  27.615  31.824  1.00  0.00     0.031 C 
ATOM     40  C   UNL A   1      43.053  28.928  33.918  1.00  0.00     0.037 A 
BRANCH  27  41
ATOM     41  C   UNL A   1      39.744  33.399  36.617  1.00  0.00     0.064 A 
ATOM     42  C   UNL A   1      40.430  34.616  36.755  1.00  0.00     0.173 A 
ATOM     43  C   UNL A   1      38.830  33.045  37.622  1.00  0.00     0.173 A 
ATOM     44  F   UNL A   1      41.322  34.998  35.830  1.00  0.00    -0.203 F 
ATOM     45  C   UNL A   1      40.229  35.430  37.869  1.00  0.00     0.198 A 
ATOM     46  C   UNL A   1      38.611  33.875  38.718  1.00  0.00     0.198 A 
ATOM     47  F   UNL A   1      38.142  31.897  37.535  1.00  0.00    -0.203 F 
ATOM     48  F   UNL A   1      40.931  36.563  38.004  1.00  0.00    -0.200 F 
ATOM     49  C   UNL A   1      39.316  35.061  38.846  1.00  0.00     0.200 A 
ATOM     50  F   UNL A   1      37.719  33.523  39.655  1.00  0.00    -0.200 F 
ATOM     51  F   UNL A   1      39.122  35.847  39.914  1.00  0.00    -0.200 F 
ENDBRANCH  27  41
BRANCH  28  52
ATOM     52  C   UNL A   1      40.867  27.873  28.367  1.00  0.00     0.064 A 
ATOM     53  C   UNL A   1      41.657  28.328  27.303  1.00  0.00     0.173 A 
ATOM     54  C   UNL A   1      40.266  26.611  28.242  1.00  0.00     0.173 A 
ATOM     55  F   UNL A   1      42.238  29.535  27.369  1.00  0.00    -0.203 F 
ATOM     56  C   UNL A   1      41.834  27.555  26.157  1.00  0.00     0.198 A 
ATOM     57  C   UNL A   1      40.467  25.828  27.110  1.00  0.00     0.198 A 
ATOM     58  F   UNL A   1      39.506  26.129  29.237  1.00  0.00    -0.203 F 
ATOM     59  F   UNL A   1      42.567  28.027  25.141  1.00  0.00    -0.200 F 
ATOM     60  C   UNL A   1      41.246  26.301  26.065  1.00  0.00     0.200 A 
ATOM     61  F   UNL A   1      39.913  24.610  27.033  1.00  0.00    -0.200 F 
ATOM     62  F   UNL A   1      41.428  25.553  24.970  1.00  0.00    -0.200 F 
ENDBRANCH  28  52
BRANCH  40  63
ATOM     63  C   UNL A   1      44.229  28.170  34.462  1.00  0.00     0.064 A 
ATOM     64  C   UNL A   1      45.538  28.659  34.338  1.00  0.00     0.173 A 
ATOM     65  C   UNL A   1      44.041  26.954  35.136  1.00  0.00     0.173 A 
ATOM     66  F   UNL A   1      45.772  29.807  33.685  1.00  0.00    -0.203 F 
ATOM     67  C   UNL A   1      46.619  27.942  34.845  1.00  0.00     0.198 A 
ATOM     68  C   UNL A   1      45.121  26.256  35.669  1.00  0.00     0.198 A 
ATOM     69  F   UNL A   1      42.808  26.447  35.286  1.00  0.00    -0.203 F 
ATOM     70  F   UNL A   1      47.866  28.401  34.670  1.00  0.00    -0.200 F 
ATOM     71  C   UNL A   1      46.409  26.746  35.516  1.00  0.00     0.200 A 
ATOM     72  F   UNL A   1      44.916  25.107  36.326  1.00  0.00    -0.200 F 
ATOM     73  F   UNL A   1      47.451  26.060  36.006  1.00  0.00    -0.200 F 
ENDBRANCH  40  63
ENDBRANCH  14  15
ENDBRANCH   7   9
ENDBRANCH   4   5
ENDBRANCH   3   4
ENDBRANCH   2   3
ENDBRANCH   1   2
BRANCH   1  74
ATOM     74  C   UNL A   1      32.983  29.342  24.891  1.00  0.00     0.021 C 
BRANCH  74  75
ATOM     75  C   UNL A   1      32.940  29.027  23.399  1.00  0.00     0.116 C 
BRANCH  75  76
ATOM     76  N   UNL A   1      31.614  29.220  22.840  1.00  0.00    -0.352 N 
ATOM     77  C   UNL A   1      30.624  28.291  22.651  1.00  0.00     0.252 C 
ATOM     78  H   UNL A   1      31.397  30.138  22.560  1.00  0.00     0.163 HD
ATOM     79  O   UNL A   1      29.621  28.563  22.001  1.00  0.00    -0.269 OA
BRANCH  77  80
ATOM     80  C   UNL A   1      30.779  26.953  23.230  1.00  0.00     0.058 A 
ATOM     81  C   UNL A   1      31.484  25.945  22.574  1.00  0.00     0.017 A 
ATOM     82  C   UNL A   1      30.202  26.679  24.456  1.00  0.00     0.125 A 
ATOM     83  C   UNL A   1      31.540  24.678  23.149  1.00  0.00     0.030 A 
ATOM     84  N   UNL A   1      30.236  25.454  25.028  1.00  0.00    -0.255 NA
ATOM     85  C   UNL A   1      30.899  24.465  24.368  1.00  0.00     0.094 A 
BRANCH  85  86
ATOM     86  C   UNL A   1      30.949  23.095  25.025  1.00  0.00     0.318 C 
BRANCH  86  87
ATOM     87  N   UNL A   1      32.332  22.653  25.221  1.00  0.00    -0.331 N 
ATOM     88  H   UNL A   1      32.412  22.256  26.157  1.00  0.00     0.347 HD
ATOM     89  H   UNL A   1      32.925  23.472  25.089  1.00  0.00     0.347 HD
BRANCH  87  90
ATOM     90  C   UNL A   1      32.784  21.640  24.250  1.00  0.00     0.272 C 
ATOM     91  C   UNL A   1      34.096  22.131  23.628  1.00  0.00     0.077 C 
ATOM     92  C   UNL A   1      32.977  20.267  24.921  1.00  0.00     0.278 C 
ATOM     93  C   UNL A   1      35.220  22.102  24.661  1.00  0.00     0.028 C 
ATOM     94  N   UNL A   1      34.208  19.968  25.434  1.00  0.00    -0.351 N 
ATOM     95  O   UNL A   1      32.041  19.481  25.082  1.00  0.00    -0.268 OA
ATOM     96  C   UNL A   1      35.433  20.677  25.145  1.00  0.00     0.116 C 
ATOM     97  H   UNL A   1      34.264  19.205  26.055  1.00  0.00     0.163 HD
ENDBRANCH  87  90
ENDBRANCH  86  87
ENDBRANCH  85  86
ENDBRANCH  77  80
ENDBRANCH  75  76
ENDBRANCH  74  75
ENDBRANCH   1  74
TORSDOF 16
ENDMDL
