MODEL 1
REMARK VINA RESULT:     -13.3      0.000      0.000
REMARK SMILES Cc1ccc2c(=O)c3cccc(CC(=O)NCCCCCCNC(=O)c4ccc(-c5c6nc(c(-c7c(F)c(F)c(F)c(F)c7F)c7ccc([nH]7)c(-c7c(F)c(F)c(F)c(F)c7F)c7nc(c(-c8c(F)c(F)c(F)c(F)c8F)c8ccc5[nH]8)C=C7)C=C6)cc4)c3oc2c1C
REMARK SMILES IDX 20 1 19 2 18 3 17 4 16 5 14 6 15 7 13 9 12 10 1 11 2 12 3 13
REMARK SMILES IDX 92 14 4 15 91 16 93 17 5 18 90 19 6 20 89 21 7 22 8 23 9 24
REMARK SMILES IDX 11 25 10 26 21 27 22 28 23 29 24 30 25 32 26 33 27 34 88 35
REMARK SMILES IDX 28 36 87 37 29 38 30 39 31 40 81 41 32 42 86 43 80 44 82 45
REMARK SMILES IDX 33 46 85 47 79 48 78 49 34 51 66 52 46 53 65 54 47 55 50 56
REMARK SMILES IDX 64 57 83 58 48 59 49 60 63 62 84 63 51 64 35 65 36 66 44 67
REMARK SMILES IDX 37 68 38 69 42 70 45 71 39 72 40 73 43 74 41 75 67 76 68 77
REMARK SMILES IDX 76 78 69 79 70 80 74 81 77 82 71 83 72 84 75 85 73 86 52 87
REMARK SMILES IDX 53 88 61 89 54 90 55 91 59 92 62 93 56 94 57 95 60 96 58 97
REMARK H PARENT 16 8 23 31 82 50 50 61
REMARK Flexibility Score: inf
ROOT
ATOM      1  C   UNL A   1      37.060  21.045  24.664  1.00  0.00     0.002 C 
ENDROOT
BRANCH   1   2
ATOM      2  C   UNL A   1      35.565  20.829  24.932  1.00  0.00     0.002 C 
BRANCH   2   3
ATOM      3  C   UNL A   1      34.941  21.747  25.993  1.00  0.00     0.021 C 
BRANCH   3   4
ATOM      4  C   UNL A   1      33.629  21.223  26.579  1.00  0.00     0.116 C 
BRANCH   4   5
ATOM      5  N   UNL A   1      32.904  22.269  27.271  1.00  0.00    -0.356 N 
ATOM      6  C   UNL A   1      31.799  22.968  26.880  1.00  0.00     0.224 C 
ATOM      7  O   UNL A   1      31.364  23.834  27.642  1.00  0.00    -0.275 OA
ATOM      8  H   UNL A   1      33.260  22.511  28.156  1.00  0.00     0.163 HD
BRANCH   6   9
ATOM      9  C   UNL A   1      31.076  22.616  25.590  1.00  0.00     0.139 C 
BRANCH   9  10
ATOM     10  C   UNL A   1      31.809  22.948  24.307  1.00  0.00     0.005 A 
ATOM     11  C   UNL A   1      31.804  30.005  26.217  1.00  0.00     0.045 C 
ATOM     12  C   UNL A   1      32.180  28.891  25.277  1.00  0.00    -0.044 A 
ATOM     13  C   UNL A   1      32.873  29.227  24.100  1.00  0.00     0.005 A 
ATOM     14  C   UNL A   1      31.903  27.533  25.557  1.00  0.00    -0.005 A 
ATOM     15  C   UNL A   1      33.262  28.244  23.195  1.00  0.00     0.016 A 
ATOM     16  C   UNL A   1      32.281  26.546  24.620  1.00  0.00     0.141 A 
ATOM     17  C   UNL A   1      31.205  27.099  26.823  1.00  0.00     0.049 C 
ATOM     18  C   UNL A   1      32.958  26.909  23.457  1.00  0.00     0.066 A 
ATOM     19  O   UNL A   1      31.953  25.240  24.917  1.00  0.00    -0.455 OA
ATOM     20  C   UNL A   1      33.347  25.863  22.505  1.00  0.00     0.200 A 
ATOM     21  C   UNL A   1      32.236  24.252  24.004  1.00  0.00     0.142 A 
ATOM     22  O   UNL A   1      33.994  26.117  21.496  1.00  0.00    -0.288 OA
ATOM     23  C   UNL A   1      32.916  24.494  22.810  1.00  0.00     0.066 A 
ATOM     24  C   UNL A   1      33.176  23.461  21.905  1.00  0.00     0.016 A 
ATOM     25  C   UNL A   1      32.040  21.923  23.369  1.00  0.00     0.008 A 
ATOM     26  C   UNL A   1      32.730  22.174  22.184  1.00  0.00     0.001 A 
ENDBRANCH   9  10
ENDBRANCH   6   9
ENDBRANCH   4   5
ENDBRANCH   3   4
ENDBRANCH   2   3
ENDBRANCH   1   2
BRANCH   1  27
ATOM     27  C   UNL A   1      37.966  19.866  25.016  1.00  0.00     0.021 C 
BRANCH  27  28
ATOM     28  C   UNL A   1      39.219  20.232  25.805  1.00  0.00     0.116 C 
BRANCH  28  29
ATOM     29  N   UNL A   1      40.210  19.166  25.819  1.00  0.00    -0.352 N 
ATOM     30  C   UNL A   1      41.561  19.237  26.068  1.00  0.00     0.251 C 
ATOM     31  H   UNL A   1      39.863  18.266  25.622  1.00  0.00     0.163 HD
ATOM     32  O   UNL A   1      42.275  18.253  25.897  1.00  0.00    -0.269 OA
BRANCH  30  33
ATOM     33  C   UNL A   1      42.162  20.517  26.506  1.00  0.00     0.039 A 
ATOM     34  C   UNL A   1      42.223  20.851  27.859  1.00  0.00     0.014 A 
ATOM     35  C   UNL A   1      42.653  21.404  25.542  1.00  0.00     0.014 A 
ATOM     36  C   UNL A   1      42.611  22.132  28.235  1.00  0.00     0.010 A 
ATOM     37  C   UNL A   1      43.123  22.662  25.930  1.00  0.00     0.010 A 
ATOM     38  C   UNL A   1      43.056  23.057  27.276  1.00  0.00    -0.014 A 
BRANCH  38  39
ATOM     39  C   UNL A   1      43.428  24.430  27.709  1.00  0.00     0.031 A 
ATOM     40  C   UNL A   1      44.867  24.874  27.712  1.00  0.00     0.074 A 
ATOM     41  C   UNL A   1      42.456  25.304  28.035  1.00  0.00     0.049 A 
ATOM     42  N   UNL A   1      45.367  26.049  28.005  1.00  0.00    -0.248 NA
ATOM     43  C   UNL A   1      45.878  23.872  27.342  1.00  0.00     0.031 C 
ATOM     44  C   UNL A   1      41.026  24.992  28.069  1.00  0.00     0.029 A 
ATOM     45  N   UNL A   1      42.515  26.633  28.368  1.00  0.00    -0.354 N 
ATOM     46  C   UNL A   1      46.744  25.923  27.871  1.00  0.00     0.074 A 
ATOM     47  C   UNL A   1      47.007  24.549  27.501  1.00  0.00     0.031 C 
ATOM     48  C   UNL A   1      40.340  26.110  28.348  1.00  0.00     0.029 A 
ATOM     49  C   UNL A   1      41.282  27.203  28.568  1.00  0.00     0.049 A 
ATOM     50  H   UNL A   1      43.360  27.130  28.455  1.00  0.00     0.167 HD
ATOM     51  C   UNL A   1      47.698  26.870  28.028  1.00  0.00     0.037 A 
ATOM     52  C   UNL A   1      40.944  28.465  28.898  1.00  0.00     0.037 A 
ATOM     53  C   UNL A   1      47.432  28.245  28.364  1.00  0.00     0.049 A 
ATOM     54  C   UNL A   1      42.027  29.489  29.093  1.00  0.00     0.074 A 
ATOM     55  C   UNL A   1      48.333  29.287  28.500  1.00  0.00     0.029 A 
ATOM     56  N   UNL A   1      46.173  28.768  28.615  1.00  0.00    -0.354 N 
ATOM     57  N   UNL A   1      43.321  29.360  28.937  1.00  0.00    -0.248 NA
ATOM     58  C   UNL A   1      41.602  30.829  29.519  1.00  0.00     0.031 C 
ATOM     59  C   UNL A   1      47.625  30.432  28.875  1.00  0.00     0.029 A 
ATOM     60  C   UNL A   1      46.277  30.114  28.931  1.00  0.00     0.049 A 
ATOM     61  H   UNL A   1      45.331  28.261  28.575  1.00  0.00     0.167 HD
ATOM     62  C   UNL A   1      43.866  30.599  29.241  1.00  0.00     0.074 A 
ATOM     63  C   UNL A   1      42.760  31.476  29.566  1.00  0.00     0.031 C 
ATOM     64  C   UNL A   1      45.168  30.972  29.257  1.00  0.00     0.037 A 
BRANCH  51  65
ATOM     65  C   UNL A   1      49.130  26.467  27.837  1.00  0.00     0.064 A 
ATOM     66  C   UNL A   1      49.697  26.355  26.559  1.00  0.00     0.173 A 
ATOM     67  C   UNL A   1      49.968  26.272  28.947  1.00  0.00     0.173 A 
ATOM     68  F   UNL A   1      48.937  26.522  25.467  1.00  0.00    -0.203 F 
ATOM     69  C   UNL A   1      51.047  26.052  26.400  1.00  0.00     0.198 A 
ATOM     70  C   UNL A   1      51.322  25.994  28.783  1.00  0.00     0.198 A 
ATOM     71  F   UNL A   1      49.476  26.376  30.191  1.00  0.00    -0.203 F 
ATOM     72  F   UNL A   1      51.562  25.925  25.169  1.00  0.00    -0.200 F 
ATOM     73  C   UNL A   1      51.860  25.882  27.511  1.00  0.00     0.200 A 
ATOM     74  F   UNL A   1      52.109  25.844  29.858  1.00  0.00    -0.200 F 
ATOM     75  F   UNL A   1      53.162  25.610  27.354  1.00  0.00    -0.200 F 
ENDBRANCH  51  65
BRANCH  52  76
ATOM     76  C   UNL A   1      39.511  28.822  29.058  1.00  0.00     0.064 A 
ATOM     77  C   UNL A   1      38.876  28.714  30.302  1.00  0.00     0.173 A 
ATOM     78  C   UNL A   1      38.758  29.307  27.979  1.00  0.00     0.173 A 
ATOM     79  F   UNL A   1      39.550  28.236  31.358  1.00  0.00    -0.203 F 
ATOM     80  C   UNL A   1      37.540  29.074  30.460  1.00  0.00     0.198 A 
ATOM     81  C   UNL A   1      37.430  29.693  28.144  1.00  0.00     0.198 A 
ATOM     82  F   UNL A   1      39.322  29.431  26.768  1.00  0.00    -0.203 F 
ATOM     83  F   UNL A   1      36.947  28.933  31.653  1.00  0.00    -0.200 F 
ATOM     84  C   UNL A   1      36.821  29.571  29.383  1.00  0.00     0.200 A 
ATOM     85  F   UNL A   1      36.745  30.188  27.105  1.00  0.00    -0.200 F 
ATOM     86  F   UNL A   1      35.539  29.932  29.539  1.00  0.00    -0.200 F 
ENDBRANCH  52  76
BRANCH  64  87
ATOM     87  C   UNL A   1      45.478  32.388  29.641  1.00  0.00     0.064 A 
ATOM     88  C   UNL A   1      45.471  33.418  28.689  1.00  0.00     0.173 A 
ATOM     89  C   UNL A   1      45.707  32.731  30.981  1.00  0.00     0.173 A 
ATOM     90  F   UNL A   1      45.269  33.135  27.393  1.00  0.00    -0.203 F 
ATOM     91  C   UNL A   1      45.690  34.740  29.064  1.00  0.00     0.198 A 
ATOM     92  C   UNL A   1      45.901  34.058  31.357  1.00  0.00     0.198 A 
ATOM     93  F   UNL A   1      45.717  31.783  31.930  1.00  0.00    -0.203 F 
ATOM     94  F   UNL A   1      45.706  35.705  28.134  1.00  0.00    -0.200 F 
ATOM     95  C   UNL A   1      45.896  35.059  30.399  1.00  0.00     0.200 A 
ATOM     96  F   UNL A   1      46.086  34.367  32.648  1.00  0.00    -0.200 F 
ATOM     97  F   UNL A   1      46.089  36.335  30.760  1.00  0.00    -0.200 F 
ENDBRANCH  64  87
ENDBRANCH  38  39
ENDBRANCH  30  33
ENDBRANCH  28  29
ENDBRANCH  27  28
ENDBRANCH   1  27
TORSDOF 14
ENDMDL
MODEL 2
REMARK VINA RESULT:     -13.2      0.789      2.094
REMARK SMILES Cc1ccc2c(=O)c3cccc(CC(=O)NCCCCCCNC(=O)c4ccc(-c5c6nc(c(-c7c(F)c(F)c(F)c(F)c7F)c7ccc([nH]7)c(-c7c(F)c(F)c(F)c(F)c7F)c7nc(c(-c8c(F)c(F)c(F)c(F)c8F)c8ccc5[nH]8)C=C7)C=C6)cc4)c3oc2c1C
REMARK SMILES IDX 20 1 19 2 18 3 17 4 16 5 14 6 15 7 13 9 12 10 1 11 2 12 3 13
REMARK SMILES IDX 92 14 4 15 91 16 93 17 5 18 90 19 6 20 89 21 7 22 8 23 9 24
REMARK SMILES IDX 11 25 10 26 21 27 22 28 23 29 24 30 25 32 26 33 27 34 88 35
REMARK SMILES IDX 28 36 87 37 29 38 30 39 31 40 81 41 32 42 86 43 80 44 82 45
REMARK SMILES IDX 33 46 85 47 79 48 78 49 34 51 66 52 46 53 65 54 47 55 50 56
REMARK SMILES IDX 64 57 83 58 48 59 49 60 63 62 84 63 51 64 35 65 36 66 44 67
REMARK SMILES IDX 37 68 38 69 42 70 45 71 39 72 40 73 43 74 41 75 67 76 68 77
REMARK SMILES IDX 76 78 69 79 70 80 74 81 77 82 71 83 72 84 75 85 73 86 52 87
REMARK SMILES IDX 53 88 61 89 54 90 55 91 59 92 62 93 56 94 57 95 60 96 58 97
REMARK H PARENT 16 8 23 31 82 50 50 61
REMARK Flexibility Score: inf
ROOT
ATOM      1  C   UNL A   1      36.987  21.456  24.347  1.00  0.00     0.002 C 
ENDROOT
BRANCH   1   2
ATOM      2  C   UNL A   1      35.488  21.568  24.652  1.00  0.00     0.002 C 
BRANCH   2   3
ATOM      3  C   UNL A   1      35.097  21.408  26.128  1.00  0.00     0.021 C 
BRANCH   3   4
ATOM      4  C   UNL A   1      33.620  21.083  26.353  1.00  0.00     0.116 C 
BRANCH   4   5
ATOM      5  N   UNL A   1      32.965  22.106  27.142  1.00  0.00    -0.356 N 
ATOM      6  C   UNL A   1      31.885  22.882  26.838  1.00  0.00     0.224 C 
ATOM      7  O   UNL A   1      31.514  23.708  27.674  1.00  0.00    -0.275 OA
ATOM      8  H   UNL A   1      33.358  22.265  28.030  1.00  0.00     0.163 HD
BRANCH   6   9
ATOM      9  C   UNL A   1      31.109  22.662  25.550  1.00  0.00     0.139 C 
BRANCH   9  10
ATOM     10  C   UNL A   1      31.832  23.026  24.270  1.00  0.00     0.005 A 
ATOM     11  C   UNL A   1      31.879  30.027  26.376  1.00  0.00     0.045 C 
ATOM     12  C   UNL A   1      32.240  28.938  25.402  1.00  0.00    -0.044 A 
ATOM     13  C   UNL A   1      32.923  29.303  24.228  1.00  0.00     0.005 A 
ATOM     14  C   UNL A   1      31.959  27.573  25.646  1.00  0.00    -0.005 A 
ATOM     15  C   UNL A   1      33.300  28.344  23.292  1.00  0.00     0.016 A 
ATOM     16  C   UNL A   1      32.324  26.612  24.679  1.00  0.00     0.141 A 
ATOM     17  C   UNL A   1      31.271  27.107  26.906  1.00  0.00     0.049 C 
ATOM     18  C   UNL A   1      32.992  27.004  23.520  1.00  0.00     0.066 A 
ATOM     19  O   UNL A   1      31.992  25.300  24.942  1.00  0.00    -0.455 OA
ATOM     20  C   UNL A   1      33.367  25.984  22.535  1.00  0.00     0.200 A 
ATOM     21  C   UNL A   1      32.262  24.336  24.000  1.00  0.00     0.142 A 
ATOM     22  O   UNL A   1      34.006  26.263  21.528  1.00  0.00    -0.288 OA
ATOM     23  C   UNL A   1      32.933  24.608  22.806  1.00  0.00     0.066 A 
ATOM     24  C   UNL A   1      33.179  23.600  21.870  1.00  0.00     0.016 A 
ATOM     25  C   UNL A   1      32.049  22.027  23.301  1.00  0.00     0.008 A 
ATOM     26  C   UNL A   1      32.730  22.308  22.117  1.00  0.00     0.001 A 
ENDBRANCH   9  10
ENDBRANCH   6   9
ENDBRANCH   4   5
ENDBRANCH   3   4
ENDBRANCH   2   3
ENDBRANCH   1   2
BRANCH   1  27
ATOM     27  C   UNL A   1      37.691  20.243  24.957  1.00  0.00     0.021 C 
BRANCH  27  28
ATOM     28  C   UNL A   1      38.915  20.571  25.806  1.00  0.00     0.116 C 
BRANCH  28  29
ATOM     29  N   UNL A   1      39.878  19.482  25.854  1.00  0.00    -0.352 N 
ATOM     30  C   UNL A   1      41.238  19.531  26.057  1.00  0.00     0.251 C 
ATOM     31  H   UNL A   1      39.503  18.581  25.721  1.00  0.00     0.163 HD
ATOM     32  O   UNL A   1      41.921  18.519  25.924  1.00  0.00    -0.269 OA
BRANCH  30  33
ATOM     33  C   UNL A   1      41.885  20.817  26.400  1.00  0.00     0.039 A 
ATOM     34  C   UNL A   1      42.211  21.122  27.722  1.00  0.00     0.014 A 
ATOM     35  C   UNL A   1      42.148  21.740  25.382  1.00  0.00     0.014 A 
ATOM     36  C   UNL A   1      42.637  22.406  28.047  1.00  0.00     0.010 A 
ATOM     37  C   UNL A   1      42.657  23.002  25.703  1.00  0.00     0.010 A 
ATOM     38  C   UNL A   1      42.855  23.365  27.044  1.00  0.00    -0.014 A 
BRANCH  38  39
ATOM     39  C   UNL A   1      43.275  24.738  27.431  1.00  0.00     0.031 A 
ATOM     40  C   UNL A   1      44.671  25.225  27.149  1.00  0.00     0.074 A 
ATOM     41  C   UNL A   1      42.370  25.572  27.978  1.00  0.00     0.049 A 
ATOM     42  N   UNL A   1      45.191  26.408  27.366  1.00  0.00    -0.248 NA
ATOM     43  C   UNL A   1      45.608  24.264  26.547  1.00  0.00     0.031 C 
ATOM     44  C   UNL A   1      40.987  25.216  28.300  1.00  0.00     0.029 A 
ATOM     45  N   UNL A   1      42.464  26.894  28.332  1.00  0.00    -0.354 N 
ATOM     46  C   UNL A   1      46.513  26.328  26.946  1.00  0.00     0.074 A 
ATOM     47  C   UNL A   1      46.727  24.972  26.488  1.00  0.00     0.031 C 
ATOM     48  C   UNL A   1      40.346  26.305  28.748  1.00  0.00     0.029 A 
ATOM     49  C   UNL A   1      41.286  27.421  28.801  1.00  0.00     0.049 A 
ATOM     50  H   UNL A   1      43.295  27.415  28.256  1.00  0.00     0.167 HD
ATOM     51  C   UNL A   1      47.454  27.300  26.930  1.00  0.00     0.037 A 
ATOM     52  C   UNL A   1      40.992  28.663  29.231  1.00  0.00     0.037 A 
ATOM     53  C   UNL A   1      47.230  28.658  27.355  1.00  0.00     0.049 A 
ATOM     54  C   UNL A   1      42.065  29.715  29.227  1.00  0.00     0.074 A 
ATOM     55  C   UNL A   1      48.113  29.723  27.332  1.00  0.00     0.029 A 
ATOM     56  N   UNL A   1      46.038  29.136  27.877  1.00  0.00    -0.354 N 
ATOM     57  N   UNL A   1      43.302  29.631  28.802  1.00  0.00    -0.248 NA
ATOM     58  C   UNL A   1      41.705  31.031  29.773  1.00  0.00     0.031 C 
ATOM     59  C   UNL A   1      47.469  30.837  27.879  1.00  0.00     0.029 A 
ATOM     60  C   UNL A   1      46.171  30.476  28.205  1.00  0.00     0.049 A 
ATOM     61  H   UNL A   1      45.219  28.603  27.997  1.00  0.00     0.167 HD
ATOM     62  C   UNL A   1      43.866  30.878  29.023  1.00  0.00     0.074 A 
ATOM     63  C   UNL A   1      42.830  31.712  29.597  1.00  0.00     0.031 C 
ATOM     64  C   UNL A   1      45.133  31.291  28.780  1.00  0.00     0.037 A 
BRANCH  51  65
ATOM     65  C   UNL A   1      48.825  26.946  26.433  1.00  0.00     0.064 A 
ATOM     66  C   UNL A   1      49.794  26.396  27.283  1.00  0.00     0.173 A 
ATOM     67  C   UNL A   1      49.144  27.081  25.072  1.00  0.00     0.173 A 
ATOM     68  F   UNL A   1      49.543  26.256  28.593  1.00  0.00    -0.203 F 
ATOM     69  C   UNL A   1      51.037  26.003  26.791  1.00  0.00     0.198 A 
ATOM     70  C   UNL A   1      50.378  26.664  24.581  1.00  0.00     0.198 A 
ATOM     71  F   UNL A   1      48.248  27.594  24.215  1.00  0.00    -0.203 F 
ATOM     72  F   UNL A   1      51.957  25.502  27.627  1.00  0.00    -0.200 F 
ATOM     73  C   UNL A   1      51.323  26.128  25.440  1.00  0.00     0.200 A 
ATOM     74  F   UNL A   1      50.648  26.773  23.272  1.00  0.00    -0.200 F 
ATOM     75  F   UNL A   1      52.513  25.732  24.967  1.00  0.00    -0.200 F 
ENDBRANCH  51  65
BRANCH  52  76
ATOM     76  C   UNL A   1      39.616  28.972  29.696  1.00  0.00     0.064 A 
ATOM     77  C   UNL A   1      38.657  29.492  28.816  1.00  0.00     0.173 A 
ATOM     78  C   UNL A   1      39.222  28.723  31.019  1.00  0.00     0.173 A 
ATOM     79  F   UNL A   1      38.992  29.765  27.547  1.00  0.00    -0.203 F 
ATOM     80  C   UNL A   1      37.358  29.755  29.244  1.00  0.00     0.198 A 
ATOM     81  C   UNL A   1      37.916  28.961  31.439  1.00  0.00     0.198 A 
ATOM     82  F   UNL A   1      40.103  28.223  31.898  1.00  0.00    -0.203 F 
ATOM     83  F   UNL A   1      36.467  30.281  28.391  1.00  0.00    -0.200 F 
ATOM     84  C   UNL A   1      36.986  29.481  30.552  1.00  0.00     0.200 A 
ATOM     85  F   UNL A   1      37.558  28.679  32.698  1.00  0.00    -0.200 F 
ATOM     86  F   UNL A   1      35.732  29.722  30.959  1.00  0.00    -0.200 F 
ENDBRANCH  52  76
BRANCH  64  87
ATOM     87  C   UNL A   1      45.481  32.706  29.133  1.00  0.00     0.064 A 
ATOM     88  C   UNL A   1      46.039  33.028  30.379  1.00  0.00     0.173 A 
ATOM     89  C   UNL A   1      45.328  33.736  28.193  1.00  0.00     0.173 A 
ATOM     90  F   UNL A   1      46.192  32.078  31.314  1.00  0.00    -0.203 F 
ATOM     91  C   UNL A   1      46.425  34.332  30.674  1.00  0.00     0.198 A 
ATOM     92  C   UNL A   1      45.738  35.035  28.482  1.00  0.00     0.198 A 
ATOM     93  F   UNL A   1      44.806  33.477  26.985  1.00  0.00    -0.203 F 
ATOM     94  F   UNL A   1      46.931  34.623  31.880  1.00  0.00    -0.200 F 
ATOM     95  C   UNL A   1      46.282  35.332  29.722  1.00  0.00     0.200 A 
ATOM     96  F   UNL A   1      45.614  35.996  27.558  1.00  0.00    -0.200 F 
ATOM     97  F   UNL A   1      46.671  36.584  30.002  1.00  0.00    -0.200 F 
ENDBRANCH  64  87
ENDBRANCH  38  39
ENDBRANCH  30  33
ENDBRANCH  28  29
ENDBRANCH  27  28
ENDBRANCH   1  27
TORSDOF 14
ENDMDL
MODEL 3
REMARK VINA RESULT:     -13.2      6.038     10.837
REMARK SMILES Cc1ccc2c(=O)c3cccc(CC(=O)NCCCCCCNC(=O)c4ccc(-c5c6nc(c(-c7c(F)c(F)c(F)c(F)c7F)c7ccc([nH]7)c(-c7c(F)c(F)c(F)c(F)c7F)c7nc(c(-c8c(F)c(F)c(F)c(F)c8F)c8ccc5[nH]8)C=C7)C=C6)cc4)c3oc2c1C
REMARK SMILES IDX 20 1 19 2 18 3 17 4 16 5 14 6 15 7 13 9 12 10 1 11 2 12 3 13
REMARK SMILES IDX 92 14 4 15 91 16 93 17 5 18 90 19 6 20 89 21 7 22 8 23 9 24
REMARK SMILES IDX 11 25 10 26 21 27 22 28 23 29 24 30 25 32 26 33 27 34 88 35
REMARK SMILES IDX 28 36 87 37 29 38 30 39 31 40 81 41 32 42 86 43 80 44 82 45
REMARK SMILES IDX 33 46 85 47 79 48 78 49 34 51 66 52 46 53 65 54 47 55 50 56
REMARK SMILES IDX 64 57 83 58 48 59 49 60 63 62 84 63 51 64 35 65 36 66 44 67
REMARK SMILES IDX 37 68 38 69 42 70 45 71 39 72 40 73 43 74 41 75 67 76 68 77
REMARK SMILES IDX 76 78 69 79 70 80 74 81 77 82 71 83 72 84 75 85 73 86 52 87
REMARK SMILES IDX 53 88 61 89 54 90 55 91 59 92 62 93 56 94 57 95 60 96 58 97
REMARK H PARENT 16 8 23 31 82 50 50 61
REMARK Flexibility Score: inf
ROOT
ATOM      1  C   UNL A   1      34.644  33.489  28.664  1.00  0.00     0.002 C 
ENDROOT
BRANCH   1   2
ATOM      2  C   UNL A   1      34.414  31.984  28.845  1.00  0.00     0.002 C 
BRANCH   2   3
ATOM      3  C   UNL A   1      34.709  31.114  27.615  1.00  0.00     0.021 C 
BRANCH   3   4
ATOM      4  C   UNL A   1      33.581  30.150  27.244  1.00  0.00     0.116 C 
BRANCH   4   5
ATOM      5  N   UNL A   1      33.627  29.795  25.841  1.00  0.00    -0.356 N 
ATOM      6  C   UNL A   1      33.833  28.579  25.256  1.00  0.00     0.224 C 
ATOM      7  O   UNL A   1      33.845  28.526  24.024  1.00  0.00    -0.275 OA
ATOM      8  H   UNL A   1      33.488  30.541  25.215  1.00  0.00     0.163 HD
BRANCH   6   9
ATOM      9  C   UNL A   1      33.944  27.322  26.101  1.00  0.00     0.139 C 
BRANCH   9  10
ATOM     10  C   UNL A   1      32.776  26.361  26.017  1.00  0.00     0.005 A 
ATOM     11  C   UNL A   1      37.466  20.877  24.845  1.00  0.00     0.045 C 
ATOM     12  C   UNL A   1      36.070  21.401  25.045  1.00  0.00    -0.044 A 
ATOM     13  C   UNL A   1      35.006  20.484  24.976  1.00  0.00     0.005 A 
ATOM     14  C   UNL A   1      35.800  22.757  25.340  1.00  0.00    -0.005 A 
ATOM     15  C   UNL A   1      33.691  20.899  25.165  1.00  0.00     0.016 A 
ATOM     16  C   UNL A   1      34.461  23.172  25.507  1.00  0.00     0.141 A 
ATOM     17  C   UNL A   1      36.898  23.784  25.476  1.00  0.00     0.049 C 
ATOM     18  C   UNL A   1      33.425  22.243  25.424  1.00  0.00     0.066 A 
ATOM     19  O   UNL A   1      34.244  24.512  25.752  1.00  0.00    -0.455 OA
ATOM     20  C   UNL A   1      32.043  22.699  25.609  1.00  0.00     0.200 A 
ATOM     21  C   UNL A   1      32.955  24.977  25.852  1.00  0.00     0.142 A 
ATOM     22  O   UNL A   1      31.100  21.918  25.605  1.00  0.00    -0.288 OA
ATOM     23  C   UNL A   1      31.840  24.141  25.792  1.00  0.00     0.066 A 
ATOM     24  C   UNL A   1      30.544  24.657  25.888  1.00  0.00     0.016 A 
ATOM     25  C   UNL A   1      31.465  26.874  26.071  1.00  0.00     0.008 A 
ATOM     26  C   UNL A   1      30.358  26.028  26.021  1.00  0.00     0.001 A 
ENDBRANCH   9  10
ENDBRANCH   6   9
ENDBRANCH   4   5
ENDBRANCH   3   4
ENDBRANCH   2   3
ENDBRANCH   1   2
BRANCH   1  27
ATOM     27  C   UNL A   1      33.395  34.363  28.789  1.00  0.00     0.021 C 
BRANCH  27  28
ATOM     28  C   UNL A   1      33.634  35.740  29.399  1.00  0.00     0.116 C 
BRANCH  28  29
ATOM     29  N   UNL A   1      32.635  36.097  30.396  1.00  0.00    -0.352 N 
ATOM     30  C   UNL A   1      32.599  35.797  31.737  1.00  0.00     0.251 C 
ATOM     31  H   UNL A   1      31.878  36.629  30.061  1.00  0.00     0.163 HD
ATOM     32  O   UNL A   1      31.602  36.060  32.405  1.00  0.00    -0.269 OA
BRANCH  30  33
ATOM     33  C   UNL A   1      33.751  35.118  32.371  1.00  0.00     0.039 A 
ATOM     34  C   UNL A   1      34.991  35.752  32.464  1.00  0.00     0.014 A 
ATOM     35  C   UNL A   1      33.591  33.817  32.859  1.00  0.00     0.014 A 
ATOM     36  C   UNL A   1      36.103  35.030  32.883  1.00  0.00     0.010 A 
ATOM     37  C   UNL A   1      34.696  33.121  33.360  1.00  0.00     0.010 A 
ATOM     38  C   UNL A   1      35.973  33.703  33.326  1.00  0.00    -0.014 A 
BRANCH  38  39
ATOM     39  C   UNL A   1      37.189  32.950  33.732  1.00  0.00     0.031 A 
ATOM     40  C   UNL A   1      37.815  31.942  32.806  1.00  0.00     0.074 A 
ATOM     41  C   UNL A   1      37.770  33.227  34.916  1.00  0.00     0.049 A 
ATOM     42  N   UNL A   1      38.907  31.236  32.972  1.00  0.00    -0.248 NA
ATOM     43  C   UNL A   1      37.132  31.690  31.528  1.00  0.00     0.031 C 
ATOM     44  C   UNL A   1      37.257  34.182  35.898  1.00  0.00     0.029 A 
ATOM     45  N   UNL A   1      38.929  32.759  35.480  1.00  0.00    -0.354 N 
ATOM     46  C   UNL A   1      39.030  30.449  31.835  1.00  0.00     0.074 A 
ATOM     47  C   UNL A   1      37.888  30.739  30.996  1.00  0.00     0.031 C 
ATOM     48  C   UNL A   1      38.125  34.273  36.917  1.00  0.00     0.029 A 
ATOM     49  C   UNL A   1      39.225  33.342  36.688  1.00  0.00     0.049 A 
ATOM     50  H   UNL A   1      39.494  32.072  35.060  1.00  0.00     0.167 HD
ATOM     51  C   UNL A   1      40.014  29.576  31.514  1.00  0.00     0.037 A 
ATOM     52  C   UNL A   1      40.263  33.147  37.523  1.00  0.00     0.037 A 
ATOM     53  C   UNL A   1      41.168  29.313  32.335  1.00  0.00     0.049 A 
ATOM     54  C   UNL A   1      41.327  32.151  37.154  1.00  0.00     0.074 A 
ATOM     55  C   UNL A   1      42.240  28.479  32.070  1.00  0.00     0.029 A 
ATOM     56  N   UNL A   1      41.401  29.883  33.577  1.00  0.00    -0.354 N 
ATOM     57  N   UNL A   1      41.443  31.435  36.062  1.00  0.00    -0.248 NA
ATOM     58  C   UNL A   1      42.398  31.930  38.135  1.00  0.00     0.031 C 
ATOM     59  C   UNL A   1      43.101  28.509  33.170  1.00  0.00     0.029 A 
ATOM     60  C   UNL A   1      42.587  29.396  34.103  1.00  0.00     0.049 A 
ATOM     61  H   UNL A   1      40.811  30.535  34.020  1.00  0.00     0.167 HD
ATOM     62  C   UNL A   1      42.597  30.682  36.222  1.00  0.00     0.074 A 
ATOM     63  C   UNL A   1      43.162  31.047  37.505  1.00  0.00     0.031 C 
ATOM     64  C   UNL A   1      43.134  29.765  35.383  1.00  0.00     0.037 A 
BRANCH  51  65
ATOM     65  C   UNL A   1      39.902  28.834  30.216  1.00  0.00     0.064 A 
ATOM     66  C   UNL A   1      40.427  29.354  29.024  1.00  0.00     0.173 A 
ATOM     67  C   UNL A   1      39.337  27.548  30.179  1.00  0.00     0.173 A 
ATOM     68  F   UNL A   1      40.968  30.581  29.004  1.00  0.00    -0.203 F 
ATOM     69  C   UNL A   1      40.382  28.620  27.842  1.00  0.00     0.198 A 
ATOM     70  C   UNL A   1      39.317  26.808  29.000  1.00  0.00     0.198 A 
ATOM     71  F   UNL A   1      38.829  27.002  31.294  1.00  0.00    -0.203 F 
ATOM     72  F   UNL A   1      40.867  29.148  26.709  1.00  0.00    -0.200 F 
ATOM     73  C   UNL A   1      39.836  27.345  27.833  1.00  0.00     0.200 A 
ATOM     74  F   UNL A   1      38.802  25.570  28.997  1.00  0.00    -0.200 F 
ATOM     75  F   UNL A   1      39.810  26.633  26.697  1.00  0.00    -0.200 F 
ENDBRANCH  51  65
BRANCH  52  76
ATOM     76  C   UNL A   1      40.341  33.920  38.789  1.00  0.00     0.064 A 
ATOM     77  C   UNL A   1      39.693  33.472  39.947  1.00  0.00     0.173 A 
ATOM     78  C   UNL A   1      41.089  35.103  38.874  1.00  0.00     0.173 A 
ATOM     79  F   UNL A   1      38.949  32.357  39.910  1.00  0.00    -0.203 F 
ATOM     80  C   UNL A   1      39.787  34.181  41.142  1.00  0.00     0.198 A 
ATOM     81  C   UNL A   1      41.206  35.797  40.076  1.00  0.00     0.198 A 
ATOM     82  F   UNL A   1      41.730  35.571  37.792  1.00  0.00    -0.203 F 
ATOM     83  F   UNL A   1      39.134  33.748  42.230  1.00  0.00    -0.200 F 
ATOM     84  C   UNL A   1      40.551  35.338  41.208  1.00  0.00     0.200 A 
ATOM     85  F   UNL A   1      41.958  36.903  40.137  1.00  0.00    -0.200 F 
ATOM     86  F   UNL A   1      40.653  36.012  42.362  1.00  0.00    -0.200 F 
ENDBRANCH  52  76
BRANCH  64  87
ATOM     87  C   UNL A   1      44.396  29.082  35.819  1.00  0.00     0.064 A 
ATOM     88  C   UNL A   1      44.360  27.884  36.547  1.00  0.00     0.173 A 
ATOM     89  C   UNL A   1      45.648  29.586  35.440  1.00  0.00     0.173 A 
ATOM     90  F   UNL A   1      43.185  27.371  36.943  1.00  0.00    -0.203 F 
ATOM     91  C   UNL A   1      45.535  27.219  36.887  1.00  0.00     0.198 A 
ATOM     92  C   UNL A   1      46.820  28.905  35.760  1.00  0.00     0.198 A 
ATOM     93  F   UNL A   1      45.734  30.725  34.736  1.00  0.00    -0.203 F 
ATOM     94  F   UNL A   1      45.479  26.090  37.606  1.00  0.00    -0.200 F 
ATOM     95  C   UNL A   1      46.762  27.726  36.485  1.00  0.00     0.200 A 
ATOM     96  F   UNL A   1      48.004  29.388  35.359  1.00  0.00    -0.200 F 
ATOM     97  F   UNL A   1      47.891  27.074  36.798  1.00  0.00    -0.200 F 
ENDBRANCH  64  87
ENDBRANCH  38  39
ENDBRANCH  30  33
ENDBRANCH  28  29
ENDBRANCH  27  28
ENDBRANCH   1  27
TORSDOF 14
ENDMDL
