MODEL 1
REMARK VINA RESULT:     -10.4      0.000      0.000
REMARK SMILES CCNS(=O)(=O)c1ccc(CC(=O)NCCCCCCNC(=O)c2ccc(-c3c4nc(c(-c5c(F)c(F)c(F)c(F)c5F)c5ccc([nH]5)c(-c5c(F)c(F)c(F)c(F)c5F)c5nc(c(-c6c(F)c(F)c(F)c(F)c6F)c6ccc3[nH]6)C=C5)C=C4)cc2)cc1
REMARK SMILES IDX 16 1 15 2 14 3 12 4 13 5 11 7 10 8 7 9 8 10 88 11 9 12 87 13
REMARK SMILES IDX 4 14 5 15 6 16 3 17 2 19 1 20 17 21 18 22 19 23 20 24 21 25
REMARK SMILES IDX 22 26 23 28 24 29 25 30 86 31 26 32 85 33 27 34 28 35 29 36
REMARK SMILES IDX 79 37 30 38 84 39 78 40 80 41 31 42 83 43 77 44 76 45 32 47
REMARK SMILES IDX 64 48 44 49 63 50 45 51 48 52 62 53 81 54 46 55 47 56 61 58
REMARK SMILES IDX 82 59 49 60 33 61 34 62 42 63 35 64 36 65 40 66 43 67 37 68
REMARK SMILES IDX 38 69 41 70 39 71 65 72 66 73 74 74 67 75 68 76 72 77 75 78
REMARK SMILES IDX 69 79 70 80 73 81 71 82 50 83 51 84 59 85 52 86 53 87 57 88
REMARK SMILES IDX 60 89 54 90 55 91 58 92 56 93
REMARK H PARENT 14 6 3 18 21 27 80 46 48 57
REMARK Flexibility Score: inf
ROOT
ATOM      1  C   UNL A   1      39.997  23.020  27.252  1.00  0.00     0.021 C 
ENDROOT
BRANCH   1   2
ATOM      2  C   UNL A   1      38.844  23.313  26.290  1.00  0.00     0.116 C 
BRANCH   2   3
ATOM      3  N   UNL A   1      38.563  22.163  25.454  1.00  0.00    -0.356 N 
ATOM      4  C   UNL A   1      37.386  21.491  25.292  1.00  0.00     0.224 C 
ATOM      5  O   UNL A   1      37.393  20.448  24.635  1.00  0.00    -0.275 OA
ATOM      6  H   UNL A   1      39.324  21.820  24.933  1.00  0.00     0.163 HD
BRANCH   4   7
ATOM      7  C   UNL A   1      36.100  22.059  25.868  1.00  0.00     0.135 C 
BRANCH   7   8
ATOM      8  C   UNL A   1      35.362  23.001  24.945  1.00  0.00    -0.039 A 
ATOM      9  C   UNL A   1      33.924  24.728  23.289  1.00  0.00     0.082 A 
ATOM     10  C   UNL A   1      34.190  23.424  22.863  1.00  0.00     0.022 A 
ATOM     11  C   UNL A   1      34.400  25.194  24.515  1.00  0.00     0.022 A 
ATOM     12  C   UNL A   1      34.909  22.564  23.692  1.00  0.00     0.005 A 
ATOM     13  C   UNL A   1      35.129  24.332  25.333  1.00  0.00     0.005 A 
BRANCH   9  14
ATOM     14  S   UNL A   1      32.948  25.803  22.274  1.00  0.00     0.240 S 
ATOM     15  O   UNL A   1      33.277  25.574  20.886  1.00  0.00    -0.207 OA
ATOM     16  O   UNL A   1      32.989  27.124  22.861  1.00  0.00    -0.207 OA
BRANCH  14  17
ATOM     17  N   UNL A   1      31.383  25.220  22.529  1.00  0.00    -0.211 NA
ATOM     18  H   UNL A   1      30.763  25.726  21.897  1.00  0.00     0.141 HD
BRANCH  17  19
ATOM     19  C   UNL A   1      30.824  25.339  23.879  1.00  0.00     0.095 C 
ATOM     20  C   UNL A   1      29.691  26.350  23.862  1.00  0.00     0.022 C 
ENDBRANCH  17  19
ENDBRANCH  14  17
ENDBRANCH   9  14
ENDBRANCH   7   8
ENDBRANCH   4   7
ENDBRANCH   2   3
ENDBRANCH   1   2
BRANCH   1  21
ATOM     21  C   UNL A   1      41.064  22.086  26.666  1.00  0.00     0.002 C 
BRANCH  21  22
ATOM     22  C   UNL A   1      41.833  21.254  27.700  1.00  0.00     0.002 C 
BRANCH  22  23
ATOM     23  C   UNL A   1      42.234  19.855  27.228  1.00  0.00     0.021 C 
BRANCH  23  24
ATOM     24  C   UNL A   1      41.968  19.593  25.750  1.00  0.00     0.116 C 
BRANCH  24  25
ATOM     25  N   UNL A   1      43.107  18.969  25.095  1.00  0.00    -0.352 N 
ATOM     26  C   UNL A   1      44.262  19.540  24.623  1.00  0.00     0.251 C 
ATOM     27  H   UNL A   1      43.039  17.995  24.973  1.00  0.00     0.163 HD
ATOM     28  O   UNL A   1      45.020  18.898  23.903  1.00  0.00    -0.269 OA
BRANCH  26  29
ATOM     29  C   UNL A   1      44.583  20.940  24.969  1.00  0.00     0.039 A 
ATOM     30  C   UNL A   1      44.159  21.962  24.116  1.00  0.00     0.014 A 
ATOM     31  C   UNL A   1      45.306  21.243  26.126  1.00  0.00     0.014 A 
ATOM     32  C   UNL A   1      44.406  23.292  24.458  1.00  0.00     0.010 A 
ATOM     33  C   UNL A   1      45.479  22.571  26.506  1.00  0.00     0.010 A 
ATOM     34  C   UNL A   1      45.035  23.609  25.674  1.00  0.00    -0.014 A 
BRANCH  34  35
ATOM     35  C   UNL A   1      45.225  25.021  26.094  1.00  0.00     0.031 A 
ATOM     36  C   UNL A   1      46.580  25.664  26.007  1.00  0.00     0.074 A 
ATOM     37  C   UNL A   1      44.184  25.704  26.611  1.00  0.00     0.049 A 
ATOM     38  N   UNL A   1      46.954  26.862  26.379  1.00  0.00    -0.248 NA
ATOM     39  C   UNL A   1      47.668  24.842  25.454  1.00  0.00     0.031 C 
ATOM     40  C   UNL A   1      42.831  25.175  26.790  1.00  0.00     0.029 A 
ATOM     41  N   UNL A   1      44.104  26.988  27.090  1.00  0.00    -0.354 N 
ATOM     42  C   UNL A   1      48.316  26.933  26.116  1.00  0.00     0.074 A 
ATOM     43  C   UNL A   1      48.715  25.638  25.609  1.00  0.00     0.031 C 
ATOM     44  C   UNL A   1      42.051  26.132  27.315  1.00  0.00     0.029 A 
ATOM     45  C   UNL A   1      42.856  27.326  27.553  1.00  0.00     0.049 A 
ATOM     46  H   UNL A   1      44.869  27.608  27.101  1.00  0.00     0.167 HD
ATOM     47  C   UNL A   1      49.151  27.988  26.263  1.00  0.00     0.037 A 
ATOM     48  C   UNL A   1      42.413  28.465  28.117  1.00  0.00     0.037 A 
ATOM     49  C   UNL A   1      48.743  29.280  26.754  1.00  0.00     0.049 A 
ATOM     50  C   UNL A   1      43.368  29.617  28.289  1.00  0.00     0.074 A 
ATOM     51  C   UNL A   1      49.499  30.431  26.884  1.00  0.00     0.029 A 
ATOM     52  N   UNL A   1      47.468  29.586  27.208  1.00  0.00    -0.354 N 
ATOM     53  N   UNL A   1      44.636  29.697  27.966  1.00  0.00    -0.248 NA
ATOM     54  C   UNL A   1      42.827  30.840  28.899  1.00  0.00     0.031 C 
ATOM     55  C   UNL A   1      48.701  31.415  27.476  1.00  0.00     0.029 A 
ATOM     56  C   UNL A   1      47.426  30.901  27.649  1.00  0.00     0.049 A 
ATOM     57  H   UNL A   1      46.706  28.963  27.215  1.00  0.00     0.167 HD
ATOM     58  C   UNL A   1      45.035  30.984  28.303  1.00  0.00     0.074 A 
ATOM     59  C   UNL A   1      43.870  31.655  28.840  1.00  0.00     0.031 C 
ATOM     60  C   UNL A   1      46.257  31.557  28.178  1.00  0.00     0.037 A 
BRANCH  47  61
ATOM     61  C   UNL A   1      50.594  27.794  25.893  1.00  0.00     0.064 A 
ATOM     62  C   UNL A   1      51.044  27.923  24.569  1.00  0.00     0.173 A 
ATOM     63  C   UNL A   1      51.550  27.511  26.880  1.00  0.00     0.173 A 
ATOM     64  F   UNL A   1      50.172  28.182  23.582  1.00  0.00    -0.203 F 
ATOM     65  C   UNL A   1      52.387  27.743  24.244  1.00  0.00     0.198 A 
ATOM     66  C   UNL A   1      52.897  27.368  26.558  1.00  0.00     0.198 A 
ATOM     67  F   UNL A   1      51.179  27.383  28.164  1.00  0.00    -0.203 F 
ATOM     68  F   UNL A   1      52.780  27.816  22.966  1.00  0.00    -0.200 F 
ATOM     69  C   UNL A   1      53.313  27.476  25.240  1.00  0.00     0.200 A 
ATOM     70  F   UNL A   1      53.793  27.126  27.525  1.00  0.00    -0.200 F 
ATOM     71  F   UNL A   1      54.605  27.313  24.928  1.00  0.00    -0.200 F 
ENDBRANCH  47  61
BRANCH  48  72
ATOM     72  C   UNL A   1      40.995  28.579  28.549  1.00  0.00     0.064 A 
ATOM     73  C   UNL A   1      40.610  28.257  29.859  1.00  0.00     0.173 A 
ATOM     74  C   UNL A   1      39.993  29.001  27.662  1.00  0.00     0.173 A 
ATOM     75  F   UNL A   1      41.527  27.831  30.740  1.00  0.00    -0.203 F 
ATOM     76  C   UNL A   1      39.277  28.331  30.257  1.00  0.00     0.198 A 
ATOM     77  C   UNL A   1      38.665  29.106  28.071  1.00  0.00     0.198 A 
ATOM     78  F   UNL A   1      40.307  29.326  26.400  1.00  0.00    -0.203 F 
ATOM     79  F   UNL A   1      38.930  27.968  31.500  1.00  0.00    -0.200 F 
ATOM     80  C   UNL A   1      38.306  28.761  29.365  1.00  0.00     0.200 A 
ATOM     81  F   UNL A   1      37.734  29.540  27.211  1.00  0.00    -0.200 F 
ATOM     82  F   UNL A   1      37.025  28.836  29.749  1.00  0.00    -0.200 F 
ENDBRANCH  48  72
BRANCH  60  83
ATOM     83  C   UNL A   1      46.391  32.997  28.592  1.00  0.00     0.064 A 
ATOM     84  C   UNL A   1      46.771  33.361  29.891  1.00  0.00     0.173 A 
ATOM     85  C   UNL A   1      46.170  34.025  27.661  1.00  0.00     0.173 A 
ATOM     86  F   UNL A   1      46.980  32.420  30.824  1.00  0.00    -0.203 F 
ATOM     87  C   UNL A   1      46.896  34.701  30.252  1.00  0.00     0.198 A 
ATOM     88  C   UNL A   1      46.332  35.361  28.014  1.00  0.00     0.198 A 
ATOM     89  F   UNL A   1      45.812  33.731  26.402  1.00  0.00    -0.203 F 
ATOM     90  F   UNL A   1      47.206  35.027  31.515  1.00  0.00    -0.200 F 
ATOM     91  C   UNL A   1      46.685  35.699  29.312  1.00  0.00     0.200 A 
ATOM     92  F   UNL A   1      46.146  36.322  27.099  1.00  0.00    -0.200 F 
ATOM     93  F   UNL A   1      46.815  36.987  29.658  1.00  0.00    -0.200 F 
ENDBRANCH  60  83
ENDBRANCH  34  35
ENDBRANCH  26  29
ENDBRANCH  24  25
ENDBRANCH  23  24
ENDBRANCH  22  23
ENDBRANCH  21  22
ENDBRANCH   1  21
TORSDOF 17
ENDMDL
MODEL 2
REMARK VINA RESULT:     -10.4      5.510     10.430
REMARK SMILES CCNS(=O)(=O)c1ccc(CC(=O)NCCCCCCNC(=O)c2ccc(-c3c4nc(c(-c5c(F)c(F)c(F)c(F)c5F)c5ccc([nH]5)c(-c5c(F)c(F)c(F)c(F)c5F)c5nc(c(-c6c(F)c(F)c(F)c(F)c6F)c6ccc3[nH]6)C=C5)C=C4)cc2)cc1
REMARK SMILES IDX 16 1 15 2 14 3 12 4 13 5 11 7 10 8 7 9 8 10 88 11 9 12 87 13
REMARK SMILES IDX 4 14 5 15 6 16 3 17 2 19 1 20 17 21 18 22 19 23 20 24 21 25
REMARK SMILES IDX 22 26 23 28 24 29 25 30 86 31 26 32 85 33 27 34 28 35 29 36
REMARK SMILES IDX 79 37 30 38 84 39 78 40 80 41 31 42 83 43 77 44 76 45 32 47
REMARK SMILES IDX 64 48 44 49 63 50 45 51 48 52 62 53 81 54 46 55 47 56 61 58
REMARK SMILES IDX 82 59 49 60 33 61 34 62 42 63 35 64 36 65 40 66 43 67 37 68
REMARK SMILES IDX 38 69 41 70 39 71 65 72 66 73 74 74 67 75 68 76 72 77 75 78
REMARK SMILES IDX 69 79 70 80 73 81 71 82 50 83 51 84 59 85 52 86 53 87 57 88
REMARK SMILES IDX 60 89 54 90 55 91 58 92 56 93
REMARK H PARENT 14 6 3 18 21 27 80 46 48 57
REMARK Flexibility Score: inf
ROOT
ATOM      1  C   UNL A   1      38.602  33.918  30.908  1.00  0.00     0.021 C 
ENDROOT
BRANCH   1   2
ATOM      2  C   UNL A   1      38.681  32.474  31.408  1.00  0.00     0.116 C 
BRANCH   2   3
ATOM      3  N   UNL A   1      38.794  32.432  32.852  1.00  0.00    -0.356 N 
ATOM      4  C   UNL A   1      37.802  32.337  33.784  1.00  0.00     0.224 C 
ATOM      5  O   UNL A   1      38.103  32.456  34.974  1.00  0.00    -0.275 OA
ATOM      6  H   UNL A   1      39.710  32.476  33.208  1.00  0.00     0.163 HD
BRANCH   4   7
ATOM      7  C   UNL A   1      36.376  32.040  33.352  1.00  0.00     0.135 C 
BRANCH   7   8
ATOM      8  C   UNL A   1      35.506  33.263  33.179  1.00  0.00    -0.039 A 
ATOM      9  C   UNL A   1      33.907  35.515  32.770  1.00  0.00     0.082 A 
ATOM     10  C   UNL A   1      35.242  35.675  33.148  1.00  0.00     0.022 A 
ATOM     11  C   UNL A   1      33.348  34.244  32.631  1.00  0.00     0.022 A 
ATOM     12  C   UNL A   1      36.039  34.548  33.352  1.00  0.00     0.005 A 
ATOM     13  C   UNL A   1      34.147  33.122  32.849  1.00  0.00     0.005 A 
BRANCH   9  14
ATOM     14  S   UNL A   1      32.910  36.941  32.437  1.00  0.00     0.240 S 
ATOM     15  O   UNL A   1      33.755  38.112  32.395  1.00  0.00    -0.207 OA
ATOM     16  O   UNL A   1      31.741  36.872  33.285  1.00  0.00    -0.207 OA
BRANCH  14  17
ATOM     17  N   UNL A   1      32.371  36.646  30.863  1.00  0.00    -0.211 NA
ATOM     18  H   UNL A   1      31.942  35.721  30.856  1.00  0.00     0.141 HD
BRANCH  17  19
ATOM     19  C   UNL A   1      33.366  36.676  29.786  1.00  0.00     0.095 C 
ATOM     20  C   UNL A   1      33.307  35.367  29.018  1.00  0.00     0.022 C 
ENDBRANCH  17  19
ENDBRANCH  14  17
ENDBRANCH   9  14
ENDBRANCH   7   8
ENDBRANCH   4   7
ENDBRANCH   2   3
ENDBRANCH   1   2
BRANCH   1  21
ATOM     21  C   UNL A   1      37.436  34.172  29.945  1.00  0.00     0.002 C 
BRANCH  21  22
ATOM     22  C   UNL A   1      37.338  33.188  28.773  1.00  0.00     0.002 C 
BRANCH  22  23
ATOM     23  C   UNL A   1      35.913  32.890  28.303  1.00  0.00     0.021 C 
BRANCH  23  24
ATOM     24  C   UNL A   1      35.099  32.041  29.272  1.00  0.00     0.116 C 
BRANCH  24  25
ATOM     25  N   UNL A   1      34.537  30.865  28.625  1.00  0.00    -0.352 N 
ATOM     26  C   UNL A   1      35.176  29.781  28.079  1.00  0.00     0.251 C 
ATOM     27  H   UNL A   1      33.554  30.844  28.573  1.00  0.00     0.163 HD
ATOM     28  O   UNL A   1      34.557  28.985  27.381  1.00  0.00    -0.269 OA
BRANCH  26  29
ATOM     29  C   UNL A   1      36.621  29.584  28.318  1.00  0.00     0.039 A 
ATOM     30  C   UNL A   1      37.048  29.184  29.586  1.00  0.00     0.014 A 
ATOM     31  C   UNL A   1      37.551  29.799  27.297  1.00  0.00     0.014 A 
ATOM     32  C   UNL A   1      38.403  28.939  29.812  1.00  0.00     0.010 A 
ATOM     33  C   UNL A   1      38.889  29.476  27.501  1.00  0.00     0.010 A 
ATOM     34  C   UNL A   1      39.330  29.047  28.762  1.00  0.00    -0.014 A 
BRANCH  34  35
ATOM     35  C   UNL A   1      40.761  28.702  28.963  1.00  0.00     0.031 A 
ATOM     36  C   UNL A   1      41.698  29.692  29.597  1.00  0.00     0.074 A 
ATOM     37  C   UNL A   1      41.227  27.518  28.518  1.00  0.00     0.049 A 
ATOM     38  N   UNL A   1      42.987  29.597  29.802  1.00  0.00    -0.248 NA
ATOM     39  C   UNL A   1      41.115  30.971  30.032  1.00  0.00     0.031 C 
ATOM     40  C   UNL A   1      40.426  26.494  27.846  1.00  0.00     0.029 A 
ATOM     41  N   UNL A   1      42.489  26.980  28.556  1.00  0.00    -0.354 N 
ATOM     42  C   UNL A   1      43.369  30.801  30.379  1.00  0.00     0.074 A 
ATOM     43  C   UNL A   1      42.187  31.634  30.436  1.00  0.00     0.031 C 
ATOM     44  C   UNL A   1      41.209  25.443  27.557  1.00  0.00     0.029 A 
ATOM     45  C   UNL A   1      42.575  25.736  27.981  1.00  0.00     0.049 A 
ATOM     46  H   UNL A   1      43.260  27.444  28.957  1.00  0.00     0.167 HD
ATOM     47  C   UNL A   1      44.588  31.168  30.840  1.00  0.00     0.037 A 
ATOM     48  C   UNL A   1      43.636  24.927  27.804  1.00  0.00     0.037 A 
ATOM     49  C   UNL A   1      45.756  30.327  30.794  1.00  0.00     0.049 A 
ATOM     50  C   UNL A   1      44.985  25.369  28.306  1.00  0.00     0.074 A 
ATOM     51  C   UNL A   1      47.023  30.583  31.287  1.00  0.00     0.029 A 
ATOM     52  N   UNL A   1      45.804  29.070  30.209  1.00  0.00    -0.354 N 
ATOM     53  N   UNL A   1      45.319  26.480  28.918  1.00  0.00    -0.248 NA
ATOM     54  C   UNL A   1      46.106  24.441  28.098  1.00  0.00     0.031 C 
ATOM     55  C   UNL A   1      47.852  29.512  30.945  1.00  0.00     0.029 A 
ATOM     56  C   UNL A   1      47.087  28.553  30.301  1.00  0.00     0.049 A 
ATOM     57  H   UNL A   1      45.038  28.612  29.791  1.00  0.00     0.167 HD
ATOM     58  C   UNL A   1      46.675  26.371  29.195  1.00  0.00     0.074 A 
ATOM     59  C   UNL A   1      47.100  25.079  28.699  1.00  0.00     0.031 C 
ATOM     60  C   UNL A   1      47.495  27.262  29.806  1.00  0.00     0.037 A 
BRANCH  47  61
ATOM     61  C   UNL A   1      44.726  32.543  31.430  1.00  0.00     0.064 A 
ATOM     62  C   UNL A   1      45.051  33.659  30.642  1.00  0.00     0.173 A 
ATOM     63  C   UNL A   1      44.492  32.757  32.797  1.00  0.00     0.173 A 
ATOM     64  F   UNL A   1      45.295  33.511  29.331  1.00  0.00    -0.203 F 
ATOM     65  C   UNL A   1      45.170  34.927  31.206  1.00  0.00     0.198 A 
ATOM     66  C   UNL A   1      44.576  34.032  33.350  1.00  0.00     0.198 A 
ATOM     67  F   UNL A   1      44.172  31.729  33.598  1.00  0.00    -0.203 F 
ATOM     68  F   UNL A   1      45.537  35.965  30.442  1.00  0.00    -0.200 F 
ATOM     69  C   UNL A   1      44.924  35.114  32.556  1.00  0.00     0.200 A 
ATOM     70  F   UNL A   1      44.322  34.213  34.654  1.00  0.00    -0.200 F 
ATOM     71  F   UNL A   1      45.030  36.336  33.096  1.00  0.00    -0.200 F 
ENDBRANCH  47  61
BRANCH  48  72
ATOM     72  C   UNL A   1      43.465  23.612  27.133  1.00  0.00     0.064 A 
ATOM     73  C   UNL A   1      42.869  22.532  27.800  1.00  0.00     0.173 A 
ATOM     74  C   UNL A   1      43.901  23.403  25.816  1.00  0.00     0.173 A 
ATOM     75  F   UNL A   1      42.453  22.675  29.067  1.00  0.00    -0.203 F 
ATOM     76  C   UNL A   1      42.737  21.289  27.184  1.00  0.00     0.198 A 
ATOM     77  C   UNL A   1      43.738  22.169  25.190  1.00  0.00     0.198 A 
ATOM     78  F   UNL A   1      44.472  24.403  25.130  1.00  0.00    -0.203 F 
ATOM     79  F   UNL A   1      42.212  20.260  27.864  1.00  0.00    -0.200 F 
ATOM     80  C   UNL A   1      43.166  21.109  25.878  1.00  0.00     0.200 A 
ATOM     81  F   UNL A   1      44.136  22.006  23.921  1.00  0.00    -0.200 F 
ATOM     82  F   UNL A   1      43.035  19.915  25.285  1.00  0.00    -0.200 F 
ENDBRANCH  48  72
BRANCH  60  83
ATOM     83  C   UNL A   1      48.928  26.855  30.010  1.00  0.00     0.064 A 
ATOM     84  C   UNL A   1      49.325  26.061  31.095  1.00  0.00     0.173 A 
ATOM     85  C   UNL A   1      49.911  27.236  29.082  1.00  0.00     0.173 A 
ATOM     86  F   UNL A   1      48.429  25.681  32.018  1.00  0.00    -0.203 F 
ATOM     87  C   UNL A   1      50.657  25.689  31.261  1.00  0.00     0.198 A 
ATOM     88  C   UNL A   1      51.234  26.831  29.231  1.00  0.00     0.198 A 
ATOM     89  F   UNL A   1      49.584  27.990  28.021  1.00  0.00    -0.203 F 
ATOM     90  F   UNL A   1      51.023  24.977  32.336  1.00  0.00    -0.200 F 
ATOM     91  C   UNL A   1      51.608  26.066  30.325  1.00  0.00     0.200 A 
ATOM     92  F   UNL A   1      52.148  27.183  28.315  1.00  0.00    -0.200 F 
ATOM     93  F   UNL A   1      52.888  25.699  30.482  1.00  0.00    -0.200 F 
ENDBRANCH  60  83
ENDBRANCH  34  35
ENDBRANCH  26  29
ENDBRANCH  24  25
ENDBRANCH  23  24
ENDBRANCH  22  23
ENDBRANCH  21  22
ENDBRANCH   1  21
TORSDOF 17
ENDMDL
MODEL 3
REMARK VINA RESULT:     -10.3      1.461      2.343
REMARK SMILES CCNS(=O)(=O)c1ccc(CC(=O)NCCCCCCNC(=O)c2ccc(-c3c4nc(c(-c5c(F)c(F)c(F)c(F)c5F)c5ccc([nH]5)c(-c5c(F)c(F)c(F)c(F)c5F)c5nc(c(-c6c(F)c(F)c(F)c(F)c6F)c6ccc3[nH]6)C=C5)C=C4)cc2)cc1
REMARK SMILES IDX 16 1 15 2 14 3 12 4 13 5 11 7 10 8 7 9 8 10 88 11 9 12 87 13
REMARK SMILES IDX 4 14 5 15 6 16 3 17 2 19 1 20 17 21 18 22 19 23 20 24 21 25
REMARK SMILES IDX 22 26 23 28 24 29 25 30 86 31 26 32 85 33 27 34 28 35 29 36
REMARK SMILES IDX 79 37 30 38 84 39 78 40 80 41 31 42 83 43 77 44 76 45 32 47
REMARK SMILES IDX 64 48 44 49 63 50 45 51 48 52 62 53 81 54 46 55 47 56 61 58
REMARK SMILES IDX 82 59 49 60 33 61 34 62 42 63 35 64 36 65 40 66 43 67 37 68
REMARK SMILES IDX 38 69 41 70 39 71 65 72 66 73 74 74 67 75 68 76 72 77 75 78
REMARK SMILES IDX 69 79 70 80 73 81 71 82 50 83 51 84 59 85 52 86 53 87 57 88
REMARK SMILES IDX 60 89 54 90 55 91 58 92 56 93
REMARK H PARENT 14 6 3 18 21 27 80 46 48 57
REMARK Flexibility Score: inf
ROOT
ATOM      1  C   UNL A   1      38.900  23.654  26.650  1.00  0.00     0.021 C 
ENDROOT
BRANCH   1   2
ATOM      2  C   UNL A   1      37.480  23.451  26.119  1.00  0.00     0.116 C 
BRANCH   2   3
ATOM      3  N   UNL A   1      37.478  23.349  24.674  1.00  0.00    -0.356 N 
ATOM      4  C   UNL A   1      36.422  23.151  23.832  1.00  0.00     0.224 C 
ATOM      5  O   UNL A   1      36.653  22.955  22.637  1.00  0.00    -0.275 OA
ATOM      6  H   UNL A   1      38.357  23.434  24.240  1.00  0.00     0.163 HD
BRANCH   4   7
ATOM      7  C   UNL A   1      35.000  23.227  24.363  1.00  0.00     0.135 C 
BRANCH   7   8
ATOM      8  C   UNL A   1      34.364  24.593  24.255  1.00  0.00    -0.039 A 
ATOM      9  C   UNL A   1      33.112  27.084  24.093  1.00  0.00     0.082 A 
ATOM     10  C   UNL A   1      33.213  26.286  22.950  1.00  0.00     0.022 A 
ATOM     11  C   UNL A   1      33.662  26.672  25.307  1.00  0.00     0.022 A 
ATOM     12  C   UNL A   1      33.839  25.042  23.034  1.00  0.00     0.005 A 
ATOM     13  C   UNL A   1      34.298  25.433  25.380  1.00  0.00     0.005 A 
BRANCH   9  14
ATOM     14  S   UNL A   1      32.254  28.631  24.011  1.00  0.00     0.240 S 
ATOM     15  O   UNL A   1      31.018  28.529  24.751  1.00  0.00    -0.207 OA
ATOM     16  O   UNL A   1      32.286  29.084  22.638  1.00  0.00    -0.207 OA
BRANCH  14  17
ATOM     17  N   UNL A   1      33.278  29.660  24.873  1.00  0.00    -0.211 NA
ATOM     18  H   UNL A   1      34.136  29.144  25.066  1.00  0.00     0.141 HD
BRANCH  17  19
ATOM     19  C   UNL A   1      32.791  30.193  26.149  1.00  0.00     0.095 C 
ATOM     20  C   UNL A   1      33.788  29.854  27.244  1.00  0.00     0.022 C 
ENDBRANCH  17  19
ENDBRANCH  14  17
ENDBRANCH   9  14
ENDBRANCH   7   8
ENDBRANCH   4   7
ENDBRANCH   2   3
ENDBRANCH   1   2
BRANCH   1  21
ATOM     21  C   UNL A   1      39.836  22.471  26.370  1.00  0.00     0.002 C 
BRANCH  21  22
ATOM     22  C   UNL A   1      40.599  21.948  27.593  1.00  0.00     0.002 C 
BRANCH  22  23
ATOM     23  C   UNL A   1      41.023  20.480  27.504  1.00  0.00     0.021 C 
BRANCH  23  24
ATOM     24  C   UNL A   1      40.838  19.857  26.126  1.00  0.00     0.116 C 
BRANCH  24  25
ATOM     25  N   UNL A   1      42.007  19.097  25.711  1.00  0.00    -0.352 N 
ATOM     26  C   UNL A   1      43.262  19.540  25.379  1.00  0.00     0.251 C 
ATOM     27  H   UNL A   1      41.878  18.123  25.663  1.00  0.00     0.163 HD
ATOM     28  O   UNL A   1      44.063  18.782  24.843  1.00  0.00    -0.269 OA
BRANCH  26  29
ATOM     29  C   UNL A   1      43.642  20.942  25.653  1.00  0.00     0.039 A 
ATOM     30  C   UNL A   1      43.386  21.913  24.682  1.00  0.00     0.014 A 
ATOM     31  C   UNL A   1      44.254  21.295  26.859  1.00  0.00     0.014 A 
ATOM     32  C   UNL A   1      43.689  23.249  24.948  1.00  0.00     0.010 A 
ATOM     33  C   UNL A   1      44.478  22.636  27.154  1.00  0.00     0.010 A 
ATOM     34  C   UNL A   1      44.202  23.627  26.200  1.00  0.00    -0.014 A 
BRANCH  34  35
ATOM     35  C   UNL A   1      44.444  25.055  26.531  1.00  0.00     0.031 A 
ATOM     36  C   UNL A   1      45.816  25.647  26.379  1.00  0.00     0.074 A 
ATOM     37  C   UNL A   1      43.436  25.800  27.027  1.00  0.00     0.049 A 
ATOM     38  N   UNL A   1      46.235  26.853  26.671  1.00  0.00    -0.248 NA
ATOM     39  C   UNL A   1      46.866  24.760  25.855  1.00  0.00     0.031 C 
ATOM     40  C   UNL A   1      42.072  25.326  27.264  1.00  0.00     0.029 A 
ATOM     41  N   UNL A   1      43.406  27.113  27.429  1.00  0.00    -0.354 N 
ATOM     42  C   UNL A   1      47.592  26.865  26.377  1.00  0.00     0.074 A 
ATOM     43  C   UNL A   1      47.940  25.530  25.940  1.00  0.00     0.031 C 
ATOM     44  C   UNL A   1      41.333  26.337  27.745  1.00  0.00     0.029 A 
ATOM     45  C   UNL A   1      42.179  27.517  27.896  1.00  0.00     0.049 A 
ATOM     46  H   UNL A   1      44.190  27.707  27.388  1.00  0.00     0.167 HD
ATOM     47  C   UNL A   1      48.462  27.900  26.443  1.00  0.00     0.037 A 
ATOM     48  C   UNL A   1      41.784  28.701  28.399  1.00  0.00     0.037 A 
ATOM     49  C   UNL A   1      48.105  29.230  26.864  1.00  0.00     0.049 A 
ATOM     50  C   UNL A   1      42.777  29.830  28.483  1.00  0.00     0.074 A 
ATOM     51  C   UNL A   1      48.898  30.363  26.910  1.00  0.00     0.029 A 
ATOM     52  N   UNL A   1      46.850  29.604  27.325  1.00  0.00    -0.354 N 
ATOM     53  N   UNL A   1      44.039  29.850  28.130  1.00  0.00    -0.248 NA
ATOM     54  C   UNL A   1      42.287  31.103  29.029  1.00  0.00     0.031 C 
ATOM     55  C   UNL A   1      48.145  31.405  27.457  1.00  0.00     0.029 A 
ATOM     56  C   UNL A   1      46.858  30.943  27.687  1.00  0.00     0.049 A 
ATOM     57  H   UNL A   1      46.069  29.007  27.384  1.00  0.00     0.167 HD
ATOM     58  C   UNL A   1      44.485  31.141  28.382  1.00  0.00     0.074 A 
ATOM     59  C   UNL A   1      43.353  31.880  28.900  1.00  0.00     0.031 C 
ATOM     60  C   UNL A   1      45.722  31.667  28.199  1.00  0.00     0.037 A 
BRANCH  47  61
ATOM     61  C   UNL A   1      49.891  27.637  26.057  1.00  0.00     0.064 A 
ATOM     62  C   UNL A   1      50.883  27.384  27.018  1.00  0.00     0.173 A 
ATOM     63  C   UNL A   1      50.267  27.601  24.706  1.00  0.00     0.173 A 
ATOM     64  F   UNL A   1      50.581  27.417  28.325  1.00  0.00    -0.203 F 
ATOM     65  C   UNL A   1      52.201  27.138  26.642  1.00  0.00     0.198 A 
ATOM     66  C   UNL A   1      51.578  27.318  24.332  1.00  0.00     0.198 A 
ATOM     67  F   UNL A   1      49.359  27.829  23.744  1.00  0.00    -0.203 F 
ATOM     68  F   UNL A   1      53.140  26.955  27.580  1.00  0.00    -0.200 F 
ATOM     69  C   UNL A   1      52.546  27.096  25.300  1.00  0.00     0.200 A 
ATOM     70  F   UNL A   1      51.905  27.262  23.034  1.00  0.00    -0.200 F 
ATOM     71  F   UNL A   1      53.812  26.850  24.939  1.00  0.00    -0.200 F 
ENDBRANCH  47  61
BRANCH  48  72
ATOM     72  C   UNL A   1      40.379  28.885  28.852  1.00  0.00     0.064 A 
ATOM     73  C   UNL A   1      40.026  28.719  30.199  1.00  0.00     0.173 A 
ATOM     74  C   UNL A   1      39.360  29.221  27.948  1.00  0.00     0.173 A 
ATOM     75  F   UNL A   1      40.961  28.379  31.098  1.00  0.00    -0.203 F 
ATOM     76  C   UNL A   1      38.706  28.859  30.620  1.00  0.00     0.198 A 
ATOM     77  C   UNL A   1      38.045  29.394  28.376  1.00  0.00     0.198 A 
ATOM     78  F   UNL A   1      39.644  29.398  26.650  1.00  0.00    -0.203 F 
ATOM     79  F   UNL A   1      38.388  28.643  31.904  1.00  0.00    -0.200 F 
ATOM     80  C   UNL A   1      37.717  29.201  29.710  1.00  0.00     0.200 A 
ATOM     81  F   UNL A   1      37.097  29.744  27.497  1.00  0.00    -0.200 F 
ATOM     82  F   UNL A   1      36.448  29.340  30.116  1.00  0.00    -0.200 F 
ENDBRANCH  48  72
BRANCH  60  83
ATOM     83  C   UNL A   1      45.908  33.123  28.523  1.00  0.00     0.064 A 
ATOM     84  C   UNL A   1      45.657  34.130  27.580  1.00  0.00     0.173 A 
ATOM     85  C   UNL A   1      46.309  33.516  29.810  1.00  0.00     0.173 A 
ATOM     86  F   UNL A   1      45.285  33.809  26.331  1.00  0.00    -0.203 F 
ATOM     87  C   UNL A   1      45.828  35.474  27.904  1.00  0.00     0.198 A 
ATOM     88  C   UNL A   1      46.443  34.861  30.141  1.00  0.00     0.198 A 
ATOM     89  F   UNL A   1      46.556  32.594  30.753  1.00  0.00    -0.203 F 
ATOM     90  F   UNL A   1      45.636  36.416  26.970  1.00  0.00    -0.200 F 
ATOM     91  C   UNL A   1      46.213  35.839  29.186  1.00  0.00     0.200 A 
ATOM     92  F   UNL A   1      46.798  35.211  31.386  1.00  0.00    -0.200 F 
ATOM     93  F   UNL A   1      46.368  37.133  29.498  1.00  0.00    -0.200 F 
ENDBRANCH  60  83
ENDBRANCH  34  35
ENDBRANCH  26  29
ENDBRANCH  24  25
ENDBRANCH  23  24
ENDBRANCH  22  23
ENDBRANCH  21  22
ENDBRANCH   1  21
TORSDOF 17
ENDMDL
