MODEL 1
REMARK VINA RESULT:     -12.3      0.000      0.000
REMARK SMILES O=C(NCCCCCCNC(=O)[C@@H]1C[NH2+]CCN1C(=O)N[C@@H]1CCOC1)c1ccc(-c2c3nc(c(-c4c(F)c(F)c(F)c(F)c4F)c4ccc([nH]4)c(-c4c(F)c(F)c(F)c(F)c4F)c4nc(c(-c5c(F)c(F)c(F)c(F)c5F)c5ccc2[nH]5)C=C4)C=C3)cc1
REMARK SMILES IDX 6 1 5 2 4 3 3 4 1 5 2 6 27 8 28 9 89 10 29 11 88 12 30 13
REMARK SMILES IDX 31 14 32 15 82 16 33 17 87 18 81 19 83 20 34 21 86 22 80 23
REMARK SMILES IDX 79 24 35 26 67 27 47 28 66 29 48 30 51 31 65 32 84 33 49 34
REMARK SMILES IDX 50 35 64 37 85 38 52 39 36 40 37 41 45 42 38 43 39 44 43 45
REMARK SMILES IDX 46 46 40 47 41 48 44 49 42 50 68 51 69 52 77 53 70 54 71 55
REMARK SMILES IDX 75 56 78 57 72 58 73 59 76 60 74 61 53 62 54 63 62 64 55 65
REMARK SMILES IDX 56 66 60 67 63 68 57 69 58 70 61 71 59 72 7 73 8 74 9 75
REMARK SMILES IDX 10 76 11 77 12 79 13 80 14 81 18 82 15 83 17 84 16 85 19 88
REMARK SMILES IDX 20 89 21 90 22 92 23 93 26 94 24 95 25 96
REMARK H PARENT 3 7 83 25 51 36 10 78 15 86 15 87 21 91
REMARK Flexibility Score: inf
ROOT
ATOM      1  C   UNL A   1      31.732  30.710  26.185  1.00  0.00     0.002 C 
ENDROOT
BRANCH   1   2
ATOM      2  C   UNL A   1      31.432  32.149  26.585  1.00  0.00     0.021 C 
BRANCH   2   3
ATOM      3  C   UNL A   1      32.575  32.838  27.307  1.00  0.00     0.116 C 
BRANCH   3   4
ATOM      4  N   UNL A   1      32.297  34.231  27.620  1.00  0.00    -0.352 N 
ATOM      5  O   UNL A   1      32.541  36.135  28.830  1.00  0.00    -0.269 OA
ATOM      6  C   UNL A   1      32.930  35.014  28.562  1.00  0.00     0.251 C 
ATOM      7  H   UNL A   1      31.577  34.661  27.103  1.00  0.00     0.163 HD
BRANCH   6   8
ATOM      8  C   UNL A   1      34.089  34.428  29.269  1.00  0.00     0.039 A 
ATOM      9  C   UNL A   1      35.374  34.597  28.747  1.00  0.00     0.014 A 
ATOM     10  C   UNL A   1      33.875  33.635  30.398  1.00  0.00     0.014 A 
ATOM     11  C   UNL A   1      36.426  33.861  29.271  1.00  0.00     0.010 A 
ATOM     12  C   UNL A   1      34.954  32.967  30.980  1.00  0.00     0.010 A 
ATOM     13  C   UNL A   1      36.232  33.058  30.407  1.00  0.00    -0.014 A 
BRANCH  13  14
ATOM     14  C   UNL A   1      37.405  32.398  31.030  1.00  0.00     0.031 A 
ATOM     15  C   UNL A   1      38.171  31.321  30.320  1.00  0.00     0.074 A 
ATOM     16  C   UNL A   1      37.778  32.806  32.258  1.00  0.00     0.049 A 
ATOM     17  N   UNL A   1      39.202  30.631  30.739  1.00  0.00    -0.248 NA
ATOM     18  C   UNL A   1      37.721  30.963  28.966  1.00  0.00     0.031 C 
ATOM     19  C   UNL A   1      37.099  33.844  33.038  1.00  0.00     0.029 A 
ATOM     20  N   UNL A   1      38.818  32.415  33.059  1.00  0.00    -0.354 N 
ATOM     21  C   UNL A   1      39.512  29.746  29.716  1.00  0.00     0.074 A 
ATOM     22  C   UNL A   1      38.548  29.972  28.658  1.00  0.00     0.031 C 
ATOM     23  C   UNL A   1      37.762  34.038  34.185  1.00  0.00     0.029 A 
ATOM     24  C   UNL A   1      38.866  33.089  34.255  1.00  0.00     0.049 A 
ATOM     25  H   UNL A   1      39.466  31.720  32.804  1.00  0.00     0.167 HD
ATOM     26  C   UNL A   1      40.514  28.835  29.668  1.00  0.00     0.037 A 
ATOM     27  C   UNL A   1      39.689  32.940  35.307  1.00  0.00     0.037 A 
ATOM     28  C   UNL A   1      41.473  28.630  30.726  1.00  0.00     0.049 A 
ATOM     29  C   UNL A   1      40.766  31.898  35.239  1.00  0.00     0.074 A 
ATOM     30  C   UNL A   1      42.545  27.755  30.763  1.00  0.00     0.029 A 
ATOM     31  N   UNL A   1      41.470  29.308  31.937  1.00  0.00    -0.354 N 
ATOM     32  N   UNL A   1      41.063  31.082  34.257  1.00  0.00    -0.248 NA
ATOM     33  C   UNL A   1      41.615  31.749  36.427  1.00  0.00     0.031 C 
ATOM     34  C   UNL A   1      43.161  27.869  32.014  1.00  0.00     0.029 A 
ATOM     35  C   UNL A   1      42.507  28.852  32.738  1.00  0.00     0.049 A 
ATOM     36  H   UNL A   1      40.828  30.010  32.190  1.00  0.00     0.167 HD
ATOM     37  C   UNL A   1      42.140  30.332  34.700  1.00  0.00     0.074 A 
ATOM     38  C   UNL A   1      42.458  30.805  36.032  1.00  0.00     0.031 C 
ATOM     39  C   UNL A   1      42.804  29.335  34.063  1.00  0.00     0.037 A 
BRANCH  26  40
ATOM     40  C   UNL A   1      40.617  27.967  28.445  1.00  0.00     0.064 A 
ATOM     41  C   UNL A   1      41.366  28.355  27.325  1.00  0.00     0.173 A 
ATOM     42  C   UNL A   1      40.004  26.705  28.418  1.00  0.00     0.173 A 
ATOM     43  F   UNL A   1      41.966  29.555  27.296  1.00  0.00    -0.203 F 
ATOM     44  C   UNL A   1      41.481  27.521  26.215  1.00  0.00     0.198 A 
ATOM     45  C   UNL A   1      40.142  25.862  27.317  1.00  0.00     0.198 A 
ATOM     46  F   UNL A   1      39.281  26.280  29.465  1.00  0.00    -0.203 F 
ATOM     47  F   UNL A   1      42.170  27.929  25.141  1.00  0.00    -0.200 F 
ATOM     48  C   UNL A   1      40.875  26.273  26.214  1.00  0.00     0.200 A 
ATOM     49  F   UNL A   1      39.567  24.651  27.324  1.00  0.00    -0.200 F 
ATOM     50  F   UNL A   1      40.994  25.468  25.149  1.00  0.00    -0.200 F 
ENDBRANCH  26  40
BRANCH  27  51
ATOM     51  C   UNL A   1      39.505  33.792  36.508  1.00  0.00     0.064 A 
ATOM     52  C   UNL A   1      38.760  33.342  37.605  1.00  0.00     0.173 A 
ATOM     53  C   UNL A   1      40.099  35.061  36.597  1.00  0.00     0.173 A 
ATOM     54  F   UNL A   1      38.161  32.143  37.560  1.00  0.00    -0.203 F 
ATOM     55  C   UNL A   1      38.605  34.133  38.741  1.00  0.00     0.198 A 
ATOM     56  C   UNL A   1      39.969  35.837  37.745  1.00  0.00     0.198 A 
ATOM     57  F   UNL A   1      40.831  35.534  35.577  1.00  0.00    -0.203 F 
ATOM     58  F   UNL A   1      37.856  33.694  39.762  1.00  0.00    -0.200 F 
ATOM     59  C   UNL A   1      39.217  35.376  38.814  1.00  0.00     0.200 A 
ATOM     60  F   UNL A   1      40.581  37.028  37.819  1.00  0.00    -0.200 F 
ATOM     61  F   UNL A   1      39.078  36.129  39.912  1.00  0.00    -0.200 F 
ENDBRANCH  27  51
BRANCH  39  62
ATOM     62  C   UNL A   1      43.953  28.712  34.797  1.00  0.00     0.064 A 
ATOM     63  C   UNL A   1      43.783  27.571  35.594  1.00  0.00     0.173 A 
ATOM     64  C   UNL A   1      45.244  29.249  34.681  1.00  0.00     0.173 A 
ATOM     65  F   UNL A   1      42.564  27.034  35.751  1.00  0.00    -0.203 F 
ATOM     66  C   UNL A   1      44.860  27.005  36.271  1.00  0.00     0.198 A 
ATOM     67  C   UNL A   1      46.324  28.664  35.335  1.00  0.00     0.198 A 
ATOM     68  F   UNL A   1      45.459  30.337  33.927  1.00  0.00    -0.203 F 
ATOM     69  F   UNL A   1      44.665  25.946  37.068  1.00  0.00    -0.200 F 
ATOM     70  C   UNL A   1      46.129  27.547  36.135  1.00  0.00     0.200 A 
ATOM     71  F   UNL A   1      47.551  29.181  35.195  1.00  0.00    -0.200 F 
ATOM     72  F   UNL A   1      47.166  26.999  36.785  1.00  0.00    -0.200 F 
ENDBRANCH  39  62
ENDBRANCH  13  14
ENDBRANCH   6   8
ENDBRANCH   3   4
ENDBRANCH   2   3
ENDBRANCH   1   2
BRANCH   1  73
ATOM     73  C   UNL A   1      32.427  29.883  27.265  1.00  0.00     0.002 C 
BRANCH  73  74
ATOM     74  C   UNL A   1      33.729  29.184  26.879  1.00  0.00     0.021 C 
BRANCH  74  75
ATOM     75  C   UNL A   1      33.974  28.822  25.413  1.00  0.00     0.116 C 
BRANCH  75  76
ATOM     76  N   UNL A   1      33.772  27.454  24.985  1.00  0.00    -0.354 N 
ATOM     77  C   UNL A   1      32.679  26.912  24.373  1.00  0.00     0.248 C 
ATOM     78  H   UNL A   1      34.518  26.835  25.157  1.00  0.00     0.163 HD
ATOM     79  O   UNL A   1      32.883  26.151  23.420  1.00  0.00    -0.272 OA
BRANCH  77  80
ATOM     80  C   UNL A   1      31.252  27.357  24.689  1.00  0.00     0.231 C 
ATOM     81  C   UNL A   1      30.616  26.071  25.328  1.00  0.00     0.296 C 
ATOM     82  N   UNL A   1      30.532  27.957  23.556  1.00  0.00    -0.302 N 
ATOM     83  N   UNL A   1      29.161  25.895  25.222  1.00  0.00    -0.343 N 
ATOM     84  C   UNL A   1      29.128  27.519  23.367  1.00  0.00     0.183 C 
ATOM     85  C   UNL A   1      28.787  26.099  23.823  1.00  0.00     0.282 C 
ATOM     86  H   UNL A   1      28.685  26.578  25.811  1.00  0.00     0.346 HD
ATOM     87  H   UNL A   1      28.892  24.961  25.529  1.00  0.00     0.346 HD
BRANCH  82  88
ATOM     88  C   UNL A   1      30.839  29.102  22.892  1.00  0.00     0.318 C 
ATOM     89  O   UNL A   1      31.988  29.257  22.442  1.00  0.00    -0.249 OA
ATOM     90  N   UNL A   1      30.089  30.162  22.625  1.00  0.00    -0.333 N 
ATOM     91  H   UNL A   1      30.711  30.756  22.148  1.00  0.00     0.165 HD
BRANCH  90  92
ATOM     92  C   UNL A   1      28.835  30.947  22.645  1.00  0.00     0.112 C 
ATOM     93  C   UNL A   1      28.072  31.003  21.332  1.00  0.00     0.056 C 
ATOM     94  C   UNL A   1      28.699  32.344  23.206  1.00  0.00     0.185 C 
ATOM     95  C   UNL A   1      27.996  32.468  20.976  1.00  0.00     0.162 C 
ATOM     96  O   UNL A   1      28.337  33.224  22.133  1.00  0.00    -0.379 OA
ENDBRANCH  90  92
ENDBRANCH  82  88
ENDBRANCH  77  80
ENDBRANCH  75  76
ENDBRANCH  74  75
ENDBRANCH  73  74
ENDBRANCH   1  73
TORSDOF 15
ENDMDL
MODEL 2
REMARK VINA RESULT:     -12.2      0.240      7.413
REMARK SMILES O=C(NCCCCCCNC(=O)[C@@H]1C[NH2+]CCN1C(=O)N[C@@H]1CCOC1)c1ccc(-c2c3nc(c(-c4c(F)c(F)c(F)c(F)c4F)c4ccc([nH]4)c(-c4c(F)c(F)c(F)c(F)c4F)c4nc(c(-c5c(F)c(F)c(F)c(F)c5F)c5ccc2[nH]5)C=C4)C=C3)cc1
REMARK SMILES IDX 6 1 5 2 4 3 3 4 1 5 2 6 27 8 28 9 89 10 29 11 88 12 30 13
REMARK SMILES IDX 31 14 32 15 82 16 33 17 87 18 81 19 83 20 34 21 86 22 80 23
REMARK SMILES IDX 79 24 35 26 67 27 47 28 66 29 48 30 51 31 65 32 84 33 49 34
REMARK SMILES IDX 50 35 64 37 85 38 52 39 36 40 37 41 45 42 38 43 39 44 43 45
REMARK SMILES IDX 46 46 40 47 41 48 44 49 42 50 68 51 69 52 77 53 70 54 71 55
REMARK SMILES IDX 75 56 78 57 72 58 73 59 76 60 74 61 53 62 54 63 62 64 55 65
REMARK SMILES IDX 56 66 60 67 63 68 57 69 58 70 61 71 59 72 7 73 8 74 9 75
REMARK SMILES IDX 10 76 11 77 12 79 13 80 14 81 18 82 15 83 17 84 16 85 19 88
REMARK SMILES IDX 20 89 21 90 22 92 23 93 26 94 24 95 25 96
REMARK H PARENT 3 7 83 25 51 36 10 78 15 86 15 87 21 91
REMARK Flexibility Score: inf
ROOT
ATOM      1  C   UNL A   1      31.781  30.705  26.183  1.00  0.00     0.002 C 
ENDROOT
BRANCH   1   2
ATOM      2  C   UNL A   1      31.459  32.079  26.758  1.00  0.00     0.021 C 
BRANCH   2   3
ATOM      3  C   UNL A   1      32.673  32.829  27.274  1.00  0.00     0.116 C 
BRANCH   3   4
ATOM      4  N   UNL A   1      32.393  34.220  27.593  1.00  0.00    -0.352 N 
ATOM      5  O   UNL A   1      32.610  36.110  28.830  1.00  0.00    -0.269 OA
ATOM      6  C   UNL A   1      33.001  34.990  28.562  1.00  0.00     0.251 C 
ATOM      7  H   UNL A   1      31.692  34.659  27.058  1.00  0.00     0.163 HD
BRANCH   6   8
ATOM      8  C   UNL A   1      34.134  34.389  29.299  1.00  0.00     0.039 A 
ATOM      9  C   UNL A   1      35.439  34.593  28.843  1.00  0.00     0.014 A 
ATOM     10  C   UNL A   1      33.879  33.552  30.386  1.00  0.00     0.014 A 
ATOM     11  C   UNL A   1      36.476  33.848  29.386  1.00  0.00     0.010 A 
ATOM     12  C   UNL A   1      34.940  32.873  30.991  1.00  0.00     0.010 A 
ATOM     13  C   UNL A   1      36.241  33.000  30.480  1.00  0.00    -0.014 A 
BRANCH  13  14
ATOM     14  C   UNL A   1      37.393  32.329  31.131  1.00  0.00     0.031 A 
ATOM     15  C   UNL A   1      37.841  32.702  32.513  1.00  0.00     0.074 A 
ATOM     16  C   UNL A   1      38.024  31.357  30.445  1.00  0.00     0.049 A 
ATOM     17  N   UNL A   1      38.843  32.227  33.209  1.00  0.00    -0.248 NA
ATOM     18  C   UNL A   1      37.072  33.746  33.207  1.00  0.00     0.031 C 
ATOM     19  C   UNL A   1      37.670  30.921  29.092  1.00  0.00     0.029 A 
ATOM     20  N   UNL A   1      39.078  30.552  30.789  1.00  0.00    -0.354 N 
ATOM     21  C   UNL A   1      38.840  32.924  34.409  1.00  0.00     0.074 A 
ATOM     22  C   UNL A   1      37.746  33.871  34.343  1.00  0.00     0.031 C 
ATOM     23  C   UNL A   1      38.463  29.901  28.737  1.00  0.00     0.029 A 
ATOM     24  C   UNL A   1      39.427  29.663  29.803  1.00  0.00     0.049 A 
ATOM     25  H   UNL A   1      39.540  30.606  31.657  1.00  0.00     0.167 HD
ATOM     26  C   UNL A   1      39.675  32.779  35.467  1.00  0.00     0.037 A 
ATOM     27  C   UNL A   1      40.432  28.771  29.750  1.00  0.00     0.037 A 
ATOM     28  C   UNL A   1      40.754  31.823  35.522  1.00  0.00     0.049 A 
ATOM     29  C   UNL A   1      41.361  28.659  30.921  1.00  0.00     0.074 A 
ATOM     30  C   UNL A   1      41.636  31.575  36.559  1.00  0.00     0.029 A 
ATOM     31  N   UNL A   1      41.099  30.961  34.491  1.00  0.00    -0.354 N 
ATOM     32  N   UNL A   1      41.335  29.309  32.059  1.00  0.00    -0.248 NA
ATOM     33  C   UNL A   1      42.464  27.699  30.799  1.00  0.00     0.031 C 
ATOM     34  C   UNL A   1      42.545  30.597  36.137  1.00  0.00     0.029 A 
ATOM     35  C   UNL A   1      42.197  30.198  34.858  1.00  0.00     0.049 A 
ATOM     36  H   UNL A   1      40.632  30.899  33.625  1.00  0.00     0.167 HD
ATOM     37  C   UNL A   1      42.406  28.829  32.795  1.00  0.00     0.074 A 
ATOM     38  C   UNL A   1      43.049  27.816  31.982  1.00  0.00     0.031 C 
ATOM     39  C   UNL A   1      42.824  29.196  34.031  1.00  0.00     0.037 A 
BRANCH  26  40
ATOM     40  C   UNL A   1      39.478  33.689  36.647  1.00  0.00     0.064 A 
ATOM     41  C   UNL A   1      38.706  33.306  37.754  1.00  0.00     0.173 A 
ATOM     42  C   UNL A   1      40.118  34.937  36.696  1.00  0.00     0.173 A 
ATOM     43  F   UNL A   1      38.066  32.127  37.756  1.00  0.00    -0.203 F 
ATOM     44  C   UNL A   1      38.565  34.147  38.855  1.00  0.00     0.198 A 
ATOM     45  C   UNL A   1      39.996  35.764  37.810  1.00  0.00     0.198 A 
ATOM     46  F   UNL A   1      40.875  35.350  35.668  1.00  0.00    -0.203 F 
ATOM     47  F   UNL A   1      37.791  33.777  39.884  1.00  0.00    -0.200 F 
ATOM     48  C   UNL A   1      39.216  35.372  38.886  1.00  0.00     0.200 A 
ATOM     49  F   UNL A   1      40.637  36.942  37.842  1.00  0.00    -0.200 F 
ATOM     50  F   UNL A   1      39.085  36.176  39.950  1.00  0.00    -0.200 F 
ENDBRANCH  26  40
BRANCH  27  51
ATOM     51  C   UNL A   1      40.607  27.937  28.535  1.00  0.00     0.064 A 
ATOM     52  C   UNL A   1      39.993  26.683  28.426  1.00  0.00     0.173 A 
ATOM     53  C   UNL A   1      41.366  28.390  27.444  1.00  0.00     0.173 A 
ATOM     54  F   UNL A   1      39.270  26.200  29.448  1.00  0.00    -0.203 F 
ATOM     55  C   UNL A   1      40.140  25.909  27.277  1.00  0.00     0.198 A 
ATOM     56  C   UNL A   1      41.486  27.629  26.285  1.00  0.00     0.198 A 
ATOM     57  F   UNL A   1      41.967  29.588  27.496  1.00  0.00    -0.203 F 
ATOM     58  F   UNL A   1      39.571  24.696  27.213  1.00  0.00    -0.200 F 
ATOM     59  C   UNL A   1      40.879  26.386  26.204  1.00  0.00     0.200 A 
ATOM     60  F   UNL A   1      42.182  28.104  25.243  1.00  0.00    -0.200 F 
ATOM     61  F   UNL A   1      41.007  25.646  25.095  1.00  0.00    -0.200 F 
ENDBRANCH  27  51
BRANCH  39  62
ATOM     62  C   UNL A   1      44.020  28.480  34.583  1.00  0.00     0.064 A 
ATOM     63  C   UNL A   1      45.319  28.982  34.415  1.00  0.00     0.173 A 
ATOM     64  C   UNL A   1      43.861  27.288  35.307  1.00  0.00     0.173 A 
ATOM     65  F   UNL A   1      45.522  30.106  33.713  1.00  0.00    -0.203 F 
ATOM     66  C   UNL A   1      46.419  28.302  34.931  1.00  0.00     0.198 A 
ATOM     67  C   UNL A   1      44.961  26.627  35.846  1.00  0.00     0.198 A 
ATOM     68  F   UNL A   1      42.639  26.769  35.496  1.00  0.00    -0.203 F 
ATOM     69  F   UNL A   1      47.655  28.773  34.715  1.00  0.00    -0.200 F 
ATOM     70  C   UNL A   1      46.238  27.131  35.651  1.00  0.00     0.200 A 
ATOM     71  F   UNL A   1      44.785  25.502  36.550  1.00  0.00    -0.200 F 
ATOM     72  F   UNL A   1      47.299  26.480  36.150  1.00  0.00    -0.200 F 
ENDBRANCH  39  62
ENDBRANCH  13  14
ENDBRANCH   6   8
ENDBRANCH   3   4
ENDBRANCH   2   3
ENDBRANCH   1   2
BRANCH   1  73
ATOM     73  C   UNL A   1      32.246  29.679  27.215  1.00  0.00     0.002 C 
BRANCH  73  74
ATOM     74  C   UNL A   1      33.574  28.974  26.947  1.00  0.00     0.021 C 
BRANCH  74  75
ATOM     75  C   UNL A   1      33.972  28.658  25.504  1.00  0.00     0.116 C 
BRANCH  75  76
ATOM     76  N   UNL A   1      33.747  27.323  24.990  1.00  0.00    -0.354 N 
ATOM     77  C   UNL A   1      32.652  26.842  24.334  1.00  0.00     0.248 C 
ATOM     78  H   UNL A   1      34.479  26.679  25.133  1.00  0.00     0.163 HD
ATOM     79  O   UNL A   1      32.853  26.137  23.339  1.00  0.00    -0.272 OA
BRANCH  77  80
ATOM     80  C   UNL A   1      31.231  27.297  24.660  1.00  0.00     0.231 C 
ATOM     81  C   UNL A   1      30.574  26.000  25.256  1.00  0.00     0.296 C 
ATOM     82  N   UNL A   1      30.523  27.943  23.546  1.00  0.00    -0.302 N 
ATOM     83  N   UNL A   1      29.117  25.849  25.140  1.00  0.00    -0.343 N 
ATOM     84  C   UNL A   1      29.114  27.532  23.338  1.00  0.00     0.183 C 
ATOM     85  C   UNL A   1      28.751  26.103  23.748  1.00  0.00     0.282 C 
ATOM     86  H   UNL A   1      28.649  26.519  25.749  1.00  0.00     0.346 HD
ATOM     87  H   UNL A   1      28.834  24.909  25.416  1.00  0.00     0.346 HD
BRANCH  82  88
ATOM     88  C   UNL A   1      30.848  29.104  22.920  1.00  0.00     0.318 C 
ATOM     89  O   UNL A   1      32.009  29.270  22.506  1.00  0.00    -0.249 OA
ATOM     90  N   UNL A   1      30.106  30.171  22.658  1.00  0.00    -0.333 N 
ATOM     91  H   UNL A   1      30.741  30.777  22.214  1.00  0.00     0.165 HD
BRANCH  90  92
ATOM     92  C   UNL A   1      28.851  30.957  22.664  1.00  0.00     0.112 C 
ATOM     93  C   UNL A   1      28.056  30.936  21.370  1.00  0.00     0.056 C 
ATOM     94  C   UNL A   1      28.728  32.384  23.145  1.00  0.00     0.185 C 
ATOM     95  C   UNL A   1      27.969  32.377  20.930  1.00  0.00     0.162 C 
ATOM     96  O   UNL A   1      28.338  33.200  22.032  1.00  0.00    -0.379 OA
ENDBRANCH  90  92
ENDBRANCH  82  88
ENDBRANCH  77  80
ENDBRANCH  75  76
ENDBRANCH  74  75
ENDBRANCH  73  74
ENDBRANCH   1  73
TORSDOF 15
ENDMDL
MODEL 3
REMARK VINA RESULT:     -12.1      6.280     10.369
REMARK SMILES O=C(NCCCCCCNC(=O)[C@@H]1C[NH2+]CCN1C(=O)N[C@@H]1CCOC1)c1ccc(-c2c3nc(c(-c4c(F)c(F)c(F)c(F)c4F)c4ccc([nH]4)c(-c4c(F)c(F)c(F)c(F)c4F)c4nc(c(-c5c(F)c(F)c(F)c(F)c5F)c5ccc2[nH]5)C=C4)C=C3)cc1
REMARK SMILES IDX 6 1 5 2 4 3 3 4 1 5 2 6 27 8 28 9 89 10 29 11 88 12 30 13
REMARK SMILES IDX 31 14 32 15 82 16 33 17 87 18 81 19 83 20 34 21 86 22 80 23
REMARK SMILES IDX 79 24 35 26 67 27 47 28 66 29 48 30 51 31 65 32 84 33 49 34
REMARK SMILES IDX 50 35 64 37 85 38 52 39 36 40 37 41 45 42 38 43 39 44 43 45
REMARK SMILES IDX 46 46 40 47 41 48 44 49 42 50 68 51 69 52 77 53 70 54 71 55
REMARK SMILES IDX 75 56 78 57 72 58 73 59 76 60 74 61 53 62 54 63 62 64 55 65
REMARK SMILES IDX 56 66 60 67 63 68 57 69 58 70 61 71 59 72 7 73 8 74 9 75
REMARK SMILES IDX 10 76 11 77 12 79 13 80 14 81 18 82 15 83 17 84 16 85 19 88
REMARK SMILES IDX 20 89 21 90 22 92 23 93 26 94 24 95 25 96
REMARK H PARENT 3 7 83 25 51 36 10 78 15 86 15 87 21 91
REMARK Flexibility Score: inf
ROOT
ATOM      1  C   UNL A   1      36.931  20.554  25.054  1.00  0.00     0.002 C 
ENDROOT
BRANCH   1   2
ATOM      2  C   UNL A   1      38.152  19.662  24.873  1.00  0.00     0.021 C 
BRANCH   2   3
ATOM      3  C   UNL A   1      39.328  20.040  25.755  1.00  0.00     0.116 C 
BRANCH   3   4
ATOM      4  N   UNL A   1      40.308  18.975  25.889  1.00  0.00    -0.352 N 
ATOM      5  O   UNL A   1      42.417  18.162  26.099  1.00  0.00    -0.269 OA
ATOM      6  C   UNL A   1      41.661  19.115  26.124  1.00  0.00     0.251 C 
ATOM      7  H   UNL A   1      39.971  18.054  25.801  1.00  0.00     0.163 HD
BRANCH   6   8
ATOM      8  C   UNL A   1      42.172  20.479  26.375  1.00  0.00     0.039 A 
ATOM      9  C   UNL A   1      42.312  20.934  27.688  1.00  0.00     0.014 A 
ATOM     10  C   UNL A   1      42.422  21.328  25.294  1.00  0.00     0.014 A 
ATOM     11  C   UNL A   1      42.565  22.278  27.922  1.00  0.00     0.010 A 
ATOM     12  C   UNL A   1      42.768  22.659  25.534  1.00  0.00     0.010 A 
ATOM     13  C   UNL A   1      42.819  23.148  26.850  1.00  0.00    -0.014 A 
BRANCH  13  14
ATOM     14  C   UNL A   1      43.229  24.544  27.138  1.00  0.00     0.031 A 
ATOM     15  C   UNL A   1      44.627  25.022  26.877  1.00  0.00     0.074 A 
ATOM     16  C   UNL A   1      42.299  25.384  27.630  1.00  0.00     0.049 A 
ATOM     17  N   UNL A   1      45.148  26.203  27.098  1.00  0.00    -0.248 NA
ATOM     18  C   UNL A   1      45.570  24.050  26.300  1.00  0.00     0.031 C 
ATOM     19  C   UNL A   1      40.911  25.018  27.924  1.00  0.00     0.029 A 
ATOM     20  N   UNL A   1      42.370  26.712  27.958  1.00  0.00    -0.354 N 
ATOM     21  C   UNL A   1      46.477  26.114  26.709  1.00  0.00     0.074 A 
ATOM     22  C   UNL A   1      46.693  24.756  26.255  1.00  0.00     0.031 C 
ATOM     23  C   UNL A   1      40.250  26.104  28.347  1.00  0.00     0.029 A 
ATOM     24  C   UNL A   1      41.184  27.220  28.427  1.00  0.00     0.049 A 
ATOM     25  H   UNL A   1      43.190  27.249  27.868  1.00  0.00     0.167 HD
ATOM     26  C   UNL A   1      47.425  27.083  26.730  1.00  0.00     0.037 A 
ATOM     27  C   UNL A   1      40.885  28.443  28.898  1.00  0.00     0.037 A 
ATOM     28  C   UNL A   1      47.191  28.435  27.175  1.00  0.00     0.049 A 
ATOM     29  C   UNL A   1      41.963  29.484  28.941  1.00  0.00     0.074 A 
ATOM     30  C   UNL A   1      48.074  29.500  27.205  1.00  0.00     0.029 A 
ATOM     31  N   UNL A   1      45.984  28.905  27.675  1.00  0.00    -0.354 N 
ATOM     32  N   UNL A   1      43.211  29.394  28.551  1.00  0.00    -0.248 NA
ATOM     33  C   UNL A   1      41.597  30.791  29.498  1.00  0.00     0.031 C 
ATOM     34  C   UNL A   1      47.417  30.600  27.767  1.00  0.00     0.029 A 
ATOM     35  C   UNL A   1      46.108  30.237  28.039  1.00  0.00     0.049 A 
ATOM     36  H   UNL A   1      45.161  28.371  27.758  1.00  0.00     0.167 HD
ATOM     37  C   UNL A   1      43.777  30.634  28.801  1.00  0.00     0.074 A 
ATOM     38  C   UNL A   1      42.729  31.466  29.357  1.00  0.00     0.031 C 
ATOM     39  C   UNL A   1      45.052  31.046  28.594  1.00  0.00     0.037 A 
BRANCH  26  40
ATOM     40  C   UNL A   1      48.812  26.718  26.280  1.00  0.00     0.064 A 
ATOM     41  C   UNL A   1      49.736  26.117  27.147  1.00  0.00     0.173 A 
ATOM     42  C   UNL A   1      49.201  26.921  24.947  1.00  0.00     0.173 A 
ATOM     43  F   UNL A   1      49.417  25.908  28.434  1.00  0.00    -0.203 F 
ATOM     44  C   UNL A   1      51.004  25.752  26.702  1.00  0.00     0.198 A 
ATOM     45  C   UNL A   1      50.461  26.530  24.499  1.00  0.00     0.198 A 
ATOM     46  F   UNL A   1      48.355  27.485  24.073  1.00  0.00    -0.203 F 
ATOM     47  F   UNL A   1      51.883  25.214  27.559  1.00  0.00    -0.200 F 
ATOM     48  C   UNL A   1      51.364  25.952  25.378  1.00  0.00     0.200 A 
ATOM     49  F   UNL A   1      50.801  26.713  23.215  1.00  0.00    -0.200 F 
ATOM     50  F   UNL A   1      52.582  25.592  24.950  1.00  0.00    -0.200 F 
ENDBRANCH  26  40
BRANCH  27  51
ATOM     51  C   UNL A   1      39.509  28.728  29.376  1.00  0.00     0.064 A 
ATOM     52  C   UNL A   1      39.131  28.451  30.696  1.00  0.00     0.173 A 
ATOM     53  C   UNL A   1      38.552  29.313  28.531  1.00  0.00     0.173 A 
ATOM     54  F   UNL A   1      40.005  27.879  31.536  1.00  0.00    -0.203 F 
ATOM     55  C   UNL A   1      37.846  28.738  31.150  1.00  0.00     0.198 A 
ATOM     56  C   UNL A   1      37.278  29.628  28.995  1.00  0.00     0.198 A 
ATOM     57  F   UNL A   1      38.867  29.606  27.260  1.00  0.00    -0.203 F 
ATOM     58  F   UNL A   1      37.499  28.431  32.408  1.00  0.00    -0.200 F 
ATOM     59  C   UNL A   1      36.923  29.335  30.302  1.00  0.00     0.200 A 
ATOM     60  F   UNL A   1      36.398  30.224  28.179  1.00  0.00    -0.200 F 
ATOM     61  F   UNL A   1      35.693  29.623  30.745  1.00  0.00    -0.200 F 
ENDBRANCH  27  51
BRANCH  39  62
ATOM     62  C   UNL A   1      45.370  32.467  28.951  1.00  0.00     0.064 A 
ATOM     63  C   UNL A   1      45.172  33.515  28.041  1.00  0.00     0.173 A 
ATOM     64  C   UNL A   1      45.858  32.786  30.228  1.00  0.00     0.173 A 
ATOM     65  F   UNL A   1      44.727  33.257  26.802  1.00  0.00    -0.203 F 
ATOM     66  C   UNL A   1      45.475  34.829  28.387  1.00  0.00     0.198 A 
ATOM     67  C   UNL A   1      46.131  34.104  30.581  1.00  0.00     0.198 A 
ATOM     68  F   UNL A   1      46.061  31.819  31.135  1.00  0.00    -0.203 F 
ATOM     69  F   UNL A   1      45.327  35.808  27.485  1.00  0.00    -0.200 F 
ATOM     70  C   UNL A   1      45.947  35.122  29.658  1.00  0.00     0.200 A 
ATOM     71  F   UNL A   1      46.577  34.388  31.811  1.00  0.00    -0.200 F 
ATOM     72  F   UNL A   1      46.235  36.388  29.990  1.00  0.00    -0.200 F 
ENDBRANCH  39  62
ENDBRANCH  13  14
ENDBRANCH   6   8
ENDBRANCH   3   4
ENDBRANCH   2   3
ENDBRANCH   1   2
BRANCH   1  73
ATOM     73  C   UNL A   1      36.969  21.852  24.249  1.00  0.00     0.002 C 
BRANCH  73  74
ATOM     74  C   UNL A   1      37.321  23.132  25.004  1.00  0.00     0.021 C 
BRANCH  74  75
ATOM     75  C   UNL A   1      36.219  23.878  25.759  1.00  0.00     0.116 C 
BRANCH  75  76
ATOM     76  N   UNL A   1      35.543  23.212  26.853  1.00  0.00    -0.354 N 
ATOM     77  C   UNL A   1      34.314  22.618  26.852  1.00  0.00     0.248 C 
ATOM     78  H   UNL A   1      36.033  23.184  27.707  1.00  0.00     0.163 HD
ATOM     79  O   UNL A   1      34.217  21.519  27.409  1.00  0.00    -0.272 OA
BRANCH  77  80
ATOM     80  C   UNL A   1      33.140  23.156  26.037  1.00  0.00     0.231 C 
ATOM     81  C   UNL A   1      32.340  24.003  27.090  1.00  0.00     0.296 C 
ATOM     82  N   UNL A   1      32.384  22.133  25.301  1.00  0.00    -0.302 N 
ATOM     83  N   UNL A   1      30.897  24.184  26.878  1.00  0.00    -0.343 N 
ATOM     84  C   UNL A   1      30.906  22.243  25.358  1.00  0.00     0.183 C 
ATOM     85  C   UNL A   1      30.315  22.867  26.623  1.00  0.00     0.282 C 
ATOM     86  H   UNL A   1      30.737  24.794  26.077  1.00  0.00     0.346 HD
ATOM     87  H   UNL A   1      30.467  24.609  27.699  1.00  0.00     0.346 HD
BRANCH  82  88
ATOM     88  C   UNL A   1      32.831  21.334  24.297  1.00  0.00     0.318 C 
ATOM     89  O   UNL A   1      32.867  21.776  23.135  1.00  0.00    -0.249 OA
ATOM     90  N   UNL A   1      33.256  20.078  24.329  1.00  0.00    -0.333 N 
ATOM     91  H   UNL A   1      33.461  19.892  23.385  1.00  0.00     0.165 HD
BRANCH  90  92
ATOM     92  C   UNL A   1      33.594  18.802  24.996  1.00  0.00     0.112 C 
ATOM     93  C   UNL A   1      34.407  17.821  24.167  1.00  0.00     0.056 C 
ATOM     94  C   UNL A   1      32.609  17.926  25.736  1.00  0.00     0.185 C 
ATOM     95  C   UNL A   1      33.558  16.577  24.074  1.00  0.00     0.162 C 
ATOM     96  O   UNL A   1      32.528  16.668  25.054  1.00  0.00    -0.379 OA
ENDBRANCH  90  92
ENDBRANCH  82  88
ENDBRANCH  77  80
ENDBRANCH  75  76
ENDBRANCH  74  75
ENDBRANCH  73  74
ENDBRANCH   1  73
TORSDOF 15
ENDMDL
