MODEL 1
REMARK VINA RESULT:     -12.0      0.000      0.000
REMARK SMILES CC[C@H](C)[C@@H](C(=O)NCCCCCCNC(=O)c1ccc(-c2c3nc(c(-c4c(F)c(F)c(F)c(F)c4F)c4ccc([nH]4)c(-c4c(F)c(F)c(F)c(F)c4F)c4nc(c(-c5c(F)c(F)c(F)c(F)c5F)c5ccc2[nH]5)C=C4)C=C3)cc1)N1C(=O)/C(=C/c2ccccc2OC)SC1=S
REMARK SMILES IDX 11 1 10 2 9 3 8 4 6 5 7 6 5 8 3 9 4 10 2 11 1 12 81 13 82 14
REMARK SMILES IDX 95 15 83 16 84 17 94 18 96 19 85 20 86 21 87 22 91 23 88 24
REMARK SMILES IDX 90 25 89 26 92 27 93 28 12 29 13 30 14 31 15 32 16 33 17 35
REMARK SMILES IDX 18 36 19 37 80 38 20 39 79 40 21 41 22 42 23 43 73 44 24 45
REMARK SMILES IDX 78 46 72 47 74 48 25 49 77 50 71 51 70 52 26 54 58 55 38 56
REMARK SMILES IDX 57 57 39 58 42 59 56 60 75 61 40 62 41 63 55 65 76 66 43 67
REMARK SMILES IDX 27 68 28 69 36 70 29 71 30 72 34 73 37 74 31 75 32 76 35 77
REMARK SMILES IDX 33 78 59 79 60 80 68 81 61 82 62 83 66 84 69 85 63 86 64 87
REMARK SMILES IDX 67 88 65 89 44 90 45 91 53 92 46 93 47 94 51 95 54 96 48 97
REMARK SMILES IDX 49 98 52 99 50 100
REMARK H PARENT 8 7 15 34 74 53 42 64
REMARK Flexibility Score: inf
ROOT
ATOM      1  C   UNL A   1      30.404  30.671  24.627  1.00  0.00     0.002 C 
ENDROOT
BRANCH   1   2
ATOM      2  C   UNL A   1      30.466  29.321  23.909  1.00  0.00     0.021 C 
BRANCH   2   3
ATOM      3  C   UNL A   1      30.345  29.382  22.385  1.00  0.00     0.116 C 
BRANCH   3   4
ATOM      4  N   UNL A   1      30.698  28.110  21.797  1.00  0.00    -0.354 N 
ATOM      5  C   UNL A   1      31.463  27.075  22.233  1.00  0.00     0.243 C 
ATOM      6  O   UNL A   1      31.394  26.067  21.515  1.00  0.00    -0.273 OA
ATOM      7  H   UNL A   1      30.307  27.965  20.905  1.00  0.00     0.163 HD
BRANCH   5   8
ATOM      8  C   UNL A   1      32.268  27.082  23.583  1.00  0.00     0.184 C 
BRANCH   8   9
ATOM      9  C   UNL A   1      33.746  27.602  23.672  1.00  0.00     0.018 C 
ATOM     10  C   UNL A   1      34.195  28.454  22.494  1.00  0.00     0.010 C 
BRANCH   9  11
ATOM     11  C   UNL A   1      33.943  28.412  24.988  1.00  0.00     0.002 C 
ATOM     12  C   UNL A   1      33.846  27.589  26.265  1.00  0.00     0.004 C 
ENDBRANCH   9  11
ENDBRANCH   8   9
BRANCH   8  13
ATOM     13  N   UNL A   1      32.229  25.658  24.035  1.00  0.00    -0.280 N 
ATOM     14  C   UNL A   1      33.160  24.772  23.505  1.00  0.00     0.266 C 
ATOM     15  C   UNL A   1      31.356  25.133  24.962  1.00  0.00     0.149 C 
ATOM     16  O   UNL A   1      34.081  25.038  22.740  1.00  0.00    -0.268 OA
ATOM     17  C   UNL A   1      32.910  23.407  24.011  1.00  0.00     0.081 C 
ATOM     18  S   UNL A   1      31.770  23.450  25.287  1.00  0.00    -0.054 SA
ATOM     19  S   UNL A   1      30.103  25.900  25.752  1.00  0.00    -0.052 S 
ATOM     20  C   UNL A   1      33.487  22.356  23.419  1.00  0.00     0.033 C 
BRANCH  20  21
ATOM     21  C   UNL A   1      33.298  20.948  23.769  1.00  0.00     0.018 A 
ATOM     22  C   UNL A   1      32.365  20.257  22.970  1.00  0.00     0.012 A 
ATOM     23  C   UNL A   1      33.963  20.259  24.797  1.00  0.00     0.126 A 
ATOM     24  C   UNL A   1      32.121  18.897  23.159  1.00  0.00     0.001 A 
ATOM     25  C   UNL A   1      33.723  18.887  24.958  1.00  0.00     0.047 A 
ATOM     26  C   UNL A   1      32.809  18.209  24.150  1.00  0.00     0.004 A 
BRANCH  23  27
ATOM     27  O   UNL A   1      34.902  20.739  25.670  1.00  0.00    -0.496 OA
ATOM     28  C   UNL A   1      36.237  20.907  25.211  1.00  0.00     0.278 C 
ENDBRANCH  23  27
ENDBRANCH  20  21
ENDBRANCH   8  13
ENDBRANCH   5   8
ENDBRANCH   3   4
ENDBRANCH   2   3
ENDBRANCH   1   2
BRANCH   1  29
ATOM     29  C   UNL A   1      31.367  30.835  25.803  1.00  0.00     0.002 C 
BRANCH  29  30
ATOM     30  C   UNL A   1      31.247  32.151  26.576  1.00  0.00     0.021 C 
BRANCH  30  31
ATOM     31  C   UNL A   1      32.551  32.689  27.165  1.00  0.00     0.116 C 
BRANCH  31  32
ATOM     32  N   UNL A   1      32.434  34.069  27.599  1.00  0.00    -0.352 N 
ATOM     33  C   UNL A   1      33.120  34.745  28.577  1.00  0.00     0.251 C 
ATOM     34  H   UNL A   1      31.759  34.602  27.120  1.00  0.00     0.163 HD
ATOM     35  O   UNL A   1      32.747  35.859  28.929  1.00  0.00    -0.269 OA
BRANCH  33  36
ATOM     36  C   UNL A   1      34.299  34.130  29.223  1.00  0.00     0.039 A 
ATOM     37  C   UNL A   1      34.093  33.219  30.262  1.00  0.00     0.014 A 
ATOM     38  C   UNL A   1      35.599  34.472  28.840  1.00  0.00     0.014 A 
ATOM     39  C   UNL A   1      35.188  32.613  30.881  1.00  0.00     0.010 A 
ATOM     40  C   UNL A   1      36.688  33.815  29.409  1.00  0.00     0.010 A 
ATOM     41  C   UNL A   1      36.494  32.884  30.441  1.00  0.00    -0.014 A 
BRANCH  41  42
ATOM     42  C   UNL A   1      37.659  32.197  31.055  1.00  0.00     0.031 A 
ATOM     43  C   UNL A   1      38.131  32.576  32.430  1.00  0.00     0.074 A 
ATOM     44  C   UNL A   1      38.319  31.258  30.350  1.00  0.00     0.049 A 
ATOM     45  N   UNL A   1      39.134  32.096  33.123  1.00  0.00    -0.248 NA
ATOM     46  C   UNL A   1      37.400  33.657  33.107  1.00  0.00     0.031 C 
ATOM     47  C   UNL A   1      37.995  30.845  28.984  1.00  0.00     0.029 A 
ATOM     48  N   UNL A   1      39.402  30.485  30.684  1.00  0.00    -0.354 N 
ATOM     49  C   UNL A   1      39.159  32.821  34.307  1.00  0.00     0.074 A 
ATOM     50  C   UNL A   1      38.107  33.810  34.217  1.00  0.00     0.031 C 
ATOM     51  C   UNL A   1      38.843  29.876  28.605  1.00  0.00     0.029 A 
ATOM     52  C   UNL A   1      39.788  29.620  29.689  1.00  0.00     0.049 A 
ATOM     53  H   UNL A   1      39.859  30.542  31.554  1.00  0.00     0.167 HD
ATOM     54  C   UNL A   1      39.969  32.660  35.381  1.00  0.00     0.037 A 
ATOM     55  C   UNL A   1      40.790  28.721  29.654  1.00  0.00     0.037 A 
ATOM     56  C   UNL A   1      40.999  31.658  35.476  1.00  0.00     0.049 A 
ATOM     57  C   UNL A   1      41.663  28.549  30.867  1.00  0.00     0.074 A 
ATOM     58  C   UNL A   1      41.824  31.367  36.548  1.00  0.00     0.029 A 
ATOM     59  N   UNL A   1      41.347  30.784  34.456  1.00  0.00    -0.354 N 
ATOM     60  N   UNL A   1      41.622  29.183  32.013  1.00  0.00    -0.248 NA
ATOM     61  C   UNL A   1      42.712  27.525  30.783  1.00  0.00     0.031 C 
ATOM     62  C   UNL A   1      42.705  30.351  36.159  1.00  0.00     0.029 A 
ATOM     63  C   UNL A   1      42.393  29.972  34.863  1.00  0.00     0.049 A 
ATOM     64  H   UNL A   1      40.914  30.748  33.572  1.00  0.00     0.167 HD
ATOM     65  C   UNL A   1      42.623  28.622  32.795  1.00  0.00     0.074 A 
ATOM     66  C   UNL A   1      43.239  27.581  31.999  1.00  0.00     0.031 C 
ATOM     67  C   UNL A   1      42.999  28.942  34.057  1.00  0.00     0.037 A 
BRANCH  54  68
ATOM     68  C   UNL A   1      39.773  33.591  36.544  1.00  0.00     0.064 A 
ATOM     69  C   UNL A   1      38.931  33.262  37.618  1.00  0.00     0.173 A 
ATOM     70  C   UNL A   1      40.458  34.814  36.600  1.00  0.00     0.173 A 
ATOM     71  F   UNL A   1      38.245  32.110  37.610  1.00  0.00    -0.203 F 
ATOM     72  C   UNL A   1      38.758  34.137  38.688  1.00  0.00     0.198 A 
ATOM     73  C   UNL A   1      40.307  35.672  37.687  1.00  0.00     0.198 A 
ATOM     74  F   UNL A   1      41.280  35.176  35.604  1.00  0.00    -0.203 F 
ATOM     75  F   UNL A   1      37.909  33.824  39.677  1.00  0.00    -0.200 F 
ATOM     76  C   UNL A   1      39.451  35.337  38.725  1.00  0.00     0.200 A 
ATOM     77  F   UNL A   1      40.987  36.826  37.728  1.00  0.00    -0.200 F 
ATOM     78  F   UNL A   1      39.287  36.176  39.758  1.00  0.00    -0.200 F 
ENDBRANCH  54  68
BRANCH  55  79
ATOM     79  C   UNL A   1      40.996  27.892  28.439  1.00  0.00     0.064 A 
ATOM     80  C   UNL A   1      41.810  28.340  27.390  1.00  0.00     0.173 A 
ATOM     81  C   UNL A   1      40.391  26.634  28.304  1.00  0.00     0.173 A 
ATOM     82  F   UNL A   1      42.395  29.545  27.464  1.00  0.00    -0.203 F 
ATOM     83  C   UNL A   1      41.996  27.571  26.243  1.00  0.00     0.198 A 
ATOM     84  C   UNL A   1      40.601  25.853  27.170  1.00  0.00     0.198 A 
ATOM     85  F   UNL A   1      39.608  26.157  29.283  1.00  0.00    -0.203 F 
ATOM     86  F   UNL A   1      42.745  28.042  25.238  1.00  0.00    -0.200 F 
ATOM     87  C   UNL A   1      41.397  26.325  26.137  1.00  0.00     0.200 A 
ATOM     88  F   UNL A   1      40.033  24.643  27.078  1.00  0.00    -0.200 F 
ATOM     89  F   UNL A   1      41.582  25.581  25.037  1.00  0.00    -0.200 F 
ENDBRANCH  55  79
BRANCH  67  90
ATOM     90  C   UNL A   1      44.117  28.142  34.661  1.00  0.00     0.064 A 
ATOM     91  C   UNL A   1      45.454  28.554  34.564  1.00  0.00     0.173 A 
ATOM     92  C   UNL A   1      43.845  26.955  35.359  1.00  0.00     0.173 A 
ATOM     93  F   UNL A   1      45.769  29.673  33.894  1.00  0.00    -0.203 F 
ATOM     94  C   UNL A   1      46.481  27.792  35.115  1.00  0.00     0.198 A 
ATOM     95  C   UNL A   1      44.871  26.213  35.938  1.00  0.00     0.198 A 
ATOM     96  F   UNL A   1      42.583  26.519  35.487  1.00  0.00    -0.203 F 
ATOM     97  F   UNL A   1      47.755  28.176  34.961  1.00  0.00    -0.200 F 
ATOM     98  C   UNL A   1      46.188  26.625  35.807  1.00  0.00     0.200 A 
ATOM     99  F   UNL A   1      44.585  25.092  36.617  1.00  0.00    -0.200 F 
ATOM    100  F   UNL A   1      47.177  25.894  36.338  1.00  0.00    -0.200 F 
ENDBRANCH  67  90
ENDBRANCH  41  42
ENDBRANCH  33  36
ENDBRANCH  31  32
ENDBRANCH  30  31
ENDBRANCH  29  30
ENDBRANCH   1  29
TORSDOF 18
ENDMDL
MODEL 2
REMARK VINA RESULT:     -12.0      0.571      6.975
REMARK SMILES CC[C@H](C)[C@@H](C(=O)NCCCCCCNC(=O)c1ccc(-c2c3nc(c(-c4c(F)c(F)c(F)c(F)c4F)c4ccc([nH]4)c(-c4c(F)c(F)c(F)c(F)c4F)c4nc(c(-c5c(F)c(F)c(F)c(F)c5F)c5ccc2[nH]5)C=C4)C=C3)cc1)N1C(=O)/C(=C/c2ccccc2OC)SC1=S
REMARK SMILES IDX 11 1 10 2 9 3 8 4 6 5 7 6 5 8 3 9 4 10 2 11 1 12 81 13 82 14
REMARK SMILES IDX 95 15 83 16 84 17 94 18 96 19 85 20 86 21 87 22 91 23 88 24
REMARK SMILES IDX 90 25 89 26 92 27 93 28 12 29 13 30 14 31 15 32 16 33 17 35
REMARK SMILES IDX 18 36 19 37 80 38 20 39 79 40 21 41 22 42 23 43 73 44 24 45
REMARK SMILES IDX 78 46 72 47 74 48 25 49 77 50 71 51 70 52 26 54 58 55 38 56
REMARK SMILES IDX 57 57 39 58 42 59 56 60 75 61 40 62 41 63 55 65 76 66 43 67
REMARK SMILES IDX 27 68 28 69 36 70 29 71 30 72 34 73 37 74 31 75 32 76 35 77
REMARK SMILES IDX 33 78 59 79 60 80 68 81 61 82 62 83 66 84 69 85 63 86 64 87
REMARK SMILES IDX 67 88 65 89 44 90 45 91 53 92 46 93 47 94 51 95 54 96 48 97
REMARK SMILES IDX 49 98 52 99 50 100
REMARK H PARENT 8 7 15 34 74 53 42 64
REMARK Flexibility Score: inf
ROOT
ATOM      1  C   UNL A   1      30.293  30.844  24.624  1.00  0.00     0.002 C 
ENDROOT
BRANCH   1   2
ATOM      2  C   UNL A   1      30.286  29.497  23.899  1.00  0.00     0.021 C 
BRANCH   2   3
ATOM      3  C   UNL A   1      30.513  29.565  22.387  1.00  0.00     0.116 C 
BRANCH   3   4
ATOM      4  N   UNL A   1      30.740  28.243  21.848  1.00  0.00    -0.354 N 
ATOM      5  C   UNL A   1      31.419  27.163  22.316  1.00  0.00     0.243 C 
ATOM      6  O   UNL A   1      31.246  26.136  21.643  1.00  0.00    -0.273 OA
ATOM      7  H   UNL A   1      30.319  28.096  20.970  1.00  0.00     0.163 HD
BRANCH   5   8
ATOM      8  C   UNL A   1      32.249  27.154  23.650  1.00  0.00     0.184 C 
BRANCH   8   9
ATOM      9  C   UNL A   1      33.730  27.670  23.717  1.00  0.00     0.018 C 
ATOM     10  C   UNL A   1      34.171  28.502  22.522  1.00  0.00     0.010 C 
BRANCH   9  11
ATOM     11  C   UNL A   1      33.942  28.500  25.018  1.00  0.00     0.002 C 
ATOM     12  C   UNL A   1      33.745  27.722  26.311  1.00  0.00     0.004 C 
ENDBRANCH   9  11
ENDBRANCH   8   9
BRANCH   8  13
ATOM     13  N   UNL A   1      32.216  25.726  24.088  1.00  0.00    -0.280 N 
ATOM     14  C   UNL A   1      33.147  24.848  23.546  1.00  0.00     0.266 C 
ATOM     15  C   UNL A   1      31.347  25.188  25.012  1.00  0.00     0.149 C 
ATOM     16  O   UNL A   1      34.065  25.123  22.781  1.00  0.00    -0.268 OA
ATOM     17  C   UNL A   1      32.903  23.476  24.039  1.00  0.00     0.081 C 
ATOM     18  S   UNL A   1      31.766  23.503  25.319  1.00  0.00    -0.054 SA
ATOM     19  S   UNL A   1      30.094  25.944  25.813  1.00  0.00    -0.052 S 
ATOM     20  C   UNL A   1      33.481  22.433  23.434  1.00  0.00     0.033 C 
BRANCH  20  21
ATOM     21  C   UNL A   1      33.296  21.021  23.771  1.00  0.00     0.018 A 
ATOM     22  C   UNL A   1      32.379  20.330  22.954  1.00  0.00     0.012 A 
ATOM     23  C   UNL A   1      33.951  20.329  24.803  1.00  0.00     0.126 A 
ATOM     24  C   UNL A   1      32.142  18.967  23.128  1.00  0.00     0.001 A 
ATOM     25  C   UNL A   1      33.718  18.954  24.950  1.00  0.00     0.047 A 
ATOM     26  C   UNL A   1      32.820  18.276  24.124  1.00  0.00     0.004 A 
BRANCH  23  27
ATOM     27  O   UNL A   1      34.875  20.808  25.692  1.00  0.00    -0.496 OA
ATOM     28  C   UNL A   1      34.415  21.401  26.900  1.00  0.00     0.278 C 
ENDBRANCH  23  27
ENDBRANCH  20  21
ENDBRANCH   8  13
ENDBRANCH   5   8
ENDBRANCH   3   4
ENDBRANCH   2   3
ENDBRANCH   1   2
BRANCH   1  29
ATOM     29  C   UNL A   1      31.353  30.998  25.715  1.00  0.00     0.002 C 
BRANCH  29  30
ATOM     30  C   UNL A   1      31.186  32.212  26.632  1.00  0.00     0.021 C 
BRANCH  30  31
ATOM     31  C   UNL A   1      32.480  32.785  27.206  1.00  0.00     0.116 C 
BRANCH  31  32
ATOM     32  N   UNL A   1      32.347  34.180  27.587  1.00  0.00    -0.352 N 
ATOM     33  C   UNL A   1      33.008  34.895  28.554  1.00  0.00     0.251 C 
ATOM     34  H   UNL A   1      31.679  34.691  27.075  1.00  0.00     0.163 HD
ATOM     35  O   UNL A   1      32.621  36.019  28.858  1.00  0.00    -0.269 OA
BRANCH  33  36
ATOM     36  C   UNL A   1      34.177  34.311  29.247  1.00  0.00     0.039 A 
ATOM     37  C   UNL A   1      33.957  33.510  30.370  1.00  0.00     0.014 A 
ATOM     38  C   UNL A   1      35.481  34.579  28.823  1.00  0.00     0.014 A 
ATOM     39  C   UNL A   1      35.041  32.935  31.035  1.00  0.00     0.010 A 
ATOM     40  C   UNL A   1      36.558  33.948  29.444  1.00  0.00     0.010 A 
ATOM     41  C   UNL A   1      36.349  33.126  30.561  1.00  0.00    -0.014 A 
BRANCH  41  42
ATOM     42  C   UNL A   1      37.501  32.468  31.230  1.00  0.00     0.031 A 
ATOM     43  C   UNL A   1      38.237  31.346  30.555  1.00  0.00     0.074 A 
ATOM     44  C   UNL A   1      37.854  32.856  32.471  1.00  0.00     0.049 A 
ATOM     45  N   UNL A   1      39.256  30.645  30.987  1.00  0.00    -0.248 NA
ATOM     46  C   UNL A   1      37.748  30.935  29.230  1.00  0.00     0.031 C 
ATOM     47  C   UNL A   1      37.179  33.891  33.255  1.00  0.00     0.029 A 
ATOM     48  N   UNL A   1      38.865  32.421  33.291  1.00  0.00    -0.354 N 
ATOM     49  C   UNL A   1      39.521  29.709  29.996  1.00  0.00     0.074 A 
ATOM     50  C   UNL A   1      38.523  29.893  28.965  1.00  0.00     0.031 C 
ATOM     51  C   UNL A   1      37.810  34.031  34.432  1.00  0.00     0.029 A 
ATOM     52  C   UNL A   1      38.913  33.077  34.497  1.00  0.00     0.049 A 
ATOM     53  H   UNL A   1      39.496  31.709  33.039  1.00  0.00     0.167 HD
ATOM     54  C   UNL A   1      40.521  28.796  29.940  1.00  0.00     0.037 A 
ATOM     55  C   UNL A   1      39.753  32.926  35.539  1.00  0.00     0.037 A 
ATOM     56  C   UNL A   1      41.527  28.632  30.958  1.00  0.00     0.049 A 
ATOM     57  C   UNL A   1      40.866  31.918  35.443  1.00  0.00     0.074 A 
ATOM     58  C   UNL A   1      42.622  27.786  30.961  1.00  0.00     0.029 A 
ATOM     59  N   UNL A   1      41.557  29.330  32.157  1.00  0.00    -0.354 N 
ATOM     60  N   UNL A   1      41.157  31.097  34.465  1.00  0.00    -0.248 NA
ATOM     61  C   UNL A   1      41.774  31.828  36.594  1.00  0.00     0.031 C 
ATOM     62  C   UNL A   1      43.286  27.935  32.184  1.00  0.00     0.029 A 
ATOM     63  C   UNL A   1      42.637  28.913  32.920  1.00  0.00     0.049 A 
ATOM     64  H   UNL A   1      40.907  30.018  32.426  1.00  0.00     0.167 HD
ATOM     65  C   UNL A   1      42.292  30.408  34.870  1.00  0.00     0.074 A 
ATOM     66  C   UNL A   1      42.649  30.925  36.175  1.00  0.00     0.031 C 
ATOM     67  C   UNL A   1      42.976  29.434  34.220  1.00  0.00     0.037 A 
BRANCH  54  68
ATOM     68  C   UNL A   1      40.576  27.901  28.735  1.00  0.00     0.064 A 
ATOM     69  C   UNL A   1      39.878  26.684  28.688  1.00  0.00     0.173 A 
ATOM     70  C   UNL A   1      41.312  28.277  27.601  1.00  0.00     0.173 A 
ATOM     71  F   UNL A   1      39.167  26.272  29.748  1.00  0.00    -0.203 F 
ATOM     72  C   UNL A   1      39.941  25.863  27.564  1.00  0.00     0.198 A 
ATOM     73  C   UNL A   1      41.347  27.469  26.467  1.00  0.00     0.198 A 
ATOM     74  F   UNL A   1      41.994  29.432  27.589  1.00  0.00    -0.203 F 
ATOM     75  F   UNL A   1      39.308  24.682  27.563  1.00  0.00    -0.200 F 
ATOM     76  C   UNL A   1      40.669  26.259  26.453  1.00  0.00     0.200 A 
ATOM     77  F   UNL A   1      42.041  27.858  25.389  1.00  0.00    -0.200 F 
ATOM     78  F   UNL A   1      40.725  25.470  25.370  1.00  0.00    -0.200 F 
ENDBRANCH  54  68
BRANCH  55  79
ATOM     79  C   UNL A   1      39.592  33.776  36.746  1.00  0.00     0.064 A 
ATOM     80  C   UNL A   1      40.197  35.038  36.825  1.00  0.00     0.173 A 
ATOM     81  C   UNL A   1      38.826  33.349  37.840  1.00  0.00     0.173 A 
ATOM     82  F   UNL A   1      40.956  35.481  35.812  1.00  0.00    -0.203 F 
ATOM     83  C   UNL A   1      40.059  35.833  37.961  1.00  0.00     0.198 A 
ATOM     84  C   UNL A   1      38.664  34.157  38.964  1.00  0.00     0.198 A 
ATOM     85  F   UNL A   1      38.220  32.154  37.811  1.00  0.00    -0.203 F 
ATOM     86  F   UNL A   1      40.684  37.016  38.028  1.00  0.00    -0.200 F 
ATOM     87  C   UNL A   1      39.287  35.395  39.026  1.00  0.00     0.200 A 
ATOM     88  F   UNL A   1      37.905  33.738  39.985  1.00  0.00    -0.200 F 
ATOM     89  F   UNL A   1      39.148  36.163  40.116  1.00  0.00    -0.200 F 
ENDBRANCH  55  79
BRANCH  67  90
ATOM     90  C   UNL A   1      44.192  28.879  34.905  1.00  0.00     0.064 A 
ATOM     91  C   UNL A   1      45.462  29.446  34.725  1.00  0.00     0.173 A 
ATOM     92  C   UNL A   1      44.082  27.776  35.766  1.00  0.00     0.173 A 
ATOM     93  F   UNL A   1      45.624  30.492  33.899  1.00  0.00    -0.203 F 
ATOM     94  C   UNL A   1      46.582  28.910  35.354  1.00  0.00     0.198 A 
ATOM     95  C   UNL A   1      45.199  27.263  36.420  1.00  0.00     0.198 A 
ATOM     96  F   UNL A   1      42.890  27.200  35.979  1.00  0.00    -0.203 F 
ATOM     97  F   UNL A   1      47.794  29.433  35.121  1.00  0.00    -0.200 F 
ATOM     98  C   UNL A   1      46.449  27.823  36.206  1.00  0.00     0.200 A 
ATOM     99  F   UNL A   1      45.066  26.221  37.252  1.00  0.00    -0.200 F 
ATOM    100  F   UNL A   1      47.528  27.309  36.811  1.00  0.00    -0.200 F 
ENDBRANCH  67  90
ENDBRANCH  41  42
ENDBRANCH  33  36
ENDBRANCH  31  32
ENDBRANCH  30  31
ENDBRANCH  29  30
ENDBRANCH   1  29
TORSDOF 18
ENDMDL
MODEL 3
REMARK VINA RESULT:     -11.2      2.009      3.410
REMARK SMILES CC[C@H](C)[C@@H](C(=O)NCCCCCCNC(=O)c1ccc(-c2c3nc(c(-c4c(F)c(F)c(F)c(F)c4F)c4ccc([nH]4)c(-c4c(F)c(F)c(F)c(F)c4F)c4nc(c(-c5c(F)c(F)c(F)c(F)c5F)c5ccc2[nH]5)C=C4)C=C3)cc1)N1C(=O)/C(=C/c2ccccc2OC)SC1=S
REMARK SMILES IDX 11 1 10 2 9 3 8 4 6 5 7 6 5 8 3 9 4 10 2 11 1 12 81 13 82 14
REMARK SMILES IDX 95 15 83 16 84 17 94 18 96 19 85 20 86 21 87 22 91 23 88 24
REMARK SMILES IDX 90 25 89 26 92 27 93 28 12 29 13 30 14 31 15 32 16 33 17 35
REMARK SMILES IDX 18 36 19 37 80 38 20 39 79 40 21 41 22 42 23 43 73 44 24 45
REMARK SMILES IDX 78 46 72 47 74 48 25 49 77 50 71 51 70 52 26 54 58 55 38 56
REMARK SMILES IDX 57 57 39 58 42 59 56 60 75 61 40 62 41 63 55 65 76 66 43 67
REMARK SMILES IDX 27 68 28 69 36 70 29 71 30 72 34 73 37 74 31 75 32 76 35 77
REMARK SMILES IDX 33 78 59 79 60 80 68 81 61 82 62 83 66 84 69 85 63 86 64 87
REMARK SMILES IDX 67 88 65 89 44 90 45 91 53 92 46 93 47 94 51 95 54 96 48 97
REMARK SMILES IDX 49 98 52 99 50 100
REMARK H PARENT 8 7 15 34 74 53 42 64
REMARK Flexibility Score: inf
ROOT
ATOM      1  C   UNL A   1      30.485  28.089  23.611  1.00  0.00     0.002 C 
ENDROOT
BRANCH   1   2
ATOM      2  C   UNL A   1      31.427  27.513  22.553  1.00  0.00     0.021 C 
BRANCH   2   3
ATOM      3  C   UNL A   1      32.715  26.886  23.093  1.00  0.00     0.116 C 
BRANCH   3   4
ATOM      4  N   UNL A   1      33.041  25.686  22.358  1.00  0.00    -0.354 N 
ATOM      5  C   UNL A   1      32.890  24.365  22.639  1.00  0.00     0.243 C 
ATOM      6  O   UNL A   1      33.136  23.620  21.679  1.00  0.00    -0.273 OA
ATOM      7  H   UNL A   1      33.455  25.859  21.481  1.00  0.00     0.163 HD
BRANCH   5   8
ATOM      8  C   UNL A   1      32.334  23.811  24.000  1.00  0.00     0.184 C 
BRANCH   8   9
ATOM      9  C   UNL A   1      31.599  24.730  25.039  1.00  0.00     0.018 C 
ATOM     10  C   UNL A   1      30.143  25.026  24.712  1.00  0.00     0.010 C 
BRANCH   9  11
ATOM     11  C   UNL A   1      31.680  24.094  26.459  1.00  0.00     0.002 C 
ATOM     12  C   UNL A   1      30.506  23.196  26.824  1.00  0.00     0.004 C 
ENDBRANCH   9  11
ENDBRANCH   8   9
BRANCH   8  13
ATOM     13  N   UNL A   1      33.529  23.200  24.658  1.00  0.00    -0.280 N 
ATOM     14  C   UNL A   1      34.628  24.011  24.914  1.00  0.00     0.266 C 
ATOM     15  C   UNL A   1      33.640  21.888  25.062  1.00  0.00     0.149 C 
ATOM     16  O   UNL A   1      34.715  25.219  24.724  1.00  0.00    -0.268 OA
ATOM     17  C   UNL A   1      35.728  23.211  25.490  1.00  0.00     0.081 C 
ATOM     18  S   UNL A   1      35.166  21.651  25.914  1.00  0.00    -0.054 SA
ATOM     19  S   UNL A   1      32.537  20.651  24.871  1.00  0.00    -0.052 S 
ATOM     20  C   UNL A   1      36.967  23.714  25.542  1.00  0.00     0.033 C 
BRANCH  20  21
ATOM     21  C   UNL A   1      38.163  23.029  26.032  1.00  0.00     0.018 A 
ATOM     22  C   UNL A   1      38.901  23.740  27.000  1.00  0.00     0.012 A 
ATOM     23  C   UNL A   1      38.604  21.757  25.633  1.00  0.00     0.126 A 
ATOM     24  C   UNL A   1      40.036  23.186  27.591  1.00  0.00     0.001 A 
ATOM     25  C   UNL A   1      39.734  21.206  26.254  1.00  0.00     0.047 A 
ATOM     26  C   UNL A   1      40.448  21.912  27.224  1.00  0.00     0.004 A 
BRANCH  23  27
ATOM     27  O   UNL A   1      38.032  20.908  24.723  1.00  0.00    -0.496 OA
ATOM     28  C   UNL A   1      38.125  19.507  24.946  1.00  0.00     0.278 C 
ENDBRANCH  23  27
ENDBRANCH  20  21
ENDBRANCH   8  13
ENDBRANCH   5   8
ENDBRANCH   3   4
ENDBRANCH   2   3
ENDBRANCH   1   2
BRANCH   1  29
ATOM     29  C   UNL A   1      31.080  29.183  24.498  1.00  0.00     0.002 C 
BRANCH  29  30
ATOM     30  C   UNL A   1      31.854  28.692  25.724  1.00  0.00     0.021 C 
BRANCH  30  31
ATOM     31  C   UNL A   1      33.130  29.467  26.051  1.00  0.00     0.116 C 
BRANCH  31  32
ATOM     32  N   UNL A   1      32.867  30.862  26.356  1.00  0.00    -0.352 N 
ATOM     33  C   UNL A   1      33.479  31.695  27.258  1.00  0.00     0.251 C 
ATOM     34  H   UNL A   1      32.138  31.273  25.837  1.00  0.00     0.163 HD
ATOM     35  O   UNL A   1      32.989  32.792  27.510  1.00  0.00    -0.269 OA
BRANCH  33  36
ATOM     36  C   UNL A   1      34.718  31.272  27.945  1.00  0.00     0.039 A 
ATOM     37  C   UNL A   1      35.793  32.163  27.994  1.00  0.00     0.014 A 
ATOM     38  C   UNL A   1      34.839  29.998  28.506  1.00  0.00     0.014 A 
ATOM     39  C   UNL A   1      36.970  31.795  28.648  1.00  0.00     0.010 A 
ATOM     40  C   UNL A   1      35.988  29.657  29.219  1.00  0.00     0.010 A 
ATOM     41  C   UNL A   1      37.067  30.550  29.291  1.00  0.00    -0.014 A 
BRANCH  41  42
ATOM     42  C   UNL A   1      38.295  30.178  30.039  1.00  0.00     0.031 A 
ATOM     43  C   UNL A   1      38.504  30.652  31.449  1.00  0.00     0.074 A 
ATOM     44  C   UNL A   1      39.246  29.446  29.426  1.00  0.00     0.049 A 
ATOM     45  N   UNL A   1      39.515  30.438  32.254  1.00  0.00    -0.248 NA
ATOM     46  C   UNL A   1      37.451  31.503  32.024  1.00  0.00     0.031 C 
ATOM     47  C   UNL A   1      39.188  28.977  28.041  1.00  0.00     0.029 A 
ATOM     48  N   UNL A   1      40.448  28.973  29.888  1.00  0.00    -0.354 N 
ATOM     49  C   UNL A   1      39.226  31.134  33.420  1.00  0.00     0.074 A 
ATOM     50  C   UNL A   1      37.972  31.821  33.201  1.00  0.00     0.031 C 
ATOM     51  C   UNL A   1      40.291  28.262  27.773  1.00  0.00     0.029 A 
ATOM     52  C   UNL A   1      41.147  28.245  28.956  1.00  0.00     0.049 A 
ATOM     53  H   UNL A   1      40.778  29.137  30.801  1.00  0.00     0.167 HD
ATOM     54  C   UNL A   1      39.929  31.175  34.578  1.00  0.00     0.037 A 
ATOM     55  C   UNL A   1      42.343  27.633  29.045  1.00  0.00     0.037 A 
ATOM     56  C   UNL A   1      41.165  30.469  34.801  1.00  0.00     0.049 A 
ATOM     57  C   UNL A   1      43.095  27.679  30.347  1.00  0.00     0.074 A 
ATOM     58  C   UNL A   1      41.916  30.389  35.960  1.00  0.00     0.029 A 
ATOM     59  N   UNL A   1      41.832  29.724  33.840  1.00  0.00    -0.354 N 
ATOM     60  N   UNL A   1      42.770  28.270  31.470  1.00  0.00    -0.248 NA
ATOM     61  C   UNL A   1      44.374  26.958  30.395  1.00  0.00     0.031 C 
ATOM     62  C   UNL A   1      43.064  29.636  35.686  1.00  0.00     0.029 A 
ATOM     63  C   UNL A   1      43.001  29.202  34.372  1.00  0.00     0.049 A 
ATOM     64  H   UNL A   1      41.522  29.587  32.916  1.00  0.00     0.167 HD
ATOM     65  C   UNL A   1      43.790  27.977  32.365  1.00  0.00     0.074 A 
ATOM     66  C   UNL A   1      44.735  27.136  31.659  1.00  0.00     0.031 C 
ATOM     67  C   UNL A   1      43.934  28.371  33.654  1.00  0.00     0.037 A 
BRANCH  54  68
ATOM     68  C   UNL A   1      39.377  32.013  35.696  1.00  0.00     0.064 A 
ATOM     69  C   UNL A   1      38.450  31.499  36.616  1.00  0.00     0.173 A 
ATOM     70  C   UNL A   1      39.802  33.340  35.869  1.00  0.00     0.173 A 
ATOM     71  F   UNL A   1      38.002  30.240  36.490  1.00  0.00    -0.203 F 
ATOM     72  C   UNL A   1      37.946  32.289  37.645  1.00  0.00     0.198 A 
ATOM     73  C   UNL A   1      39.320  34.118  36.918  1.00  0.00     0.198 A 
ATOM     74  F   UNL A   1      40.691  33.881  35.022  1.00  0.00    -0.203 F 
ATOM     75  F   UNL A   1      37.022  31.791  38.479  1.00  0.00    -0.200 F 
ATOM     76  C   UNL A   1      38.386  33.595  37.800  1.00  0.00     0.200 A 
ATOM     77  F   UNL A   1      39.756  35.375  37.074  1.00  0.00    -0.200 F 
ATOM     78  F   UNL A   1      37.903  34.353  38.795  1.00  0.00    -0.200 F 
ENDBRANCH  54  68
BRANCH  55  79
ATOM     79  C   UNL A   1      42.885  26.897  27.874  1.00  0.00     0.064 A 
ATOM     80  C   UNL A   1      42.801  25.500  27.800  1.00  0.00     0.173 A 
ATOM     81  C   UNL A   1      43.489  27.572  26.804  1.00  0.00     0.173 A 
ATOM     82  F   UNL A   1      42.249  24.808  28.807  1.00  0.00    -0.203 F 
ATOM     83  C   UNL A   1      43.318  24.804  26.709  1.00  0.00     0.198 A 
ATOM     84  C   UNL A   1      43.980  26.878  25.700  1.00  0.00     0.198 A 
ATOM     85  F   UNL A   1      43.588  28.909  26.823  1.00  0.00    -0.203 F 
ATOM     86  F   UNL A   1      43.263  23.466  26.684  1.00  0.00    -0.200 F 
ATOM     87  C   UNL A   1      43.901  25.495  25.657  1.00  0.00     0.200 A 
ATOM     88  F   UNL A   1      44.529  27.550  24.679  1.00  0.00    -0.200 F 
ATOM     89  F   UNL A   1      44.393  24.826  24.604  1.00  0.00    -0.200 F 
ENDBRANCH  55  79
BRANCH  67  90
ATOM     90  C   UNL A   1      45.147  27.877  34.389  1.00  0.00     0.064 A 
ATOM     91  C   UNL A   1      46.349  28.601  34.396  1.00  0.00     0.173 A 
ATOM     92  C   UNL A   1      45.102  26.673  35.108  1.00  0.00     0.173 A 
ATOM     93  F   UNL A   1      46.449  29.750  33.711  1.00  0.00    -0.203 F 
ATOM     94  C   UNL A   1      47.470  28.122  35.068  1.00  0.00     0.198 A 
ATOM     95  C   UNL A   1      46.215  26.213  35.807  1.00  0.00     0.198 A 
ATOM     96  F   UNL A   1      43.976  25.946  35.140  1.00  0.00    -0.203 F 
ATOM     97  F   UNL A   1      48.623  28.802  35.014  1.00  0.00    -0.200 F 
ATOM     98  C   UNL A   1      47.401  26.931  35.778  1.00  0.00     0.200 A 
ATOM     99  F   UNL A   1      46.142  25.070  36.503  1.00  0.00    -0.200 F 
ATOM    100  F   UNL A   1      48.480  26.473  36.425  1.00  0.00    -0.200 F 
ENDBRANCH  67  90
ENDBRANCH  41  42
ENDBRANCH  33  36
ENDBRANCH  31  32
ENDBRANCH  30  31
ENDBRANCH  29  30
ENDBRANCH   1  29
TORSDOF 18
ENDMDL
