MODEL 1
REMARK VINA RESULT:     -10.9      0.000      0.000
REMARK SMILES CC[C@H](C)[NH2+]CCc1ccc(C(=O)NCCCCCCNC(=O)c2ccc(-c3c4nc(c(-c5c(F)c(F)c(F)c(F)c5F)c5ccc([nH]5)c(-c5c(F)c(F)c(F)c(F)c5F)c5nc(c(-c6c(F)c(F)c(F)c(F)c6F)c6ccc3[nH]6)C=C5)C=C4)cc2)cc1
REMARK SMILES IDX 16 1 15 2 14 3 12 4 13 5 11 7 8 8 9 9 88 10 10 11 87 12 7 13
REMARK SMILES IDX 6 14 5 15 3 18 4 19 2 20 1 21 17 22 18 23 19 24 20 25 21 26
REMARK SMILES IDX 22 27 23 29 24 30 25 31 86 32 26 33 85 34 27 35 28 36 29 37
REMARK SMILES IDX 79 38 30 39 84 40 78 41 80 42 31 43 83 44 77 45 76 46 32 48
REMARK SMILES IDX 64 49 44 50 63 51 45 52 48 53 62 54 81 55 46 56 47 57 61 59
REMARK SMILES IDX 82 60 49 61 33 62 34 63 42 64 35 65 36 66 40 67 43 68 37 69
REMARK SMILES IDX 38 70 41 71 39 72 65 73 66 74 74 75 67 76 68 77 72 78 75 79
REMARK SMILES IDX 69 80 70 81 73 82 71 83 50 84 51 85 59 86 52 87 53 88 57 89
REMARK SMILES IDX 60 90 54 91 55 92 58 93 56 94
REMARK H PARENT 14 6 5 16 5 17 21 28 80 47 48 58
REMARK Flexibility Score: inf
ROOT
ATOM      1  C   UNL A   1      31.677  28.294  26.163  1.00  0.00     0.021 C 
ENDROOT
BRANCH   1   2
ATOM      2  C   UNL A   1      32.495  28.171  24.872  1.00  0.00     0.116 C 
BRANCH   2   3
ATOM      3  N   UNL A   1      31.644  28.349  23.707  1.00  0.00    -0.352 N 
ATOM      4  C   UNL A   1      31.142  27.467  22.782  1.00  0.00     0.251 C 
ATOM      5  O   UNL A   1      30.383  27.907  21.919  1.00  0.00    -0.269 OA
ATOM      6  H   UNL A   1      31.376  29.284  23.551  1.00  0.00     0.163 HD
BRANCH   4   7
ATOM      7  C   UNL A   1      31.439  26.010  22.808  1.00  0.00     0.039 A 
ATOM      8  C   UNL A   1      31.962  23.228  23.003  1.00  0.00    -0.042 A 
ATOM      9  C   UNL A   1      30.804  23.781  23.567  1.00  0.00     0.005 A 
ATOM     10  C   UNL A   1      32.839  24.096  22.353  1.00  0.00     0.005 A 
ATOM     11  C   UNL A   1      30.552  25.158  23.479  1.00  0.00     0.014 A 
ATOM     12  C   UNL A   1      32.549  25.448  22.190  1.00  0.00     0.014 A 
BRANCH   8  13
ATOM     13  C   UNL A   1      32.289  21.763  23.193  1.00  0.00     0.097 C 
BRANCH  13  14
ATOM     14  C   UNL A   1      33.241  21.355  24.347  1.00  0.00     0.265 C 
BRANCH  14  15
ATOM     15  N   UNL A   1      34.560  21.959  24.479  1.00  0.00    -0.344 N 
ATOM     16  H   UNL A   1      35.224  21.196  24.614  1.00  0.00     0.346 HD
ATOM     17  H   UNL A   1      34.655  22.512  23.627  1.00  0.00     0.346 HD
BRANCH  15  18
ATOM     18  C   UNL A   1      34.808  22.931  25.544  1.00  0.00     0.178 C 
ATOM     19  C   UNL A   1      35.488  24.135  24.869  1.00  0.00     0.075 C 
BRANCH  18  20
ATOM     20  C   UNL A   1      33.579  23.422  26.335  1.00  0.00     0.061 C 
ATOM     21  C   UNL A   1      33.337  24.918  26.173  1.00  0.00     0.010 C 
ENDBRANCH  18  20
ENDBRANCH  15  18
ENDBRANCH  14  15
ENDBRANCH  13  14
ENDBRANCH   8  13
ENDBRANCH   4   7
ENDBRANCH   2   3
ENDBRANCH   1   2
BRANCH   1  22
ATOM     22  C   UNL A   1      31.841  29.651  26.857  1.00  0.00     0.002 C 
BRANCH  22  23
ATOM     23  C   UNL A   1      31.504  30.862  25.981  1.00  0.00     0.002 C 
BRANCH  23  24
ATOM     24  C   UNL A   1      31.322  32.180  26.740  1.00  0.00     0.021 C 
BRANCH  24  25
ATOM     25  C   UNL A   1      32.627  32.851  27.159  1.00  0.00     0.116 C 
BRANCH  25  26
ATOM     26  N   UNL A   1      32.413  34.225  27.585  1.00  0.00    -0.352 N 
ATOM     27  C   UNL A   1      32.987  34.912  28.622  1.00  0.00     0.251 C 
ATOM     28  H   UNL A   1      31.764  34.737  27.050  1.00  0.00     0.163 HD
ATOM     29  O   UNL A   1      32.525  35.997  28.978  1.00  0.00    -0.269 OA
BRANCH  27  30
ATOM     30  C   UNL A   1      34.157  34.350  29.325  1.00  0.00     0.039 A 
ATOM     31  C   UNL A   1      33.957  33.619  30.499  1.00  0.00     0.014 A 
ATOM     32  C   UNL A   1      35.450  34.565  28.840  1.00  0.00     0.014 A 
ATOM     33  C   UNL A   1      35.052  33.059  31.160  1.00  0.00     0.010 A 
ATOM     34  C   UNL A   1      36.534  33.951  29.462  1.00  0.00     0.010 A 
ATOM     35  C   UNL A   1      36.345  33.199  30.631  1.00  0.00    -0.014 A 
BRANCH  35  36
ATOM     36  C   UNL A   1      37.516  32.572  31.290  1.00  0.00     0.031 A 
ATOM     37  C   UNL A   1      38.239  31.436  30.622  1.00  0.00     0.074 A 
ATOM     38  C   UNL A   1      37.883  32.977  32.521  1.00  0.00     0.049 A 
ATOM     39  N   UNL A   1      39.234  30.710  31.068  1.00  0.00    -0.248 NA
ATOM     40  C   UNL A   1      37.762  31.046  29.287  1.00  0.00     0.031 C 
ATOM     41  C   UNL A   1      37.227  34.034  33.290  1.00  0.00     0.029 A 
ATOM     42  N   UNL A   1      38.887  32.537  33.345  1.00  0.00    -0.354 N 
ATOM     43  C   UNL A   1      39.486  29.770  30.079  1.00  0.00     0.074 A 
ATOM     44  C   UNL A   1      38.510  29.983  29.032  1.00  0.00     0.031 C 
ATOM     45  C   UNL A   1      37.857  34.174  34.468  1.00  0.00     0.029 A 
ATOM     46  C   UNL A   1      38.936  33.195  34.549  1.00  0.00     0.049 A 
ATOM     47  H   UNL A   1      39.513  31.819  33.097  1.00  0.00     0.167 HD
ATOM     48  C   UNL A   1      40.459  28.828  30.037  1.00  0.00     0.037 A 
ATOM     49  C   UNL A   1      39.756  33.021  35.603  1.00  0.00     0.037 A 
ATOM     50  C   UNL A   1      41.444  28.638  31.070  1.00  0.00     0.049 A 
ATOM     51  C   UNL A   1      40.834  31.975  35.531  1.00  0.00     0.074 A 
ATOM     52  C   UNL A   1      42.512  27.758  31.093  1.00  0.00     0.029 A 
ATOM     53  N   UNL A   1      41.479  29.341  32.265  1.00  0.00    -0.354 N 
ATOM     54  N   UNL A   1      41.109  31.137  34.561  1.00  0.00    -0.248 NA
ATOM     55  C   UNL A   1      41.719  31.855  36.697  1.00  0.00     0.031 C 
ATOM     56  C   UNL A   1      43.166  27.898  32.322  1.00  0.00     0.029 A 
ATOM     57  C   UNL A   1      42.537  28.898  33.045  1.00  0.00     0.049 A 
ATOM     58  H   UNL A   1      40.845  30.049  32.523  1.00  0.00     0.167 HD
ATOM     59  C   UNL A   1      42.211  30.409  34.987  1.00  0.00     0.074 A 
ATOM     60  C   UNL A   1      42.563  30.914  36.298  1.00  0.00     0.031 C 
ATOM     61  C   UNL A   1      42.873  29.414  34.347  1.00  0.00     0.037 A 
BRANCH  48  62
ATOM     62  C   UNL A   1      40.502  27.932  28.833  1.00  0.00     0.064 A 
ATOM     63  C   UNL A   1      41.258  28.259  27.697  1.00  0.00     0.173 A 
ATOM     64  C   UNL A   1      39.793  26.720  28.821  1.00  0.00     0.173 A 
ATOM     65  F   UNL A   1      41.945  29.411  27.652  1.00  0.00    -0.203 F 
ATOM     66  C   UNL A   1      41.273  27.427  26.581  1.00  0.00     0.198 A 
ATOM     67  C   UNL A   1      39.836  25.875  27.715  1.00  0.00     0.198 A 
ATOM     68  F   UNL A   1      39.060  26.356  29.883  1.00  0.00    -0.203 F 
ATOM     69  F   UNL A   1      41.957  27.789  25.486  1.00  0.00    -0.200 F 
ATOM     70  C   UNL A   1      40.567  26.234  26.592  1.00  0.00     0.200 A 
ATOM     71  F   UNL A   1      39.164  24.716  27.733  1.00  0.00    -0.200 F 
ATOM     72  F   UNL A   1      40.585  25.433  25.519  1.00  0.00    -0.200 F 
ENDBRANCH  48  62
BRANCH  49  73
ATOM     73  C   UNL A   1      39.604  33.884  36.802  1.00  0.00     0.064 A 
ATOM     74  C   UNL A   1      38.872  33.445  37.914  1.00  0.00     0.173 A 
ATOM     75  C   UNL A   1      40.202  35.151  36.870  1.00  0.00     0.173 A 
ATOM     76  F   UNL A   1      38.267  32.250  37.887  1.00  0.00    -0.203 F 
ATOM     77  C   UNL A   1      38.731  34.248  39.045  1.00  0.00     0.198 A 
ATOM     78  C   UNL A   1      40.082  35.941  38.011  1.00  0.00     0.198 A 
ATOM     79  F   UNL A   1      40.919  35.612  35.835  1.00  0.00    -0.203 F 
ATOM     80  F   UNL A   1      37.997  33.820  40.080  1.00  0.00    -0.200 F 
ATOM     81  C   UNL A   1      39.343  35.492  39.095  1.00  0.00     0.200 A 
ATOM     82  F   UNL A   1      40.687  37.136  38.062  1.00  0.00    -0.200 F 
ATOM     83  F   UNL A   1      39.215  36.260  40.186  1.00  0.00    -0.200 F 
ENDBRANCH  49  73
BRANCH  61  84
ATOM     84  C   UNL A   1      44.064  28.822  35.045  1.00  0.00     0.064 A 
ATOM     85  C   UNL A   1      45.355  29.334  34.855  1.00  0.00     0.173 A 
ATOM     86  C   UNL A   1      43.903  27.757  35.943  1.00  0.00     0.173 A 
ATOM     87  F   UNL A   1      45.563  30.341  33.993  1.00  0.00    -0.203 F 
ATOM     88  C   UNL A   1      46.446  28.784  35.524  1.00  0.00     0.198 A 
ATOM     89  C   UNL A   1      44.991  27.230  36.633  1.00  0.00     0.198 A 
ATOM     90  F   UNL A   1      42.686  27.236  36.163  1.00  0.00    -0.203 F 
ATOM     91  F   UNL A   1      47.678  29.260  35.294  1.00  0.00    -0.200 F 
ATOM     92  C   UNL A   1      46.263  27.740  36.417  1.00  0.00     0.200 A 
ATOM     93  F   UNL A   1      44.810  26.229  37.504  1.00  0.00    -0.200 F 
ATOM     94  F   UNL A   1      47.313  27.218  37.065  1.00  0.00    -0.200 F 
ENDBRANCH  61  84
ENDBRANCH  35  36
ENDBRANCH  27  30
ENDBRANCH  25  26
ENDBRANCH  24  25
ENDBRANCH  23  24
ENDBRANCH  22  23
ENDBRANCH   1  22
TORSDOF 18
ENDMDL
MODEL 2
REMARK VINA RESULT:     -10.8      1.631      3.244
REMARK SMILES CC[C@H](C)[NH2+]CCc1ccc(C(=O)NCCCCCCNC(=O)c2ccc(-c3c4nc(c(-c5c(F)c(F)c(F)c(F)c5F)c5ccc([nH]5)c(-c5c(F)c(F)c(F)c(F)c5F)c5nc(c(-c6c(F)c(F)c(F)c(F)c6F)c6ccc3[nH]6)C=C5)C=C4)cc2)cc1
REMARK SMILES IDX 16 1 15 2 14 3 12 4 13 5 11 7 8 8 9 9 88 10 10 11 87 12 7 13
REMARK SMILES IDX 6 14 5 15 3 18 4 19 2 20 1 21 17 22 18 23 19 24 20 25 21 26
REMARK SMILES IDX 22 27 23 29 24 30 25 31 86 32 26 33 85 34 27 35 28 36 29 37
REMARK SMILES IDX 79 38 30 39 84 40 78 41 80 42 31 43 83 44 77 45 76 46 32 48
REMARK SMILES IDX 64 49 44 50 63 51 45 52 48 53 62 54 81 55 46 56 47 57 61 59
REMARK SMILES IDX 82 60 49 61 33 62 34 63 42 64 35 65 36 66 40 67 43 68 37 69
REMARK SMILES IDX 38 70 41 71 39 72 65 73 66 74 74 75 67 76 68 77 72 78 75 79
REMARK SMILES IDX 69 80 70 81 73 82 71 83 50 84 51 85 59 86 52 87 53 88 57 89
REMARK SMILES IDX 60 90 54 91 55 92 58 93 56 94
REMARK H PARENT 14 6 5 16 5 17 21 28 80 47 48 58
REMARK Flexibility Score: inf
ROOT
ATOM      1  C   UNL A   1      33.448  29.029  26.086  1.00  0.00     0.021 C 
ENDROOT
BRANCH   1   2
ATOM      2  C   UNL A   1      33.667  27.568  26.497  1.00  0.00     0.116 C 
BRANCH   2   3
ATOM      3  N   UNL A   1      33.990  26.753  25.338  1.00  0.00    -0.352 N 
ATOM      4  C   UNL A   1      33.281  26.426  24.208  1.00  0.00     0.251 C 
ATOM      5  O   UNL A   1      33.846  25.750  23.349  1.00  0.00    -0.269 OA
ATOM      6  H   UNL A   1      34.892  26.357  25.370  1.00  0.00     0.163 HD
BRANCH   4   7
ATOM      7  C   UNL A   1      31.890  26.891  23.962  1.00  0.00     0.039 A 
ATOM      8  C   UNL A   1      29.196  27.634  23.472  1.00  0.00    -0.042 A 
ATOM      9  C   UNL A   1      29.499  26.513  24.256  1.00  0.00     0.005 A 
ATOM     10  C   UNL A   1      30.264  28.359  22.945  1.00  0.00     0.005 A 
ATOM     11  C   UNL A   1      30.830  26.140  24.489  1.00  0.00     0.014 A 
ATOM     12  C   UNL A   1      31.586  28.042  23.245  1.00  0.00     0.014 A 
BRANCH   8  13
ATOM     13  C   UNL A   1      27.761  27.972  23.129  1.00  0.00     0.097 C 
BRANCH  13  14
ATOM     14  C   UNL A   1      27.354  29.463  23.010  1.00  0.00     0.265 C 
BRANCH  14  15
ATOM     15  N   UNL A   1      27.604  30.212  21.786  1.00  0.00    -0.344 N 
ATOM     16  H   UNL A   1      27.908  29.538  21.083  1.00  0.00     0.346 HD
ATOM     17  H   UNL A   1      26.720  30.693  21.617  1.00  0.00     0.346 HD
BRANCH  15  18
ATOM     18  C   UNL A   1      28.586  31.296  21.787  1.00  0.00     0.178 C 
ATOM     19  C   UNL A   1      28.030  32.372  20.838  1.00  0.00     0.075 C 
BRANCH  18  20
ATOM     20  C   UNL A   1      28.905  31.942  23.151  1.00  0.00     0.061 C 
ATOM     21  C   UNL A   1      28.794  33.462  23.121  1.00  0.00     0.010 C 
ENDBRANCH  18  20
ENDBRANCH  15  18
ENDBRANCH  14  15
ENDBRANCH  13  14
ENDBRANCH   8  13
ENDBRANCH   4   7
ENDBRANCH   2   3
ENDBRANCH   1   2
BRANCH   1  22
ATOM     22  C   UNL A   1      32.310  29.711  26.854  1.00  0.00     0.002 C 
BRANCH  22  23
ATOM     23  C   UNL A   1      31.419  30.622  26.002  1.00  0.00     0.002 C 
BRANCH  23  24
ATOM     24  C   UNL A   1      31.298  32.063  26.503  1.00  0.00     0.021 C 
BRANCH  24  25
ATOM     25  C   UNL A   1      32.629  32.720  26.860  1.00  0.00     0.116 C 
BRANCH  25  26
ATOM     26  N   UNL A   1      32.439  34.031  27.461  1.00  0.00    -0.352 N 
ATOM     27  C   UNL A   1      33.036  34.574  28.567  1.00  0.00     0.251 C 
ATOM     28  H   UNL A   1      31.789  34.613  27.005  1.00  0.00     0.163 HD
ATOM     29  O   UNL A   1      32.593  35.610  29.066  1.00  0.00    -0.269 OA
BRANCH  27  30
ATOM     30  C   UNL A   1      34.208  33.914  29.175  1.00  0.00     0.039 A 
ATOM     31  C   UNL A   1      35.476  34.467  28.978  1.00  0.00     0.014 A 
ATOM     32  C   UNL A   1      34.059  32.738  29.915  1.00  0.00     0.014 A 
ATOM     33  C   UNL A   1      36.591  33.869  29.569  1.00  0.00     0.010 A 
ATOM     34  C   UNL A   1      35.160  32.180  30.558  1.00  0.00     0.010 A 
ATOM     35  C   UNL A   1      36.436  32.736  30.385  1.00  0.00    -0.014 A 
BRANCH  35  36
ATOM     36  C   UNL A   1      37.600  32.113  31.061  1.00  0.00     0.031 A 
ATOM     37  C   UNL A   1      38.402  31.053  30.359  1.00  0.00     0.074 A 
ATOM     38  C   UNL A   1      37.891  32.450  32.332  1.00  0.00     0.049 A 
ATOM     39  N   UNL A   1      39.403  30.338  30.806  1.00  0.00    -0.248 NA
ATOM     40  C   UNL A   1      38.005  30.733  28.978  1.00  0.00     0.031 C 
ATOM     41  C   UNL A   1      37.155  33.427  33.133  1.00  0.00     0.029 A 
ATOM     42  N   UNL A   1      38.872  31.995  33.175  1.00  0.00    -0.354 N 
ATOM     43  C   UNL A   1      39.742  29.476  29.772  1.00  0.00     0.074 A 
ATOM     44  C   UNL A   1      38.809  29.720  28.694  1.00  0.00     0.031 C 
ATOM     45  C   UNL A   1      37.722  33.513  34.348  1.00  0.00     0.029 A 
ATOM     46  C   UNL A   1      38.836  32.573  34.420  1.00  0.00     0.049 A 
ATOM     47  H   UNL A   1      39.539  31.320  32.913  1.00  0.00     0.167 HD
ATOM     48  C   UNL A   1      40.755  28.578  29.719  1.00  0.00     0.037 A 
ATOM     49  C   UNL A   1      39.612  32.362  35.501  1.00  0.00     0.037 A 
ATOM     50  C   UNL A   1      41.697  28.358  30.786  1.00  0.00     0.049 A 
ATOM     51  C   UNL A   1      40.735  31.367  35.416  1.00  0.00     0.074 A 
ATOM     52  C   UNL A   1      42.799  27.521  30.806  1.00  0.00     0.029 A 
ATOM     53  N   UNL A   1      41.645  28.981  32.024  1.00  0.00    -0.354 N 
ATOM     54  N   UNL A   1      41.091  30.605  34.408  1.00  0.00    -0.248 NA
ATOM     55  C   UNL A   1      41.568  31.204  36.615  1.00  0.00     0.031 C 
ATOM     56  C   UNL A   1      43.387  27.604  32.073  1.00  0.00     0.029 A 
ATOM     57  C   UNL A   1      42.682  28.530  32.825  1.00  0.00     0.049 A 
ATOM     58  H   UNL A   1      40.971  29.645  32.294  1.00  0.00     0.167 HD
ATOM     59  C   UNL A   1      42.201  29.895  34.842  1.00  0.00     0.074 A 
ATOM     60  C   UNL A   1      42.469  30.325  36.198  1.00  0.00     0.031 C 
ATOM     61  C   UNL A   1      42.934  28.970  34.174  1.00  0.00     0.037 A 
BRANCH  48  62
ATOM     62  C   UNL A   1      40.893  27.766  28.464  1.00  0.00     0.064 A 
ATOM     63  C   UNL A   1      41.706  28.185  27.400  1.00  0.00     0.173 A 
ATOM     64  C   UNL A   1      40.217  26.542  28.329  1.00  0.00     0.173 A 
ATOM     65  F   UNL A   1      42.365  29.352  27.473  1.00  0.00    -0.203 F 
ATOM     66  C   UNL A   1      41.810  27.430  26.235  1.00  0.00     0.198 A 
ATOM     67  C   UNL A   1      40.348  25.774  27.175  1.00  0.00     0.198 A 
ATOM     68  F   UNL A   1      39.432  26.091  29.317  1.00  0.00    -0.203 F 
ATOM     69  F   UNL A   1      42.548  27.879  25.210  1.00  0.00    -0.200 F 
ATOM     70  C   UNL A   1      41.136  26.223  26.124  1.00  0.00     0.200 A 
ATOM     71  F   UNL A   1      39.706  24.603  27.075  1.00  0.00    -0.200 F 
ATOM     72  F   UNL A   1      41.238  25.497  25.003  1.00  0.00    -0.200 F 
ENDBRANCH  48  62
BRANCH  49  73
ATOM     73  C   UNL A   1      39.367  33.138  36.744  1.00  0.00     0.064 A 
ATOM     74  C   UNL A   1      38.463  32.676  37.710  1.00  0.00     0.173 A 
ATOM     75  C   UNL A   1      40.042  34.340  36.999  1.00  0.00     0.173 A 
ATOM     76  F   UNL A   1      37.780  31.543  37.500  1.00  0.00    -0.203 F 
ATOM     77  C   UNL A   1      38.233  33.396  38.882  1.00  0.00     0.198 A 
ATOM     78  C   UNL A   1      39.832  35.045  38.182  1.00  0.00     0.198 A 
ATOM     79  F   UNL A   1      40.923  34.818  36.108  1.00  0.00    -0.203 F 
ATOM     80  F   UNL A   1      37.338  32.952  39.774  1.00  0.00    -0.200 F 
ATOM     81  C   UNL A   1      38.924  34.576  39.120  1.00  0.00     0.200 A 
ATOM     82  F   UNL A   1      40.511  36.175  38.416  1.00  0.00    -0.200 F 
ATOM     83  F   UNL A   1      38.710  35.263  40.250  1.00  0.00    -0.200 F 
ENDBRANCH  49  73
BRANCH  61  84
ATOM     84  C   UNL A   1      44.114  28.381  34.890  1.00  0.00     0.064 A 
ATOM     85  C   UNL A   1      45.374  28.997  34.862  1.00  0.00     0.173 A 
ATOM     86  C   UNL A   1      43.971  27.208  35.647  1.00  0.00     0.173 A 
ATOM     87  F   UNL A   1      45.565  30.111  34.140  1.00  0.00    -0.203 F 
ATOM     88  C   UNL A   1      46.453  28.445  35.548  1.00  0.00     0.198 A 
ATOM     89  C   UNL A   1      45.046  26.677  36.355  1.00  0.00     0.198 A 
ATOM     90  F   UNL A   1      42.785  26.585  35.710  1.00  0.00    -0.203 F 
ATOM     91  F   UNL A   1      47.659  29.027  35.471  1.00  0.00    -0.200 F 
ATOM     92  C   UNL A   1      46.287  27.292  36.299  1.00  0.00     0.200 A 
ATOM     93  F   UNL A   1      44.879  25.568  37.090  1.00  0.00    -0.200 F 
ATOM     94  F   UNL A   1      47.325  26.768  36.964  1.00  0.00    -0.200 F 
ENDBRANCH  61  84
ENDBRANCH  35  36
ENDBRANCH  27  30
ENDBRANCH  25  26
ENDBRANCH  24  25
ENDBRANCH  23  24
ENDBRANCH  22  23
ENDBRANCH   1  22
TORSDOF 18
ENDMDL
MODEL 3
REMARK VINA RESULT:     -10.8      2.875      8.411
REMARK SMILES CC[C@H](C)[NH2+]CCc1ccc(C(=O)NCCCCCCNC(=O)c2ccc(-c3c4nc(c(-c5c(F)c(F)c(F)c(F)c5F)c5ccc([nH]5)c(-c5c(F)c(F)c(F)c(F)c5F)c5nc(c(-c6c(F)c(F)c(F)c(F)c6F)c6ccc3[nH]6)C=C5)C=C4)cc2)cc1
REMARK SMILES IDX 16 1 15 2 14 3 12 4 13 5 11 7 8 8 9 9 88 10 10 11 87 12 7 13
REMARK SMILES IDX 6 14 5 15 3 18 4 19 2 20 1 21 17 22 18 23 19 24 20 25 21 26
REMARK SMILES IDX 22 27 23 29 24 30 25 31 86 32 26 33 85 34 27 35 28 36 29 37
REMARK SMILES IDX 79 38 30 39 84 40 78 41 80 42 31 43 83 44 77 45 76 46 32 48
REMARK SMILES IDX 64 49 44 50 63 51 45 52 48 53 62 54 81 55 46 56 47 57 61 59
REMARK SMILES IDX 82 60 49 61 33 62 34 63 42 64 35 65 36 66 40 67 43 68 37 69
REMARK SMILES IDX 38 70 41 71 39 72 65 73 66 74 74 75 67 76 68 77 72 78 75 79
REMARK SMILES IDX 69 80 70 81 73 82 71 83 50 84 51 85 59 86 52 87 53 88 57 89
REMARK SMILES IDX 60 90 54 91 55 92 58 93 56 94
REMARK H PARENT 14 6 5 16 5 17 21 28 80 47 48 58
REMARK Flexibility Score: inf
ROOT
ATOM      1  C   UNL A   1      30.956  28.876  23.212  1.00  0.00     0.021 C 
ENDROOT
BRANCH   1   2
ATOM      2  C   UNL A   1      30.713  27.451  22.701  1.00  0.00     0.116 C 
BRANCH   2   3
ATOM      3  N   UNL A   1      31.847  26.986  21.920  1.00  0.00    -0.352 N 
ATOM      4  C   UNL A   1      32.841  26.074  22.181  1.00  0.00     0.251 C 
ATOM      5  O   UNL A   1      33.653  25.835  21.288  1.00  0.00    -0.269 OA
ATOM      6  H   UNL A   1      31.917  27.407  21.032  1.00  0.00     0.163 HD
BRANCH   4   7
ATOM      7  C   UNL A   1      32.946  25.339  23.469  1.00  0.00     0.039 A 
ATOM      8  C   UNL A   1      33.297  23.928  25.905  1.00  0.00    -0.042 A 
ATOM      9  C   UNL A   1      34.183  24.948  25.534  1.00  0.00     0.005 A 
ATOM     10  C   UNL A   1      32.248  23.636  25.033  1.00  0.00     0.005 A 
ATOM     11  C   UNL A   1      34.015  25.638  24.325  1.00  0.00     0.014 A 
ATOM     12  C   UNL A   1      32.030  24.377  23.874  1.00  0.00     0.014 A 
BRANCH   8  13
ATOM     13  C   UNL A   1      33.541  23.109  27.155  1.00  0.00     0.097 C 
BRANCH  13  14
ATOM     14  C   UNL A   1      34.143  21.688  27.010  1.00  0.00     0.265 C 
BRANCH  14  15
ATOM     15  N   UNL A   1      35.507  21.496  26.535  1.00  0.00    -0.344 N 
ATOM     16  H   UNL A   1      35.988  22.389  26.649  1.00  0.00     0.346 HD
ATOM     17  H   UNL A   1      35.845  20.712  27.092  1.00  0.00     0.346 HD
BRANCH  15  18
ATOM     18  C   UNL A   1      35.740  21.062  25.158  1.00  0.00     0.178 C 
ATOM     19  C   UNL A   1      34.375  20.593  24.625  1.00  0.00     0.075 C 
BRANCH  18  20
ATOM     20  C   UNL A   1      36.327  22.109  24.190  1.00  0.00     0.061 C 
ATOM     21  C   UNL A   1      37.120  23.194  24.909  1.00  0.00     0.010 C 
ENDBRANCH  18  20
ENDBRANCH  15  18
ENDBRANCH  14  15
ENDBRANCH  13  14
ENDBRANCH   8  13
ENDBRANCH   4   7
ENDBRANCH   2   3
ENDBRANCH   1   2
BRANCH   1  22
ATOM     22  C   UNL A   1      32.015  28.950  24.319  1.00  0.00     0.002 C 
BRANCH  22  23
ATOM     23  C   UNL A   1      31.610  28.278  25.635  1.00  0.00     0.002 C 
BRANCH  23  24
ATOM     24  C   UNL A   1      32.752  28.071  26.635  1.00  0.00     0.021 C 
BRANCH  24  25
ATOM     25  C   UNL A   1      34.014  28.872  26.324  1.00  0.00     0.116 C 
BRANCH  25  26
ATOM     26  N   UNL A   1      33.892  30.257  26.751  1.00  0.00    -0.352 N 
ATOM     27  C   UNL A   1      34.629  30.950  27.675  1.00  0.00     0.251 C 
ATOM     28  H   UNL A   1      33.176  30.772  26.313  1.00  0.00     0.163 HD
ATOM     29  O   UNL A   1      34.246  32.048  28.077  1.00  0.00    -0.269 OA
BRANCH  27  30
ATOM     30  C   UNL A   1      35.883  30.376  28.200  1.00  0.00     0.039 A 
ATOM     31  C   UNL A   1      37.066  30.549  27.476  1.00  0.00     0.014 A 
ATOM     32  C   UNL A   1      35.888  29.646  29.393  1.00  0.00     0.014 A 
ATOM     33  C   UNL A   1      38.264  30.035  27.975  1.00  0.00     0.010 A 
ATOM     34  C   UNL A   1      37.092  29.191  29.922  1.00  0.00     0.010 A 
ATOM     35  C   UNL A   1      38.289  29.375  29.215  1.00  0.00    -0.014 A 
BRANCH  35  36
ATOM     36  C   UNL A   1      39.559  28.863  29.786  1.00  0.00     0.031 A 
ATOM     37  C   UNL A   1      40.229  29.597  30.913  1.00  0.00     0.074 A 
ATOM     38  C   UNL A   1      40.144  27.779  29.242  1.00  0.00     0.049 A 
ATOM     39  N   UNL A   1      41.376  29.352  31.496  1.00  0.00    -0.248 NA
ATOM     40  C   UNL A   1      39.530  30.782  31.436  1.00  0.00     0.031 C 
ATOM     41  C   UNL A   1      39.615  27.013  28.113  1.00  0.00     0.029 A 
ATOM     42  N   UNL A   1      41.318  27.145  29.556  1.00  0.00    -0.354 N 
ATOM     43  C   UNL A   1      41.542  30.359  32.437  1.00  0.00     0.074 A 
ATOM     44  C   UNL A   1      40.406  31.247  32.314  1.00  0.00     0.031 C 
ATOM     45  C   UNL A   1      40.453  26.001  27.840  1.00  0.00     0.029 A 
ATOM     46  C   UNL A   1      41.592  26.066  28.751  1.00  0.00     0.049 A 
ATOM     47  H   UNL A   1      41.908  27.433  30.290  1.00  0.00     0.167 HD
ATOM     48  C   UNL A   1      42.542  30.517  33.338  1.00  0.00     0.037 A 
ATOM     49  C   UNL A   1      42.648  25.231  28.744  1.00  0.00     0.037 A 
ATOM     50  C   UNL A   1      43.657  29.616  33.473  1.00  0.00     0.049 A 
ATOM     51  C   UNL A   1      43.741  25.420  29.758  1.00  0.00     0.074 A 
ATOM     52  C   UNL A   1      44.686  29.649  34.397  1.00  0.00     0.029 A 
ATOM     53  N   UNL A   1      43.888  28.519  32.655  1.00  0.00    -0.354 N 
ATOM     54  N   UNL A   1      43.855  26.336  30.691  1.00  0.00    -0.248 NA
ATOM     55  C   UNL A   1      44.850  24.457  29.724  1.00  0.00     0.031 C 
ATOM     56  C   UNL A   1      45.564  28.598  34.111  1.00  0.00     0.029 A 
ATOM     57  C   UNL A   1      45.057  27.880  33.040  1.00  0.00     0.049 A 
ATOM     58  H   UNL A   1      43.308  28.237  31.912  1.00  0.00     0.167 HD
ATOM     59  C   UNL A   1      45.030  26.045  31.368  1.00  0.00     0.074 A 
ATOM     60  C   UNL A   1      45.587  24.860  30.749  1.00  0.00     0.031 C 
ATOM     61  C   UNL A   1      45.596  26.700  32.412  1.00  0.00     0.037 A 
BRANCH  48  62
ATOM     62  C   UNL A   1      42.472  31.710  34.246  1.00  0.00     0.064 A 
ATOM     63  C   UNL A   1      43.076  32.931  33.908  1.00  0.00     0.173 A 
ATOM     64  C   UNL A   1      41.776  31.639  35.463  1.00  0.00     0.173 A 
ATOM     65  F   UNL A   1      43.763  33.050  32.762  1.00  0.00    -0.203 F 
ATOM     66  C   UNL A   1      43.017  34.023  34.769  1.00  0.00     0.198 A 
ATOM     67  C   UNL A   1      41.693  32.743  36.308  1.00  0.00     0.198 A 
ATOM     68  F   UNL A   1      41.174  30.499  35.832  1.00  0.00    -0.203 F 
ATOM     69  F   UNL A   1      43.650  35.161  34.451  1.00  0.00    -0.200 F 
ATOM     70  C   UNL A   1      42.322  33.931  35.966  1.00  0.00     0.200 A 
ATOM     71  F   UNL A   1      41.010  32.656  37.457  1.00  0.00    -0.200 F 
ATOM     72  F   UNL A   1      42.265  34.983  36.792  1.00  0.00    -0.200 F 
ENDBRANCH  48  62
BRANCH  49  73
ATOM     73  C   UNL A   1      42.699  24.120  27.759  1.00  0.00     0.064 A 
ATOM     74  C   UNL A   1      42.300  22.825  28.118  1.00  0.00     0.173 A 
ATOM     75  C   UNL A   1      43.126  24.332  26.441  1.00  0.00     0.173 A 
ATOM     76  F   UNL A   1      41.903  22.571  29.372  1.00  0.00    -0.203 F 
ATOM     77  C   UNL A   1      42.340  21.780  27.197  1.00  0.00     0.198 A 
ATOM     78  C   UNL A   1      43.141  23.292  25.514  1.00  0.00     0.198 A 
ATOM     79  F   UNL A   1      43.510  25.555  26.047  1.00  0.00    -0.203 F 
ATOM     80  F   UNL A   1      41.987  20.544  27.575  1.00  0.00    -0.200 F 
ATOM     81  C   UNL A   1      42.753  22.015  25.894  1.00  0.00     0.200 A 
ATOM     82  F   UNL A   1      43.525  23.527  24.252  1.00  0.00    -0.200 F 
ATOM     83  F   UNL A   1      42.782  21.012  25.006  1.00  0.00    -0.200 F 
ENDBRANCH  49  73
BRANCH  61  84
ATOM     84  C   UNL A   1      46.869  26.135  32.970  1.00  0.00     0.064 A 
ATOM     85  C   UNL A   1      46.861  25.129  33.947  1.00  0.00     0.173 A 
ATOM     86  C   UNL A   1      48.111  26.577  32.491  1.00  0.00     0.173 A 
ATOM     87  F   UNL A   1      45.699  24.684  34.448  1.00  0.00    -0.203 F 
ATOM     88  C   UNL A   1      48.052  24.603  34.440  1.00  0.00     0.198 A 
ATOM     89  C   UNL A   1      49.300  26.028  32.965  1.00  0.00     0.198 A 
ATOM     90  F   UNL A   1      48.172  27.534  31.553  1.00  0.00    -0.203 F 
ATOM     91  F   UNL A   1      48.022  23.673  35.405  1.00  0.00    -0.200 F 
ATOM     92  C   UNL A   1      49.268  25.046  33.944  1.00  0.00     0.200 A 
ATOM     93  F   UNL A   1      50.473  26.450  32.475  1.00  0.00    -0.200 F 
ATOM     94  F   UNL A   1      50.413  24.533  34.414  1.00  0.00    -0.200 F 
ENDBRANCH  61  84
ENDBRANCH  35  36
ENDBRANCH  27  30
ENDBRANCH  25  26
ENDBRANCH  24  25
ENDBRANCH  23  24
ENDBRANCH  22  23
ENDBRANCH   1  22
TORSDOF 18
ENDMDL
