MODEL 1
REMARK VINA RESULT:     -12.8      0.000      0.000
REMARK SMILES O=C(NCCCCCCNC(=O)[C@H]1CCCN(C(=O)C2CC[NH+](Cc3ccco3)CC2)C1)c1ccc(-c2c3nc(c(-c4c(F)c(F)c(F)c(F)c4F)c4ccc([nH]4)c(-c4c(F)c(F)c(F)c(F)c4F)c4nc(c(-c5c(F)c(F)c(F)c(F)c5F)c5ccc2[nH]5)C=C4)C=C3)cc1
REMARK SMILES IDX 7 1 6 2 5 3 4 4 3 5 1 6 2 7 33 9 34 10 95 11 35 12 94 13
REMARK SMILES IDX 36 14 37 15 38 16 88 17 39 18 93 19 87 20 89 21 40 22 92 23
REMARK SMILES IDX 86 24 85 25 41 27 73 28 53 29 72 30 54 31 57 32 71 33 90 34
REMARK SMILES IDX 55 35 56 36 70 38 91 39 58 40 42 41 43 42 51 43 44 44 45 45
REMARK SMILES IDX 49 46 52 47 46 48 47 49 50 50 48 51 74 52 75 53 83 54 76 55
REMARK SMILES IDX 77 56 81 57 84 58 78 59 79 60 82 61 80 62 59 63 60 64 68 65
REMARK SMILES IDX 61 66 62 67 66 68 69 69 63 70 64 71 67 72 65 73 8 74 9 75
REMARK SMILES IDX 10 76 11 77 12 79 13 80 14 81 32 82 15 83 17 84 16 85 18 86
REMARK SMILES IDX 19 87 20 88 21 89 31 90 22 91 30 92 23 93 24 95 25 96 26 97
REMARK SMILES IDX 29 98 27 99 28 100
REMARK H PARENT 3 8 89 26 57 37 10 78 23 94
REMARK Flexibility Score: inf
ROOT
ATOM      1  C   UNL A   1      32.436  29.695  25.583  1.00  0.00     0.002 C 
ENDROOT
BRANCH   1   2
ATOM      2  C   UNL A   1      31.734  30.352  26.778  1.00  0.00     0.002 C 
BRANCH   2   3
ATOM      3  C   UNL A   1      31.669  31.878  26.689  1.00  0.00     0.021 C 
BRANCH   3   4
ATOM      4  C   UNL A   1      32.866  32.551  27.328  1.00  0.00     0.116 C 
BRANCH   4   5
ATOM      5  N   UNL A   1      32.590  33.955  27.568  1.00  0.00    -0.352 N 
ATOM      6  O   UNL A   1      32.578  35.807  28.868  1.00  0.00    -0.269 OA
ATOM      7  C   UNL A   1      33.092  34.732  28.572  1.00  0.00     0.251 C 
ATOM      8  H   UNL A   1      31.974  34.396  26.939  1.00  0.00     0.163 HD
BRANCH   7   9
ATOM      9  C   UNL A   1      34.280  34.241  29.289  1.00  0.00     0.039 A 
ATOM     10  C   UNL A   1      34.114  33.528  30.483  1.00  0.00     0.014 A 
ATOM     11  C   UNL A   1      35.551  34.503  28.779  1.00  0.00     0.014 A 
ATOM     12  C   UNL A   1      35.224  33.144  31.212  1.00  0.00     0.010 A 
ATOM     13  C   UNL A   1      36.666  34.025  29.462  1.00  0.00     0.010 A 
ATOM     14  C   UNL A   1      36.505  33.332  30.674  1.00  0.00    -0.014 A 
BRANCH  14  15
ATOM     15  C   UNL A   1      37.645  32.633  31.303  1.00  0.00     0.031 A 
ATOM     16  C   UNL A   1      38.321  31.478  30.635  1.00  0.00     0.074 A 
ATOM     17  C   UNL A   1      38.036  33.065  32.519  1.00  0.00     0.049 A 
ATOM     18  N   UNL A   1      39.295  30.731  31.087  1.00  0.00    -0.248 NA
ATOM     19  C   UNL A   1      37.843  31.103  29.295  1.00  0.00     0.031 C 
ATOM     20  C   UNL A   1      37.419  34.173  33.257  1.00  0.00     0.029 A 
ATOM     21  N   UNL A   1      39.034  32.634  33.350  1.00  0.00    -0.354 N 
ATOM     22  C   UNL A   1      39.534  29.784  30.100  1.00  0.00     0.074 A 
ATOM     23  C   UNL A   1      38.596  30.042  29.028  1.00  0.00     0.031 C 
ATOM     24  C   UNL A   1      38.067  34.351  34.414  1.00  0.00     0.029 A 
ATOM     25  C   UNL A   1      39.087  33.320  34.539  1.00  0.00     0.049 A 
ATOM     26  H   UNL A   1      39.653  31.903  33.120  1.00  0.00     0.167 HD
ATOM     27  C   UNL A   1      40.457  28.794  30.107  1.00  0.00     0.037 A 
ATOM     28  C   UNL A   1      39.843  33.112  35.632  1.00  0.00     0.037 A 
ATOM     29  C   UNL A   1      41.392  28.572  31.181  1.00  0.00     0.049 A 
ATOM     30  C   UNL A   1      40.827  31.979  35.612  1.00  0.00     0.074 A 
ATOM     31  C   UNL A   1      42.419  27.646  31.247  1.00  0.00     0.029 A 
ATOM     32  N   UNL A   1      41.406  29.272  32.379  1.00  0.00    -0.354 N 
ATOM     33  N   UNL A   1      41.096  31.136  34.646  1.00  0.00    -0.248 NA
ATOM     34  C   UNL A   1      41.604  31.760  36.837  1.00  0.00     0.031 C 
ATOM     35  C   UNL A   1      43.008  27.738  32.512  1.00  0.00     0.029 A 
ATOM     36  C   UNL A   1      42.390  28.763  33.212  1.00  0.00     0.049 A 
ATOM     37  H   UNL A   1      40.805  30.019  32.604  1.00  0.00     0.167 HD
ATOM     38  C   UNL A   1      42.081  30.295  35.140  1.00  0.00     0.074 A 
ATOM     39  C   UNL A   1      42.385  30.752  36.480  1.00  0.00     0.031 C 
ATOM     40  C   UNL A   1      42.671  29.231  34.544  1.00  0.00     0.037 A 
BRANCH  27  41
ATOM     41  C   UNL A   1      40.503  27.853  28.941  1.00  0.00     0.064 A 
ATOM     42  C   UNL A   1      39.716  26.693  28.894  1.00  0.00     0.173 A 
ATOM     43  C   UNL A   1      41.263  28.178  27.806  1.00  0.00     0.173 A 
ATOM     44  F   UNL A   1      38.979  26.334  29.954  1.00  0.00    -0.203 F 
ATOM     45  C   UNL A   1      39.691  25.894  27.753  1.00  0.00     0.198 A 
ATOM     46  C   UNL A   1      41.215  27.390  26.660  1.00  0.00     0.198 A 
ATOM     47  F   UNL A   1      42.028  29.280  27.798  1.00  0.00    -0.203 F 
ATOM     48  F   UNL A   1      38.945  24.780  27.735  1.00  0.00    -0.200 F 
ATOM     49  C   UNL A   1      40.428  26.249  26.633  1.00  0.00     0.200 A 
ATOM     50  F   UNL A   1      41.916  27.745  25.575  1.00  0.00    -0.200 F 
ATOM     51  F   UNL A   1      40.381  25.493  25.529  1.00  0.00    -0.200 F 
ENDBRANCH  27  41
BRANCH  28  52
ATOM     52  C   UNL A   1      39.655  33.955  36.841  1.00  0.00     0.064 A 
ATOM     53  C   UNL A   1      38.853  33.525  37.906  1.00  0.00     0.173 A 
ATOM     54  C   UNL A   1      40.255  35.220  36.944  1.00  0.00     0.173 A 
ATOM     55  F   UNL A   1      38.247  32.331  37.848  1.00  0.00    -0.203 F 
ATOM     56  C   UNL A   1      38.630  34.343  39.012  1.00  0.00     0.198 A 
ATOM     57  C   UNL A   1      40.064  36.019  38.068  1.00  0.00     0.198 A 
ATOM     58  F   UNL A   1      41.039  35.676  35.957  1.00  0.00    -0.203 F 
ATOM     59  F   UNL A   1      37.807  33.935  39.986  1.00  0.00    -0.200 F 
ATOM     60  C   UNL A   1      39.239  35.587  39.093  1.00  0.00     0.200 A 
ATOM     61  F   UNL A   1      40.671  37.211  38.151  1.00  0.00    -0.200 F 
ATOM     62  F   UNL A   1      39.020  36.374  40.156  1.00  0.00    -0.200 F 
ENDBRANCH  28  52
BRANCH  40  63
ATOM     63  C   UNL A   1      43.710  28.499  35.340  1.00  0.00     0.064 A 
ATOM     64  C   UNL A   1      43.360  27.459  36.215  1.00  0.00     0.173 A 
ATOM     65  C   UNL A   1      45.069  28.818  35.205  1.00  0.00     0.173 A 
ATOM     66  F   UNL A   1      42.072  27.132  36.394  1.00  0.00    -0.203 F 
ATOM     67  C   UNL A   1      44.333  26.781  36.944  1.00  0.00     0.198 A 
ATOM     68  C   UNL A   1      46.041  28.115  35.909  1.00  0.00     0.198 A 
ATOM     69  F   UNL A   1      45.453  29.803  34.378  1.00  0.00    -0.203 F 
ATOM     70  F   UNL A   1      43.972  25.828  37.812  1.00  0.00    -0.200 F 
ATOM     71  C   UNL A   1      45.673  27.104  36.783  1.00  0.00     0.200 A 
ATOM     72  F   UNL A   1      47.336  28.418  35.741  1.00  0.00    -0.200 F 
ATOM     73  F   UNL A   1      46.610  26.444  37.477  1.00  0.00    -0.200 F 
ENDBRANCH  40  63
ENDBRANCH  14  15
ENDBRANCH   7   9
ENDBRANCH   4   5
ENDBRANCH   3   4
ENDBRANCH   2   3
ENDBRANCH   1   2
BRANCH   1  74
ATOM     74  C   UNL A   1      33.060  28.338  25.917  1.00  0.00     0.021 C 
BRANCH  74  75
ATOM     75  C   UNL A   1      32.074  27.194  25.726  1.00  0.00     0.116 C 
BRANCH  75  76
ATOM     76  N   UNL A   1      31.419  27.355  24.450  1.00  0.00    -0.356 N 
ATOM     77  C   UNL A   1      31.562  26.561  23.362  1.00  0.00     0.224 C 
ATOM     78  H   UNL A   1      30.806  28.121  24.362  1.00  0.00     0.163 HD
ATOM     79  O   UNL A   1      31.158  26.955  22.272  1.00  0.00    -0.275 OA
BRANCH  77  80
ATOM     80  C   UNL A   1      32.195  25.212  23.585  1.00  0.00     0.098 C 
ATOM     81  C   UNL A   1      31.185  24.134  23.173  1.00  0.00     0.017 C 
ATOM     82  C   UNL A   1      33.560  25.110  22.866  1.00  0.00     0.133 C 
ATOM     83  C   UNL A   1      31.850  22.781  23.262  1.00  0.00     0.022 C 
ATOM     84  N   UNL A   1      34.045  23.728  22.868  1.00  0.00    -0.342 N 
ATOM     85  C   UNL A   1      33.055  22.839  22.347  1.00  0.00     0.119 C 
BRANCH  84  86
ATOM     86  C   UNL A   1      35.281  23.370  23.368  1.00  0.00     0.226 C 
ATOM     87  O   UNL A   1      36.264  23.366  22.613  1.00  0.00    -0.275 OA
BRANCH  86  88
ATOM     88  C   UNL A   1      35.507  22.931  24.849  1.00  0.00     0.090 C 
ATOM     89  C   UNL A   1      36.206  21.589  25.047  1.00  0.00     0.075 C 
ATOM     90  C   UNL A   1      34.385  23.109  25.875  1.00  0.00     0.075 C 
ATOM     91  C   UNL A   1      35.256  20.398  25.094  1.00  0.00     0.263 C 
ATOM     92  C   UNL A   1      33.527  21.870  26.206  1.00  0.00     0.263 C 
ATOM     93  N   UNL A   1      34.102  20.542  25.976  1.00  0.00    -0.329 N 
ATOM     94  H   UNL A   1      34.570  20.401  26.871  1.00  0.00     0.348 HD
BRANCH  93  95
ATOM     95  C   UNL A   1      33.084  19.466  25.831  1.00  0.00     0.338 C 
BRANCH  95  96
ATOM     96  C   UNL A   1      33.241  18.495  24.683  1.00  0.00     0.157 A 
ATOM     97  C   UNL A   1      34.031  17.376  24.470  1.00  0.00     0.052 A 
ATOM     98  O   UNL A   1      32.443  18.688  23.586  1.00  0.00    -0.463 OA
ATOM     99  C   UNL A   1      33.745  16.905  23.164  1.00  0.00     0.042 A 
ATOM    100  C   UNL A   1      32.753  17.723  22.677  1.00  0.00     0.195 A 
ENDBRANCH  95  96
ENDBRANCH  93  95
ENDBRANCH  86  88
ENDBRANCH  84  86
ENDBRANCH  77  80
ENDBRANCH  75  76
ENDBRANCH  74  75
ENDBRANCH   1  74
TORSDOF 17
ENDMDL
MODEL 2
REMARK VINA RESULT:     -12.4      1.429      2.579
REMARK SMILES O=C(NCCCCCCNC(=O)[C@H]1CCCN(C(=O)C2CC[NH+](Cc3ccco3)CC2)C1)c1ccc(-c2c3nc(c(-c4c(F)c(F)c(F)c(F)c4F)c4ccc([nH]4)c(-c4c(F)c(F)c(F)c(F)c4F)c4nc(c(-c5c(F)c(F)c(F)c(F)c5F)c5ccc2[nH]5)C=C4)C=C3)cc1
REMARK SMILES IDX 7 1 6 2 5 3 4 4 3 5 1 6 2 7 33 9 34 10 95 11 35 12 94 13
REMARK SMILES IDX 36 14 37 15 38 16 88 17 39 18 93 19 87 20 89 21 40 22 92 23
REMARK SMILES IDX 86 24 85 25 41 27 73 28 53 29 72 30 54 31 57 32 71 33 90 34
REMARK SMILES IDX 55 35 56 36 70 38 91 39 58 40 42 41 43 42 51 43 44 44 45 45
REMARK SMILES IDX 49 46 52 47 46 48 47 49 50 50 48 51 74 52 75 53 83 54 76 55
REMARK SMILES IDX 77 56 81 57 84 58 78 59 79 60 82 61 80 62 59 63 60 64 68 65
REMARK SMILES IDX 61 66 62 67 66 68 69 69 63 70 64 71 67 72 65 73 8 74 9 75
REMARK SMILES IDX 10 76 11 77 12 79 13 80 14 81 32 82 15 83 17 84 16 85 18 86
REMARK SMILES IDX 19 87 20 88 21 89 31 90 22 91 30 92 23 93 24 95 25 96 26 97
REMARK SMILES IDX 29 98 27 99 28 100
REMARK H PARENT 3 8 89 26 57 37 10 78 23 94
REMARK Flexibility Score: inf
ROOT
ATOM      1  C   UNL A   1      32.334  29.644  25.591  1.00  0.00     0.002 C 
ENDROOT
BRANCH   1   2
ATOM      2  C   UNL A   1      31.782  30.288  26.868  1.00  0.00     0.002 C 
BRANCH   2   3
ATOM      3  C   UNL A   1      31.645  31.809  26.779  1.00  0.00     0.021 C 
BRANCH   3   4
ATOM      4  C   UNL A   1      32.881  32.536  27.269  1.00  0.00     0.116 C 
BRANCH   4   5
ATOM      5  N   UNL A   1      32.580  33.932  27.524  1.00  0.00    -0.352 N 
ATOM      6  O   UNL A   1      32.531  35.768  28.845  1.00  0.00    -0.269 OA
ATOM      7  C   UNL A   1      33.064  34.705  28.541  1.00  0.00     0.251 C 
ATOM      8  H   UNL A   1      31.961  34.370  26.896  1.00  0.00     0.163 HD
BRANCH   7   9
ATOM      9  C   UNL A   1      34.256  34.225  29.259  1.00  0.00     0.039 A 
ATOM     10  C   UNL A   1      34.094  33.438  30.405  1.00  0.00     0.014 A 
ATOM     11  C   UNL A   1      35.525  34.571  28.796  1.00  0.00     0.014 A 
ATOM     12  C   UNL A   1      35.203  33.061  31.139  1.00  0.00     0.010 A 
ATOM     13  C   UNL A   1      36.644  34.102  29.480  1.00  0.00     0.010 A 
ATOM     14  C   UNL A   1      36.486  33.334  30.646  1.00  0.00    -0.014 A 
BRANCH  14  15
ATOM     15  C   UNL A   1      37.642  32.650  31.263  1.00  0.00     0.031 A 
ATOM     16  C   UNL A   1      38.327  31.505  30.587  1.00  0.00     0.074 A 
ATOM     17  C   UNL A   1      38.038  33.086  32.476  1.00  0.00     0.049 A 
ATOM     18  N   UNL A   1      39.315  30.771  31.029  1.00  0.00    -0.248 NA
ATOM     19  C   UNL A   1      37.841  31.125  29.252  1.00  0.00     0.031 C 
ATOM     20  C   UNL A   1      37.413  34.185  33.221  1.00  0.00     0.029 A 
ATOM     21  N   UNL A   1      39.049  32.667  33.297  1.00  0.00    -0.354 N 
ATOM     22  C   UNL A   1      39.557  29.829  30.039  1.00  0.00     0.074 A 
ATOM     23  C   UNL A   1      38.606  30.075  28.976  1.00  0.00     0.031 C 
ATOM     24  C   UNL A   1      38.069  34.370  34.373  1.00  0.00     0.029 A 
ATOM     25  C   UNL A   1      39.105  33.352  34.487  1.00  0.00     0.049 A 
ATOM     26  H   UNL A   1      39.676  31.945  33.060  1.00  0.00     0.167 HD
ATOM     27  C   UNL A   1      40.493  28.851  30.036  1.00  0.00     0.037 A 
ATOM     28  C   UNL A   1      39.873  33.153  35.572  1.00  0.00     0.037 A 
ATOM     29  C   UNL A   1      41.441  28.640  31.100  1.00  0.00     0.049 A 
ATOM     30  C   UNL A   1      40.872  32.033  35.542  1.00  0.00     0.074 A 
ATOM     31  C   UNL A   1      42.481  27.728  31.156  1.00  0.00     0.029 A 
ATOM     32  N   UNL A   1      41.457  29.339  32.299  1.00  0.00    -0.354 N 
ATOM     33  N   UNL A   1      41.144  31.195  34.571  1.00  0.00    -0.248 NA
ATOM     34  C   UNL A   1      41.663  31.824  36.759  1.00  0.00     0.031 C 
ATOM     35  C   UNL A   1      43.080  27.826  32.415  1.00  0.00     0.029 A 
ATOM     36  C   UNL A   1      42.456  28.841  33.122  1.00  0.00     0.049 A 
ATOM     37  H   UNL A   1      40.848  30.077  32.531  1.00  0.00     0.167 HD
ATOM     38  C   UNL A   1      42.144  30.367  35.055  1.00  0.00     0.074 A 
ATOM     39  C   UNL A   1      42.454  30.826  36.393  1.00  0.00     0.031 C 
ATOM     40  C   UNL A   1      42.742  29.312  34.452  1.00  0.00     0.037 A 
BRANCH  27  41
ATOM     41  C   UNL A   1      40.541  27.912  28.868  1.00  0.00     0.064 A 
ATOM     42  C   UNL A   1      41.384  28.137  27.771  1.00  0.00     0.173 A 
ATOM     43  C   UNL A   1      39.813  26.712  28.902  1.00  0.00     0.173 A 
ATOM     44  F   UNL A   1      42.094  29.271  27.685  1.00  0.00    -0.203 F 
ATOM     45  C   UNL A   1      41.494  27.194  26.750  1.00  0.00     0.198 A 
ATOM     46  C   UNL A   1      39.945  25.762  27.894  1.00  0.00     0.198 A 
ATOM     47  F   UNL A   1      38.996  26.447  29.933  1.00  0.00    -0.203 F 
ATOM     48  F   UNL A   1      42.293  27.436  25.701  1.00  0.00    -0.200 F 
ATOM     49  C   UNL A   1      40.787  26.003  26.819  1.00  0.00     0.200 A 
ATOM     50  F   UNL A   1      39.272  24.606  27.970  1.00  0.00    -0.200 F 
ATOM     51  F   UNL A   1      40.916  25.087  25.849  1.00  0.00    -0.200 F 
ENDBRANCH  27  41
BRANCH  28  52
ATOM     52  C   UNL A   1      39.685  33.992  36.784  1.00  0.00     0.064 A 
ATOM     53  C   UNL A   1      38.888  33.556  37.850  1.00  0.00     0.173 A 
ATOM     54  C   UNL A   1      40.281  35.259  36.889  1.00  0.00     0.173 A 
ATOM     55  F   UNL A   1      38.285  32.360  37.790  1.00  0.00    -0.203 F 
ATOM     56  C   UNL A   1      38.664  34.370  38.959  1.00  0.00     0.198 A 
ATOM     57  C   UNL A   1      40.089  36.054  38.016  1.00  0.00     0.198 A 
ATOM     58  F   UNL A   1      41.061  35.720  35.901  1.00  0.00    -0.203 F 
ATOM     59  F   UNL A   1      37.845  33.956  39.934  1.00  0.00    -0.200 F 
ATOM     60  C   UNL A   1      39.269  35.616  39.042  1.00  0.00     0.200 A 
ATOM     61  F   UNL A   1      40.692  37.247  38.101  1.00  0.00    -0.200 F 
ATOM     62  F   UNL A   1      39.050  36.399  40.107  1.00  0.00    -0.200 F 
ENDBRANCH  28  52
BRANCH  40  63
ATOM     63  C   UNL A   1      43.799  28.592  35.238  1.00  0.00     0.064 A 
ATOM     64  C   UNL A   1      43.482  27.493  36.050  1.00  0.00     0.173 A 
ATOM     65  C   UNL A   1      45.142  28.986  35.154  1.00  0.00     0.173 A 
ATOM     66  F   UNL A   1      42.208  27.093  36.180  1.00  0.00    -0.203 F 
ATOM     67  C   UNL A   1      44.471  26.829  36.769  1.00  0.00     0.198 A 
ATOM     68  C   UNL A   1      46.133  28.297  35.847  1.00  0.00     0.198 A 
ATOM     69  F   UNL A   1      45.495  30.029  34.388  1.00  0.00    -0.203 F 
ATOM     70  F   UNL A   1      44.139  25.815  37.580  1.00  0.00    -0.200 F 
ATOM     71  C   UNL A   1      45.796  27.226  36.660  1.00  0.00     0.200 A 
ATOM     72  F   UNL A   1      47.414  28.673  35.729  1.00  0.00    -0.200 F 
ATOM     73  F   UNL A   1      46.749  26.578  37.344  1.00  0.00    -0.200 F 
ENDBRANCH  40  63
ENDBRANCH  14  15
ENDBRANCH   7   9
ENDBRANCH   4   5
ENDBRANCH   3   4
ENDBRANCH   2   3
ENDBRANCH   1   2
BRANCH   1  74
ATOM     74  C   UNL A   1      31.248  29.297  24.569  1.00  0.00     0.021 C 
BRANCH  74  75
ATOM     75  C   UNL A   1      31.122  27.795  24.358  1.00  0.00     0.116 C 
BRANCH  75  76
ATOM     76  N   UNL A   1      30.907  27.540  22.954  1.00  0.00    -0.356 N 
ATOM     77  C   UNL A   1      31.364  26.480  22.246  1.00  0.00     0.224 C 
ATOM     78  H   UNL A   1      30.374  28.205  22.462  1.00  0.00     0.163 HD
ATOM     79  O   UNL A   1      31.334  26.517  21.019  1.00  0.00    -0.275 OA
BRANCH  77  80
ATOM     80  C   UNL A   1      31.857  25.296  23.038  1.00  0.00     0.098 C 
ATOM     81  C   UNL A   1      30.656  24.400  23.360  1.00  0.00     0.017 C 
ATOM     82  C   UNL A   1      33.009  24.573  22.300  1.00  0.00     0.133 C 
ATOM     83  C   UNL A   1      31.152  23.142  24.035  1.00  0.00     0.022 C 
ATOM     84  N   UNL A   1      33.307  23.290  22.939  1.00  0.00    -0.342 N 
ATOM     85  C   UNL A   1      32.125  22.497  23.071  1.00  0.00     0.119 C 
BRANCH  84  86
ATOM     86  C   UNL A   1      34.569  22.953  23.389  1.00  0.00     0.226 C 
ATOM     87  O   UNL A   1      35.552  23.195  22.675  1.00  0.00    -0.275 OA
BRANCH  86  88
ATOM     88  C   UNL A   1      34.825  22.244  24.755  1.00  0.00     0.090 C 
ATOM     89  C   UNL A   1      35.221  23.153  25.915  1.00  0.00     0.075 C 
ATOM     90  C   UNL A   1      35.625  20.940  24.797  1.00  0.00     0.075 C 
ATOM     91  C   UNL A   1      36.722  23.387  26.031  1.00  0.00     0.263 C 
ATOM     92  C   UNL A   1      37.116  21.038  25.183  1.00  0.00     0.263 C 
ATOM     93  N   UNL A   1      37.558  22.192  25.972  1.00  0.00    -0.329 N 
ATOM     94  H   UNL A   1      37.384  21.832  26.911  1.00  0.00     0.348 HD
BRANCH  93  95
ATOM     95  C   UNL A   1      39.016  22.469  25.864  1.00  0.00     0.338 C 
BRANCH  95  96
ATOM     96  C   UNL A   1      39.972  21.479  26.489  1.00  0.00     0.157 A 
ATOM     97  C   UNL A   1      40.332  20.174  26.196  1.00  0.00     0.052 A 
ATOM     98  O   UNL A   1      40.692  21.904  27.575  1.00  0.00    -0.463 OA
ATOM     99  C   UNL A   1      41.266  19.767  27.183  1.00  0.00     0.042 A 
ATOM    100  C   UNL A   1      41.471  20.865  27.984  1.00  0.00     0.195 A 
ENDBRANCH  95  96
ENDBRANCH  93  95
ENDBRANCH  86  88
ENDBRANCH  84  86
ENDBRANCH  77  80
ENDBRANCH  75  76
ENDBRANCH  74  75
ENDBRANCH   1  74
TORSDOF 17
ENDMDL
MODEL 3
REMARK VINA RESULT:     -12.3      5.360     11.237
REMARK SMILES O=C(NCCCCCCNC(=O)[C@H]1CCCN(C(=O)C2CC[NH+](Cc3ccco3)CC2)C1)c1ccc(-c2c3nc(c(-c4c(F)c(F)c(F)c(F)c4F)c4ccc([nH]4)c(-c4c(F)c(F)c(F)c(F)c4F)c4nc(c(-c5c(F)c(F)c(F)c(F)c5F)c5ccc2[nH]5)C=C4)C=C3)cc1
REMARK SMILES IDX 7 1 6 2 5 3 4 4 3 5 1 6 2 7 33 9 34 10 95 11 35 12 94 13
REMARK SMILES IDX 36 14 37 15 38 16 88 17 39 18 93 19 87 20 89 21 40 22 92 23
REMARK SMILES IDX 86 24 85 25 41 27 73 28 53 29 72 30 54 31 57 32 71 33 90 34
REMARK SMILES IDX 55 35 56 36 70 38 91 39 58 40 42 41 43 42 51 43 44 44 45 45
REMARK SMILES IDX 49 46 52 47 46 48 47 49 50 50 48 51 74 52 75 53 83 54 76 55
REMARK SMILES IDX 77 56 81 57 84 58 78 59 79 60 82 61 80 62 59 63 60 64 68 65
REMARK SMILES IDX 61 66 62 67 66 68 69 69 63 70 64 71 67 72 65 73 8 74 9 75
REMARK SMILES IDX 10 76 11 77 12 79 13 80 14 81 32 82 15 83 17 84 16 85 18 86
REMARK SMILES IDX 19 87 20 88 21 89 31 90 22 91 30 92 23 93 24 95 25 96 26 97
REMARK SMILES IDX 29 98 27 99 28 100
REMARK H PARENT 3 8 89 26 57 37 10 78 23 94
REMARK Flexibility Score: inf
ROOT
ATOM      1  C   UNL A   1      37.902  22.028  25.258  1.00  0.00     0.002 C 
ENDROOT
BRANCH   1   2
ATOM      2  C   UNL A   1      37.501  20.650  24.719  1.00  0.00     0.002 C 
BRANCH   2   3
ATOM      3  C   UNL A   1      38.441  19.524  25.151  1.00  0.00     0.021 C 
BRANCH   3   4
ATOM      4  C   UNL A   1      39.690  20.038  25.837  1.00  0.00     0.116 C 
BRANCH   4   5
ATOM      5  N   UNL A   1      40.678  18.982  25.949  1.00  0.00    -0.352 N 
ATOM      6  O   UNL A   1      42.795  18.191  25.837  1.00  0.00    -0.269 OA
ATOM      7  C   UNL A   1      42.032  19.130  26.046  1.00  0.00     0.251 C 
ATOM      8  H   UNL A   1      40.337  18.059  25.956  1.00  0.00     0.163 HD
BRANCH   7   9
ATOM      9  C   UNL A   1      42.552  20.456  26.419  1.00  0.00     0.039 A 
ATOM     10  C   UNL A   1      43.106  21.277  25.429  1.00  0.00     0.014 A 
ATOM     11  C   UNL A   1      42.497  20.868  27.749  1.00  0.00     0.014 A 
ATOM     12  C   UNL A   1      43.680  22.484  25.783  1.00  0.00     0.010 A 
ATOM     13  C   UNL A   1      42.984  22.129  28.087  1.00  0.00     0.010 A 
ATOM     14  C   UNL A   1      43.565  22.946  27.102  1.00  0.00    -0.014 A 
BRANCH  14  15
ATOM     15  C   UNL A   1      43.890  24.359  27.386  1.00  0.00     0.031 A 
ATOM     16  C   UNL A   1      42.840  25.332  27.822  1.00  0.00     0.074 A 
ATOM     17  C   UNL A   1      45.171  24.742  27.212  1.00  0.00     0.049 A 
ATOM     18  N   UNL A   1      42.962  26.613  28.054  1.00  0.00    -0.248 NA
ATOM     19  C   UNL A   1      41.479  24.810  28.014  1.00  0.00     0.031 C 
ATOM     20  C   UNL A   1      46.259  23.864  26.769  1.00  0.00     0.029 A 
ATOM     21  N   UNL A   1      45.778  25.957  27.383  1.00  0.00    -0.354 N 
ATOM     22  C   UNL A   1      41.693  27.057  28.398  1.00  0.00     0.074 A 
ATOM     23  C   UNL A   1      40.810  25.912  28.335  1.00  0.00     0.031 C 
ATOM     24  C   UNL A   1      47.402  24.560  26.727  1.00  0.00     0.029 A 
ATOM     25  C   UNL A   1      47.114  25.948  27.059  1.00  0.00     0.049 A 
ATOM     26  H   UNL A   1      45.306  26.759  27.704  1.00  0.00     0.167 HD
ATOM     27  C   UNL A   1      41.317  28.314  28.732  1.00  0.00     0.037 A 
ATOM     28  C   UNL A   1      48.000  26.957  26.991  1.00  0.00     0.037 A 
ATOM     29  C   UNL A   1      42.221  29.434  28.805  1.00  0.00     0.049 A 
ATOM     30  C   UNL A   1      47.531  28.341  27.331  1.00  0.00     0.074 A 
ATOM     31  C   UNL A   1      41.953  30.729  29.212  1.00  0.00     0.029 A 
ATOM     32  N   UNL A   1      43.563  29.394  28.452  1.00  0.00    -0.354 N 
ATOM     33  N   UNL A   1      46.347  28.737  27.728  1.00  0.00    -0.248 NA
ATOM     34  C   UNL A   1      48.518  29.420  27.206  1.00  0.00     0.031 C 
ATOM     35  C   UNL A   1      43.113  31.490  29.037  1.00  0.00     0.029 A 
ATOM     36  C   UNL A   1      44.121  30.657  28.582  1.00  0.00     0.049 A 
ATOM     37  H   UNL A   1      44.045  28.590  28.153  1.00  0.00     0.167 HD
ATOM     38  C   UNL A   1      46.447  30.107  27.910  1.00  0.00     0.074 A 
ATOM     39  C   UNL A   1      47.818  30.468  27.614  1.00  0.00     0.031 C 
ATOM     40  C   UNL A   1      45.488  30.991  28.276  1.00  0.00     0.037 A 
BRANCH  27  41
ATOM     41  C   UNL A   1      39.869  28.571  29.024  1.00  0.00     0.064 A 
ATOM     42  C   UNL A   1      39.327  28.384  30.304  1.00  0.00     0.173 A 
ATOM     43  C   UNL A   1      39.040  29.121  28.033  1.00  0.00     0.173 A 
ATOM     44  F   UNL A   1      40.073  27.855  31.283  1.00  0.00    -0.203 F 
ATOM     45  C   UNL A   1      38.007  28.737  30.578  1.00  0.00     0.198 A 
ATOM     46  C   UNL A   1      37.730  29.495  28.318  1.00  0.00     0.198 A 
ATOM     47  F   UNL A   1      39.512  29.324  26.794  1.00  0.00    -0.203 F 
ATOM     48  F   UNL A   1      37.503  28.534  31.804  1.00  0.00    -0.200 F 
ATOM     49  C   UNL A   1      37.214  29.304  29.591  1.00  0.00     0.200 A 
ATOM     50  F   UNL A   1      36.972  30.056  27.367  1.00  0.00    -0.200 F 
ATOM     51  F   UNL A   1      35.954  29.666  29.865  1.00  0.00    -0.200 F 
ENDBRANCH  27  41
BRANCH  28  52
ATOM     52  C   UNL A   1      49.389  26.700  26.530  1.00  0.00     0.064 A 
ATOM     53  C   UNL A   1      49.745  26.847  25.183  1.00  0.00     0.173 A 
ATOM     54  C   UNL A   1      50.384  26.277  27.426  1.00  0.00     0.173 A 
ATOM     55  F   UNL A   1      48.827  27.234  24.286  1.00  0.00    -0.203 F 
ATOM     56  C   UNL A   1      51.033  26.547  24.744  1.00  0.00     0.198 A 
ATOM     57  C   UNL A   1      51.681  26.016  26.992  1.00  0.00     0.198 A 
ATOM     58  F   UNL A   1      50.099  26.128  28.727  1.00  0.00    -0.203 F 
ATOM     59  F   UNL A   1      51.329  26.633  23.441  1.00  0.00    -0.200 F 
ATOM     60  C   UNL A   1      52.001  26.136  25.650  1.00  0.00     0.200 A 
ATOM     61  F   UNL A   1      52.617  25.641  27.874  1.00  0.00    -0.200 F 
ATOM     62  F   UNL A   1      53.237  25.844  25.225  1.00  0.00    -0.200 F 
ENDBRANCH  28  52
BRANCH  40  63
ATOM     63  C   UNL A   1      45.898  32.430  28.383  1.00  0.00     0.064 A 
ATOM     64  C   UNL A   1      45.757  33.312  27.301  1.00  0.00     0.173 A 
ATOM     65  C   UNL A   1      46.406  32.940  29.587  1.00  0.00     0.173 A 
ATOM     66  F   UNL A   1      45.296  32.867  26.122  1.00  0.00    -0.203 F 
ATOM     67  C   UNL A   1      46.134  34.647  27.414  1.00  0.00     0.198 A 
ATOM     68  C   UNL A   1      46.750  34.282  29.706  1.00  0.00     0.198 A 
ATOM     69  F   UNL A   1      46.557  32.136  30.652  1.00  0.00    -0.203 F 
ATOM     70  F   UNL A   1      46.041  35.458  26.352  1.00  0.00    -0.200 F 
ATOM     71  C   UNL A   1      46.622  35.132  28.618  1.00  0.00     0.200 A 
ATOM     72  F   UNL A   1      47.206  34.753  30.875  1.00  0.00    -0.200 F 
ATOM     73  F   UNL A   1      46.974  36.420  28.729  1.00  0.00    -0.200 F 
ENDBRANCH  40  63
ENDBRANCH  14  15
ENDBRANCH   7   9
ENDBRANCH   4   5
ENDBRANCH   3   4
ENDBRANCH   2   3
ENDBRANCH   1   2
BRANCH   1  74
ATOM     74  C   UNL A   1      37.041  23.169  24.709  1.00  0.00     0.021 C 
BRANCH  74  75
ATOM     75  C   UNL A   1      36.290  23.898  25.814  1.00  0.00     0.116 C 
BRANCH  75  76
ATOM     76  N   UNL A   1      35.664  22.922  26.672  1.00  0.00    -0.356 N 
ATOM     77  C   UNL A   1      34.499  22.270  26.441  1.00  0.00     0.224 C 
ATOM     78  H   UNL A   1      36.132  22.707  27.512  1.00  0.00     0.163 HD
ATOM     79  O   UNL A   1      33.952  21.669  27.362  1.00  0.00    -0.275 OA
BRANCH  77  80
ATOM     80  C   UNL A   1      33.967  22.310  25.032  1.00  0.00     0.098 C 
ATOM     81  C   UNL A   1      33.301  20.963  24.732  1.00  0.00     0.017 C 
ATOM     82  C   UNL A   1      33.047  23.535  24.817  1.00  0.00     0.133 C 
ATOM     83  C   UNL A   1      32.644  21.033  23.373  1.00  0.00     0.022 C 
ATOM     84  N   UNL A   1      32.335  23.430  23.542  1.00  0.00    -0.342 N 
ATOM     85  C   UNL A   1      31.655  22.177  23.438  1.00  0.00     0.119 C 
BRANCH  84  86
ATOM     86  C   UNL A   1      32.387  24.413  22.573  1.00  0.00     0.226 C 
ATOM     87  O   UNL A   1      33.201  24.308  21.644  1.00  0.00    -0.275 OA
BRANCH  86  88
ATOM     88  C   UNL A   1      31.484  25.686  22.601  1.00  0.00     0.090 C 
ATOM     89  C   UNL A   1      32.216  27.020  22.714  1.00  0.00     0.075 C 
ATOM     90  C   UNL A   1      30.211  25.697  23.450  1.00  0.00     0.075 C 
ATOM     91  C   UNL A   1      32.471  27.466  24.148  1.00  0.00     0.263 C 
ATOM     92  C   UNL A   1      30.290  26.383  24.831  1.00  0.00     0.263 C 
ATOM     93  N   UNL A   1      31.321  27.402  25.046  1.00  0.00    -0.329 N 
ATOM     94  H   UNL A   1      30.818  28.226  24.715  1.00  0.00     0.348 HD
BRANCH  93  95
ATOM     95  C   UNL A   1      31.651  27.628  26.479  1.00  0.00     0.338 C 
BRANCH  95  96
ATOM     96  C   UNL A   1      32.425  28.876  26.838  1.00  0.00     0.157 A 
ATOM     97  C   UNL A   1      33.740  29.122  27.199  1.00  0.00     0.052 A 
ATOM     98  O   UNL A   1      31.748  30.067  26.796  1.00  0.00    -0.463 OA
ATOM     99  C   UNL A   1      33.852  30.513  27.447  1.00  0.00     0.042 A 
ATOM    100  C   UNL A   1      32.618  31.047  27.163  1.00  0.00     0.195 A 
ENDBRANCH  95  96
ENDBRANCH  93  95
ENDBRANCH  86  88
ENDBRANCH  84  86
ENDBRANCH  77  80
ENDBRANCH  75  76
ENDBRANCH  74  75
ENDBRANCH   1  74
TORSDOF 17
ENDMDL
