MODEL 1
REMARK VINA RESULT:     -13.6      0.000      0.000
REMARK SMILES Cc1ccc(C(=O)Nc2cccc(F)c2C(=O)NCCCCCCNC(=O)c2ccc(-c3c4nc(c(-c5c(F)c(F)c(F)c(F)c5F)c5ccc([nH]5)c(-c5c(F)c(F)c(F)c(F)c5F)c5nc(c(-c6c(F)c(F)c(F)c(F)c6F)c6ccc3[nH]6)C=C5)C=C4)cc2)c(F)c1
REMARK SMILES IDX 21 1 20 2 19 3 18 4 16 5 17 6 15 8 9 9 10 10 11 11 13 12
REMARK SMILES IDX 12 13 14 14 8 15 6 16 7 17 5 19 1 20 2 21 3 22 93 23 4 24
REMARK SMILES IDX 91 25 92 26 22 27 23 28 24 29 25 30 26 31 27 33 28 34 29 35
REMARK SMILES IDX 90 36 30 37 89 38 31 39 32 40 33 41 83 42 34 43 88 44 82 45
REMARK SMILES IDX 84 46 35 47 87 48 81 49 80 50 36 52 68 53 48 54 67 55 49 56
REMARK SMILES IDX 52 57 66 58 85 59 50 60 51 61 65 63 86 64 53 65 37 66 38 67
REMARK SMILES IDX 46 68 39 69 40 70 44 71 47 72 41 73 42 74 45 75 43 76 69 77
REMARK SMILES IDX 70 78 78 79 71 80 72 81 76 82 79 83 73 84 74 85 77 86 75 87
REMARK SMILES IDX 54 88 55 89 63 90 56 91 57 92 61 93 64 94 58 95 59 96 62 97
REMARK SMILES IDX 60 98
REMARK H PARENT 18 7 8 18 25 32 84 51 52 62
REMARK Flexibility Score: inf
ROOT
ATOM      1  C   UNL A   1      35.646  21.128  24.911  1.00  0.00     0.002 C 
ENDROOT
BRANCH   1   2
ATOM      2  C   UNL A   1      34.269  20.789  25.480  1.00  0.00     0.021 C 
BRANCH   2   3
ATOM      3  C   UNL A   1      33.772  21.676  26.610  1.00  0.00     0.116 C 
BRANCH   3   4
ATOM      4  N   UNL A   1      32.362  21.981  26.534  1.00  0.00    -0.352 N 
ATOM      5  C   UNL A   1      31.660  22.795  25.686  1.00  0.00     0.256 C 
ATOM      6  O   UNL A   1      30.444  22.856  25.877  1.00  0.00    -0.269 OA
ATOM      7  H   UNL A   1      31.811  21.525  27.209  1.00  0.00     0.163 HD
BRANCH   5   8
ATOM      8  C   UNL A   1      32.298  23.658  24.647  1.00  0.00     0.099 A 
ATOM      9  C   UNL A   1      32.782  24.936  24.999  1.00  0.00     0.057 A 
ATOM     10  C   UNL A   1      33.556  25.681  24.094  1.00  0.00     0.027 A 
ATOM     11  C   UNL A   1      33.729  25.236  22.787  1.00  0.00     0.005 A 
ATOM     12  C   UNL A   1      32.337  23.332  23.290  1.00  0.00     0.138 A 
ATOM     13  C   UNL A   1      33.064  24.090  22.370  1.00  0.00     0.040 A 
ATOM     14  F   UNL A   1      31.588  22.342  22.785  1.00  0.00    -0.206 F 
BRANCH   9  15
ATOM     15  N   UNL A   1      32.353  25.540  26.198  1.00  0.00    -0.321 N 
ATOM     16  C   UNL A   1      31.582  26.683  26.359  1.00  0.00     0.258 C 
ATOM     17  O   UNL A   1      31.317  27.053  27.503  1.00  0.00    -0.269 OA
ATOM     18  H   UNL A   1      32.636  25.092  27.028  1.00  0.00     0.170 HD
BRANCH  16  19
ATOM     19  C   UNL A   1      30.975  27.405  25.201  1.00  0.00     0.075 A 
ATOM     20  C   UNL A   1      28.928  29.522  22.033  1.00  0.00     0.044 C 
ATOM     21  C   UNL A   1      29.667  28.774  23.100  1.00  0.00    -0.048 A 
ATOM     22  C   UNL A   1      30.752  29.358  23.753  1.00  0.00     0.004 A 
ATOM     23  C   UNL A   1      29.317  27.459  23.424  1.00  0.00     0.043 A 
ATOM     24  C   UNL A   1      31.425  28.658  24.759  1.00  0.00     0.017 A 
ATOM     25  C   UNL A   1      29.955  26.792  24.473  1.00  0.00     0.136 A 
ATOM     26  F   UNL A   1      29.539  25.551  24.764  1.00  0.00    -0.206 F 
ENDBRANCH  16  19
ENDBRANCH   9  15
ENDBRANCH   5   8
ENDBRANCH   3   4
ENDBRANCH   2   3
ENDBRANCH   1   2
BRANCH   1  27
ATOM     27  C   UNL A   1      35.771  22.436  24.117  1.00  0.00     0.002 C 
BRANCH  27  28
ATOM     28  C   UNL A   1      36.917  23.379  24.499  1.00  0.00     0.021 C 
BRANCH  28  29
ATOM     29  C   UNL A   1      37.215  23.384  25.980  1.00  0.00     0.116 C 
BRANCH  29  30
ATOM     30  N   UNL A   1      38.401  22.600  26.307  1.00  0.00    -0.352 N 
ATOM     31  C   UNL A   1      39.658  23.072  26.621  1.00  0.00     0.251 C 
ATOM     32  H   UNL A   1      38.291  21.621  26.303  1.00  0.00     0.163 HD
ATOM     33  O   UNL A   1      40.647  22.362  26.540  1.00  0.00    -0.269 OA
BRANCH  31  34
ATOM     34  C   UNL A   1      39.768  24.457  27.102  1.00  0.00     0.039 A 
ATOM     35  C   UNL A   1      40.307  25.481  26.314  1.00  0.00     0.014 A 
ATOM     36  C   UNL A   1      39.353  24.700  28.407  1.00  0.00     0.014 A 
ATOM     37  C   UNL A   1      40.419  26.760  26.853  1.00  0.00     0.010 A 
ATOM     38  C   UNL A   1      39.258  25.977  28.855  1.00  0.00     0.010 A 
ATOM     39  C   UNL A   1      39.897  26.978  28.127  1.00  0.00    -0.014 A 
BRANCH  39  40
ATOM     40  C   UNL A   1      40.067  28.180  28.914  1.00  0.00     0.031 A 
ATOM     41  C   UNL A   1      39.072  29.246  28.835  1.00  0.00     0.074 A 
ATOM     42  C   UNL A   1      41.030  28.080  29.858  1.00  0.00     0.049 A 
ATOM     43  N   UNL A   1      39.308  30.472  29.127  1.00  0.00    -0.248 NA
ATOM     44  C   UNL A   1      37.701  29.011  28.391  1.00  0.00     0.031 C 
ATOM     45  C   UNL A   1      41.266  28.857  31.060  1.00  0.00     0.029 A 
ATOM     46  N   UNL A   1      42.106  27.172  29.832  1.00  0.00    -0.354 N 
ATOM     47  C   UNL A   1      38.083  31.087  29.277  1.00  0.00     0.074 A 
ATOM     48  C   UNL A   1      37.134  30.193  28.656  1.00  0.00     0.031 C 
ATOM     49  C   UNL A   1      42.534  28.643  31.464  1.00  0.00     0.029 A 
ATOM     50  C   UNL A   1      43.182  27.822  30.449  1.00  0.00     0.049 A 
ATOM     51  H   UNL A   1      42.103  26.263  29.454  1.00  0.00     0.167 HD
ATOM     52  C   UNL A   1      38.000  32.165  30.109  1.00  0.00     0.037 A 
ATOM     53  C   UNL A   1      44.231  28.201  29.660  1.00  0.00     0.037 A 
ATOM     54  C   UNL A   1      39.310  32.419  30.712  1.00  0.00     0.049 A 
ATOM     55  C   UNL A   1      44.305  29.703  29.564  1.00  0.00     0.074 A 
ATOM     56  C   UNL A   1      39.844  32.034  31.933  1.00  0.00     0.029 A 
ATOM     57  N   UNL A   1      40.389  32.769  29.904  1.00  0.00    -0.354 N 
ATOM     58  N   UNL A   1      43.268  30.493  29.649  1.00  0.00    -0.248 NA
ATOM     59  C   UNL A   1      45.567  30.425  29.476  1.00  0.00     0.031 C 
ATOM     60  C   UNL A   1      41.256  32.099  31.836  1.00  0.00     0.029 A 
ATOM     61  C   UNL A   1      41.582  32.523  30.559  1.00  0.00     0.049 A 
ATOM     62  H   UNL A   1      40.313  33.139  28.995  1.00  0.00     0.167 HD
ATOM     63  C   UNL A   1      43.701  31.792  29.720  1.00  0.00     0.074 A 
ATOM     64  C   UNL A   1      45.144  31.696  29.585  1.00  0.00     0.031 C 
ATOM     65  C   UNL A   1      42.856  32.845  29.937  1.00  0.00     0.037 A 
BRANCH  52  66
ATOM     66  C   UNL A   1      36.711  32.746  30.652  1.00  0.00     0.064 A 
ATOM     67  C   UNL A   1      35.952  33.660  29.885  1.00  0.00     0.173 A 
ATOM     68  C   UNL A   1      36.173  32.457  31.920  1.00  0.00     0.173 A 
ATOM     69  F   UNL A   1      36.281  33.963  28.623  1.00  0.00    -0.203 F 
ATOM     70  C   UNL A   1      34.816  34.303  30.381  1.00  0.00     0.198 A 
ATOM     71  C   UNL A   1      35.054  33.128  32.431  1.00  0.00     0.198 A 
ATOM     72  F   UNL A   1      36.679  31.482  32.686  1.00  0.00    -0.203 F 
ATOM     73  F   UNL A   1      34.150  35.169  29.603  1.00  0.00    -0.200 F 
ATOM     74  C   UNL A   1      34.380  34.057  31.665  1.00  0.00     0.200 A 
ATOM     75  F   UNL A   1      34.629  32.861  33.675  1.00  0.00    -0.200 F 
ATOM     76  F   UNL A   1      33.304  34.692  32.149  1.00  0.00    -0.200 F 
ENDBRANCH  52  66
BRANCH  53  77
ATOM     77  C   UNL A   1      44.486  27.211  28.563  1.00  0.00     0.064 A 
ATOM     78  C   UNL A   1      44.122  27.601  27.254  1.00  0.00     0.173 A 
ATOM     79  C   UNL A   1      45.438  26.188  28.679  1.00  0.00     0.173 A 
ATOM     80  F   UNL A   1      43.208  28.570  27.079  1.00  0.00    -0.203 F 
ATOM     81  C   UNL A   1      44.796  27.120  26.133  1.00  0.00     0.198 A 
ATOM     82  C   UNL A   1      46.090  25.683  27.546  1.00  0.00     0.198 A 
ATOM     83  F   UNL A   1      45.826  25.755  29.887  1.00  0.00    -0.203 F 
ATOM     84  F   UNL A   1      44.527  27.630  24.923  1.00  0.00    -0.200 F 
ATOM     85  C   UNL A   1      45.802  26.183  26.283  1.00  0.00     0.200 A 
ATOM     86  F   UNL A   1      47.060  24.767  27.685  1.00  0.00    -0.200 F 
ATOM     87  F   UNL A   1      46.512  25.789  25.217  1.00  0.00    -0.200 F 
ENDBRANCH  53  77
BRANCH  65  88
ATOM     88  C   UNL A   1      43.189  34.301  29.721  1.00  0.00     0.064 A 
ATOM     89  C   UNL A   1      43.384  35.216  30.767  1.00  0.00     0.173 A 
ATOM     90  C   UNL A   1      43.490  34.791  28.423  1.00  0.00     0.173 A 
ATOM     91  F   UNL A   1      43.281  34.846  32.050  1.00  0.00    -0.203 F 
ATOM     92  C   UNL A   1      43.757  36.539  30.530  1.00  0.00     0.198 A 
ATOM     93  C   UNL A   1      43.942  36.087  28.199  1.00  0.00     0.198 A 
ATOM     94  F   UNL A   1      43.389  34.021  27.331  1.00  0.00    -0.203 F 
ATOM     95  F   UNL A   1      43.865  37.389  31.560  1.00  0.00    -0.200 F 
ATOM     96  C   UNL A   1      44.050  36.971  29.250  1.00  0.00     0.200 A 
ATOM     97  F   UNL A   1      44.291  36.464  26.961  1.00  0.00    -0.200 F 
ATOM     98  F   UNL A   1      44.458  38.227  29.034  1.00  0.00    -0.200 F 
ENDBRANCH  65  88
ENDBRANCH  39  40
ENDBRANCH  31  34
ENDBRANCH  29  30
ENDBRANCH  28  29
ENDBRANCH  27  28
ENDBRANCH   1  27
TORSDOF 15
ENDMDL
MODEL 2
REMARK VINA RESULT:     -13.5      1.126      1.671
REMARK SMILES Cc1ccc(C(=O)Nc2cccc(F)c2C(=O)NCCCCCCNC(=O)c2ccc(-c3c4nc(c(-c5c(F)c(F)c(F)c(F)c5F)c5ccc([nH]5)c(-c5c(F)c(F)c(F)c(F)c5F)c5nc(c(-c6c(F)c(F)c(F)c(F)c6F)c6ccc3[nH]6)C=C5)C=C4)cc2)c(F)c1
REMARK SMILES IDX 21 1 20 2 19 3 18 4 16 5 17 6 15 8 9 9 10 10 11 11 13 12
REMARK SMILES IDX 12 13 14 14 8 15 6 16 7 17 5 19 1 20 2 21 3 22 93 23 4 24
REMARK SMILES IDX 91 25 92 26 22 27 23 28 24 29 25 30 26 31 27 33 28 34 29 35
REMARK SMILES IDX 90 36 30 37 89 38 31 39 32 40 33 41 83 42 34 43 88 44 82 45
REMARK SMILES IDX 84 46 35 47 87 48 81 49 80 50 36 52 68 53 48 54 67 55 49 56
REMARK SMILES IDX 52 57 66 58 85 59 50 60 51 61 65 63 86 64 53 65 37 66 38 67
REMARK SMILES IDX 46 68 39 69 40 70 44 71 47 72 41 73 42 74 45 75 43 76 69 77
REMARK SMILES IDX 70 78 78 79 71 80 72 81 76 82 79 83 73 84 74 85 77 86 75 87
REMARK SMILES IDX 54 88 55 89 63 90 56 91 57 92 61 93 64 94 58 95 59 96 62 97
REMARK SMILES IDX 60 98
REMARK H PARENT 18 7 8 18 25 32 84 51 52 62
REMARK Flexibility Score: inf
ROOT
ATOM      1  C   UNL A   1      35.152  22.756  26.498  1.00  0.00     0.002 C 
ENDROOT
BRANCH   1   2
ATOM      2  C   UNL A   1      34.376  21.539  26.999  1.00  0.00     0.021 C 
BRANCH   2   3
ATOM      3  C   UNL A   1      33.207  21.086  26.141  1.00  0.00     0.116 C 
BRANCH   3   4
ATOM      4  N   UNL A   1      31.984  21.813  26.393  1.00  0.00    -0.352 N 
ATOM      5  C   UNL A   1      31.463  22.934  25.806  1.00  0.00     0.256 C 
ATOM      6  O   UNL A   1      30.383  23.328  26.251  1.00  0.00    -0.269 OA
ATOM      7  H   UNL A   1      31.430  21.437  27.114  1.00  0.00     0.163 HD
BRANCH   5   8
ATOM      8  C   UNL A   1      32.174  23.728  24.759  1.00  0.00     0.099 A 
ATOM      9  C   UNL A   1      32.744  24.975  25.092  1.00  0.00     0.057 A 
ATOM     10  C   UNL A   1      33.581  25.645  24.184  1.00  0.00     0.027 A 
ATOM     11  C   UNL A   1      33.737  25.161  22.888  1.00  0.00     0.005 A 
ATOM     12  C   UNL A   1      32.205  23.373  23.408  1.00  0.00     0.138 A 
ATOM     13  C   UNL A   1      32.997  24.058  22.485  1.00  0.00     0.040 A 
ATOM     14  F   UNL A   1      31.393  22.430  22.913  1.00  0.00    -0.206 F 
BRANCH   9  15
ATOM     15  N   UNL A   1      32.347  25.632  26.274  1.00  0.00    -0.321 N 
ATOM     16  C   UNL A   1      31.619  26.808  26.403  1.00  0.00     0.258 C 
ATOM     17  O   UNL A   1      31.376  27.223  27.536  1.00  0.00    -0.269 OA
ATOM     18  H   UNL A   1      32.618  25.201  27.116  1.00  0.00     0.170 HD
BRANCH  16  19
ATOM     19  C   UNL A   1      31.032  27.515  25.226  1.00  0.00     0.075 A 
ATOM     20  C   UNL A   1      29.046  29.609  22.004  1.00  0.00     0.044 C 
ATOM     21  C   UNL A   1      29.762  28.867  23.089  1.00  0.00    -0.048 A 
ATOM     22  C   UNL A   1      30.881  29.422  23.709  1.00  0.00     0.004 A 
ATOM     23  C   UNL A   1      29.357  27.582  23.466  1.00  0.00     0.043 A 
ATOM     24  C   UNL A   1      31.534  28.729  24.733  1.00  0.00     0.017 A 
ATOM     25  C   UNL A   1      29.976  26.924  24.532  1.00  0.00     0.136 A 
ATOM     26  F   UNL A   1      29.507  25.715  24.872  1.00  0.00    -0.206 F 
ENDBRANCH  16  19
ENDBRANCH   9  15
ENDBRANCH   5   8
ENDBRANCH   3   4
ENDBRANCH   2   3
ENDBRANCH   1   2
BRANCH   1  27
ATOM     27  C   UNL A   1      35.757  22.666  25.089  1.00  0.00     0.002 C 
BRANCH  27  28
ATOM     28  C   UNL A   1      37.077  23.406  24.847  1.00  0.00     0.021 C 
BRANCH  28  29
ATOM     29  C   UNL A   1      37.643  24.037  26.098  1.00  0.00     0.116 C 
BRANCH  29  30
ATOM     30  N   UNL A   1      38.834  23.342  26.576  1.00  0.00    -0.352 N 
ATOM     31  C   UNL A   1      40.030  23.902  26.971  1.00  0.00     0.251 C 
ATOM     32  H   UNL A   1      38.777  22.360  26.622  1.00  0.00     0.163 HD
ATOM     33  O   UNL A   1      41.059  23.247  27.020  1.00  0.00    -0.269 OA
BRANCH  31  34
ATOM     34  C   UNL A   1      40.023  25.316  27.374  1.00  0.00     0.039 A 
ATOM     35  C   UNL A   1      40.404  26.344  26.503  1.00  0.00     0.014 A 
ATOM     36  C   UNL A   1      39.662  25.589  28.690  1.00  0.00     0.014 A 
ATOM     37  C   UNL A   1      40.413  27.656  26.970  1.00  0.00     0.010 A 
ATOM     38  C   UNL A   1      39.460  26.872  29.078  1.00  0.00     0.010 A 
ATOM     39  C   UNL A   1      39.947  27.891  28.263  1.00  0.00    -0.014 A 
BRANCH  39  40
ATOM     40  C   UNL A   1      40.037  29.146  28.976  1.00  0.00     0.031 A 
ATOM     41  C   UNL A   1      38.916  30.081  28.943  1.00  0.00     0.074 A 
ATOM     42  C   UNL A   1      41.084  29.213  29.830  1.00  0.00     0.049 A 
ATOM     43  N   UNL A   1      39.024  31.341  29.157  1.00  0.00    -0.248 NA
ATOM     44  C   UNL A   1      37.551  29.662  28.639  1.00  0.00     0.031 C 
ATOM     45  C   UNL A   1      41.326  30.077  30.969  1.00  0.00     0.029 A 
ATOM     46  N   UNL A   1      42.256  28.438  29.744  1.00  0.00    -0.354 N 
ATOM     47  C   UNL A   1      37.751  31.814  29.393  1.00  0.00     0.074 A 
ATOM     48  C   UNL A   1      36.868  30.782  28.904  1.00  0.00     0.031 C 
ATOM     49  C   UNL A   1      42.641  30.037  31.263  1.00  0.00     0.029 A 
ATOM     50  C   UNL A   1      43.294  29.243  30.229  1.00  0.00     0.049 A 
ATOM     51  H   UNL A   1      42.331  27.516  29.409  1.00  0.00     0.167 HD
ATOM     52  C   UNL A   1      37.609  32.919  30.181  1.00  0.00     0.037 A 
ATOM     53  C   UNL A   1      44.215  29.699  29.330  1.00  0.00     0.037 A 
ATOM     54  C   UNL A   1      38.926  33.359  30.647  1.00  0.00     0.049 A 
ATOM     55  C   UNL A   1      44.097  31.192  29.162  1.00  0.00     0.074 A 
ATOM     56  C   UNL A   1      39.606  33.107  31.829  1.00  0.00     0.029 A 
ATOM     57  N   UNL A   1      39.879  33.788  29.729  1.00  0.00    -0.354 N 
ATOM     58  N   UNL A   1      42.982  31.858  29.308  1.00  0.00    -0.248 NA
ATOM     59  C   UNL A   1      45.248  32.052  28.925  1.00  0.00     0.031 C 
ATOM     60  C   UNL A   1      40.986  33.333  31.599  1.00  0.00     0.029 A 
ATOM     61  C   UNL A   1      41.146  33.722  30.279  1.00  0.00     0.049 A 
ATOM     62  H   UNL A   1      39.679  34.096  28.815  1.00  0.00     0.167 HD
ATOM     63  C   UNL A   1      43.257  33.200  29.281  1.00  0.00     0.074 A 
ATOM     64  C   UNL A   1      44.684  33.268  29.017  1.00  0.00     0.031 C 
ATOM     65  C   UNL A   1      42.312  34.157  29.528  1.00  0.00     0.037 A 
BRANCH  52  66
ATOM     66  C   UNL A   1      36.311  33.373  30.815  1.00  0.00     0.064 A 
ATOM     67  C   UNL A   1      35.391  34.164  30.089  1.00  0.00     0.173 A 
ATOM     68  C   UNL A   1      35.916  33.077  32.133  1.00  0.00     0.173 A 
ATOM     69  F   UNL A   1      35.578  34.450  28.795  1.00  0.00    -0.203 F 
ATOM     70  C   UNL A   1      34.232  34.694  30.661  1.00  0.00     0.198 A 
ATOM     71  C   UNL A   1      34.772  33.638  32.718  1.00  0.00     0.198 A 
ATOM     72  F   UNL A   1      36.592  32.197  32.882  1.00  0.00    -0.203 F 
ATOM     73  F   UNL A   1      33.410  35.448  29.917  1.00  0.00    -0.200 F 
ATOM     74  C   UNL A   1      33.935  34.454  31.985  1.00  0.00     0.200 A 
ATOM     75  F   UNL A   1      34.485  33.376  34.002  1.00  0.00    -0.200 F 
ATOM     76  F   UNL A   1      32.837  34.982  32.540  1.00  0.00    -0.200 F 
ENDBRANCH  52  66
BRANCH  53  77
ATOM     77  C   UNL A   1      44.494  28.687  28.259  1.00  0.00     0.064 A 
ATOM     78  C   UNL A   1      44.940  27.416  28.686  1.00  0.00     0.173 A 
ATOM     79  C   UNL A   1      43.918  28.763  26.983  1.00  0.00     0.173 A 
ATOM     80  F   UNL A   1      45.509  27.281  29.895  1.00  0.00    -0.203 F 
ATOM     81  C   UNL A   1      44.670  26.261  27.953  1.00  0.00     0.198 A 
ATOM     82  C   UNL A   1      43.678  27.603  26.234  1.00  0.00     0.198 A 
ATOM     83  F   UNL A   1      43.481  29.936  26.504  1.00  0.00    -0.203 F 
ATOM     84  F   UNL A   1      44.972  25.059  28.464  1.00  0.00    -0.200 F 
ATOM     85  C   UNL A   1      44.011  26.353  26.740  1.00  0.00     0.200 A 
ATOM     86  F   UNL A   1      43.047  27.688  25.054  1.00  0.00    -0.200 F 
ATOM     87  F   UNL A   1      43.668  25.238  26.080  1.00  0.00    -0.200 F 
ENDBRANCH  53  77
BRANCH  65  88
ATOM     88  C   UNL A   1      42.444  35.627  29.219  1.00  0.00     0.064 A 
ATOM     89  C   UNL A   1      43.270  36.502  29.941  1.00  0.00     0.173 A 
ATOM     90  C   UNL A   1      41.851  36.178  28.052  1.00  0.00     0.173 A 
ATOM     91  F   UNL A   1      44.007  36.077  30.976  1.00  0.00    -0.203 F 
ATOM     92  C   UNL A   1      43.418  37.842  29.582  1.00  0.00     0.198 A 
ATOM     93  C   UNL A   1      42.068  37.493  27.652  1.00  0.00     0.198 A 
ATOM     94  F   UNL A   1      41.070  35.453  27.241  1.00  0.00    -0.203 F 
ATOM     95  F   UNL A   1      44.166  38.650  30.346  1.00  0.00    -0.200 F 
ATOM     96  C   UNL A   1      42.830  38.334  28.433  1.00  0.00     0.200 A 
ATOM     97  F   UNL A   1      41.550  37.929  26.496  1.00  0.00    -0.200 F 
ATOM     98  F   UNL A   1      43.018  39.608  28.065  1.00  0.00    -0.200 F 
ENDBRANCH  65  88
ENDBRANCH  39  40
ENDBRANCH  31  34
ENDBRANCH  29  30
ENDBRANCH  28  29
ENDBRANCH  27  28
ENDBRANCH   1  27
TORSDOF 15
ENDMDL
MODEL 3
REMARK VINA RESULT:     -13.5      3.193      9.344
REMARK SMILES Cc1ccc(C(=O)Nc2cccc(F)c2C(=O)NCCCCCCNC(=O)c2ccc(-c3c4nc(c(-c5c(F)c(F)c(F)c(F)c5F)c5ccc([nH]5)c(-c5c(F)c(F)c(F)c(F)c5F)c5nc(c(-c6c(F)c(F)c(F)c(F)c6F)c6ccc3[nH]6)C=C5)C=C4)cc2)c(F)c1
REMARK SMILES IDX 21 1 20 2 19 3 18 4 16 5 17 6 15 8 9 9 10 10 11 11 13 12
REMARK SMILES IDX 12 13 14 14 8 15 6 16 7 17 5 19 1 20 2 21 3 22 93 23 4 24
REMARK SMILES IDX 91 25 92 26 22 27 23 28 24 29 25 30 26 31 27 33 28 34 29 35
REMARK SMILES IDX 90 36 30 37 89 38 31 39 32 40 33 41 83 42 34 43 88 44 82 45
REMARK SMILES IDX 84 46 35 47 87 48 81 49 80 50 36 52 68 53 48 54 67 55 49 56
REMARK SMILES IDX 52 57 66 58 85 59 50 60 51 61 65 63 86 64 53 65 37 66 38 67
REMARK SMILES IDX 46 68 39 69 40 70 44 71 47 72 41 73 42 74 45 75 43 76 69 77
REMARK SMILES IDX 70 78 78 79 71 80 72 81 76 82 79 83 73 84 74 85 77 86 75 87
REMARK SMILES IDX 54 88 55 89 63 90 56 91 57 92 61 93 64 94 58 95 59 96 62 97
REMARK SMILES IDX 60 98
REMARK H PARENT 18 7 8 18 25 32 84 51 52 62
REMARK Flexibility Score: inf
ROOT
ATOM      1  C   UNL A   1      31.290  29.165  24.773  1.00  0.00     0.002 C 
ENDROOT
BRANCH   1   2
ATOM      2  C   UNL A   1      31.777  28.951  23.340  1.00  0.00     0.021 C 
BRANCH   2   3
ATOM      3  C   UNL A   1      30.866  28.138  22.435  1.00  0.00     0.116 C 
BRANCH   3   4
ATOM      4  N   UNL A   1      31.543  27.070  21.736  1.00  0.00    -0.352 N 
ATOM      5  C   UNL A   1      31.985  25.848  22.167  1.00  0.00     0.256 C 
ATOM      6  O   UNL A   1      32.541  25.144  21.322  1.00  0.00    -0.269 OA
ATOM      7  H   UNL A   1      31.717  27.253  20.785  1.00  0.00     0.163 HD
BRANCH   5   8
ATOM      8  C   UNL A   1      31.915  25.396  23.589  1.00  0.00     0.099 A 
ATOM      9  C   UNL A   1      33.092  24.985  24.252  1.00  0.00     0.057 A 
ATOM     10  C   UNL A   1      33.086  24.744  25.635  1.00  0.00     0.027 A 
ATOM     11  C   UNL A   1      31.888  24.760  26.344  1.00  0.00     0.005 A 
ATOM     12  C   UNL A   1      30.718  25.224  24.287  1.00  0.00     0.138 A 
ATOM     13  C   UNL A   1      30.696  24.940  25.654  1.00  0.00     0.040 A 
ATOM     14  F   UNL A   1      29.535  25.216  23.658  1.00  0.00    -0.206 F 
BRANCH   9  15
ATOM     15  N   UNL A   1      34.238  24.657  23.501  1.00  0.00    -0.321 N 
ATOM     16  C   UNL A   1      34.817  23.409  23.313  1.00  0.00     0.258 C 
ATOM     17  O   UNL A   1      35.830  23.332  22.618  1.00  0.00    -0.269 OA
ATOM     18  H   UNL A   1      34.686  25.410  23.051  1.00  0.00     0.170 HD
BRANCH  16  19
ATOM     19  C   UNL A   1      34.191  22.154  23.827  1.00  0.00     0.075 A 
ATOM     20  C   UNL A   1      32.459  18.373  25.018  1.00  0.00     0.044 C 
ATOM     21  C   UNL A   1      33.034  19.703  24.638  1.00  0.00    -0.048 A 
ATOM     22  C   UNL A   1      34.160  20.201  25.292  1.00  0.00     0.004 A 
ATOM     23  C   UNL A   1      32.424  20.492  23.657  1.00  0.00     0.043 A 
ATOM     24  C   UNL A   1      34.700  21.437  24.920  1.00  0.00     0.017 A 
ATOM     25  C   UNL A   1      33.007  21.695  23.248  1.00  0.00     0.136 A 
ATOM     26  F   UNL A   1      32.397  22.380  22.270  1.00  0.00    -0.206 F 
ENDBRANCH  16  19
ENDBRANCH   9  15
ENDBRANCH   5   8
ENDBRANCH   3   4
ENDBRANCH   2   3
ENDBRANCH   1   2
BRANCH   1  27
ATOM     27  C   UNL A   1      32.020  28.392  25.880  1.00  0.00     0.002 C 
BRANCH  27  28
ATOM     28  C   UNL A   1      33.552  28.433  25.868  1.00  0.00     0.021 C 
BRANCH  28  29
ATOM     29  C   UNL A   1      34.145  28.907  27.174  1.00  0.00     0.116 C 
BRANCH  29  30
ATOM     30  N   UNL A   1      34.451  30.334  27.155  1.00  0.00    -0.352 N 
ATOM     31  C   UNL A   1      35.509  30.972  27.767  1.00  0.00     0.251 C 
ATOM     32  H   UNL A   1      33.832  30.906  26.646  1.00  0.00     0.163 HD
ATOM     33  O   UNL A   1      35.493  32.173  27.984  1.00  0.00    -0.269 OA
BRANCH  31  34
ATOM     34  C   UNL A   1      36.687  30.164  28.116  1.00  0.00     0.039 A 
ATOM     35  C   UNL A   1      36.773  29.450  29.317  1.00  0.00     0.014 A 
ATOM     36  C   UNL A   1      37.744  30.179  27.213  1.00  0.00     0.014 A 
ATOM     37  C   UNL A   1      37.939  28.741  29.598  1.00  0.00     0.010 A 
ATOM     38  C   UNL A   1      38.782  29.321  27.380  1.00  0.00     0.010 A 
ATOM     39  C   UNL A   1      38.930  28.701  28.619  1.00  0.00    -0.014 A 
BRANCH  39  40
ATOM     40  C   UNL A   1      40.263  28.167  28.790  1.00  0.00     0.031 A 
ATOM     41  C   UNL A   1      40.546  26.786  28.406  1.00  0.00     0.074 A 
ATOM     42  C   UNL A   1      41.196  29.108  29.061  1.00  0.00     0.049 A 
ATOM     43  N   UNL A   1      41.515  26.093  28.880  1.00  0.00    -0.248 NA
ATOM     44  C   UNL A   1      39.725  26.054  27.446  1.00  0.00     0.031 C 
ATOM     45  C   UNL A   1      42.641  29.078  28.933  1.00  0.00     0.029 A 
ATOM     46  N   UNL A   1      40.937  30.376  29.617  1.00  0.00    -0.354 N 
ATOM     47  C   UNL A   1      41.673  25.009  28.043  1.00  0.00     0.074 A 
ATOM     48  C   UNL A   1      40.452  24.942  27.276  1.00  0.00     0.031 C 
ATOM     49  C   UNL A   1      43.155  30.080  29.673  1.00  0.00     0.029 A 
ATOM     50  C   UNL A   1      42.052  30.695  30.401  1.00  0.00     0.049 A 
ATOM     51  H   UNL A   1      40.132  30.926  29.482  1.00  0.00     0.167 HD
ATOM     52  C   UNL A   1      42.911  24.445  27.944  1.00  0.00     0.037 A 
ATOM     53  C   UNL A   1      41.892  30.703  31.757  1.00  0.00     0.037 A 
ATOM     54  C   UNL A   1      43.854  25.187  28.785  1.00  0.00     0.049 A 
ATOM     55  C   UNL A   1      42.666  29.574  32.388  1.00  0.00     0.074 A 
ATOM     56  C   UNL A   1      44.744  26.206  28.478  1.00  0.00     0.029 A 
ATOM     57  N   UNL A   1      43.670  25.227  30.164  1.00  0.00    -0.354 N 
ATOM     58  N   UNL A   1      42.916  28.438  31.794  1.00  0.00    -0.248 NA
ATOM     59  C   UNL A   1      43.306  29.690  33.692  1.00  0.00     0.031 C 
ATOM     60  C   UNL A   1      45.050  26.897  29.677  1.00  0.00     0.029 A 
ATOM     61  C   UNL A   1      44.349  26.301  30.711  1.00  0.00     0.049 A 
ATOM     62  H   UNL A   1      43.133  24.582  30.678  1.00  0.00     0.167 HD
ATOM     63  C   UNL A   1      43.797  27.719  32.559  1.00  0.00     0.074 A 
ATOM     64  C   UNL A   1      43.992  28.535  33.744  1.00  0.00     0.031 C 
ATOM     65  C   UNL A   1      44.345  26.536  32.146  1.00  0.00     0.037 A 
BRANCH  52  66
ATOM     66  C   UNL A   1      43.348  23.492  26.852  1.00  0.00     0.064 A 
ATOM     67  C   UNL A   1      43.035  22.115  26.928  1.00  0.00     0.173 A 
ATOM     68  C   UNL A   1      44.086  23.862  25.712  1.00  0.00     0.173 A 
ATOM     69  F   UNL A   1      42.259  21.622  27.902  1.00  0.00    -0.203 F 
ATOM     70  C   UNL A   1      43.504  21.180  26.003  1.00  0.00     0.198 A 
ATOM     71  C   UNL A   1      44.587  22.920  24.803  1.00  0.00     0.198 A 
ATOM     72  F   UNL A   1      44.304  25.148  25.411  1.00  0.00    -0.203 F 
ATOM     73  F   UNL A   1      43.180  19.886  26.143  1.00  0.00    -0.200 F 
ATOM     74  C   UNL A   1      44.303  21.578  24.953  1.00  0.00     0.200 A 
ATOM     75  F   UNL A   1      45.344  23.327  23.774  1.00  0.00    -0.200 F 
ATOM     76  F   UNL A   1      44.773  20.678  24.079  1.00  0.00    -0.200 F 
ENDBRANCH  52  66
BRANCH  53  77
ATOM     77  C   UNL A   1      40.534  31.201  32.153  1.00  0.00     0.064 A 
ATOM     78  C   UNL A   1      39.601  30.231  32.584  1.00  0.00     0.173 A 
ATOM     79  C   UNL A   1      40.305  32.526  32.551  1.00  0.00     0.173 A 
ATOM     80  F   UNL A   1      39.762  28.947  32.227  1.00  0.00    -0.203 F 
ATOM     81  C   UNL A   1      38.597  30.539  33.502  1.00  0.00     0.198 A 
ATOM     82  C   UNL A   1      39.274  32.837  33.449  1.00  0.00     0.198 A 
ATOM     83  F   UNL A   1      41.140  33.503  32.173  1.00  0.00    -0.203 F 
ATOM     84  F   UNL A   1      37.831  29.562  34.006  1.00  0.00    -0.200 F 
ATOM     85  C   UNL A   1      38.454  31.837  33.957  1.00  0.00     0.200 A 
ATOM     86  F   UNL A   1      39.126  34.095  33.886  1.00  0.00    -0.200 F 
ATOM     87  F   UNL A   1      37.552  32.116  34.908  1.00  0.00    -0.200 F 
ENDBRANCH  53  77
BRANCH  65  88
ATOM     88  C   UNL A   1      45.061  25.541  33.026  1.00  0.00     0.064 A 
ATOM     89  C   UNL A   1      46.456  25.390  33.052  1.00  0.00     0.173 A 
ATOM     90  C   UNL A   1      44.354  24.806  34.012  1.00  0.00     0.173 A 
ATOM     91  F   UNL A   1      47.256  26.135  32.277  1.00  0.00    -0.203 F 
ATOM     92  C   UNL A   1      47.087  24.507  33.929  1.00  0.00     0.198 A 
ATOM     93  C   UNL A   1      44.994  23.989  34.939  1.00  0.00     0.198 A 
ATOM     94  F   UNL A   1      43.021  24.879  34.135  1.00  0.00    -0.203 F 
ATOM     95  F   UNL A   1      48.416  24.353  33.866  1.00  0.00    -0.200 F 
ATOM     96  C   UNL A   1      46.359  23.818  34.880  1.00  0.00     0.200 A 
ATOM     97  F   UNL A   1      44.279  23.388  35.900  1.00  0.00    -0.200 F 
ATOM     98  F   UNL A   1      46.976  23.012  35.753  1.00  0.00    -0.200 F 
ENDBRANCH  65  88
ENDBRANCH  39  40
ENDBRANCH  31  34
ENDBRANCH  29  30
ENDBRANCH  28  29
ENDBRANCH  27  28
ENDBRANCH   1  27
TORSDOF 15
ENDMDL
