MODEL 1
REMARK VINA RESULT:     -12.3      0.000      0.000
REMARK SMILES CC[C@]1(C(=O)NCCCCCCNC(=O)c2ccc(-c3c4nc(c(-c5c(F)c(F)c(F)c(F)c5F)c5ccc([nH]5)c(-c5c(F)c(F)c(F)c(F)c5F)c5nc(c(-c6c(F)c(F)c(F)c(F)c6F)c6ccc3[nH]6)C=C5)C=C4)cc2)CC[N@@H+](Cc2ccc(CC(C)C)cc2)C1
REMARK SMILES IDX 8 1 7 2 6 3 4 4 5 5 3 7 79 8 93 9 80 10 81 11 2 13 1 14
REMARK SMILES IDX 82 15 83 16 84 17 92 18 85 19 91 20 86 21 87 22 88 23 89 24
REMARK SMILES IDX 90 25 9 26 10 27 11 28 12 29 13 30 14 31 15 33 16 34 17 35
REMARK SMILES IDX 78 36 18 37 77 38 19 39 20 40 21 41 71 42 22 43 76 44 70 45
REMARK SMILES IDX 72 46 23 47 75 48 69 49 68 50 24 52 56 53 36 54 55 55 37 56
REMARK SMILES IDX 40 57 54 58 73 59 38 60 39 61 53 63 74 64 41 65 25 66 26 67
REMARK SMILES IDX 34 68 27 69 28 70 32 71 35 72 29 73 30 74 33 75 31 76 57 77
REMARK SMILES IDX 58 78 66 79 59 80 60 81 64 82 67 83 61 84 62 85 65 86 63 87
REMARK SMILES IDX 42 88 43 89 51 90 44 91 45 92 49 93 52 94 46 95 47 96 50 97
REMARK SMILES IDX 48 98
REMARK H PARENT 6 6 81 12 13 32 72 51 40 62
REMARK Flexibility Score: inf
ROOT
ATOM      1  C   UNL A   1      31.821  28.522  27.311  1.00  0.00     0.021 C 
ENDROOT
BRANCH   1   2
ATOM      2  C   UNL A   1      32.390  27.256  26.638  1.00  0.00     0.116 C 
BRANCH   2   3
ATOM      3  N   UNL A   1      31.639  26.006  26.807  1.00  0.00    -0.355 N 
ATOM      4  C   UNL A   1      31.755  24.663  26.583  1.00  0.00     0.232 C 
ATOM      5  O   UNL A   1      30.772  24.056  27.044  1.00  0.00    -0.274 OA
ATOM      6  H   UNL A   1      30.764  26.199  27.217  1.00  0.00     0.163 HD
BRANCH   4   7
ATOM      7  C   UNL A   1      32.859  23.834  25.781  1.00  0.00     0.103 C 
ATOM      8  C   UNL A   1      32.430  22.590  24.915  1.00  0.00     0.084 C 
ATOM      9  C   UNL A   1      33.596  24.672  24.722  1.00  0.00     0.279 C 
ATOM     10  C   UNL A   1      32.990  22.798  23.508  1.00  0.00     0.263 C 
ATOM     11  N   UNL A   1      33.158  24.228  23.386  1.00  0.00    -0.330 N 
ATOM     12  H   UNL A   1      33.890  24.543  22.749  1.00  0.00     0.348 HD
BRANCH   7  13
ATOM     13  C   UNL A   1      33.810  23.244  26.891  1.00  0.00     0.020 C 
ATOM     14  C   UNL A   1      33.821  21.700  27.025  1.00  0.00     0.005 C 
ENDBRANCH   7  13
BRANCH  11  15
ATOM     15  C   UNL A   1      32.095  24.902  22.616  1.00  0.00     0.299 C 
BRANCH  15  16
ATOM     16  C   UNL A   1      31.505  26.248  23.048  1.00  0.00     0.006 A 
ATOM     17  C   UNL A   1      30.229  26.384  23.597  1.00  0.00     0.010 A 
ATOM     18  C   UNL A   1      32.135  27.447  22.754  1.00  0.00     0.010 A 
ATOM     19  C   UNL A   1      29.638  27.663  23.753  1.00  0.00     0.004 A 
ATOM     20  C   UNL A   1      31.582  28.709  22.881  1.00  0.00     0.004 A 
ATOM     21  C   UNL A   1      30.287  28.833  23.329  1.00  0.00    -0.048 A 
BRANCH  21  22
ATOM     22  C   UNL A   1      29.677  30.213  23.282  1.00  0.00     0.038 C 
BRANCH  22  23
ATOM     23  C   UNL A   1      28.201  30.227  22.850  1.00  0.00    -0.013 C 
ATOM     24  C   UNL A   1      27.447  31.374  23.515  1.00  0.00     0.008 C 
ATOM     25  C   UNL A   1      28.076  30.329  21.328  1.00  0.00     0.008 C 
ENDBRANCH  22  23
ENDBRANCH  21  22
ENDBRANCH  15  16
ENDBRANCH  11  15
ENDBRANCH   4   7
ENDBRANCH   2   3
ENDBRANCH   1   2
BRANCH   1  26
ATOM     26  C   UNL A   1      32.435  29.872  26.931  1.00  0.00     0.002 C 
BRANCH  26  27
ATOM     27  C   UNL A   1      31.477  30.796  26.159  1.00  0.00     0.002 C 
BRANCH  27  28
ATOM     28  C   UNL A   1      31.370  32.255  26.632  1.00  0.00     0.021 C 
BRANCH  28  29
ATOM     29  C   UNL A   1      32.598  32.819  27.340  1.00  0.00     0.116 C 
BRANCH  29  30
ATOM     30  N   UNL A   1      32.447  34.238  27.633  1.00  0.00    -0.352 N 
ATOM     31  C   UNL A   1      33.034  34.979  28.625  1.00  0.00     0.251 C 
ATOM     32  H   UNL A   1      31.841  34.733  27.036  1.00  0.00     0.163 HD
ATOM     33  O   UNL A   1      32.615  36.106  28.899  1.00  0.00    -0.269 OA
BRANCH  31  34
ATOM     34  C   UNL A   1      34.183  34.431  29.372  1.00  0.00     0.039 A 
ATOM     35  C   UNL A   1      33.979  33.785  30.591  1.00  0.00     0.014 A 
ATOM     36  C   UNL A   1      35.475  34.578  28.864  1.00  0.00     0.014 A 
ATOM     37  C   UNL A   1      35.069  33.237  31.272  1.00  0.00     0.010 A 
ATOM     38  C   UNL A   1      36.557  33.996  29.516  1.00  0.00     0.010 A 
ATOM     39  C   UNL A   1      36.363  33.315  30.725  1.00  0.00    -0.014 A 
BRANCH  39  40
ATOM     40  C   UNL A   1      37.516  32.648  31.377  1.00  0.00     0.031 A 
ATOM     41  C   UNL A   1      38.200  31.483  30.723  1.00  0.00     0.074 A 
ATOM     42  C   UNL A   1      37.887  33.047  32.609  1.00  0.00     0.049 A 
ATOM     43  N   UNL A   1      39.202  30.762  31.158  1.00  0.00    -0.248 NA
ATOM     44  C   UNL A   1      37.674  31.055  29.418  1.00  0.00     0.031 C 
ATOM     45  C   UNL A   1      37.245  34.117  33.374  1.00  0.00     0.029 A 
ATOM     46  N   UNL A   1      38.879  32.593  33.440  1.00  0.00    -0.354 N 
ATOM     47  C   UNL A   1      39.424  29.795  30.187  1.00  0.00     0.074 A 
ATOM     48  C   UNL A   1      38.416  29.987  29.165  1.00  0.00     0.031 C 
ATOM     49  C   UNL A   1      37.871  34.251  34.553  1.00  0.00     0.029 A 
ATOM     50  C   UNL A   1      38.934  33.254  34.641  1.00  0.00     0.049 A 
ATOM     51  H   UNL A   1      39.493  31.863  33.196  1.00  0.00     0.167 HD
ATOM     52  C   UNL A   1      40.392  28.847  30.145  1.00  0.00     0.037 A 
ATOM     53  C   UNL A   1      39.747  33.073  35.700  1.00  0.00     0.037 A 
ATOM     54  C   UNL A   1      41.392  28.669  31.166  1.00  0.00     0.049 A 
ATOM     55  C   UNL A   1      40.815  32.016  35.628  1.00  0.00     0.074 A 
ATOM     56  C   UNL A   1      42.463  27.794  31.183  1.00  0.00     0.029 A 
ATOM     57  N   UNL A   1      41.433  29.372  32.363  1.00  0.00    -0.354 N 
ATOM     58  N   UNL A   1      41.083  31.175  34.658  1.00  0.00    -0.248 NA
ATOM     59  C   UNL A   1      41.701  31.890  36.792  1.00  0.00     0.031 C 
ATOM     60  C   UNL A   1      43.111  27.919  32.416  1.00  0.00     0.029 A 
ATOM     61  C   UNL A   1      42.488  28.922  33.141  1.00  0.00     0.049 A 
ATOM     62  H   UNL A   1      40.805  30.085  32.621  1.00  0.00     0.167 HD
ATOM     63  C   UNL A   1      42.180  30.438  35.082  1.00  0.00     0.074 A 
ATOM     64  C   UNL A   1      42.540  30.946  36.391  1.00  0.00     0.031 C 
ATOM     65  C   UNL A   1      42.831  29.433  34.446  1.00  0.00     0.037 A 
BRANCH  52  66
ATOM     66  C   UNL A   1      40.413  27.923  28.958  1.00  0.00     0.064 A 
ATOM     67  C   UNL A   1      41.175  28.205  27.813  1.00  0.00     0.173 A 
ATOM     68  C   UNL A   1      39.688  26.721  28.979  1.00  0.00     0.173 A 
ATOM     69  F   UNL A   1      41.882  29.342  27.736  1.00  0.00    -0.203 F 
ATOM     70  C   UNL A   1      41.182  27.339  26.723  1.00  0.00     0.198 A 
ATOM     71  C   UNL A   1      39.725  25.840  27.901  1.00  0.00     0.198 A 
ATOM     72  F   UNL A   1      38.949  26.395  30.050  1.00  0.00    -0.203 F 
ATOM     73  F   UNL A   1      41.874  27.658  25.620  1.00  0.00    -0.200 F 
ATOM     74  C   UNL A   1      40.464  26.154  26.770  1.00  0.00     0.200 A 
ATOM     75  F   UNL A   1      39.044  24.688  27.956  1.00  0.00    -0.200 F 
ATOM     76  F   UNL A   1      40.477  25.318  25.723  1.00  0.00    -0.200 F 
ENDBRANCH  52  66
BRANCH  53  77
ATOM     77  C   UNL A   1      39.592  33.931  36.903  1.00  0.00     0.064 A 
ATOM     78  C   UNL A   1      40.212  35.186  36.981  1.00  0.00     0.173 A 
ATOM     79  C   UNL A   1      38.806  33.523  37.991  1.00  0.00     0.173 A 
ATOM     80  F   UNL A   1      40.987  35.614  35.973  1.00  0.00    -0.203 F 
ATOM     81  C   UNL A   1      40.068  35.991  38.109  1.00  0.00     0.198 A 
ATOM     82  C   UNL A   1      38.638  34.342  39.105  1.00  0.00     0.198 A 
ATOM     83  F   UNL A   1      38.184  32.336  37.962  1.00  0.00    -0.203 F 
ATOM     84  F   UNL A   1      40.706  37.167  38.175  1.00  0.00    -0.200 F 
ATOM     85  C   UNL A   1      39.275  35.572  39.167  1.00  0.00     0.200 A 
ATOM     86  F   UNL A   1      37.854  33.942  40.115  1.00  0.00    -0.200 F 
ATOM     87  F   UNL A   1      39.129  36.351  40.247  1.00  0.00    -0.200 F 
ENDBRANCH  53  77
BRANCH  65  88
ATOM     88  C   UNL A   1      44.015  28.829  35.146  1.00  0.00     0.064 A 
ATOM     89  C   UNL A   1      45.311  29.342  34.982  1.00  0.00     0.173 A 
ATOM     90  C   UNL A   1      43.845  27.747  36.023  1.00  0.00     0.173 A 
ATOM     91  F   UNL A   1      45.531  30.366  34.144  1.00  0.00    -0.203 F 
ATOM     92  C   UNL A   1      46.396  28.774  35.646  1.00  0.00     0.198 A 
ATOM     93  C   UNL A   1      44.927  27.204  36.713  1.00  0.00     0.198 A 
ATOM     94  F   UNL A   1      42.627  27.223  36.223  1.00  0.00    -0.203 F 
ATOM     95  F   UNL A   1      47.631  29.245  35.431  1.00  0.00    -0.200 F 
ATOM     96  C   UNL A   1      46.202  27.712  36.516  1.00  0.00     0.200 A 
ATOM     97  F   UNL A   1      44.734  26.190  37.567  1.00  0.00    -0.200 F 
ATOM     98  F   UNL A   1      47.245  27.173  37.161  1.00  0.00    -0.200 F 
ENDBRANCH  65  88
ENDBRANCH  39  40
ENDBRANCH  31  34
ENDBRANCH  29  30
ENDBRANCH  28  29
ENDBRANCH  27  28
ENDBRANCH  26  27
ENDBRANCH   1  26
TORSDOF 18
ENDMDL
MODEL 2
REMARK VINA RESULT:     -12.3      1.091      2.530
REMARK SMILES CC[C@]1(C(=O)NCCCCCCNC(=O)c2ccc(-c3c4nc(c(-c5c(F)c(F)c(F)c(F)c5F)c5ccc([nH]5)c(-c5c(F)c(F)c(F)c(F)c5F)c5nc(c(-c6c(F)c(F)c(F)c(F)c6F)c6ccc3[nH]6)C=C5)C=C4)cc2)CC[N@@H+](Cc2ccc(CC(C)C)cc2)C1
REMARK SMILES IDX 8 1 7 2 6 3 4 4 5 5 3 7 79 8 93 9 80 10 81 11 2 13 1 14
REMARK SMILES IDX 82 15 83 16 84 17 92 18 85 19 91 20 86 21 87 22 88 23 89 24
REMARK SMILES IDX 90 25 9 26 10 27 11 28 12 29 13 30 14 31 15 33 16 34 17 35
REMARK SMILES IDX 78 36 18 37 77 38 19 39 20 40 21 41 71 42 22 43 76 44 70 45
REMARK SMILES IDX 72 46 23 47 75 48 69 49 68 50 24 52 56 53 36 54 55 55 37 56
REMARK SMILES IDX 40 57 54 58 73 59 38 60 39 61 53 63 74 64 41 65 25 66 26 67
REMARK SMILES IDX 34 68 27 69 28 70 32 71 35 72 29 73 30 74 33 75 31 76 57 77
REMARK SMILES IDX 58 78 66 79 59 80 60 81 64 82 67 83 61 84 62 85 65 86 63 87
REMARK SMILES IDX 42 88 43 89 51 90 44 91 45 92 49 93 52 94 46 95 47 96 50 97
REMARK SMILES IDX 48 98
REMARK H PARENT 6 6 81 12 13 32 72 51 40 62
REMARK Flexibility Score: inf
ROOT
ATOM      1  C   UNL A   1      33.440  29.259  25.173  1.00  0.00     0.021 C 
ENDROOT
BRANCH   1   2
ATOM      2  C   UNL A   1      33.456  27.719  25.108  1.00  0.00     0.116 C 
BRANCH   2   3
ATOM      3  N   UNL A   1      33.726  27.100  23.804  1.00  0.00    -0.355 N 
ATOM      4  C   UNL A   1      33.403  25.993  23.070  1.00  0.00     0.232 C 
ATOM      5  O   UNL A   1      33.896  26.064  21.931  1.00  0.00    -0.274 OA
ATOM      6  H   UNL A   1      34.342  27.671  23.288  1.00  0.00     0.163 HD
BRANCH   4   7
ATOM      7  C   UNL A   1      32.612  24.668  23.481  1.00  0.00     0.103 C 
ATOM      8  C   UNL A   1      32.536  24.238  24.994  1.00  0.00     0.084 C 
ATOM      9  C   UNL A   1      31.116  24.720  23.128  1.00  0.00     0.279 C 
ATOM     10  C   UNL A   1      31.061  24.036  25.338  1.00  0.00     0.263 C 
ATOM     11  N   UNL A   1      30.345  24.846  24.378  1.00  0.00    -0.330 N 
ATOM     12  H   UNL A   1      29.402  24.535  24.141  1.00  0.00     0.348 HD
BRANCH   7  13
ATOM     13  C   UNL A   1      33.388  23.496  22.767  1.00  0.00     0.020 C 
ATOM     14  C   UNL A   1      32.552  22.234  22.433  1.00  0.00     0.005 C 
ENDBRANCH   7  13
BRANCH  11  15
ATOM     15  C   UNL A   1      29.866  26.137  24.909  1.00  0.00     0.299 C 
BRANCH  15  16
ATOM     16  C   UNL A   1      29.377  27.263  23.993  1.00  0.00     0.006 A 
ATOM     17  C   UNL A   1      30.210  28.275  23.512  1.00  0.00     0.010 A 
ATOM     18  C   UNL A   1      28.030  27.451  23.726  1.00  0.00     0.010 A 
ATOM     19  C   UNL A   1      29.668  29.419  22.874  1.00  0.00     0.004 A 
ATOM     20  C   UNL A   1      27.468  28.561  23.120  1.00  0.00     0.004 A 
ATOM     21  C   UNL A   1      28.282  29.602  22.737  1.00  0.00    -0.048 A 
BRANCH  21  22
ATOM     22  C   UNL A   1      27.602  30.855  22.243  1.00  0.00     0.038 C 
BRANCH  22  23
ATOM     23  C   UNL A   1      28.577  31.946  21.766  1.00  0.00    -0.013 C 
ATOM     24  C   UNL A   1      28.028  32.673  20.542  1.00  0.00     0.008 C 
ATOM     25  C   UNL A   1      28.868  32.948  22.884  1.00  0.00     0.008 C 
ENDBRANCH  22  23
ENDBRANCH  21  22
ENDBRANCH  15  16
ENDBRANCH  11  15
ENDBRANCH   4   7
ENDBRANCH   2   3
ENDBRANCH   1   2
BRANCH   1  26
ATOM     26  C   UNL A   1      32.696  29.920  26.336  1.00  0.00     0.002 C 
BRANCH  26  27
ATOM     27  C   UNL A   1      31.481  30.759  25.902  1.00  0.00     0.002 C 
BRANCH  27  28
ATOM     28  C   UNL A   1      31.320  32.149  26.539  1.00  0.00     0.021 C 
BRANCH  28  29
ATOM     29  C   UNL A   1      32.574  32.741  27.173  1.00  0.00     0.116 C 
BRANCH  29  30
ATOM     30  N   UNL A   1      32.406  34.154  27.481  1.00  0.00    -0.352 N 
ATOM     31  C   UNL A   1      32.967  34.888  28.494  1.00  0.00     0.251 C 
ATOM     32  H   UNL A   1      31.808  34.652  26.879  1.00  0.00     0.163 HD
ATOM     33  O   UNL A   1      32.534  36.007  28.774  1.00  0.00    -0.269 OA
BRANCH  31  34
ATOM     34  C   UNL A   1      34.106  34.339  29.257  1.00  0.00     0.039 A 
ATOM     35  C   UNL A   1      33.879  33.631  30.437  1.00  0.00     0.014 A 
ATOM     36  C   UNL A   1      35.410  34.547  28.803  1.00  0.00     0.014 A 
ATOM     37  C   UNL A   1      34.961  33.083  31.132  1.00  0.00     0.010 A 
ATOM     38  C   UNL A   1      36.485  33.966  29.468  1.00  0.00     0.010 A 
ATOM     39  C   UNL A   1      36.270  33.225  30.636  1.00  0.00    -0.014 A 
BRANCH  39  40
ATOM     40  C   UNL A   1      37.419  32.561  31.299  1.00  0.00     0.031 A 
ATOM     41  C   UNL A   1      38.112  31.398  30.652  1.00  0.00     0.074 A 
ATOM     42  C   UNL A   1      37.779  32.963  32.534  1.00  0.00     0.049 A 
ATOM     43  N   UNL A   1      39.113  30.680  31.097  1.00  0.00    -0.248 NA
ATOM     44  C   UNL A   1      37.599  30.967  29.343  1.00  0.00     0.031 C 
ATOM     45  C   UNL A   1      37.127  34.032  33.292  1.00  0.00     0.029 A 
ATOM     46  N   UNL A   1      38.765  32.512  33.373  1.00  0.00    -0.354 N 
ATOM     47  C   UNL A   1      39.346  29.713  30.128  1.00  0.00     0.074 A 
ATOM     48  C   UNL A   1      38.346  29.901  29.098  1.00  0.00     0.031 C 
ATOM     49  C   UNL A   1      37.743  34.169  34.476  1.00  0.00     0.029 A 
ATOM     50  C   UNL A   1      38.808  33.176  34.575  1.00  0.00     0.049 A 
ATOM     51  H   UNL A   1      39.383  31.784  33.136  1.00  0.00     0.167 HD
ATOM     52  C   UNL A   1      40.317  28.768  30.095  1.00  0.00     0.037 A 
ATOM     53  C   UNL A   1      39.612  32.998  35.640  1.00  0.00     0.037 A 
ATOM     54  C   UNL A   1      41.308  28.594  31.126  1.00  0.00     0.049 A 
ATOM     55  C   UNL A   1      40.684  31.944  35.578  1.00  0.00     0.074 A 
ATOM     56  C   UNL A   1      42.382  27.722  31.153  1.00  0.00     0.029 A 
ATOM     57  N   UNL A   1      41.337  29.298  32.322  1.00  0.00    -0.354 N 
ATOM     58  N   UNL A   1      40.963  31.103  34.612  1.00  0.00    -0.248 NA
ATOM     59  C   UNL A   1      41.560  31.822  36.751  1.00  0.00     0.031 C 
ATOM     60  C   UNL A   1      43.019  27.850  32.391  1.00  0.00     0.029 A 
ATOM     61  C   UNL A   1      42.387  28.852  33.109  1.00  0.00     0.049 A 
ATOM     62  H   UNL A   1      40.705  30.010  32.573  1.00  0.00     0.167 HD
ATOM     63  C   UNL A   1      42.058  30.370  35.046  1.00  0.00     0.074 A 
ATOM     64  C   UNL A   1      42.406  30.879  36.357  1.00  0.00     0.031 C 
ATOM     65  C   UNL A   1      42.717  29.365  34.417  1.00  0.00     0.037 A 
BRANCH  52  66
ATOM     66  C   UNL A   1      40.351  27.843  28.910  1.00  0.00     0.064 A 
ATOM     67  C   UNL A   1      39.627  26.640  28.888  1.00  0.00     0.173 A 
ATOM     68  C   UNL A   1      41.091  28.180  27.765  1.00  0.00     0.173 A 
ATOM     69  F   UNL A   1      38.908  26.266  29.957  1.00  0.00    -0.203 F 
ATOM     70  C   UNL A   1      39.671  25.795  27.783  1.00  0.00     0.198 A 
ATOM     71  C   UNL A   1      41.104  27.348  26.648  1.00  0.00     0.198 A 
ATOM     72  F   UNL A   1      41.795  29.321  27.725  1.00  0.00    -0.203 F 
ATOM     73  F   UNL A   1      39.014  24.626  27.809  1.00  0.00    -0.200 F 
ATOM     74  C   UNL A   1      40.403  26.152  26.661  1.00  0.00     0.200 A 
ATOM     75  F   UNL A   1      41.799  27.704  25.558  1.00  0.00    -0.200 F 
ATOM     76  F   UNL A   1      40.438  25.341  25.595  1.00  0.00    -0.200 F 
ENDBRANCH  52  66
BRANCH  53  77
ATOM     77  C   UNL A   1      39.445  33.857  36.841  1.00  0.00     0.064 A 
ATOM     78  C   UNL A   1      38.690  33.424  37.940  1.00  0.00     0.173 A 
ATOM     79  C   UNL A   1      40.049  35.120  36.922  1.00  0.00     0.173 A 
ATOM     80  F   UNL A   1      38.078  32.230  37.904  1.00  0.00    -0.203 F 
ATOM     81  C   UNL A   1      38.532  34.229  39.066  1.00  0.00     0.198 A 
ATOM     82  C   UNL A   1      39.915  35.911  38.061  1.00  0.00     0.198 A 
ATOM     83  F   UNL A   1      40.790  35.577  35.902  1.00  0.00    -0.203 F 
ATOM     84  F   UNL A   1      37.770  33.808  40.085  1.00  0.00    -0.200 F 
ATOM     85  C   UNL A   1      39.150  35.468  39.129  1.00  0.00     0.200 A 
ATOM     86  F   UNL A   1      40.533  37.098  38.125  1.00  0.00    -0.200 F 
ATOM     87  F   UNL A   1      39.006  36.237  40.216  1.00  0.00    -0.200 F 
ENDBRANCH  53  77
BRANCH  65  88
ATOM     88  C   UNL A   1      43.898  28.766  35.128  1.00  0.00     0.064 A 
ATOM     89  C   UNL A   1      43.771  27.630  35.942  1.00  0.00     0.173 A 
ATOM     90  C   UNL A   1      45.179  29.314  34.962  1.00  0.00     0.173 A 
ATOM     91  F   UNL A   1      42.566  27.076  36.146  1.00  0.00    -0.203 F 
ATOM     92  C   UNL A   1      44.878  27.083  36.586  1.00  0.00     0.198 A 
ATOM     93  C   UNL A   1      46.289  28.743  35.579  1.00  0.00     0.198 A 
ATOM     94  F   UNL A   1      45.358  30.395  34.188  1.00  0.00    -0.203 F 
ATOM     95  F   UNL A   1      44.724  26.032  37.403  1.00  0.00    -0.200 F 
ATOM     96  C   UNL A   1      46.136  27.635  36.399  1.00  0.00     0.200 A 
ATOM     97  F   UNL A   1      47.506  29.267  35.382  1.00  0.00    -0.200 F 
ATOM     98  F   UNL A   1      47.202  27.102  37.012  1.00  0.00    -0.200 F 
ENDBRANCH  65  88
ENDBRANCH  39  40
ENDBRANCH  31  34
ENDBRANCH  29  30
ENDBRANCH  28  29
ENDBRANCH  27  28
ENDBRANCH  26  27
ENDBRANCH   1  26
TORSDOF 18
ENDMDL
MODEL 3
REMARK VINA RESULT:     -12.2      1.392      4.010
REMARK SMILES CC[C@]1(C(=O)NCCCCCCNC(=O)c2ccc(-c3c4nc(c(-c5c(F)c(F)c(F)c(F)c5F)c5ccc([nH]5)c(-c5c(F)c(F)c(F)c(F)c5F)c5nc(c(-c6c(F)c(F)c(F)c(F)c6F)c6ccc3[nH]6)C=C5)C=C4)cc2)CC[N@@H+](Cc2ccc(CC(C)C)cc2)C1
REMARK SMILES IDX 8 1 7 2 6 3 4 4 5 5 3 7 79 8 93 9 80 10 81 11 2 13 1 14
REMARK SMILES IDX 82 15 83 16 84 17 92 18 85 19 91 20 86 21 87 22 88 23 89 24
REMARK SMILES IDX 90 25 9 26 10 27 11 28 12 29 13 30 14 31 15 33 16 34 17 35
REMARK SMILES IDX 78 36 18 37 77 38 19 39 20 40 21 41 71 42 22 43 76 44 70 45
REMARK SMILES IDX 72 46 23 47 75 48 69 49 68 50 24 52 56 53 36 54 55 55 37 56
REMARK SMILES IDX 40 57 54 58 73 59 38 60 39 61 53 63 74 64 41 65 25 66 26 67
REMARK SMILES IDX 34 68 27 69 28 70 32 71 35 72 29 73 30 74 33 75 31 76 57 77
REMARK SMILES IDX 58 78 66 79 59 80 60 81 64 82 67 83 61 84 62 85 65 86 63 87
REMARK SMILES IDX 42 88 43 89 51 90 44 91 45 92 49 93 52 94 46 95 47 96 50 97
REMARK SMILES IDX 48 98
REMARK H PARENT 6 6 81 12 13 32 72 51 40 62
REMARK Flexibility Score: inf
ROOT
ATOM      1  C   UNL A   1      32.900  28.862  27.012  1.00  0.00     0.021 C 
ENDROOT
BRANCH   1   2
ATOM      2  C   UNL A   1      31.547  28.310  27.506  1.00  0.00     0.116 C 
BRANCH   2   3
ATOM      3  N   UNL A   1      31.252  26.899  27.230  1.00  0.00    -0.355 N 
ATOM      4  C   UNL A   1      31.243  26.001  26.199  1.00  0.00     0.232 C 
ATOM      5  O   UNL A   1      30.972  24.861  26.614  1.00  0.00    -0.274 OA
ATOM      6  H   UNL A   1      30.967  26.451  28.060  1.00  0.00     0.163 HD
BRANCH   4   7
ATOM      7  C   UNL A   1      31.424  26.221  24.627  1.00  0.00     0.103 C 
ATOM      8  C   UNL A   1      32.763  26.838  24.072  1.00  0.00     0.084 C 
ATOM      9  C   UNL A   1      31.363  24.912  23.821  1.00  0.00     0.279 C 
ATOM     10  C   UNL A   1      33.293  25.888  22.999  1.00  0.00     0.263 C 
ATOM     11  N   UNL A   1      32.717  24.603  23.326  1.00  0.00    -0.330 N 
ATOM     12  H   UNL A   1      32.574  23.962  22.546  1.00  0.00     0.348 HD
BRANCH   7  13
ATOM     13  C   UNL A   1      30.306  27.259  24.231  1.00  0.00     0.020 C 
ATOM     14  C   UNL A   1      30.781  28.490  23.418  1.00  0.00     0.005 C 
ENDBRANCH   7  13
BRANCH  11  15
ATOM     15  C   UNL A   1      33.641  23.681  24.014  1.00  0.00     0.299 C 
BRANCH  15  16
ATOM     16  C   UNL A   1      33.468  22.160  23.952  1.00  0.00     0.006 A 
ATOM     17  C   UNL A   1      32.543  21.527  23.120  1.00  0.00     0.010 A 
ATOM     18  C   UNL A   1      34.098  21.318  24.856  1.00  0.00     0.010 A 
ATOM     19  C   UNL A   1      32.252  20.148  23.273  1.00  0.00     0.004 A 
ATOM     20  C   UNL A   1      33.827  19.974  25.041  1.00  0.00     0.004 A 
ATOM     21  C   UNL A   1      32.844  19.376  24.286  1.00  0.00    -0.048 A 
BRANCH  21  22
ATOM     22  C   UNL A   1      32.470  17.960  24.649  1.00  0.00     0.038 C 
BRANCH  22  23
ATOM     23  C   UNL A   1      33.644  16.968  24.573  1.00  0.00    -0.013 C 
ATOM     24  C   UNL A   1      33.274  15.633  25.210  1.00  0.00     0.008 C 
ATOM     25  C   UNL A   1      34.086  16.753  23.124  1.00  0.00     0.008 C 
ENDBRANCH  22  23
ENDBRANCH  21  22
ENDBRANCH  15  16
ENDBRANCH  11  15
ENDBRANCH   4   7
ENDBRANCH   2   3
ENDBRANCH   1   2
BRANCH   1  26
ATOM     26  C   UNL A   1      32.889  30.160  26.200  1.00  0.00     0.002 C 
BRANCH  26  27
ATOM     27  C   UNL A   1      31.505  30.825  26.107  1.00  0.00     0.002 C 
BRANCH  27  28
ATOM     28  C   UNL A   1      31.385  32.277  26.597  1.00  0.00     0.021 C 
BRANCH  28  29
ATOM     29  C   UNL A   1      32.604  32.839  27.321  1.00  0.00     0.116 C 
BRANCH  29  30
ATOM     30  N   UNL A   1      32.443  34.253  27.631  1.00  0.00    -0.352 N 
ATOM     31  C   UNL A   1      33.020  34.986  28.635  1.00  0.00     0.251 C 
ATOM     32  H   UNL A   1      31.836  34.751  27.037  1.00  0.00     0.163 HD
ATOM     33  O   UNL A   1      32.593  36.107  28.921  1.00  0.00    -0.269 OA
BRANCH  31  34
ATOM     34  C   UNL A   1      34.169  34.437  29.381  1.00  0.00     0.039 A 
ATOM     35  C   UNL A   1      33.967  33.799  30.604  1.00  0.00     0.014 A 
ATOM     36  C   UNL A   1      35.461  34.574  28.866  1.00  0.00     0.014 A 
ATOM     37  C   UNL A   1      35.057  33.248  31.284  1.00  0.00     0.010 A 
ATOM     38  C   UNL A   1      36.541  33.990  29.518  1.00  0.00     0.010 A 
ATOM     39  C   UNL A   1      36.349  33.317  30.731  1.00  0.00    -0.014 A 
BRANCH  39  40
ATOM     40  C   UNL A   1      37.501  32.647  31.383  1.00  0.00     0.031 A 
ATOM     41  C   UNL A   1      38.174  31.473  30.734  1.00  0.00     0.074 A 
ATOM     42  C   UNL A   1      37.881  33.054  32.610  1.00  0.00     0.049 A 
ATOM     43  N   UNL A   1      39.174  30.749  31.170  1.00  0.00    -0.248 NA
ATOM     44  C   UNL A   1      37.639  31.038  29.435  1.00  0.00     0.031 C 
ATOM     45  C   UNL A   1      37.250  34.134  33.369  1.00  0.00     0.029 A 
ATOM     46  N   UNL A   1      38.875  32.600  33.438  1.00  0.00    -0.354 N 
ATOM     47  C   UNL A   1      39.385  29.773  30.205  1.00  0.00     0.074 A 
ATOM     48  C   UNL A   1      38.373  29.963  29.187  1.00  0.00     0.031 C 
ATOM     49  C   UNL A   1      37.883  34.273  34.544  1.00  0.00     0.029 A 
ATOM     50  C   UNL A   1      38.940  33.271  34.634  1.00  0.00     0.049 A 
ATOM     51  H   UNL A   1      39.482  31.864  33.197  1.00  0.00     0.167 HD
ATOM     52  C   UNL A   1      40.347  28.819  30.165  1.00  0.00     0.037 A 
ATOM     53  C   UNL A   1      39.757  33.092  35.690  1.00  0.00     0.037 A 
ATOM     54  C   UNL A   1      41.351  28.643  31.183  1.00  0.00     0.049 A 
ATOM     55  C   UNL A   1      40.819  32.029  35.621  1.00  0.00     0.074 A 
ATOM     56  C   UNL A   1      42.416  27.761  31.201  1.00  0.00     0.029 A 
ATOM     57  N   UNL A   1      41.402  29.355  32.374  1.00  0.00    -0.354 N 
ATOM     58  N   UNL A   1      41.076  31.178  34.656  1.00  0.00    -0.248 NA
ATOM     59  C   UNL A   1      41.709  31.906  36.782  1.00  0.00     0.031 C 
ATOM     60  C   UNL A   1      43.072  27.892  32.430  1.00  0.00     0.029 A 
ATOM     61  C   UNL A   1      42.459  28.904  33.150  1.00  0.00     0.049 A 
ATOM     62  H   UNL A   1      40.780  30.074  32.629  1.00  0.00     0.167 HD
ATOM     63  C   UNL A   1      42.171  30.438  35.081  1.00  0.00     0.074 A 
ATOM     64  C   UNL A   1      42.541  30.953  36.383  1.00  0.00     0.031 C 
ATOM     65  C   UNL A   1      42.812  29.423  34.449  1.00  0.00     0.037 A 
BRANCH  52  66
ATOM     66  C   UNL A   1      40.356  27.886  28.986  1.00  0.00     0.064 A 
ATOM     67  C   UNL A   1      41.108  28.158  27.832  1.00  0.00     0.173 A 
ATOM     68  C   UNL A   1      39.630  26.685  29.023  1.00  0.00     0.173 A 
ATOM     69  F   UNL A   1      41.815  29.293  27.740  1.00  0.00    -0.203 F 
ATOM     70  C   UNL A   1      41.103  27.283  26.749  1.00  0.00     0.198 A 
ATOM     71  C   UNL A   1      39.656  25.795  27.952  1.00  0.00     0.198 A 
ATOM     72  F   UNL A   1      38.900  26.368  30.104  1.00  0.00    -0.203 F 
ATOM     73  F   UNL A   1      41.786  27.592  25.637  1.00  0.00    -0.200 F 
ATOM     74  C   UNL A   1      40.384  26.099  26.812  1.00  0.00     0.200 A 
ATOM     75  F   UNL A   1      38.973  24.644  28.022  1.00  0.00    -0.200 F 
ATOM     76  F   UNL A   1      40.387  25.255  25.772  1.00  0.00    -0.200 F 
ENDBRANCH  52  66
BRANCH  53  77
ATOM     77  C   UNL A   1      39.614  33.961  36.887  1.00  0.00     0.064 A 
ATOM     78  C   UNL A   1      40.248  35.210  36.955  1.00  0.00     0.173 A 
ATOM     79  C   UNL A   1      38.827  33.569  37.981  1.00  0.00     0.173 A 
ATOM     80  F   UNL A   1      41.025  35.622  35.942  1.00  0.00    -0.203 F 
ATOM     81  C   UNL A   1      40.114  36.024  38.078  1.00  0.00     0.198 A 
ATOM     82  C   UNL A   1      38.670  34.398  39.089  1.00  0.00     0.198 A 
ATOM     83  F   UNL A   1      38.192  32.388  37.961  1.00  0.00    -0.203 F 
ATOM     84  F   UNL A   1      40.765  37.194  38.133  1.00  0.00    -0.200 F 
ATOM     85  C   UNL A   1      39.320  35.621  39.140  1.00  0.00     0.200 A 
ATOM     86  F   UNL A   1      37.884  34.014  40.103  1.00  0.00    -0.200 F 
ATOM     87  F   UNL A   1      39.184  36.410  40.214  1.00  0.00    -0.200 F 
ENDBRANCH  53  77
BRANCH  65  88
ATOM     88  C   UNL A   1      43.996  28.817  35.148  1.00  0.00     0.064 A 
ATOM     89  C   UNL A   1      43.863  27.719  36.011  1.00  0.00     0.173 A 
ATOM     90  C   UNL A   1      45.287  29.320  34.922  1.00  0.00     0.173 A 
ATOM     91  F   UNL A   1      42.649  27.209  36.273  1.00  0.00    -0.203 F 
ATOM     92  C   UNL A   1      44.973  27.166  36.643  1.00  0.00     0.198 A 
ATOM     93  C   UNL A   1      46.399  28.742  35.528  1.00  0.00     0.198 A 
ATOM     94  F   UNL A   1      45.472  30.364  34.101  1.00  0.00    -0.203 F 
ATOM     95  F   UNL A   1      44.815  26.152  37.505  1.00  0.00    -0.200 F 
ATOM     96  C   UNL A   1      46.240  27.672  36.396  1.00  0.00     0.200 A 
ATOM     97  F   UNL A   1      47.624  29.222  35.274  1.00  0.00    -0.200 F 
ATOM     98  F   UNL A   1      47.309  27.132  36.998  1.00  0.00    -0.200 F 
ENDBRANCH  65  88
ENDBRANCH  39  40
ENDBRANCH  31  34
ENDBRANCH  29  30
ENDBRANCH  28  29
ENDBRANCH  27  28
ENDBRANCH  26  27
ENDBRANCH   1  26
TORSDOF 18
ENDMDL
