MODEL 1
REMARK VINA RESULT:     -11.5      0.000      0.000
REMARK SMILES O=C(NCCCCCCNC(=O)[C@@H](CCO)NC(=O)c1c(F)ccc([N+](=O)[O-])c1F)c1ccc(-c2c3nc(c(-c4c(F)c(F)c(F)c(F)c4F)c4ccc([nH]4)c(-c4c(F)c(F)c(F)c(F)c4F)c4nc(c(-c5c(F)c(F)c(F)c(F)c5F)c5ccc2[nH]5)C=C4)C=C3)cc1
REMARK SMILES IDX 7 1 6 2 5 3 4 4 3 5 1 6 2 7 31 9 32 10 93 11 33 12 92 13
REMARK SMILES IDX 34 14 35 15 36 16 86 17 37 18 91 19 85 20 87 21 38 22 90 23
REMARK SMILES IDX 84 24 83 25 39 27 71 28 51 29 70 30 52 31 55 32 69 33 88 34
REMARK SMILES IDX 53 35 54 36 68 38 89 39 56 40 40 41 41 42 49 43 42 44 43 45
REMARK SMILES IDX 47 46 50 47 44 48 45 49 48 50 46 51 72 52 73 53 81 54 74 55
REMARK SMILES IDX 75 56 79 57 82 58 76 59 77 60 80 61 78 62 57 63 58 64 66 65
REMARK SMILES IDX 59 66 60 67 64 68 67 69 61 70 62 71 65 72 63 73 8 74 9 75
REMARK SMILES IDX 10 76 11 77 12 79 13 80 14 81 15 82 16 83 17 85 18 86 19 88
REMARK SMILES IDX 20 89 21 90 29 91 22 92 23 93 25 94 30 95 24 96 26 97 27 98
REMARK SMILES IDX 28 99
REMARK H PARENT 3 8 87 26 55 37 10 78 16 84 17 87
REMARK Flexibility Score: inf
ROOT
ATOM      1  C   UNL A   1      32.390  30.114  26.975  1.00  0.00     0.002 C 
ENDROOT
BRANCH   1   2
ATOM      2  C   UNL A   1      31.383  30.959  26.191  1.00  0.00     0.002 C 
BRANCH   2   3
ATOM      3  C   UNL A   1      31.317  32.428  26.608  1.00  0.00     0.021 C 
BRANCH   3   4
ATOM      4  C   UNL A   1      32.602  32.954  27.234  1.00  0.00     0.116 C 
BRANCH   4   5
ATOM      5  N   UNL A   1      32.452  34.321  27.706  1.00  0.00    -0.352 N 
ATOM      6  O   UNL A   1      32.661  36.019  29.182  1.00  0.00    -0.269 OA
ATOM      7  C   UNL A   1      33.067  34.942  28.765  1.00  0.00     0.251 C 
ATOM      8  H   UNL A   1      31.821  34.879  27.196  1.00  0.00     0.163 HD
BRANCH   7   9
ATOM      9  C   UNL A   1      34.229  34.290  29.401  1.00  0.00     0.039 A 
ATOM     10  C   UNL A   1      34.034  33.382  30.444  1.00  0.00     0.014 A 
ATOM     11  C   UNL A   1      35.516  34.581  28.945  1.00  0.00     0.014 A 
ATOM     12  C   UNL A   1      35.130  32.868  31.121  1.00  0.00     0.010 A 
ATOM     13  C   UNL A   1      36.616  33.985  29.565  1.00  0.00     0.010 A 
ATOM     14  C   UNL A   1      36.432  33.138  30.669  1.00  0.00    -0.014 A 
BRANCH  14  15
ATOM     15  C   UNL A   1      37.573  32.441  31.308  1.00  0.00     0.031 A 
ATOM     16  C   UNL A   1      38.311  31.341  30.606  1.00  0.00     0.074 A 
ATOM     17  C   UNL A   1      37.948  32.837  32.540  1.00  0.00     0.049 A 
ATOM     18  N   UNL A   1      39.327  30.632  31.031  1.00  0.00    -0.248 NA
ATOM     19  C   UNL A   1      37.848  30.977  29.258  1.00  0.00     0.031 C 
ATOM     20  C   UNL A   1      37.291  33.893  33.316  1.00  0.00     0.029 A 
ATOM     21  N   UNL A   1      38.971  32.419  33.350  1.00  0.00    -0.354 N 
ATOM     22  C   UNL A   1      39.616  29.733  30.013  1.00  0.00     0.074 A 
ATOM     23  C   UNL A   1      38.651  29.962  28.960  1.00  0.00     0.031 C 
ATOM     24  C   UNL A   1      37.956  34.073  34.465  1.00  0.00     0.029 A 
ATOM     25  C   UNL A   1      39.035  33.096  34.543  1.00  0.00     0.049 A 
ATOM     26  H   UNL A   1      39.599  31.702  33.102  1.00  0.00     0.167 HD
ATOM     27  C   UNL A   1      40.604  28.808  29.970  1.00  0.00     0.037 A 
ATOM     28  C   UNL A   1      39.855  32.936  35.597  1.00  0.00     0.037 A 
ATOM     29  C   UNL A   1      41.567  28.602  31.023  1.00  0.00     0.049 A 
ATOM     30  C   UNL A   1      40.918  31.879  35.533  1.00  0.00     0.074 A 
ATOM     31  C   UNL A   1      42.631  27.718  31.054  1.00  0.00     0.029 A 
ATOM     32  N   UNL A   1      41.578  29.284  32.232  1.00  0.00    -0.354 N 
ATOM     33  N   UNL A   1      41.204  31.058  34.552  1.00  0.00    -0.248 NA
ATOM     34  C   UNL A   1      41.770  31.722  36.719  1.00  0.00     0.031 C 
ATOM     35  C   UNL A   1      43.247  27.819  32.305  1.00  0.00     0.029 A 
ATOM     36  C   UNL A   1      42.612  28.814  33.029  1.00  0.00     0.049 A 
ATOM     37  H   UNL A   1      40.946  29.994  32.487  1.00  0.00     0.167 HD
ATOM     38  C   UNL A   1      42.276  30.297  34.993  1.00  0.00     0.074 A 
ATOM     39  C   UNL A   1      42.603  30.769  36.322  1.00  0.00     0.031 C 
ATOM     40  C   UNL A   1      42.926  29.294  34.352  1.00  0.00     0.037 A 
BRANCH  27  41
ATOM     41  C   UNL A   1      40.700  27.931  28.754  1.00  0.00     0.064 A 
ATOM     42  C   UNL A   1      41.467  28.333  27.649  1.00  0.00     0.173 A 
ATOM     43  C   UNL A   1      39.970  26.738  28.643  1.00  0.00     0.173 A 
ATOM     44  F   UNL A   1      42.179  29.470  27.697  1.00  0.00    -0.203 F 
ATOM     45  C   UNL A   1      41.482  27.587  26.473  1.00  0.00     0.198 A 
ATOM     46  C   UNL A   1      40.012  25.977  27.476  1.00  0.00     0.198 A 
ATOM     47  F   UNL A   1      39.228  26.303  29.671  1.00  0.00    -0.203 F 
ATOM     48  F   UNL A   1      42.190  28.014  25.419  1.00  0.00    -0.200 F 
ATOM     49  C   UNL A   1      40.758  26.408  26.389  1.00  0.00     0.200 A 
ATOM     50  F   UNL A   1      39.328  24.826  27.403  1.00  0.00    -0.200 F 
ATOM     51  F   UNL A   1      40.779  25.686  25.260  1.00  0.00    -0.200 F 
ENDBRANCH  27  41
BRANCH  28  52
ATOM     52  C   UNL A   1      39.687  33.806  36.789  1.00  0.00     0.064 A 
ATOM     53  C   UNL A   1      38.881  33.411  37.870  1.00  0.00     0.173 A 
ATOM     54  C   UNL A   1      40.278  35.074  36.846  1.00  0.00     0.173 A 
ATOM     55  F   UNL A   1      38.284  32.211  37.859  1.00  0.00    -0.203 F 
ATOM     56  C   UNL A   1      38.652  34.264  38.946  1.00  0.00     0.198 A 
ATOM     57  C   UNL A   1      40.074  35.914  37.940  1.00  0.00     0.198 A 
ATOM     58  F   UNL A   1      41.068  35.490  35.845  1.00  0.00    -0.203 F 
ATOM     59  F   UNL A   1      37.837  33.883  39.939  1.00  0.00    -0.200 F 
ATOM     60  C   UNL A   1      39.252  35.513  38.982  1.00  0.00     0.200 A 
ATOM     61  F   UNL A   1      40.674  37.111  37.982  1.00  0.00    -0.200 F 
ATOM     62  F   UNL A   1      39.038  36.331  40.021  1.00  0.00    -0.200 F 
ENDBRANCH  28  52
BRANCH  40  63
ATOM     63  C   UNL A   1      44.075  28.646  35.068  1.00  0.00     0.064 A 
ATOM     64  C   UNL A   1      43.858  27.540  35.903  1.00  0.00     0.173 A 
ATOM     65  C   UNL A   1      45.376  29.165  34.988  1.00  0.00     0.173 A 
ATOM     66  F   UNL A   1      42.630  27.011  36.020  1.00  0.00    -0.203 F 
ATOM     67  C   UNL A   1      44.896  26.990  36.647  1.00  0.00     0.198 A 
ATOM     68  C   UNL A   1      46.419  28.589  35.708  1.00  0.00     0.198 A 
ATOM     69  F   UNL A   1      45.638  30.211  34.191  1.00  0.00    -0.203 F 
ATOM     70  F   UNL A   1      44.656  25.958  37.470  1.00  0.00    -0.200 F 
ATOM     71  C   UNL A   1      46.176  27.511  36.547  1.00  0.00     0.200 A 
ATOM     72  F   UNL A   1      47.662  29.078  35.588  1.00  0.00    -0.200 F 
ATOM     73  F   UNL A   1      47.179  26.973  37.255  1.00  0.00    -0.200 F 
ENDBRANCH  40  63
ENDBRANCH  14  15
ENDBRANCH   7   9
ENDBRANCH   4   5
ENDBRANCH   3   4
ENDBRANCH   2   3
ENDBRANCH   1   2
BRANCH   1  74
ATOM     74  C   UNL A   1      32.070  28.617  27.025  1.00  0.00     0.021 C 
BRANCH  74  75
ATOM     75  C   UNL A   1      32.928  27.767  26.087  1.00  0.00     0.116 C 
BRANCH  75  76
ATOM     76  N   UNL A   1      33.323  28.540  24.933  1.00  0.00    -0.354 N 
ATOM     77  C   UNL A   1      32.801  28.619  23.684  1.00  0.00     0.242 C 
ATOM     78  H   UNL A   1      34.112  29.112  25.079  1.00  0.00     0.163 HD
ATOM     79  O   UNL A   1      33.491  29.199  22.835  1.00  0.00    -0.273 OA
BRANCH  77  80
ATOM     80  C   UNL A   1      31.454  27.988  23.263  1.00  0.00     0.173 C 
BRANCH  80  81
ATOM     81  C   UNL A   1      30.205  28.862  23.461  1.00  0.00     0.063 C 
BRANCH  81  82
ATOM     82  C   UNL A   1      29.834  29.912  22.423  1.00  0.00     0.158 C 
BRANCH  82  83
ATOM     83  O   UNL A   1      30.754  29.985  21.348  1.00  0.00    -0.396 OA
ATOM     84  H   UNL A   1      30.690  30.856  20.924  1.00  0.00     0.210 HD
ENDBRANCH  82  83
ENDBRANCH  81  82
ENDBRANCH  80  81
BRANCH  80  85
ATOM     85  N   UNL A   1      31.484  27.271  21.985  1.00  0.00    -0.340 N 
ATOM     86  C   UNL A   1      31.799  25.960  21.713  1.00  0.00     0.258 C 
ATOM     87  H   UNL A   1      31.240  27.812  21.199  1.00  0.00     0.164 HD
ATOM     88  O   UNL A   1      31.838  25.573  20.549  1.00  0.00    -0.269 OA
BRANCH  86  89
ATOM     89  C   UNL A   1      32.080  24.998  22.792  1.00  0.00     0.118 A 
ATOM     90  C   UNL A   1      31.063  24.217  23.339  1.00  0.00     0.139 A 
ATOM     91  C   UNL A   1      33.396  24.810  23.224  1.00  0.00     0.216 A 
ATOM     92  F   UNL A   1      29.813  24.284  22.864  1.00  0.00    -0.206 F 
ATOM     93  C   UNL A   1      31.313  23.339  24.389  1.00  0.00     0.047 A 
ATOM     94  C   UNL A   1      33.665  23.889  24.241  1.00  0.00     0.305 A 
ATOM     95  F   UNL A   1      34.375  25.540  22.671  1.00  0.00    -0.198 F 
ATOM     96  C   UNL A   1      32.618  23.174  24.850  1.00  0.00     0.092 A 
BRANCH  94  97
ATOM     97  N   UNL A   1      35.038  23.636  24.679  1.00  0.00     0.065 N 
ATOM     98  O   UNL A   1      35.628  22.641  24.244  1.00  0.00    -0.258 OA
ATOM     99  O   UNL A   1      35.527  24.434  25.492  1.00  0.00    -0.258 OA
ENDBRANCH  94  97
ENDBRANCH  86  89
ENDBRANCH  80  85
ENDBRANCH  77  80
ENDBRANCH  75  76
ENDBRANCH  74  75
ENDBRANCH   1  74
TORSDOF 19
ENDMDL
MODEL 2
REMARK VINA RESULT:     -11.5      1.198      7.405
REMARK SMILES O=C(NCCCCCCNC(=O)[C@@H](CCO)NC(=O)c1c(F)ccc([N+](=O)[O-])c1F)c1ccc(-c2c3nc(c(-c4c(F)c(F)c(F)c(F)c4F)c4ccc([nH]4)c(-c4c(F)c(F)c(F)c(F)c4F)c4nc(c(-c5c(F)c(F)c(F)c(F)c5F)c5ccc2[nH]5)C=C4)C=C3)cc1
REMARK SMILES IDX 7 1 6 2 5 3 4 4 3 5 1 6 2 7 31 9 32 10 93 11 33 12 92 13
REMARK SMILES IDX 34 14 35 15 36 16 86 17 37 18 91 19 85 20 87 21 38 22 90 23
REMARK SMILES IDX 84 24 83 25 39 27 71 28 51 29 70 30 52 31 55 32 69 33 88 34
REMARK SMILES IDX 53 35 54 36 68 38 89 39 56 40 40 41 41 42 49 43 42 44 43 45
REMARK SMILES IDX 47 46 50 47 44 48 45 49 48 50 46 51 72 52 73 53 81 54 74 55
REMARK SMILES IDX 75 56 79 57 82 58 76 59 77 60 80 61 78 62 57 63 58 64 66 65
REMARK SMILES IDX 59 66 60 67 64 68 67 69 61 70 62 71 65 72 63 73 8 74 9 75
REMARK SMILES IDX 10 76 11 77 12 79 13 80 14 81 15 82 16 83 17 85 18 86 19 88
REMARK SMILES IDX 20 89 21 90 29 91 22 92 23 93 25 94 30 95 24 96 26 97 27 98
REMARK SMILES IDX 28 99
REMARK H PARENT 3 8 87 26 55 37 10 78 16 84 17 87
REMARK Flexibility Score: inf
ROOT
ATOM      1  C   UNL A   1      32.011  29.846  26.974  1.00  0.00     0.002 C 
ENDROOT
BRANCH   1   2
ATOM      2  C   UNL A   1      31.447  30.885  26.001  1.00  0.00     0.002 C 
BRANCH   2   3
ATOM      3  C   UNL A   1      31.317  32.296  26.574  1.00  0.00     0.021 C 
BRANCH   3   4
ATOM      4  C   UNL A   1      32.586  32.816  27.236  1.00  0.00     0.116 C 
BRANCH   4   5
ATOM      5  N   UNL A   1      32.436  34.193  27.681  1.00  0.00    -0.352 N 
ATOM      6  O   UNL A   1      32.659  35.924  29.116  1.00  0.00    -0.269 OA
ATOM      7  C   UNL A   1      33.064  34.840  28.716  1.00  0.00     0.251 C 
ATOM      8  H   UNL A   1      31.795  34.736  27.169  1.00  0.00     0.163 HD
BRANCH   7   9
ATOM      9  C   UNL A   1      34.238  34.207  29.349  1.00  0.00     0.039 A 
ATOM     10  C   UNL A   1      34.062  33.292  30.389  1.00  0.00     0.014 A 
ATOM     11  C   UNL A   1      35.519  34.521  28.892  1.00  0.00     0.014 A 
ATOM     12  C   UNL A   1      35.168  32.795  31.063  1.00  0.00     0.010 A 
ATOM     13  C   UNL A   1      36.631  33.943  29.509  1.00  0.00     0.010 A 
ATOM     14  C   UNL A   1      36.463  33.090  30.610  1.00  0.00    -0.014 A 
BRANCH  14  15
ATOM     15  C   UNL A   1      37.619  32.412  31.245  1.00  0.00     0.031 A 
ATOM     16  C   UNL A   1      38.080  32.780  32.623  1.00  0.00     0.074 A 
ATOM     17  C   UNL A   1      38.237  31.433  30.556  1.00  0.00     0.049 A 
ATOM     18  N   UNL A   1      39.075  32.283  33.316  1.00  0.00    -0.248 NA
ATOM     19  C   UNL A   1      37.344  33.848  33.315  1.00  0.00     0.031 C 
ATOM     20  C   UNL A   1      37.872  31.004  29.203  1.00  0.00     0.029 A 
ATOM     21  N   UNL A   1      39.284  30.616  30.891  1.00  0.00    -0.354 N 
ATOM     22  C   UNL A   1      39.093  32.984  34.514  1.00  0.00     0.074 A 
ATOM     23  C   UNL A   1      38.029  33.962  34.446  1.00  0.00     0.031 C 
ATOM     24  C   UNL A   1      38.647  29.972  28.845  1.00  0.00     0.029 A 
ATOM     25  C   UNL A   1      39.613  29.717  29.907  1.00  0.00     0.049 A 
ATOM     26  H   UNL A   1      39.754  30.667  31.755  1.00  0.00     0.167 HD
ATOM     27  C   UNL A   1      39.921  32.814  35.571  1.00  0.00     0.037 A 
ATOM     28  C   UNL A   1      40.599  28.804  29.850  1.00  0.00     0.037 A 
ATOM     29  C   UNL A   1      40.968  31.823  35.627  1.00  0.00     0.049 A 
ATOM     30  C   UNL A   1      41.523  28.662  31.023  1.00  0.00     0.074 A 
ATOM     31  C   UNL A   1      41.832  31.545  36.671  1.00  0.00     0.029 A 
ATOM     32  N   UNL A   1      41.294  30.954  34.595  1.00  0.00    -0.354 N 
ATOM     33  N   UNL A   1      41.509  29.307  32.164  1.00  0.00    -0.248 NA
ATOM     34  C   UNL A   1      42.601  27.673  30.902  1.00  0.00     0.031 C 
ATOM     35  C   UNL A   1      42.723  30.554  36.249  1.00  0.00     0.029 A 
ATOM     36  C   UNL A   1      42.371  30.163  34.968  1.00  0.00     0.049 A 
ATOM     37  H   UNL A   1      40.832  30.906  33.728  1.00  0.00     0.167 HD
ATOM     38  C   UNL A   1      42.563  28.793  32.905  1.00  0.00     0.074 A 
ATOM     39  C   UNL A   1      43.183  27.768  32.091  1.00  0.00     0.031 C 
ATOM     40  C   UNL A   1      42.978  29.145  34.146  1.00  0.00     0.037 A 
BRANCH  27  41
ATOM     41  C   UNL A   1      39.752  33.718  36.758  1.00  0.00     0.064 A 
ATOM     42  C   UNL A   1      38.905  33.349  37.815  1.00  0.00     0.173 A 
ATOM     43  C   UNL A   1      40.352  34.985  36.813  1.00  0.00     0.173 A 
ATOM     44  F   UNL A   1      38.299  32.152  37.810  1.00  0.00    -0.203 F 
ATOM     45  C   UNL A   1      38.651  34.220  38.872  1.00  0.00     0.198 A 
ATOM     46  C   UNL A   1      40.119  35.843  37.887  1.00  0.00     0.198 A 
ATOM     47  F   UNL A   1      41.175  35.386  35.834  1.00  0.00    -0.203 F 
ATOM     48  F   UNL A   1      37.808  33.859  39.849  1.00  0.00    -0.200 F 
ATOM     49  C   UNL A   1      39.261  35.464  38.909  1.00  0.00     0.200 A 
ATOM     50  F   UNL A   1      40.727  37.037  37.933  1.00  0.00    -0.200 F 
ATOM     51  F   UNL A   1      39.022  36.299  39.930  1.00  0.00    -0.200 F 
ENDBRANCH  27  41
BRANCH  28  52
ATOM     52  C   UNL A   1      40.743  27.964  28.633  1.00  0.00     0.064 A 
ATOM     53  C   UNL A   1      41.503  28.399  27.535  1.00  0.00     0.173 A 
ATOM     54  C   UNL A   1      40.077  26.738  28.519  1.00  0.00     0.173 A 
ATOM     55  F   UNL A   1      42.152  29.571  27.589  1.00  0.00    -0.203 F 
ATOM     56  C   UNL A   1      41.565  27.653  26.361  1.00  0.00     0.198 A 
ATOM     57  C   UNL A   1      40.166  25.976  27.355  1.00  0.00     0.198 A 
ATOM     58  F   UNL A   1      39.350  26.273  29.546  1.00  0.00    -0.203 F 
ATOM     59  F   UNL A   1      42.254  28.117  25.310  1.00  0.00    -0.200 F 
ATOM     60  C   UNL A   1      40.901  26.440  26.274  1.00  0.00     0.200 A 
ATOM     61  F   UNL A   1      39.542  24.793  27.283  1.00  0.00    -0.200 F 
ATOM     62  F   UNL A   1      40.966  25.717  25.147  1.00  0.00    -0.200 F 
ENDBRANCH  28  52
BRANCH  40  63
ATOM     63  C   UNL A   1      44.152  28.404  34.718  1.00  0.00     0.064 A 
ATOM     64  C   UNL A   1      43.957  27.225  35.454  1.00  0.00     0.173 A 
ATOM     65  C   UNL A   1      45.459  28.900  34.604  1.00  0.00     0.173 A 
ATOM     66  F   UNL A   1      42.725  26.714  35.598  1.00  0.00    -0.203 F 
ATOM     67  C   UNL A   1      45.024  26.581  36.070  1.00  0.00     0.198 A 
ATOM     68  C   UNL A   1      46.529  28.232  35.194  1.00  0.00     0.198 A 
ATOM     69  F   UNL A   1      45.700  30.014  33.897  1.00  0.00    -0.203 F 
ATOM     70  F   UNL A   1      44.808  25.478  36.802  1.00  0.00    -0.200 F 
ATOM     71  C   UNL A   1      46.310  27.082  35.937  1.00  0.00     0.200 A 
ATOM     72  F   UNL A   1      47.775  28.703  35.041  1.00  0.00    -0.200 F 
ATOM     73  F   UNL A   1      47.340  26.454  36.522  1.00  0.00    -0.200 F 
ENDBRANCH  40  63
ENDBRANCH  14  15
ENDBRANCH   7   9
ENDBRANCH   4   5
ENDBRANCH   3   4
ENDBRANCH   2   3
ENDBRANCH   1   2
BRANCH   1  74
ATOM     74  C   UNL A   1      33.486  29.498  26.758  1.00  0.00     0.021 C 
BRANCH  74  75
ATOM     75  C   UNL A   1      33.712  28.266  25.881  1.00  0.00     0.116 C 
BRANCH  75  76
ATOM     76  N   UNL A   1      34.014  28.665  24.526  1.00  0.00    -0.354 N 
ATOM     77  C   UNL A   1      33.579  28.192  23.333  1.00  0.00     0.242 C 
ATOM     78  H   UNL A   1      34.649  29.415  24.457  1.00  0.00     0.163 HD
ATOM     79  O   UNL A   1      34.187  28.587  22.330  1.00  0.00    -0.273 OA
BRANCH  77  80
ATOM     80  C   UNL A   1      32.432  27.169  23.168  1.00  0.00     0.173 C 
BRANCH  80  81
ATOM     81  C   UNL A   1      31.018  27.754  23.014  1.00  0.00     0.063 C 
BRANCH  81  82
ATOM     82  C   UNL A   1      30.833  29.205  22.593  1.00  0.00     0.158 C 
BRANCH  82  83
ATOM     83  O   UNL A   1      30.112  29.347  21.382  1.00  0.00    -0.396 OA
ATOM     84  H   UNL A   1      30.416  28.684  20.743  1.00  0.00     0.210 HD
ENDBRANCH  82  83
ENDBRANCH  81  82
ENDBRANCH  80  81
BRANCH  80  85
ATOM     85  N   UNL A   1      32.722  26.062  22.253  1.00  0.00    -0.340 N 
ATOM     86  C   UNL A   1      33.032  24.749  22.522  1.00  0.00     0.258 C 
ATOM     87  H   UNL A   1      32.690  26.294  21.296  1.00  0.00     0.164 HD
ATOM     88  O   UNL A   1      33.320  23.991  21.601  1.00  0.00    -0.269 OA
BRANCH  86  89
ATOM     89  C   UNL A   1      33.014  24.222  23.898  1.00  0.00     0.118 A 
ATOM     90  C   UNL A   1      34.184  24.142  24.651  1.00  0.00     0.139 A 
ATOM     91  C   UNL A   1      31.795  23.867  24.484  1.00  0.00     0.216 A 
ATOM     92  F   UNL A   1      35.348  24.588  24.163  1.00  0.00    -0.206 F 
ATOM     93  C   UNL A   1      34.180  23.604  25.935  1.00  0.00     0.047 A 
ATOM     94  C   UNL A   1      31.774  23.377  25.793  1.00  0.00     0.305 A 
ATOM     95  F   UNL A   1      30.669  23.978  23.766  1.00  0.00    -0.198 F 
ATOM     96  C   UNL A   1      32.973  23.213  26.512  1.00  0.00     0.092 A 
BRANCH  94  97
ATOM     97  N   UNL A   1      30.509  23.044  26.449  1.00  0.00     0.065 N 
ATOM     98  O   UNL A   1      30.015  23.859  27.235  1.00  0.00    -0.258 OA
ATOM     99  O   UNL A   1      30.016  21.937  26.192  1.00  0.00    -0.258 OA
ENDBRANCH  94  97
ENDBRANCH  86  89
ENDBRANCH  80  85
ENDBRANCH  77  80
ENDBRANCH  75  76
ENDBRANCH  74  75
ENDBRANCH   1  74
TORSDOF 19
ENDMDL
MODEL 3
REMARK VINA RESULT:     -11.5      1.355      7.360
REMARK SMILES O=C(NCCCCCCNC(=O)[C@@H](CCO)NC(=O)c1c(F)ccc([N+](=O)[O-])c1F)c1ccc(-c2c3nc(c(-c4c(F)c(F)c(F)c(F)c4F)c4ccc([nH]4)c(-c4c(F)c(F)c(F)c(F)c4F)c4nc(c(-c5c(F)c(F)c(F)c(F)c5F)c5ccc2[nH]5)C=C4)C=C3)cc1
REMARK SMILES IDX 7 1 6 2 5 3 4 4 3 5 1 6 2 7 31 9 32 10 93 11 33 12 92 13
REMARK SMILES IDX 34 14 35 15 36 16 86 17 37 18 91 19 85 20 87 21 38 22 90 23
REMARK SMILES IDX 84 24 83 25 39 27 71 28 51 29 70 30 52 31 55 32 69 33 88 34
REMARK SMILES IDX 53 35 54 36 68 38 89 39 56 40 40 41 41 42 49 43 42 44 43 45
REMARK SMILES IDX 47 46 50 47 44 48 45 49 48 50 46 51 72 52 73 53 81 54 74 55
REMARK SMILES IDX 75 56 79 57 82 58 76 59 77 60 80 61 78 62 57 63 58 64 66 65
REMARK SMILES IDX 59 66 60 67 64 68 67 69 61 70 62 71 65 72 63 73 8 74 9 75
REMARK SMILES IDX 10 76 11 77 12 79 13 80 14 81 15 82 16 83 17 85 18 86 19 88
REMARK SMILES IDX 20 89 21 90 29 91 22 92 23 93 25 94 30 95 24 96 26 97 27 98
REMARK SMILES IDX 28 99
REMARK H PARENT 3 8 87 26 55 37 10 78 16 84 17 87
REMARK Flexibility Score: inf
ROOT
ATOM      1  C   UNL A   1      32.212  29.856  26.708  1.00  0.00     0.002 C 
ENDROOT
BRANCH   1   2
ATOM      2  C   UNL A   1      31.332  30.842  25.934  1.00  0.00     0.002 C 
BRANCH   2   3
ATOM      3  C   UNL A   1      31.288  32.255  26.517  1.00  0.00     0.021 C 
BRANCH   3   4
ATOM      4  C   UNL A   1      32.599  32.709  27.143  1.00  0.00     0.116 C 
BRANCH   4   5
ATOM      5  N   UNL A   1      32.533  34.091  27.591  1.00  0.00    -0.352 N 
ATOM      6  O   UNL A   1      32.855  35.801  29.032  1.00  0.00    -0.269 OA
ATOM      7  C   UNL A   1      33.195  34.695  28.631  1.00  0.00     0.251 C 
ATOM      8  H   UNL A   1      31.928  34.675  27.078  1.00  0.00     0.163 HD
BRANCH   7   9
ATOM      9  C   UNL A   1      34.325  33.990  29.266  1.00  0.00     0.039 A 
ATOM     10  C   UNL A   1      35.624  34.481  29.121  1.00  0.00     0.014 A 
ATOM     11  C   UNL A   1      34.083  32.839  30.018  1.00  0.00     0.014 A 
ATOM     12  C   UNL A   1      36.695  33.749  29.613  1.00  0.00     0.010 A 
ATOM     13  C   UNL A   1      35.155  32.156  30.596  1.00  0.00     0.010 A 
ATOM     14  C   UNL A   1      36.470  32.597  30.383  1.00  0.00    -0.014 A 
BRANCH  14  15
ATOM     15  C   UNL A   1      37.624  31.931  31.034  1.00  0.00     0.031 A 
ATOM     16  C   UNL A   1      38.023  32.259  32.441  1.00  0.00     0.074 A 
ATOM     17  C   UNL A   1      38.299  31.001  30.331  1.00  0.00     0.049 A 
ATOM     18  N   UNL A   1      39.008  31.767  33.150  1.00  0.00    -0.248 NA
ATOM     19  C   UNL A   1      37.227  33.275  33.146  1.00  0.00     0.031 C 
ATOM     20  C   UNL A   1      37.997  30.614  28.949  1.00  0.00     0.029 A 
ATOM     21  N   UNL A   1      39.360  30.205  30.673  1.00  0.00    -0.354 N 
ATOM     22  C   UNL A   1      38.960  32.420  34.374  1.00  0.00     0.074 A 
ATOM     23  C   UNL A   1      37.867  33.366  34.305  1.00  0.00     0.031 C 
ATOM     24  C   UNL A   1      38.819  29.623  28.581  1.00  0.00     0.029 A 
ATOM     25  C   UNL A   1      39.754  29.357  29.667  1.00  0.00     0.049 A 
ATOM     26  H   UNL A   1      39.798  30.237  31.554  1.00  0.00     0.167 HD
ATOM     27  C   UNL A   1      39.756  32.235  35.454  1.00  0.00     0.037 A 
ATOM     28  C   UNL A   1      40.772  28.479  29.611  1.00  0.00     0.037 A 
ATOM     29  C   UNL A   1      40.832  31.277  35.511  1.00  0.00     0.049 A 
ATOM     30  C   UNL A   1      41.658  28.321  30.812  1.00  0.00     0.074 A 
ATOM     31  C   UNL A   1      41.667  30.985  36.574  1.00  0.00     0.029 A 
ATOM     32  N   UNL A   1      41.224  30.460  34.459  1.00  0.00    -0.354 N 
ATOM     33  N   UNL A   1      41.581  28.919  31.976  1.00  0.00    -0.248 NA
ATOM     34  C   UNL A   1      42.772  27.372  30.693  1.00  0.00     0.031 C 
ATOM     35  C   UNL A   1      42.605  30.041  36.148  1.00  0.00     0.029 A 
ATOM     36  C   UNL A   1      42.313  29.690  34.840  1.00  0.00     0.049 A 
ATOM     37  H   UNL A   1      40.795  30.432  33.574  1.00  0.00     0.167 HD
ATOM     38  C   UNL A   1      42.624  28.410  32.734  1.00  0.00     0.074 A 
ATOM     39  C   UNL A   1      43.307  27.439  31.905  1.00  0.00     0.031 C 
ATOM     40  C   UNL A   1      42.983  28.725  34.003  1.00  0.00     0.037 A 
BRANCH  27  41
ATOM     41  C   UNL A   1      39.513  33.085  36.668  1.00  0.00     0.064 A 
ATOM     42  C   UNL A   1      40.267  34.251  36.879  1.00  0.00     0.173 A 
ATOM     43  C   UNL A   1      38.602  32.707  37.665  1.00  0.00     0.173 A 
ATOM     44  F   UNL A   1      41.159  34.655  35.961  1.00  0.00    -0.203 F 
ATOM     45  C   UNL A   1      40.132  34.993  38.049  1.00  0.00     0.198 A 
ATOM     46  C   UNL A   1      38.448  33.469  38.822  1.00  0.00     0.198 A 
ATOM     47  F   UNL A   1      37.851  31.607  37.512  1.00  0.00    -0.203 F 
ATOM     48  F   UNL A   1      40.892  36.080  38.244  1.00  0.00    -0.200 F 
ATOM     49  C   UNL A   1      39.220  34.604  39.018  1.00  0.00     0.200 A 
ATOM     50  F   UNL A   1      37.550  33.104  39.748  1.00  0.00    -0.200 F 
ATOM     51  F   UNL A   1      39.086  35.323  40.141  1.00  0.00    -0.200 F 
ENDBRANCH  27  41
BRANCH  28  52
ATOM     52  C   UNL A   1      40.987  27.694  28.369  1.00  0.00     0.064 A 
ATOM     53  C   UNL A   1      40.356  26.454  28.175  1.00  0.00     0.173 A 
ATOM     54  C   UNL A   1      41.872  28.137  27.379  1.00  0.00     0.173 A 
ATOM     55  F   UNL A   1      39.507  25.980  29.098  1.00  0.00    -0.203 F 
ATOM     56  C   UNL A   1      40.627  25.677  27.052  1.00  0.00     0.198 A 
ATOM     57  C   UNL A   1      42.117  27.372  26.240  1.00  0.00     0.198 A 
ATOM     58  F   UNL A   1      42.488  29.321  27.513  1.00  0.00    -0.203 F 
ATOM     59  F   UNL A   1      40.051  24.474  26.918  1.00  0.00    -0.200 F 
ATOM     60  C   UNL A   1      41.503  26.138  26.083  1.00  0.00     0.200 A 
ATOM     61  F   UNL A   1      42.948  27.832  25.294  1.00  0.00    -0.200 F 
ATOM     62  F   UNL A   1      41.759  25.394  24.998  1.00  0.00    -0.200 F 
ENDBRANCH  28  52
BRANCH  40  63
ATOM     63  C   UNL A   1      44.159  28.000  34.589  1.00  0.00     0.064 A 
ATOM     64  C   UNL A   1      45.456  28.518  34.447  1.00  0.00     0.173 A 
ATOM     65  C   UNL A   1      44.013  26.758  35.224  1.00  0.00     0.173 A 
ATOM     66  F   UNL A   1      45.649  29.699  33.841  1.00  0.00    -0.203 F 
ATOM     67  C   UNL A   1      46.564  27.810  34.900  1.00  0.00     0.198 A 
ATOM     68  C   UNL A   1      45.122  26.068  35.707  1.00  0.00     0.198 A 
ATOM     69  F   UNL A   1      42.794  26.228  35.399  1.00  0.00    -0.203 F 
ATOM     70  F   UNL A   1      47.796  28.305  34.716  1.00  0.00    -0.200 F 
ATOM     71  C   UNL A   1      46.396  26.588  35.533  1.00  0.00     0.200 A 
ATOM     72  F   UNL A   1      44.956  24.900  36.344  1.00  0.00    -0.200 F 
ATOM     73  F   UNL A   1      47.464  25.911  35.981  1.00  0.00    -0.200 F 
ENDBRANCH  40  63
ENDBRANCH  14  15
ENDBRANCH   7   9
ENDBRANCH   4   5
ENDBRANCH   3   4
ENDBRANCH   2   3
ENDBRANCH   1   2
BRANCH   1  74
ATOM     74  C   UNL A   1      31.936  28.380  26.410  1.00  0.00     0.021 C 
BRANCH  74  75
ATOM     75  C   UNL A   1      33.150  27.614  25.882  1.00  0.00     0.116 C 
BRANCH  75  76
ATOM     76  N   UNL A   1      33.614  28.204  24.648  1.00  0.00    -0.354 N 
ATOM     77  C   UNL A   1      33.300  27.942  23.355  1.00  0.00     0.242 C 
ATOM     78  H   UNL A   1      34.275  28.924  24.766  1.00  0.00     0.163 HD
ATOM     79  O   UNL A   1      34.028  28.458  22.497  1.00  0.00    -0.273 OA
BRANCH  77  80
ATOM     80  C   UNL A   1      32.148  27.012  22.910  1.00  0.00     0.173 C 
BRANCH  80  81
ATOM     81  C   UNL A   1      30.878  27.707  22.392  1.00  0.00     0.063 C 
BRANCH  81  82
ATOM     82  C   UNL A   1      30.624  29.174  22.710  1.00  0.00     0.158 C 
BRANCH  82  83
ATOM     83  O   UNL A   1      30.927  30.041  21.630  1.00  0.00    -0.396 OA
ATOM     84  H   UNL A   1      31.854  29.922  21.369  1.00  0.00     0.210 HD
ENDBRANCH  82  83
ENDBRANCH  81  82
ENDBRANCH  80  81
BRANCH  80  85
ATOM     85  N   UNL A   1      32.564  25.857  22.111  1.00  0.00    -0.340 N 
ATOM     86  C   UNL A   1      32.958  24.601  22.510  1.00  0.00     0.258 C 
ATOM     87  H   UNL A   1      32.562  26.002  21.137  1.00  0.00     0.164 HD
ATOM     88  O   UNL A   1      33.346  23.791  21.674  1.00  0.00    -0.269 OA
BRANCH  86  89
ATOM     89  C   UNL A   1      32.911  24.194  23.925  1.00  0.00     0.118 A 
ATOM     90  C   UNL A   1      34.034  24.310  24.742  1.00  0.00     0.139 A 
ATOM     91  C   UNL A   1      31.704  23.757  24.477  1.00  0.00     0.216 A 
ATOM     92  F   UNL A   1      35.172  24.840  24.276  1.00  0.00    -0.206 F 
ATOM     93  C   UNL A   1      34.009  23.886  26.067  1.00  0.00     0.047 A 
ATOM     94  C   UNL A   1      31.654  23.381  25.823  1.00  0.00     0.305 A 
ATOM     95  F   UNL A   1      30.618  23.679  23.695  1.00  0.00    -0.198 F 
ATOM     96  C   UNL A   1      32.818  23.414  26.615  1.00  0.00     0.092 A 
BRANCH  94  97
ATOM     97  N   UNL A   1      30.394  22.967  26.440  1.00  0.00     0.065 N 
ATOM     98  O   UNL A   1      29.850  23.725  27.249  1.00  0.00    -0.258 OA
ATOM     99  O   UNL A   1      29.955  21.850  26.128  1.00  0.00    -0.258 OA
ENDBRANCH  94  97
ENDBRANCH  86  89
ENDBRANCH  80  85
ENDBRANCH  77  80
ENDBRANCH  75  76
ENDBRANCH  74  75
ENDBRANCH   1  74
TORSDOF 19
ENDMDL
