MODEL 1
REMARK VINA RESULT:     -12.1      0.000      0.000
REMARK SMILES CC(=O)c1nnn(-c2ccc(C(=O)NCCCCCCNC(=O)c3ccc(-c4c5nc(c(-c6c(F)c(F)c(F)c(F)c6F)c6ccc([nH]6)c(-c6c(F)c(F)c(F)c(F)c6F)c6nc(c(-c7c(F)c(F)c(F)c(F)c7F)c7ccc4[nH]7)C=C6)C=C5)cc3)cc2)c1C
REMARK SMILES IDX 17 1 16 2 15 3 14 4 12 5 13 6 11 8 8 9 9 10 88 11 10 12
REMARK SMILES IDX 87 13 7 14 4 15 5 16 89 17 6 18 90 19 2 20 1 21 3 22 18 23
REMARK SMILES IDX 19 24 20 25 21 26 22 27 23 29 24 30 25 31 86 32 26 33 85 34
REMARK SMILES IDX 27 35 28 36 29 37 79 38 30 39 84 40 78 41 80 42 31 43 83 44
REMARK SMILES IDX 77 45 76 46 32 48 64 49 44 50 63 51 45 52 48 53 62 54 81 55
REMARK SMILES IDX 46 56 47 57 61 59 82 60 49 61 33 62 34 63 42 64 35 65 36 66
REMARK SMILES IDX 40 67 43 68 37 69 38 70 41 71 39 72 65 73 66 74 74 75 67 76
REMARK SMILES IDX 68 77 72 78 75 79 69 80 70 81 73 82 71 83 50 84 51 85 59 86
REMARK SMILES IDX 52 87 53 88 57 89 60 90 54 91 55 92 58 93 56 94
REMARK H PARENT 14 7 21 28 80 47 48 58
REMARK Flexibility Score: inf
ROOT
ATOM      1  C   UNL A   1      39.777  21.966  26.591  1.00  0.00     0.002 C 
ENDROOT
BRANCH   1   2
ATOM      2  C   UNL A   1      38.935  21.214  25.551  1.00  0.00     0.021 C 
BRANCH   2   3
ATOM      3  C   UNL A   1      37.478  21.684  25.504  1.00  0.00     0.116 C 
BRANCH   3   4
ATOM      4  N   UNL A   1      36.616  20.589  25.101  1.00  0.00    -0.352 N 
ATOM      5  C   UNL A   1      35.254  20.431  25.063  1.00  0.00     0.251 C 
ATOM      6  O   UNL A   1      34.819  19.348  24.672  1.00  0.00    -0.269 OA
ATOM      7  H   UNL A   1      37.110  19.796  24.792  1.00  0.00     0.163 HD
BRANCH   5   8
ATOM      8  C   UNL A   1      34.291  21.524  25.382  1.00  0.00     0.039 A 
ATOM      9  C   UNL A   1      32.716  23.801  25.754  1.00  0.00     0.067 A 
ATOM     10  C   UNL A   1      32.779  23.221  24.488  1.00  0.00     0.029 A 
ATOM     11  C   UNL A   1      33.318  23.184  26.853  1.00  0.00     0.029 A 
ATOM     12  C   UNL A   1      33.598  22.104  24.303  1.00  0.00     0.016 A 
ATOM     13  C   UNL A   1      34.054  22.013  26.668  1.00  0.00     0.016 A 
BRANCH   9  14
ATOM     14  N   UNL A   1      32.084  25.044  25.923  1.00  0.00    -0.217 N 
ATOM     15  C   UNL A   1      31.616  27.160  26.107  1.00  0.00     0.151 A 
ATOM     16  N   UNL A   1      30.535  26.424  26.519  1.00  0.00    -0.126 NA
ATOM     17  C   UNL A   1      32.613  26.300  25.675  1.00  0.00     0.073 A 
ATOM     18  N   UNL A   1      30.797  25.143  26.301  1.00  0.00    -0.061 NA
ATOM     19  C   UNL A   1      33.914  26.530  25.002  1.00  0.00     0.069 C 
BRANCH  15  20
ATOM     20  C   UNL A   1      31.599  28.612  26.088  1.00  0.00     0.181 C 
ATOM     21  C   UNL A   1      32.138  29.325  27.302  1.00  0.00     0.095 C 
ATOM     22  O   UNL A   1      31.170  29.242  25.123  1.00  0.00    -0.293 OA
ENDBRANCH  15  20
ENDBRANCH   9  14
ENDBRANCH   5   8
ENDBRANCH   3   4
ENDBRANCH   2   3
ENDBRANCH   1   2
BRANCH   1  23
ATOM     23  C   UNL A   1      40.944  21.165  27.190  1.00  0.00     0.002 C 
BRANCH  23  24
ATOM     24  C   UNL A   1      41.482  20.021  26.318  1.00  0.00     0.021 C 
BRANCH  24  25
ATOM     25  C   UNL A   1      42.832  19.493  26.784  1.00  0.00     0.116 C 
BRANCH  25  26
ATOM     26  N   UNL A   1      43.789  19.428  25.687  1.00  0.00    -0.352 N 
ATOM     27  C   UNL A   1      44.278  20.450  24.905  1.00  0.00     0.251 C 
ATOM     28  H   UNL A   1      44.132  18.530  25.476  1.00  0.00     0.163 HD
ATOM     29  O   UNL A   1      44.754  20.216  23.806  1.00  0.00    -0.269 OA
BRANCH  27  30
ATOM     30  C   UNL A   1      44.225  21.835  25.408  1.00  0.00     0.039 A 
ATOM     31  C   UNL A   1      43.311  22.738  24.858  1.00  0.00     0.014 A 
ATOM     32  C   UNL A   1      45.111  22.239  26.409  1.00  0.00     0.014 A 
ATOM     33  C   UNL A   1      43.245  24.028  25.374  1.00  0.00     0.010 A 
ATOM     34  C   UNL A   1      44.981  23.484  26.986  1.00  0.00     0.010 A 
ATOM     35  C   UNL A   1      44.067  24.388  26.455  1.00  0.00    -0.014 A 
BRANCH  35  36
ATOM     36  C   UNL A   1      43.820  25.644  27.162  1.00  0.00     0.031 A 
ATOM     37  C   UNL A   1      44.794  26.711  26.796  1.00  0.00     0.074 A 
ATOM     38  C   UNL A   1      42.716  25.891  27.901  1.00  0.00     0.049 A 
ATOM     39  N   UNL A   1      45.685  27.254  27.554  1.00  0.00    -0.248 NA
ATOM     40  C   UNL A   1      44.911  27.099  25.378  1.00  0.00     0.031 C 
ATOM     41  C   UNL A   1      41.546  25.024  28.067  1.00  0.00     0.029 A 
ATOM     42  N   UNL A   1      42.353  27.017  28.583  1.00  0.00    -0.354 N 
ATOM     43  C   UNL A   1      46.331  28.208  26.769  1.00  0.00     0.074 A 
ATOM     44  C   UNL A   1      45.957  27.929  25.412  1.00  0.00     0.031 C 
ATOM     45  C   UNL A   1      40.525  25.734  28.598  1.00  0.00     0.029 A 
ATOM     46  C   UNL A   1      41.010  27.055  28.955  1.00  0.00     0.049 A 
ATOM     47  H   UNL A   1      42.987  27.740  28.795  1.00  0.00     0.167 HD
ATOM     48  C   UNL A   1      46.873  29.314  27.353  1.00  0.00     0.037 A 
ATOM     49  C   UNL A   1      40.340  28.103  29.497  1.00  0.00     0.037 A 
ATOM     50  C   UNL A   1      47.000  29.105  28.775  1.00  0.00     0.049 A 
ATOM     51  C   UNL A   1      41.353  29.016  30.070  1.00  0.00     0.074 A 
ATOM     52  C   UNL A   1      47.746  28.294  29.602  1.00  0.00     0.029 A 
ATOM     53  N   UNL A   1      45.929  29.549  29.504  1.00  0.00    -0.354 N 
ATOM     54  N   UNL A   1      42.077  28.730  31.114  1.00  0.00    -0.248 NA
ATOM     55  C   UNL A   1      41.834  30.125  29.258  1.00  0.00     0.031 C 
ATOM     56  C   UNL A   1      46.922  28.046  30.743  1.00  0.00     0.029 A 
ATOM     57  C   UNL A   1      45.735  28.766  30.605  1.00  0.00     0.049 A 
ATOM     58  H   UNL A   1      45.375  30.328  29.267  1.00  0.00     0.167 HD
ATOM     59  C   UNL A   1      43.309  29.293  30.839  1.00  0.00     0.074 A 
ATOM     60  C   UNL A   1      43.050  30.274  29.791  1.00  0.00     0.031 C 
ATOM     61  C   UNL A   1      44.449  28.676  31.262  1.00  0.00     0.037 A 
BRANCH  48  62
ATOM     62  C   UNL A   1      46.785  30.727  26.785  1.00  0.00     0.064 A 
ATOM     63  C   UNL A   1      47.946  31.536  26.825  1.00  0.00     0.173 A 
ATOM     64  C   UNL A   1      45.584  31.423  26.534  1.00  0.00     0.173 A 
ATOM     65  F   UNL A   1      49.152  30.996  27.052  1.00  0.00    -0.203 F 
ATOM     66  C   UNL A   1      47.885  32.932  26.743  1.00  0.00     0.198 A 
ATOM     67  C   UNL A   1      45.535  32.813  26.409  1.00  0.00     0.198 A 
ATOM     68  F   UNL A   1      44.392  30.822  26.503  1.00  0.00    -0.203 F 
ATOM     69  F   UNL A   1      48.995  33.658  26.933  1.00  0.00    -0.200 F 
ATOM     70  C   UNL A   1      46.678  33.570  26.549  1.00  0.00     0.200 A 
ATOM     71  F   UNL A   1      44.348  33.414  26.235  1.00  0.00    -0.200 F 
ATOM     72  F   UNL A   1      46.604  34.907  26.541  1.00  0.00    -0.200 F 
ENDBRANCH  48  62
BRANCH  49  73
ATOM     73  C   UNL A   1      38.915  28.503  29.383  1.00  0.00     0.064 A 
ATOM     74  C   UNL A   1      38.114  28.675  30.528  1.00  0.00     0.173 A 
ATOM     75  C   UNL A   1      38.398  29.018  28.181  1.00  0.00     0.173 A 
ATOM     76  F   UNL A   1      38.543  28.248  31.724  1.00  0.00    -0.203 F 
ATOM     77  C   UNL A   1      36.894  29.361  30.480  1.00  0.00     0.198 A 
ATOM     78  C   UNL A   1      37.178  29.699  28.133  1.00  0.00     0.198 A 
ATOM     79  F   UNL A   1      39.114  28.964  27.048  1.00  0.00    -0.203 F 
ATOM     80  F   UNL A   1      36.200  29.571  31.607  1.00  0.00    -0.200 F 
ATOM     81  C   UNL A   1      36.436  29.885  29.284  1.00  0.00     0.200 A 
ATOM     82  F   UNL A   1      36.762  30.233  26.976  1.00  0.00    -0.200 F 
ATOM     83  F   UNL A   1      35.306  30.607  29.249  1.00  0.00    -0.200 F 
ENDBRANCH  49  73
BRANCH  61  84
ATOM     84  C   UNL A   1      44.329  27.701  32.396  1.00  0.00     0.064 A 
ATOM     85  C   UNL A   1      44.174  26.313  32.253  1.00  0.00     0.173 A 
ATOM     86  C   UNL A   1      44.486  28.206  33.695  1.00  0.00     0.173 A 
ATOM     87  F   UNL A   1      44.101  25.743  31.043  1.00  0.00    -0.203 F 
ATOM     88  C   UNL A   1      44.139  25.477  33.369  1.00  0.00     0.198 A 
ATOM     89  C   UNL A   1      44.494  27.365  34.802  1.00  0.00     0.198 A 
ATOM     90  F   UNL A   1      44.678  29.521  33.886  1.00  0.00    -0.203 F 
ATOM     91  F   UNL A   1      43.969  24.155  33.212  1.00  0.00    -0.200 F 
ATOM     92  C   UNL A   1      44.309  26.003  34.640  1.00  0.00     0.200 A 
ATOM     93  F   UNL A   1      44.707  27.875  36.022  1.00  0.00    -0.200 F 
ATOM     94  F   UNL A   1      44.318  25.194  35.708  1.00  0.00    -0.200 F 
ENDBRANCH  61  84
ENDBRANCH  35  36
ENDBRANCH  27  30
ENDBRANCH  25  26
ENDBRANCH  24  25
ENDBRANCH  23  24
ENDBRANCH   1  23
TORSDOF 15
ENDMDL
MODEL 2
REMARK VINA RESULT:     -11.9      3.097      8.409
REMARK SMILES CC(=O)c1nnn(-c2ccc(C(=O)NCCCCCCNC(=O)c3ccc(-c4c5nc(c(-c6c(F)c(F)c(F)c(F)c6F)c6ccc([nH]6)c(-c6c(F)c(F)c(F)c(F)c6F)c6nc(c(-c7c(F)c(F)c(F)c(F)c7F)c7ccc4[nH]7)C=C6)C=C5)cc3)cc2)c1C
REMARK SMILES IDX 17 1 16 2 15 3 14 4 12 5 13 6 11 8 8 9 9 10 88 11 10 12
REMARK SMILES IDX 87 13 7 14 4 15 5 16 89 17 6 18 90 19 2 20 1 21 3 22 18 23
REMARK SMILES IDX 19 24 20 25 21 26 22 27 23 29 24 30 25 31 86 32 26 33 85 34
REMARK SMILES IDX 27 35 28 36 29 37 79 38 30 39 84 40 78 41 80 42 31 43 83 44
REMARK SMILES IDX 77 45 76 46 32 48 64 49 44 50 63 51 45 52 48 53 62 54 81 55
REMARK SMILES IDX 46 56 47 57 61 59 82 60 49 61 33 62 34 63 42 64 35 65 36 66
REMARK SMILES IDX 40 67 43 68 37 69 38 70 41 71 39 72 65 73 66 74 74 75 67 76
REMARK SMILES IDX 68 77 72 78 75 79 69 80 70 81 73 82 71 83 50 84 51 85 59 86
REMARK SMILES IDX 52 87 53 88 57 89 60 90 54 91 55 92 58 93 56 94
REMARK H PARENT 14 7 21 28 80 47 48 58
REMARK Flexibility Score: inf
ROOT
ATOM      1  C   UNL A   1      33.824  26.400  24.945  1.00  0.00     0.002 C 
ENDROOT
BRANCH   1   2
ATOM      2  C   UNL A   1      34.495  25.086  25.366  1.00  0.00     0.021 C 
BRANCH   2   3
ATOM      3  C   UNL A   1      34.286  23.953  24.358  1.00  0.00     0.116 C 
BRANCH   3   4
ATOM      4  N   UNL A   1      33.449  22.919  24.937  1.00  0.00    -0.352 N 
ATOM      5  C   UNL A   1      32.114  22.852  25.241  1.00  0.00     0.251 C 
ATOM      6  O   UNL A   1      31.699  21.812  25.750  1.00  0.00    -0.269 OA
ATOM      7  H   UNL A   1      33.942  22.097  25.159  1.00  0.00     0.163 HD
BRANCH   5   8
ATOM      8  C   UNL A   1      31.140  23.931  24.904  1.00  0.00     0.039 A 
ATOM      9  C   UNL A   1      29.600  26.095  24.041  1.00  0.00     0.067 A 
ATOM     10  C   UNL A   1      29.942  25.101  23.126  1.00  0.00     0.029 A 
ATOM     11  C   UNL A   1      29.902  25.953  25.397  1.00  0.00     0.029 A 
ATOM     12  C   UNL A   1      30.743  24.040  23.558  1.00  0.00     0.016 A 
ATOM     13  C   UNL A   1      30.620  24.838  25.830  1.00  0.00     0.016 A 
BRANCH   9  14
ATOM     14  N   UNL A   1      28.989  27.277  23.592  1.00  0.00    -0.217 N 
ATOM     15  C   UNL A   1      28.557  29.301  22.922  1.00  0.00     0.151 A 
ATOM     16  N   UNL A   1      27.377  28.659  23.197  1.00  0.00    -0.126 NA
ATOM     17  C   UNL A   1      29.610  28.424  23.123  1.00  0.00     0.073 A 
ATOM     18  N   UNL A   1      27.651  27.398  23.501  1.00  0.00    -0.061 NA
ATOM     19  C   UNL A   1      31.064  28.521  22.847  1.00  0.00     0.069 C 
BRANCH  15  20
ATOM     20  C   UNL A   1      28.594  30.665  22.425  1.00  0.00     0.181 C 
ATOM     21  C   UNL A   1      28.372  31.770  23.427  1.00  0.00     0.095 C 
ATOM     22  O   UNL A   1      28.805  30.918  21.241  1.00  0.00    -0.293 OA
ENDBRANCH  15  20
ENDBRANCH   9  14
ENDBRANCH   5   8
ENDBRANCH   3   4
ENDBRANCH   2   3
ENDBRANCH   1   2
BRANCH   1  23
ATOM     23  C   UNL A   1      33.304  27.270  26.100  1.00  0.00     0.002 C 
BRANCH  23  24
ATOM     24  C   UNL A   1      33.538  28.780  25.952  1.00  0.00     0.021 C 
BRANCH  24  25
ATOM     25  C   UNL A   1      33.828  29.477  27.275  1.00  0.00     0.116 C 
BRANCH  25  26
ATOM     26  N   UNL A   1      34.173  30.879  27.077  1.00  0.00    -0.352 N 
ATOM     27  C   UNL A   1      35.209  31.600  27.626  1.00  0.00     0.251 C 
ATOM     28  H   UNL A   1      33.583  31.379  26.468  1.00  0.00     0.163 HD
ATOM     29  O   UNL A   1      35.154  32.817  27.686  1.00  0.00    -0.269 OA
BRANCH  27  30
ATOM     30  C   UNL A   1      36.392  30.888  28.143  1.00  0.00     0.039 A 
ATOM     31  C   UNL A   1      36.491  29.502  27.989  1.00  0.00     0.014 A 
ATOM     32  C   UNL A   1      37.390  31.602  28.809  1.00  0.00     0.014 A 
ATOM     33  C   UNL A   1      37.633  28.852  28.444  1.00  0.00     0.010 A 
ATOM     34  C   UNL A   1      38.562  30.977  29.173  1.00  0.00     0.010 A 
ATOM     35  C   UNL A   1      38.677  29.600  29.015  1.00  0.00    -0.014 A 
BRANCH  35  36
ATOM     36  C   UNL A   1      39.972  28.964  29.253  1.00  0.00     0.031 A 
ATOM     37  C   UNL A   1      40.279  28.812  30.704  1.00  0.00     0.074 A 
ATOM     38  C   UNL A   1      40.718  28.383  28.288  1.00  0.00     0.049 A 
ATOM     39  N   UNL A   1      41.214  29.397  31.373  1.00  0.00    -0.248 NA
ATOM     40  C   UNL A   1      39.334  28.058  31.547  1.00  0.00     0.031 C 
ATOM     41  C   UNL A   1      40.359  28.197  26.879  1.00  0.00     0.029 A 
ATOM     42  N   UNL A   1      41.919  27.738  28.378  1.00  0.00    -0.354 N 
ATOM     43  C   UNL A   1      41.112  28.918  32.679  1.00  0.00     0.074 A 
ATOM     44  C   UNL A   1      39.836  28.267  32.766  1.00  0.00     0.031 C 
ATOM     45  C   UNL A   1      41.198  27.301  26.310  1.00  0.00     0.029 A 
ATOM     46  C   UNL A   1      42.243  26.970  27.261  1.00  0.00     0.049 A 
ATOM     47  H   UNL A   1      42.506  27.811  29.165  1.00  0.00     0.167 HD
ATOM     48  C   UNL A   1      42.223  28.851  33.466  1.00  0.00     0.037 A 
ATOM     49  C   UNL A   1      43.284  26.107  27.134  1.00  0.00     0.037 A 
ATOM     50  C   UNL A   1      43.274  29.661  32.900  1.00  0.00     0.049 A 
ATOM     51  C   UNL A   1      44.276  26.470  28.169  1.00  0.00     0.074 A 
ATOM     52  C   UNL A   1      43.495  31.005  32.690  1.00  0.00     0.029 A 
ATOM     53  N   UNL A   1      44.124  28.978  32.072  1.00  0.00    -0.354 N 
ATOM     54  N   UNL A   1      44.974  27.570  28.149  1.00  0.00    -0.248 NA
ATOM     55  C   UNL A   1      44.240  25.775  29.448  1.00  0.00     0.031 C 
ATOM     56  C   UNL A   1      44.290  31.083  31.506  1.00  0.00     0.029 A 
ATOM     57  C   UNL A   1      44.584  29.788  31.075  1.00  0.00     0.049 A 
ATOM     58  H   UNL A   1      44.370  28.031  32.182  1.00  0.00     0.167 HD
ATOM     59  C   UNL A   1      45.070  27.937  29.478  1.00  0.00     0.074 A 
ATOM     60  C   UNL A   1      44.766  26.724  30.227  1.00  0.00     0.031 C 
ATOM     61  C   UNL A   1      45.070  29.257  29.821  1.00  0.00     0.037 A 
BRANCH  48  62
ATOM     62  C   UNL A   1      42.558  27.691  34.397  1.00  0.00     0.064 A 
ATOM     63  C   UNL A   1      43.023  26.484  33.821  1.00  0.00     0.173 A 
ATOM     64  C   UNL A   1      42.135  27.583  35.739  1.00  0.00     0.173 A 
ATOM     65  F   UNL A   1      43.457  26.453  32.552  1.00  0.00    -0.203 F 
ATOM     66  C   UNL A   1      42.951  25.260  34.494  1.00  0.00     0.198 A 
ATOM     67  C   UNL A   1      42.108  26.366  36.421  1.00  0.00     0.198 A 
ATOM     68  F   UNL A   1      41.632  28.614  36.423  1.00  0.00    -0.203 F 
ATOM     69  F   UNL A   1      43.267  24.128  33.851  1.00  0.00    -0.200 F 
ATOM     70  C   UNL A   1      42.480  25.200  35.790  1.00  0.00     0.200 A 
ATOM     71  F   UNL A   1      41.632  26.328  37.676  1.00  0.00    -0.200 F 
ATOM     72  F   UNL A   1      42.342  24.023  36.414  1.00  0.00    -0.200 F 
ENDBRANCH  48  62
BRANCH  49  73
ATOM     73  C   UNL A   1      43.414  24.859  26.341  1.00  0.00     0.064 A 
ATOM     74  C   UNL A   1      44.420  24.718  25.367  1.00  0.00     0.173 A 
ATOM     75  C   UNL A   1      42.758  23.677  26.733  1.00  0.00     0.173 A 
ATOM     76  F   UNL A   1      45.122  25.785  24.960  1.00  0.00    -0.203 F 
ATOM     77  C   UNL A   1      44.778  23.467  24.851  1.00  0.00     0.198 A 
ATOM     78  C   UNL A   1      43.113  22.429  26.214  1.00  0.00     0.198 A 
ATOM     79  F   UNL A   1      41.832  23.697  27.702  1.00  0.00    -0.203 F 
ATOM     80  F   UNL A   1      45.793  23.367  23.982  1.00  0.00    -0.200 F 
ATOM     81  C   UNL A   1      44.134  22.322  25.287  1.00  0.00     0.200 A 
ATOM     82  F   UNL A   1      42.507  21.324  26.671  1.00  0.00    -0.200 F 
ATOM     83  F   UNL A   1      44.525  21.116  24.851  1.00  0.00    -0.200 F 
ENDBRANCH  49  73
BRANCH  61  84
ATOM     84  C   UNL A   1      45.449  30.248  28.761  1.00  0.00     0.064 A 
ATOM     85  C   UNL A   1      44.552  30.857  27.869  1.00  0.00     0.173 A 
ATOM     86  C   UNL A   1      46.785  30.672  28.727  1.00  0.00     0.173 A 
ATOM     87  F   UNL A   1      43.244  30.568  27.894  1.00  0.00    -0.203 F 
ATOM     88  C   UNL A   1      44.987  31.820  26.959  1.00  0.00     0.198 A 
ATOM     89  C   UNL A   1      47.208  31.663  27.848  1.00  0.00     0.198 A 
ATOM     90  F   UNL A   1      47.678  30.152  29.585  1.00  0.00    -0.203 F 
ATOM     91  F   UNL A   1      44.118  32.376  26.101  1.00  0.00    -0.200 F 
ATOM     92  C   UNL A   1      46.312  32.229  26.957  1.00  0.00     0.200 A 
ATOM     93  F   UNL A   1      48.478  32.086  27.885  1.00  0.00    -0.200 F 
ATOM     94  F   UNL A   1      46.721  33.185  26.112  1.00  0.00    -0.200 F 
ENDBRANCH  61  84
ENDBRANCH  35  36
ENDBRANCH  27  30
ENDBRANCH  25  26
ENDBRANCH  24  25
ENDBRANCH  23  24
ENDBRANCH   1  23
TORSDOF 15
ENDMDL
MODEL 3
REMARK VINA RESULT:     -11.9      2.826      8.953
REMARK SMILES CC(=O)c1nnn(-c2ccc(C(=O)NCCCCCCNC(=O)c3ccc(-c4c5nc(c(-c6c(F)c(F)c(F)c(F)c6F)c6ccc([nH]6)c(-c6c(F)c(F)c(F)c(F)c6F)c6nc(c(-c7c(F)c(F)c(F)c(F)c7F)c7ccc4[nH]7)C=C6)C=C5)cc3)cc2)c1C
REMARK SMILES IDX 17 1 16 2 15 3 14 4 12 5 13 6 11 8 8 9 9 10 88 11 10 12
REMARK SMILES IDX 87 13 7 14 4 15 5 16 89 17 6 18 90 19 2 20 1 21 3 22 18 23
REMARK SMILES IDX 19 24 20 25 21 26 22 27 23 29 24 30 25 31 86 32 26 33 85 34
REMARK SMILES IDX 27 35 28 36 29 37 79 38 30 39 84 40 78 41 80 42 31 43 83 44
REMARK SMILES IDX 77 45 76 46 32 48 64 49 44 50 63 51 45 52 48 53 62 54 81 55
REMARK SMILES IDX 46 56 47 57 61 59 82 60 49 61 33 62 34 63 42 64 35 65 36 66
REMARK SMILES IDX 40 67 43 68 37 69 38 70 41 71 39 72 65 73 66 74 74 75 67 76
REMARK SMILES IDX 68 77 72 78 75 79 69 80 70 81 73 82 71 83 50 84 51 85 59 86
REMARK SMILES IDX 52 87 53 88 57 89 60 90 54 91 55 92 58 93 56 94
REMARK H PARENT 14 7 21 28 80 47 48 58
REMARK Flexibility Score: inf
ROOT
ATOM      1  C   UNL A   1      32.714  28.255  26.798  1.00  0.00     0.002 C 
ENDROOT
BRANCH   1   2
ATOM      2  C   UNL A   1      31.647  29.348  26.950  1.00  0.00     0.021 C 
BRANCH   2   3
ATOM      3  C   UNL A   1      31.871  30.540  26.015  1.00  0.00     0.116 C 
BRANCH   3   4
ATOM      4  N   UNL A   1      30.794  30.620  25.045  1.00  0.00    -0.352 N 
ATOM      5  C   UNL A   1      30.487  29.897  23.921  1.00  0.00     0.251 C 
ATOM      6  O   UNL A   1      29.485  30.229  23.289  1.00  0.00    -0.269 OA
ATOM      7  H   UNL A   1      30.152  31.342  25.233  1.00  0.00     0.163 HD
BRANCH   5   8
ATOM      8  C   UNL A   1      31.249  28.690  23.487  1.00  0.00     0.039 A 
ATOM      9  C   UNL A   1      32.662  26.320  23.054  1.00  0.00     0.067 A 
ATOM     10  C   UNL A   1      31.321  26.249  23.429  1.00  0.00     0.029 A 
ATOM     11  C   UNL A   1      33.259  27.550  22.766  1.00  0.00     0.029 A 
ATOM     12  C   UNL A   1      30.632  27.440  23.679  1.00  0.00     0.016 A 
ATOM     13  C   UNL A   1      32.527  28.726  22.927  1.00  0.00     0.016 A 
BRANCH   9  14
ATOM     14  N   UNL A   1      33.438  25.151  23.012  1.00  0.00    -0.217 N 
ATOM     15  C   UNL A   1      34.864  23.555  23.400  1.00  0.00     0.151 A 
ATOM     16  N   UNL A   1      34.333  23.386  22.148  1.00  0.00    -0.126 NA
ATOM     17  C   UNL A   1      34.275  24.657  23.999  1.00  0.00     0.073 A 
ATOM     18  N   UNL A   1      33.391  24.301  21.969  1.00  0.00    -0.061 NA
ATOM     19  C   UNL A   1      34.351  25.213  25.372  1.00  0.00     0.069 C 
BRANCH  15  20
ATOM     20  C   UNL A   1      35.832  22.627  23.959  1.00  0.00     0.181 C 
ATOM     21  C   UNL A   1      35.297  21.496  24.800  1.00  0.00     0.095 C 
ATOM     22  O   UNL A   1      37.038  22.747  23.753  1.00  0.00    -0.293 OA
ENDBRANCH  15  20
ENDBRANCH   9  14
ENDBRANCH   5   8
ENDBRANCH   3   4
ENDBRANCH   2   3
ENDBRANCH   1   2
BRANCH   1  23
ATOM     23  C   UNL A   1      34.146  28.765  26.569  1.00  0.00     0.002 C 
BRANCH  23  24
ATOM     24  C   UNL A   1      34.807  29.450  27.773  1.00  0.00     0.021 C 
BRANCH  24  25
ATOM     25  C   UNL A   1      35.171  30.906  27.513  1.00  0.00     0.116 C 
BRANCH  25  26
ATOM     26  N   UNL A   1      34.851  31.751  28.656  1.00  0.00    -0.352 N 
ATOM     27  C   UNL A   1      35.357  31.702  29.935  1.00  0.00     0.251 C 
ATOM     28  H   UNL A   1      34.181  32.452  28.491  1.00  0.00     0.163 HD
ATOM     29  O   UNL A   1      34.739  32.192  30.866  1.00  0.00    -0.269 OA
BRANCH  27  30
ATOM     30  C   UNL A   1      36.659  31.052  30.174  1.00  0.00     0.039 A 
ATOM     31  C   UNL A   1      36.701  29.736  30.643  1.00  0.00     0.014 A 
ATOM     32  C   UNL A   1      37.837  31.769  29.959  1.00  0.00     0.014 A 
ATOM     33  C   UNL A   1      37.937  29.123  30.822  1.00  0.00     0.010 A 
ATOM     34  C   UNL A   1      39.057  31.135  30.043  1.00  0.00     0.010 A 
ATOM     35  C   UNL A   1      39.113  29.822  30.497  1.00  0.00    -0.014 A 
BRANCH  35  36
ATOM     36  C   UNL A   1      40.384  29.102  30.436  1.00  0.00     0.031 A 
ATOM     37  C   UNL A   1      41.017  28.938  31.775  1.00  0.00     0.074 A 
ATOM     38  C   UNL A   1      40.842  28.469  29.334  1.00  0.00     0.049 A 
ATOM     39  N   UNL A   1      42.119  29.463  32.192  1.00  0.00    -0.248 NA
ATOM     40  C   UNL A   1      40.253  28.252  32.833  1.00  0.00     0.031 C 
ATOM     41  C   UNL A   1      40.148  28.299  28.054  1.00  0.00     0.029 A 
ATOM     42  N   UNL A   1      41.986  27.746  29.151  1.00  0.00    -0.354 N 
ATOM     43  C   UNL A   1      42.299  28.999  33.495  1.00  0.00     0.074 A 
ATOM     44  C   UNL A   1      41.042  28.434  33.895  1.00  0.00     0.031 C 
ATOM     45  C   UNL A   1      40.770  27.347  27.322  1.00  0.00     0.029 A 
ATOM     46  C   UNL A   1      41.988  26.952  28.005  1.00  0.00     0.049 A 
ATOM     47  H   UNL A   1      42.747  27.784  29.775  1.00  0.00     0.167 HD
ATOM     48  C   UNL A   1      43.558  28.862  33.999  1.00  0.00     0.037 A 
ATOM     49  C   UNL A   1      42.912  26.022  27.654  1.00  0.00     0.037 A 
ATOM     50  C   UNL A   1      44.494  29.599  33.184  1.00  0.00     0.049 A 
ATOM     51  C   UNL A   1      44.142  26.324  28.417  1.00  0.00     0.074 A 
ATOM     52  C   UNL A   1      44.743  30.923  32.899  1.00  0.00     0.029 A 
ATOM     53  N   UNL A   1      45.079  28.856  32.192  1.00  0.00    -0.354 N 
ATOM     54  N   UNL A   1      44.884  27.375  28.210  1.00  0.00    -0.248 NA
ATOM     55  C   UNL A   1      44.367  25.639  29.683  1.00  0.00     0.031 C 
ATOM     56  C   UNL A   1      45.238  30.943  31.560  1.00  0.00     0.029 A 
ATOM     57  C   UNL A   1      45.339  29.629  31.099  1.00  0.00     0.049 A 
ATOM     58  H   UNL A   1      45.283  27.896  32.260  1.00  0.00     0.167 HD
ATOM     59  C   UNL A   1      45.315  27.742  29.470  1.00  0.00     0.074 A 
ATOM     60  C   UNL A   1      45.121  26.555  30.296  1.00  0.00     0.031 C 
ATOM     61  C   UNL A   1      45.480  29.061  29.776  1.00  0.00     0.037 A 
BRANCH  48  62
ATOM     62  C   UNL A   1      44.031  27.688  34.848  1.00  0.00     0.064 A 
ATOM     63  C   UNL A   1      43.786  26.377  34.372  1.00  0.00     0.173 A 
ATOM     64  C   UNL A   1      44.385  27.767  36.211  1.00  0.00     0.173 A 
ATOM     65  F   UNL A   1      43.445  26.165  33.092  1.00  0.00    -0.203 F 
ATOM     66  C   UNL A   1      43.777  25.265  35.221  1.00  0.00     0.198 A 
ATOM     67  C   UNL A   1      44.418  26.647  37.044  1.00  0.00     0.198 A 
ATOM     68  F   UNL A   1      44.611  28.927  36.833  1.00  0.00    -0.203 F 
ATOM     69  F   UNL A   1      43.395  24.071  34.747  1.00  0.00    -0.200 F 
ATOM     70  C   UNL A   1      44.079  25.403  36.559  1.00  0.00     0.200 A 
ATOM     71  F   UNL A   1      44.700  26.807  38.346  1.00  0.00    -0.200 F 
ATOM     72  F   UNL A   1      44.002  24.355  37.390  1.00  0.00    -0.200 F 
ENDBRANCH  48  62
BRANCH  49  73
ATOM     73  C   UNL A   1      42.771  24.764  26.879  1.00  0.00     0.064 A 
ATOM     74  C   UNL A   1      43.395  24.608  25.627  1.00  0.00     0.173 A 
ATOM     75  C   UNL A   1      42.284  23.589  27.481  1.00  0.00     0.173 A 
ATOM     76  F   UNL A   1      43.921  25.667  24.996  1.00  0.00    -0.203 F 
ATOM     77  C   UNL A   1      43.562  23.349  25.036  1.00  0.00     0.198 A 
ATOM     78  C   UNL A   1      42.447  22.334  26.889  1.00  0.00     0.198 A 
ATOM     79  F   UNL A   1      41.734  23.624  28.703  1.00  0.00    -0.203 F 
ATOM     80  F   UNL A   1      44.230  23.235  23.880  1.00  0.00    -0.200 F 
ATOM     81  C   UNL A   1      43.100  22.212  25.677  1.00  0.00     0.200 A 
ATOM     82  F   UNL A   1      42.028  21.237  27.535  1.00  0.00    -0.200 F 
ATOM     83  F   UNL A   1      43.325  20.999  25.150  1.00  0.00    -0.200 F 
ENDBRANCH  49  73
BRANCH  61  84
ATOM     84  C   UNL A   1      45.658  30.019  28.636  1.00  0.00     0.064 A 
ATOM     85  C   UNL A   1      44.615  30.678  27.966  1.00  0.00     0.173 A 
ATOM     86  C   UNL A   1      46.972  30.357  28.282  1.00  0.00     0.173 A 
ATOM     87  F   UNL A   1      43.334  30.473  28.303  1.00  0.00    -0.203 F 
ATOM     88  C   UNL A   1      44.882  31.606  26.959  1.00  0.00     0.198 A 
ATOM     89  C   UNL A   1      47.235  31.314  27.308  1.00  0.00     0.198 A 
ATOM     90  F   UNL A   1      48.008  29.787  28.918  1.00  0.00    -0.203 F 
ATOM     91  F   UNL A   1      43.870  32.210  26.318  1.00  0.00    -0.200 F 
ATOM     92  C   UNL A   1      46.191  31.930  26.640  1.00  0.00     0.200 A 
ATOM     93  F   UNL A   1      48.502  31.655  27.038  1.00  0.00    -0.200 F 
ATOM     94  F   UNL A   1      46.447  32.852  25.702  1.00  0.00    -0.200 F 
ENDBRANCH  61  84
ENDBRANCH  35  36
ENDBRANCH  27  30
ENDBRANCH  25  26
ENDBRANCH  24  25
ENDBRANCH  23  24
ENDBRANCH   1  23
TORSDOF 15
ENDMDL
