MODEL 1
REMARK VINA RESULT:     -13.8      0.000      0.000
REMARK SMILES Cc1ccc(/C=C(\NC(=O)c2cccc(C)c2)C(=O)NCCCCCCNC(=O)c2ccc(-c3c4nc(c(-c5c(F)c(F)c(F)c(F)c5F)c5ccc([nH]5)c(-c5c(F)c(F)c(F)c(F)c5F)c5nc(c(-c6c(F)c(F)c(F)c(F)c6F)c6ccc3[nH]6)C=C5)C=C4)cc2)cc1
REMARK SMILES IDX 23 1 22 2 21 3 20 4 18 5 19 6 7 8 6 9 5 10 1 11 2 12 3 13
REMARK SMILES IDX 94 14 4 15 93 16 8 17 9 18 10 20 11 21 12 22 17 23 13 24
REMARK SMILES IDX 15 25 14 26 16 27 24 28 25 29 26 30 27 31 28 32 29 34 30 35
REMARK SMILES IDX 31 36 92 37 32 38 91 39 33 40 34 41 35 42 85 43 36 44 90 45
REMARK SMILES IDX 84 46 86 47 37 48 89 49 83 50 82 51 38 53 70 54 50 55 69 56
REMARK SMILES IDX 51 57 54 58 68 59 87 60 52 61 53 62 67 64 88 65 55 66 39 67
REMARK SMILES IDX 40 68 48 69 41 70 42 71 46 72 49 73 43 74 44 75 47 76 45 77
REMARK SMILES IDX 71 78 72 79 80 80 73 81 74 82 78 83 81 84 75 85 76 86 79 87
REMARK SMILES IDX 77 88 56 89 57 90 65 91 58 92 59 93 63 94 66 95 60 96 61 97
REMARK SMILES IDX 64 98 62 99
REMARK H PARENT 20 7 8 19 27 33 86 52 54 63
REMARK Flexibility Score: inf
ROOT
ATOM      1  C   UNL A   1      32.794  28.319  27.541  1.00  0.00     0.002 C 
ENDROOT
BRANCH   1   2
ATOM      2  C   UNL A   1      31.618  27.634  26.830  1.00  0.00     0.021 C 
BRANCH   2   3
ATOM      3  C   UNL A   1      31.599  27.599  25.304  1.00  0.00     0.116 C 
BRANCH   3   4
ATOM      4  N   UNL A   1      30.310  27.398  24.682  1.00  0.00    -0.351 N 
ATOM      5  C   UNL A   1      29.869  26.351  23.914  1.00  0.00     0.267 C 
ATOM      6  O   UNL A   1      28.701  26.371  23.520  1.00  0.00    -0.268 OA
ATOM      7  H   UNL A   1      29.653  28.116  24.832  1.00  0.00     0.163 HD
BRANCH   5   8
ATOM      8  C   UNL A   1      30.799  25.212  23.513  1.00  0.00     0.107 C 
ATOM      9  C   UNL A   1      30.732  24.095  24.275  1.00  0.00     0.040 C 
BRANCH   9  10
ATOM     10  C   UNL A   1      31.488  22.806  24.214  1.00  0.00    -0.023 A 
ATOM     11  C   UNL A   1      33.555  18.978  24.344  1.00  0.00     0.044 C 
ATOM     12  C   UNL A   1      32.885  20.319  24.308  1.00  0.00    -0.051 A 
ATOM     13  C   UNL A   1      32.312  20.774  23.122  1.00  0.00     0.004 A 
ATOM     14  C   UNL A   1      32.792  21.127  25.442  1.00  0.00     0.004 A 
ATOM     15  C   UNL A   1      31.655  22.010  23.072  1.00  0.00     0.008 A 
ATOM     16  C   UNL A   1      32.102  22.349  25.394  1.00  0.00     0.008 A 
ENDBRANCH   9  10
BRANCH   8  17
ATOM     17  N   UNL A   1      31.623  25.268  22.421  1.00  0.00    -0.317 N 
ATOM     18  C   UNL A   1      32.975  25.134  22.223  1.00  0.00     0.255 C 
ATOM     19  H   UNL A   1      31.134  25.447  21.586  1.00  0.00     0.170 HD
ATOM     20  O   UNL A   1      33.390  25.343  21.080  1.00  0.00    -0.269 OA
BRANCH  18  21
ATOM     21  C   UNL A   1      33.951  24.765  23.284  1.00  0.00     0.040 A 
ATOM     22  C   UNL A   1      33.948  25.569  24.436  1.00  0.00     0.014 A 
ATOM     23  C   UNL A   1      34.828  23.679  23.223  1.00  0.00     0.017 A 
ATOM     24  C   UNL A   1      34.738  25.242  25.537  1.00  0.00     0.001 A 
ATOM     25  C   UNL A   1      35.594  23.319  24.342  1.00  0.00    -0.050 A 
ATOM     26  C   UNL A   1      35.533  24.103  25.501  1.00  0.00     0.003 A 
ATOM     27  C   UNL A   1      36.433  22.074  24.332  1.00  0.00     0.044 C 
ENDBRANCH  18  21
ENDBRANCH   8  17
ENDBRANCH   5   8
ENDBRANCH   3   4
ENDBRANCH   2   3
ENDBRANCH   1   2
BRANCH   1  28
ATOM     28  C   UNL A   1      33.569  29.432  26.822  1.00  0.00     0.002 C 
BRANCH  28  29
ATOM     29  C   UNL A   1      33.633  30.807  27.482  1.00  0.00     0.021 C 
BRANCH  29  30
ATOM     30  C   UNL A   1      35.013  31.435  27.604  1.00  0.00     0.116 C 
BRANCH  30  31
ATOM     31  N   UNL A   1      35.336  31.883  28.960  1.00  0.00    -0.352 N 
ATOM     32  C   UNL A   1      36.086  31.226  29.928  1.00  0.00     0.251 C 
ATOM     33  H   UNL A   1      34.976  32.761  29.220  1.00  0.00     0.163 HD
ATOM     34  O   UNL A   1      36.348  31.741  30.998  1.00  0.00    -0.269 OA
BRANCH  32  35
ATOM     35  C   UNL A   1      36.660  29.914  29.560  1.00  0.00     0.039 A 
ATOM     36  C   UNL A   1      37.104  29.094  30.600  1.00  0.00     0.014 A 
ATOM     37  C   UNL A   1      37.063  29.696  28.245  1.00  0.00     0.014 A 
ATOM     38  C   UNL A   1      38.173  28.237  30.362  1.00  0.00     0.010 A 
ATOM     39  C   UNL A   1      38.181  28.910  28.030  1.00  0.00     0.010 A 
ATOM     40  C   UNL A   1      38.788  28.255  29.107  1.00  0.00    -0.014 A 
BRANCH  40  41
ATOM     41  C   UNL A   1      40.159  27.787  28.910  1.00  0.00     0.031 A 
ATOM     42  C   UNL A   1      40.448  26.394  28.517  1.00  0.00     0.074 A 
ATOM     43  C   UNL A   1      41.196  28.644  29.066  1.00  0.00     0.049 A 
ATOM     44  N   UNL A   1      41.547  25.787  28.823  1.00  0.00    -0.248 NA
ATOM     45  C   UNL A   1      39.513  25.564  27.768  1.00  0.00     0.031 C 
ATOM     46  C   UNL A   1      42.596  28.406  28.721  1.00  0.00     0.029 A 
ATOM     47  N   UNL A   1      41.218  29.853  29.784  1.00  0.00    -0.354 N 
ATOM     48  C   UNL A   1      41.578  24.609  28.123  1.00  0.00     0.074 A 
ATOM     49  C   UNL A   1      40.268  24.486  27.520  1.00  0.00     0.031 C 
ATOM     50  C   UNL A   1      43.366  29.209  29.470  1.00  0.00     0.029 A 
ATOM     51  C   UNL A   1      42.496  29.911  30.392  1.00  0.00     0.049 A 
ATOM     52  H   UNL A   1      40.496  30.520  29.850  1.00  0.00     0.167 HD
ATOM     53  C   UNL A   1      42.740  23.903  28.028  1.00  0.00     0.037 A 
ATOM     54  C   UNL A   1      42.634  29.945  31.748  1.00  0.00     0.037 A 
ATOM     55  C   UNL A   1      43.841  24.526  28.750  1.00  0.00     0.049 A 
ATOM     56  C   UNL A   1      43.398  28.780  32.342  1.00  0.00     0.074 A 
ATOM     57  C   UNL A   1      44.925  25.308  28.387  1.00  0.00     0.029 A 
ATOM     58  N   UNL A   1      43.762  24.611  30.128  1.00  0.00    -0.354 N 
ATOM     59  N   UNL A   1      43.887  27.788  31.651  1.00  0.00    -0.248 NA
ATOM     60  C   UNL A   1      43.568  28.588  33.784  1.00  0.00     0.031 C 
ATOM     61  C   UNL A   1      45.508  25.844  29.569  1.00  0.00     0.029 A 
ATOM     62  C   UNL A   1      44.775  25.389  30.648  1.00  0.00     0.049 A 
ATOM     63  H   UNL A   1      43.068  24.169  30.670  1.00  0.00     0.167 HD
ATOM     64  C   UNL A   1      44.345  26.822  32.510  1.00  0.00     0.074 A 
ATOM     65  C   UNL A   1      44.134  27.372  33.835  1.00  0.00     0.031 C 
ATOM     66  C   UNL A   1      44.816  25.618  32.079  1.00  0.00     0.037 A 
BRANCH  53  67
ATOM     67  C   UNL A   1      42.892  22.741  27.090  1.00  0.00     0.064 A 
ATOM     68  C   UNL A   1      42.231  21.520  27.324  1.00  0.00     0.173 A 
ATOM     69  C   UNL A   1      43.719  22.775  25.952  1.00  0.00     0.173 A 
ATOM     70  F   UNL A   1      41.364  21.376  28.333  1.00  0.00    -0.203 F 
ATOM     71  C   UNL A   1      42.462  20.389  26.539  1.00  0.00     0.198 A 
ATOM     72  C   UNL A   1      43.993  21.630  25.201  1.00  0.00     0.198 A 
ATOM     73  F   UNL A   1      44.272  23.925  25.539  1.00  0.00    -0.203 F 
ATOM     74  F   UNL A   1      41.813  19.248  26.811  1.00  0.00    -0.200 F 
ATOM     75  C   UNL A   1      43.371  20.433  25.501  1.00  0.00     0.200 A 
ATOM     76  F   UNL A   1      44.875  21.690  24.193  1.00  0.00    -0.200 F 
ATOM     77  F   UNL A   1      43.639  19.331  24.789  1.00  0.00    -0.200 F 
ENDBRANCH  53  67
BRANCH  54  78
ATOM     78  C   UNL A   1      41.529  30.674  32.422  1.00  0.00     0.064 A 
ATOM     79  C   UNL A   1      41.518  32.081  32.355  1.00  0.00     0.173 A 
ATOM     80  C   UNL A   1      40.346  30.033  32.802  1.00  0.00     0.173 A 
ATOM     81  F   UNL A   1      42.627  32.745  31.989  1.00  0.00    -0.203 F 
ATOM     82  C   UNL A   1      40.345  32.805  32.548  1.00  0.00     0.198 A 
ATOM     83  C   UNL A   1      39.177  30.764  33.013  1.00  0.00     0.198 A 
ATOM     84  F   UNL A   1      40.287  28.696  32.859  1.00  0.00    -0.203 F 
ATOM     85  F   UNL A   1      40.341  34.133  32.362  1.00  0.00    -0.200 F 
ATOM     86  C   UNL A   1      39.168  32.142  32.852  1.00  0.00     0.200 A 
ATOM     87  F   UNL A   1      38.033  30.120  33.284  1.00  0.00    -0.200 F 
ATOM     88  F   UNL A   1      38.020  32.825  32.950  1.00  0.00    -0.200 F 
ENDBRANCH  54  78
BRANCH  66  89
ATOM     89  C   UNL A   1      45.343  24.545  32.990  1.00  0.00     0.064 A 
ATOM     90  C   UNL A   1      44.558  23.459  33.406  1.00  0.00     0.173 A 
ATOM     91  C   UNL A   1      46.624  24.644  33.574  1.00  0.00     0.173 A 
ATOM     92  F   UNL A   1      43.301  23.311  32.961  1.00  0.00    -0.203 F 
ATOM     93  C   UNL A   1      45.040  22.510  34.310  1.00  0.00     0.198 A 
ATOM     94  C   UNL A   1      47.084  23.724  34.515  1.00  0.00     0.198 A 
ATOM     95  F   UNL A   1      47.476  25.622  33.233  1.00  0.00    -0.203 F 
ATOM     96  F   UNL A   1      44.276  21.459  34.642  1.00  0.00    -0.200 F 
ATOM     97  C   UNL A   1      46.296  22.649  34.873  1.00  0.00     0.200 A 
ATOM     98  F   UNL A   1      48.294  23.887  35.067  1.00  0.00    -0.200 F 
ATOM     99  F   UNL A   1      46.749  21.750  35.757  1.00  0.00    -0.200 F 
ENDBRANCH  66  89
ENDBRANCH  40  41
ENDBRANCH  32  35
ENDBRANCH  30  31
ENDBRANCH  29  30
ENDBRANCH  28  29
ENDBRANCH   1  28
TORSDOF 16
ENDMDL
MODEL 2
REMARK VINA RESULT:     -13.7      0.927      2.309
REMARK SMILES Cc1ccc(/C=C(\NC(=O)c2cccc(C)c2)C(=O)NCCCCCCNC(=O)c2ccc(-c3c4nc(c(-c5c(F)c(F)c(F)c(F)c5F)c5ccc([nH]5)c(-c5c(F)c(F)c(F)c(F)c5F)c5nc(c(-c6c(F)c(F)c(F)c(F)c6F)c6ccc3[nH]6)C=C5)C=C4)cc2)cc1
REMARK SMILES IDX 23 1 22 2 21 3 20 4 18 5 19 6 7 8 6 9 5 10 1 11 2 12 3 13
REMARK SMILES IDX 94 14 4 15 93 16 8 17 9 18 10 20 11 21 12 22 17 23 13 24
REMARK SMILES IDX 15 25 14 26 16 27 24 28 25 29 26 30 27 31 28 32 29 34 30 35
REMARK SMILES IDX 31 36 92 37 32 38 91 39 33 40 34 41 35 42 85 43 36 44 90 45
REMARK SMILES IDX 84 46 86 47 37 48 89 49 83 50 82 51 38 53 70 54 50 55 69 56
REMARK SMILES IDX 51 57 54 58 68 59 87 60 52 61 53 62 67 64 88 65 55 66 39 67
REMARK SMILES IDX 40 68 48 69 41 70 42 71 46 72 49 73 43 74 44 75 47 76 45 77
REMARK SMILES IDX 71 78 72 79 80 80 73 81 74 82 78 83 81 84 75 85 76 86 79 87
REMARK SMILES IDX 77 88 56 89 57 90 65 91 58 92 59 93 63 94 66 95 60 96 61 97
REMARK SMILES IDX 64 98 62 99
REMARK H PARENT 20 7 8 19 27 33 86 52 54 63
REMARK Flexibility Score: inf
ROOT
ATOM      1  C   UNL A   1      34.114  28.891  26.068  1.00  0.00     0.002 C 
ENDROOT
BRANCH   1   2
ATOM      2  C   UNL A   1      33.285  29.308  24.845  1.00  0.00     0.021 C 
BRANCH   2   3
ATOM      3  C   UNL A   1      31.780  29.048  24.852  1.00  0.00     0.116 C 
BRANCH   3   4
ATOM      4  N   UNL A   1      31.235  28.397  23.682  1.00  0.00    -0.351 N 
ATOM      5  C   UNL A   1      31.300  27.078  23.313  1.00  0.00     0.267 C 
ATOM      6  O   UNL A   1      30.719  26.735  22.281  1.00  0.00    -0.268 OA
ATOM      7  H   UNL A   1      30.747  28.985  23.061  1.00  0.00     0.163 HD
BRANCH   5   8
ATOM      8  C   UNL A   1      32.103  26.065  24.119  1.00  0.00     0.107 C 
ATOM      9  C   UNL A   1      33.340  25.778  23.648  1.00  0.00     0.040 C 
BRANCH   9  10
ATOM     10  C   UNL A   1      34.394  24.837  24.136  1.00  0.00    -0.023 A 
ATOM     11  C   UNL A   1      37.610  22.123  25.249  1.00  0.00     0.044 C 
ATOM     12  C   UNL A   1      36.472  23.020  24.863  1.00  0.00    -0.051 A 
ATOM     13  C   UNL A   1      36.003  23.970  25.769  1.00  0.00     0.004 A 
ATOM     14  C   UNL A   1      35.875  22.953  23.604  1.00  0.00     0.004 A 
ATOM     15  C   UNL A   1      34.961  24.838  25.419  1.00  0.00     0.008 A 
ATOM     16  C   UNL A   1      34.855  23.849  23.248  1.00  0.00     0.008 A 
ENDBRANCH   9  10
BRANCH   8  17
ATOM     17  N   UNL A   1      31.648  25.502  25.281  1.00  0.00    -0.317 N 
ATOM     18  C   UNL A   1      31.418  24.217  25.707  1.00  0.00     0.255 C 
ATOM     19  H   UNL A   1      31.435  26.173  25.969  1.00  0.00     0.170 HD
ATOM     20  O   UNL A   1      30.904  24.088  26.822  1.00  0.00    -0.269 OA
BRANCH  18  21
ATOM     21  C   UNL A   1      31.740  22.995  24.920  1.00  0.00     0.040 A 
ATOM     22  C   UNL A   1      31.233  22.950  23.611  1.00  0.00     0.014 A 
ATOM     23  C   UNL A   1      32.521  21.931  25.378  1.00  0.00     0.017 A 
ATOM     24  C   UNL A   1      31.573  21.909  22.750  1.00  0.00     0.001 A 
ATOM     25  C   UNL A   1      32.901  20.901  24.504  1.00  0.00    -0.050 A 
ATOM     26  C   UNL A   1      32.430  20.906  23.185  1.00  0.00     0.003 A 
ATOM     27  C   UNL A   1      33.852  19.828  24.948  1.00  0.00     0.044 C 
ENDBRANCH  18  21
ENDBRANCH   8  17
ENDBRANCH   5   8
ENDBRANCH   3   4
ENDBRANCH   2   3
ENDBRANCH   1   2
BRANCH   1  28
ATOM     28  C   UNL A   1      33.719  29.399  27.461  1.00  0.00     0.002 C 
BRANCH  28  29
ATOM     29  C   UNL A   1      33.676  30.908  27.691  1.00  0.00     0.021 C 
BRANCH  29  30
ATOM     30  C   UNL A   1      35.011  31.635  27.664  1.00  0.00     0.116 C 
BRANCH  30  31
ATOM     31  N   UNL A   1      35.496  32.022  28.990  1.00  0.00    -0.352 N 
ATOM     32  C   UNL A   1      36.364  31.330  29.825  1.00  0.00     0.251 C 
ATOM     33  H   UNL A   1      35.164  32.883  29.335  1.00  0.00     0.163 HD
ATOM     34  O   UNL A   1      36.752  31.797  30.879  1.00  0.00    -0.269 OA
BRANCH  32  35
ATOM     35  C   UNL A   1      36.898  30.044  29.326  1.00  0.00     0.039 A 
ATOM     36  C   UNL A   1      37.213  29.070  30.275  1.00  0.00     0.014 A 
ATOM     37  C   UNL A   1      37.394  29.976  28.027  1.00  0.00     0.014 A 
ATOM     38  C   UNL A   1      38.252  28.186  30.003  1.00  0.00     0.010 A 
ATOM     39  C   UNL A   1      38.483  29.158  27.790  1.00  0.00     0.010 A 
ATOM     40  C   UNL A   1      38.967  28.330  28.810  1.00  0.00    -0.014 A 
BRANCH  40  41
ATOM     41  C   UNL A   1      40.323  27.809  28.652  1.00  0.00     0.031 A 
ATOM     42  C   UNL A   1      40.569  26.393  28.316  1.00  0.00     0.074 A 
ATOM     43  C   UNL A   1      41.387  28.635  28.792  1.00  0.00     0.049 A 
ATOM     44  N   UNL A   1      41.641  25.760  28.662  1.00  0.00    -0.248 NA
ATOM     45  C   UNL A   1      39.617  25.567  27.585  1.00  0.00     0.031 C 
ATOM     46  C   UNL A   1      42.783  28.336  28.478  1.00  0.00     0.029 A 
ATOM     47  N   UNL A   1      41.441  29.869  29.464  1.00  0.00    -0.354 N 
ATOM     48  C   UNL A   1      41.642  24.556  28.008  1.00  0.00     0.074 A 
ATOM     49  C   UNL A   1      40.337  24.456  27.390  1.00  0.00     0.031 C 
ATOM     50  C   UNL A   1      43.570  29.140  29.208  1.00  0.00     0.029 A 
ATOM     51  C   UNL A   1      42.712  29.907  30.089  1.00  0.00     0.049 A 
ATOM     52  H   UNL A   1      40.742  30.563  29.493  1.00  0.00     0.167 HD
ATOM     53  C   UNL A   1      42.779  23.807  27.958  1.00  0.00     0.037 A 
ATOM     54  C   UNL A   1      42.831  29.987  31.445  1.00  0.00     0.037 A 
ATOM     55  C   UNL A   1      43.891  24.419  28.673  1.00  0.00     0.049 A 
ATOM     56  C   UNL A   1      43.546  28.820  32.094  1.00  0.00     0.074 A 
ATOM     57  C   UNL A   1      45.007  25.150  28.297  1.00  0.00     0.029 A 
ATOM     58  N   UNL A   1      43.795  24.560  30.045  1.00  0.00    -0.354 N 
ATOM     59  N   UNL A   1      44.009  27.786  31.449  1.00  0.00    -0.248 NA
ATOM     60  C   UNL A   1      43.689  28.679  33.545  1.00  0.00     0.031 C 
ATOM     61  C   UNL A   1      45.591  25.710  29.467  1.00  0.00     0.029 A 
ATOM     62  C   UNL A   1      44.827  25.322  30.551  1.00  0.00     0.049 A 
ATOM     63  H   UNL A   1      43.079  24.164  30.592  1.00  0.00     0.167 HD
ATOM     64  C   UNL A   1      44.422  26.840  32.351  1.00  0.00     0.074 A 
ATOM     65  C   UNL A   1      44.210  27.446  33.651  1.00  0.00     0.031 C 
ATOM     66  C   UNL A   1      44.856  25.604  31.973  1.00  0.00     0.037 A 
BRANCH  53  67
ATOM     67  C   UNL A   1      42.904  22.606  27.067  1.00  0.00     0.064 A 
ATOM     68  C   UNL A   1      42.175  21.428  27.320  1.00  0.00     0.173 A 
ATOM     69  C   UNL A   1      43.769  22.558  25.959  1.00  0.00     0.173 A 
ATOM     70  F   UNL A   1      41.268  21.364  28.302  1.00  0.00    -0.203 F 
ATOM     71  C   UNL A   1      42.375  20.259  26.583  1.00  0.00     0.198 A 
ATOM     72  C   UNL A   1      44.011  21.374  25.258  1.00  0.00     0.198 A 
ATOM     73  F   UNL A   1      44.393  23.664  25.526  1.00  0.00    -0.203 F 
ATOM     74  F   UNL A   1      41.661  19.162  26.871  1.00  0.00    -0.200 F 
ATOM     75  C   UNL A   1      43.319  20.221  25.577  1.00  0.00     0.200 A 
ATOM     76  F   UNL A   1      44.928  21.354  24.280  1.00  0.00    -0.200 F 
ATOM     77  F   UNL A   1      43.556  19.082  24.913  1.00  0.00    -0.200 F 
ENDBRANCH  53  67
BRANCH  54  78
ATOM     78  C   UNL A   1      41.743  30.779  32.073  1.00  0.00     0.064 A 
ATOM     79  C   UNL A   1      40.645  30.089  32.624  1.00  0.00     0.173 A 
ATOM     80  C   UNL A   1      41.924  32.114  32.447  1.00  0.00     0.173 A 
ATOM     81  F   UNL A   1      40.430  28.803  32.301  1.00  0.00    -0.203 F 
ATOM     82  C   UNL A   1      39.835  30.675  33.593  1.00  0.00     0.198 A 
ATOM     83  C   UNL A   1      41.098  32.704  33.405  1.00  0.00     0.198 A 
ATOM     84  F   UNL A   1      42.964  32.816  31.977  1.00  0.00    -0.203 F 
ATOM     85  F   UNL A   1      38.871  29.953  34.183  1.00  0.00    -0.200 F 
ATOM     86  C   UNL A   1      40.079  31.975  34.001  1.00  0.00     0.200 A 
ATOM     87  F   UNL A   1      41.349  33.954  33.816  1.00  0.00    -0.200 F 
ATOM     88  F   UNL A   1      39.359  32.512  34.996  1.00  0.00    -0.200 F 
ENDBRANCH  54  78
BRANCH  66  89
ATOM     89  C   UNL A   1      45.332  24.549  32.932  1.00  0.00     0.064 A 
ATOM     90  C   UNL A   1      44.543  23.444  33.287  1.00  0.00     0.173 A 
ATOM     91  C   UNL A   1      46.557  24.684  33.621  1.00  0.00     0.173 A 
ATOM     92  F   UNL A   1      43.332  23.261  32.739  1.00  0.00    -0.203 F 
ATOM     93  C   UNL A   1      44.972  22.512  34.235  1.00  0.00     0.198 A 
ATOM     94  C   UNL A   1      46.959  23.782  34.604  1.00  0.00     0.198 A 
ATOM     95  F   UNL A   1      47.408  25.684  33.347  1.00  0.00    -0.203 F 
ATOM     96  F   UNL A   1      44.211  21.443  34.508  1.00  0.00    -0.200 F 
ATOM     97  C   UNL A   1      46.173  22.687  34.901  1.00  0.00     0.200 A 
ATOM     98  F   UNL A   1      48.113  23.979  35.255  1.00  0.00    -0.200 F 
ATOM     99  F   UNL A   1      46.572  21.804  35.825  1.00  0.00    -0.200 F 
ENDBRANCH  66  89
ENDBRANCH  40  41
ENDBRANCH  32  35
ENDBRANCH  30  31
ENDBRANCH  29  30
ENDBRANCH  28  29
ENDBRANCH   1  28
TORSDOF 16
ENDMDL
MODEL 3
REMARK VINA RESULT:     -13.6      1.395      2.634
REMARK SMILES Cc1ccc(/C=C(\NC(=O)c2cccc(C)c2)C(=O)NCCCCCCNC(=O)c2ccc(-c3c4nc(c(-c5c(F)c(F)c(F)c(F)c5F)c5ccc([nH]5)c(-c5c(F)c(F)c(F)c(F)c5F)c5nc(c(-c6c(F)c(F)c(F)c(F)c6F)c6ccc3[nH]6)C=C5)C=C4)cc2)cc1
REMARK SMILES IDX 23 1 22 2 21 3 20 4 18 5 19 6 7 8 6 9 5 10 1 11 2 12 3 13
REMARK SMILES IDX 94 14 4 15 93 16 8 17 9 18 10 20 11 21 12 22 17 23 13 24
REMARK SMILES IDX 15 25 14 26 16 27 24 28 25 29 26 30 27 31 28 32 29 34 30 35
REMARK SMILES IDX 31 36 92 37 32 38 91 39 33 40 34 41 35 42 85 43 36 44 90 45
REMARK SMILES IDX 84 46 86 47 37 48 89 49 83 50 82 51 38 53 70 54 50 55 69 56
REMARK SMILES IDX 51 57 54 58 68 59 87 60 52 61 53 62 67 64 88 65 55 66 39 67
REMARK SMILES IDX 40 68 48 69 41 70 42 71 46 72 49 73 43 74 44 75 47 76 45 77
REMARK SMILES IDX 71 78 72 79 80 80 73 81 74 82 78 83 81 84 75 85 76 86 79 87
REMARK SMILES IDX 77 88 56 89 57 90 65 91 58 92 59 93 63 94 66 95 60 96 61 97
REMARK SMILES IDX 64 98 62 99
REMARK H PARENT 20 7 8 19 27 33 86 52 54 63
REMARK Flexibility Score: inf
ROOT
ATOM      1  C   UNL A   1      32.069  28.582  27.147  1.00  0.00     0.002 C 
ENDROOT
BRANCH   1   2
ATOM      2  C   UNL A   1      31.289  27.384  26.584  1.00  0.00     0.021 C 
BRANCH   2   3
ATOM      3  C   UNL A   1      31.960  26.012  26.567  1.00  0.00     0.116 C 
BRANCH   3   4
ATOM      4  N   UNL A   1      31.100  24.882  26.300  1.00  0.00    -0.351 N 
ATOM      5  C   UNL A   1      31.408  23.670  25.735  1.00  0.00     0.267 C 
ATOM      6  O   UNL A   1      30.512  22.829  25.642  1.00  0.00    -0.268 OA
ATOM      7  H   UNL A   1      30.157  24.997  26.561  1.00  0.00     0.163 HD
BRANCH   5   8
ATOM      8  C   UNL A   1      32.800  23.378  25.189  1.00  0.00     0.107 C 
ATOM      9  C   UNL A   1      33.745  23.068  26.109  1.00  0.00     0.040 C 
BRANCH   9  10
ATOM     10  C   UNL A   1      35.200  22.752  25.968  1.00  0.00    -0.023 A 
ATOM     11  C   UNL A   1      39.491  22.044  25.826  1.00  0.00     0.044 C 
ATOM     12  C   UNL A   1      38.017  22.315  25.835  1.00  0.00    -0.051 A 
ATOM     13  C   UNL A   1      37.120  21.266  25.642  1.00  0.00     0.004 A 
ATOM     14  C   UNL A   1      37.504  23.593  26.058  1.00  0.00     0.004 A 
ATOM     15  C   UNL A   1      35.738  21.491  25.676  1.00  0.00     0.008 A 
ATOM     16  C   UNL A   1      36.118  23.805  26.126  1.00  0.00     0.008 A 
ENDBRANCH   9  10
BRANCH   8  17
ATOM     17  N   UNL A   1      33.094  23.371  23.852  1.00  0.00    -0.317 N 
ATOM     18  C   UNL A   1      33.073  24.312  22.853  1.00  0.00     0.255 C 
ATOM     19  H   UNL A   1      33.388  22.487  23.534  1.00  0.00     0.170 HD
ATOM     20  O   UNL A   1      33.323  23.913  21.712  1.00  0.00    -0.269 OA
BRANCH  18  21
ATOM     21  C   UNL A   1      32.766  25.754  23.056  1.00  0.00     0.040 A 
ATOM     22  C   UNL A   1      33.844  26.569  23.437  1.00  0.00     0.014 A 
ATOM     23  C   UNL A   1      31.511  26.340  22.867  1.00  0.00     0.017 A 
ATOM     24  C   UNL A   1      33.693  27.950  23.540  1.00  0.00     0.001 A 
ATOM     25  C   UNL A   1      31.361  27.734  22.927  1.00  0.00    -0.050 A 
ATOM     26  C   UNL A   1      32.463  28.533  23.254  1.00  0.00     0.003 A 
ATOM     27  C   UNL A   1      30.050  28.381  22.590  1.00  0.00     0.044 C 
ENDBRANCH  18  21
ENDBRANCH   8  17
ENDBRANCH   5   8
ENDBRANCH   3   4
ENDBRANCH   2   3
ENDBRANCH   1   2
BRANCH   1  28
ATOM     28  C   UNL A   1      31.802  29.988  26.591  1.00  0.00     0.002 C 
BRANCH  28  29
ATOM     29  C   UNL A   1      32.544  31.164  27.222  1.00  0.00     0.021 C 
BRANCH  29  30
ATOM     30  C   UNL A   1      34.027  30.964  27.489  1.00  0.00     0.116 C 
BRANCH  30  31
ATOM     31  N   UNL A   1      34.522  31.712  28.646  1.00  0.00    -0.352 N 
ATOM     32  C   UNL A   1      35.569  31.387  29.498  1.00  0.00     0.251 C 
ATOM     33  H   UNL A   1      34.052  32.554  28.846  1.00  0.00     0.163 HD
ATOM     34  O   UNL A   1      35.933  32.135  30.386  1.00  0.00    -0.269 OA
BRANCH  32  35
ATOM     35  C   UNL A   1      36.310  30.139  29.210  1.00  0.00     0.039 A 
ATOM     36  C   UNL A   1      36.761  29.395  30.302  1.00  0.00     0.014 A 
ATOM     37  C   UNL A   1      36.832  29.942  27.935  1.00  0.00     0.014 A 
ATOM     38  C   UNL A   1      37.932  28.658  30.167  1.00  0.00     0.010 A 
ATOM     39  C   UNL A   1      38.042  29.281  27.823  1.00  0.00     0.010 A 
ATOM     40  C   UNL A   1      38.635  28.719  28.960  1.00  0.00    -0.014 A 
BRANCH  40  41
ATOM     41  C   UNL A   1      40.059  28.402  28.876  1.00  0.00     0.031 A 
ATOM     42  C   UNL A   1      40.529  27.089  28.396  1.00  0.00     0.074 A 
ATOM     43  C   UNL A   1      40.981  29.333  29.223  1.00  0.00     0.049 A 
ATOM     44  N   UNL A   1      41.648  26.559  28.767  1.00  0.00    -0.248 NA
ATOM     45  C   UNL A   1      39.767  26.254  27.476  1.00  0.00     0.031 C 
ATOM     46  C   UNL A   1      42.426  29.262  29.017  1.00  0.00     0.029 A 
ATOM     47  N   UNL A   1      40.805  30.461  30.044  1.00  0.00    -0.354 N 
ATOM     48  C   UNL A   1      41.872  25.465  27.973  1.00  0.00     0.074 A 
ATOM     49  C   UNL A   1      40.650  25.282  27.219  1.00  0.00     0.031 C 
ATOM     50  C   UNL A   1      43.029  30.054  29.916  1.00  0.00     0.029 A 
ATOM     51  C   UNL A   1      42.001  30.576  30.794  1.00  0.00     0.049 A 
ATOM     52  H   UNL A   1      40.015  31.048  30.088  1.00  0.00     0.167 HD
ATOM     53  C   UNL A   1      43.104  24.883  27.946  1.00  0.00     0.037 A 
ATOM     54  C   UNL A   1      41.995  30.487  32.154  1.00  0.00     0.037 A 
ATOM     55  C   UNL A   1      44.056  25.530  28.839  1.00  0.00     0.049 A 
ATOM     56  C   UNL A   1      42.811  29.345  32.723  1.00  0.00     0.074 A 
ATOM     57  C   UNL A   1      45.084  26.443  28.670  1.00  0.00     0.029 A 
ATOM     58  N   UNL A   1      43.827  25.470  30.201  1.00  0.00    -0.354 N 
ATOM     59  N   UNL A   1      43.467  28.476  32.006  1.00  0.00    -0.248 NA
ATOM     60  C   UNL A   1      42.851  29.027  34.153  1.00  0.00     0.031 C 
ATOM     61  C   UNL A   1      45.485  26.910  29.953  1.00  0.00     0.029 A 
ATOM     62  C   UNL A   1      44.696  26.283  30.898  1.00  0.00     0.049 A 
ATOM     63  H   UNL A   1      43.131  24.914  30.620  1.00  0.00     0.167 HD
ATOM     64  C   UNL A   1      43.932  27.477  32.821  1.00  0.00     0.074 A 
ATOM     65  C   UNL A   1      43.531  27.870  34.158  1.00  0.00     0.031 C 
ATOM     66  C   UNL A   1      44.567  26.371  32.340  1.00  0.00     0.037 A 
BRANCH  53  67
ATOM     67  C   UNL A   1      43.471  23.840  26.930  1.00  0.00     0.064 A 
ATOM     68  C   UNL A   1      43.023  22.510  27.053  1.00  0.00     0.173 A 
ATOM     69  C   UNL A   1      44.302  24.101  25.826  1.00  0.00     0.173 A 
ATOM     70  F   UNL A   1      42.173  22.144  28.020  1.00  0.00    -0.203 F 
ATOM     71  C   UNL A   1      43.459  21.498  26.195  1.00  0.00     0.198 A 
ATOM     72  C   UNL A   1      44.783  23.080  25.002  1.00  0.00     0.198 A 
ATOM     73  F   UNL A   1      44.659  25.356  25.516  1.00  0.00    -0.203 F 
ATOM     74  F   UNL A   1      43.009  20.247  26.361  1.00  0.00    -0.200 F 
ATOM     75  C   UNL A   1      44.367  21.776  25.194  1.00  0.00     0.200 A 
ATOM     76  F   UNL A   1      45.661  23.366  24.031  1.00  0.00    -0.200 F 
ATOM     77  F   UNL A   1      44.834  20.794  24.411  1.00  0.00    -0.200 F 
ENDBRANCH  53  67
BRANCH  54  78
ATOM     78  C   UNL A   1      40.757  31.040  32.763  1.00  0.00     0.064 A 
ATOM     79  C   UNL A   1      40.578  32.437  32.762  1.00  0.00     0.173 A 
ATOM     80  C   UNL A   1      39.636  30.241  33.007  1.00  0.00     0.173 A 
ATOM     81  F   UNL A   1      41.623  33.248  32.526  1.00  0.00    -0.203 F 
ATOM     82  C   UNL A   1      39.313  33.003  32.885  1.00  0.00     0.198 A 
ATOM     83  C   UNL A   1      38.372  30.814  33.150  1.00  0.00     0.198 A 
ATOM     84  F   UNL A   1      39.738  28.905  32.996  1.00  0.00    -0.203 F 
ATOM     85  F   UNL A   1      39.159  34.330  32.763  1.00  0.00    -0.200 F 
ATOM     86  C   UNL A   1      38.206  32.188  33.054  1.00  0.00     0.200 A 
ATOM     87  F   UNL A   1      37.299  30.024  33.290  1.00  0.00    -0.200 F 
ATOM     88  F   UNL A   1      36.978  32.723  33.084  1.00  0.00    -0.200 F 
ENDBRANCH  54  78
BRANCH  66  89
ATOM     89  C   UNL A   1      45.106  25.266  33.204  1.00  0.00     0.064 A 
ATOM     90  C   UNL A   1      46.480  25.011  33.328  1.00  0.00     0.173 A 
ATOM     91  C   UNL A   1      44.244  24.347  33.841  1.00  0.00     0.173 A 
ATOM     92  F   UNL A   1      47.381  25.786  32.705  1.00  0.00    -0.203 F 
ATOM     93  C   UNL A   1      46.961  23.935  34.078  1.00  0.00     0.198 A 
ATOM     94  C   UNL A   1      44.725  23.245  34.545  1.00  0.00     0.198 A 
ATOM     95  F   UNL A   1      42.913  24.504  33.818  1.00  0.00    -0.203 F 
ATOM     96  F   UNL A   1      48.282  23.756  34.213  1.00  0.00    -0.200 F 
ATOM     97  C   UNL A   1      46.084  23.046  34.676  1.00  0.00     0.200 A 
ATOM     98  F   UNL A   1      43.861  22.382  35.098  1.00  0.00    -0.200 F 
ATOM     99  F   UNL A   1      46.547  22.002  35.376  1.00  0.00    -0.200 F 
ENDBRANCH  66  89
ENDBRANCH  40  41
ENDBRANCH  32  35
ENDBRANCH  30  31
ENDBRANCH  29  30
ENDBRANCH  28  29
ENDBRANCH   1  28
TORSDOF 16
ENDMDL
