MODEL 1
REMARK VINA RESULT:     -11.7      0.000      0.000
REMARK SMILES C[C@H](CNC(=O)N1C[C@H]2CCCC[N@@H+]2C[C@@H]1C)C(=O)NCCCCCCNC(=O)c1ccc(-c2c3nc(c(-c4c(F)c(F)c(F)c(F)c4F)c4ccc([nH]4)c(-c4c(F)c(F)c(F)c(F)c4F)c4nc(c(-c5c(F)c(F)c(F)c(F)c5F)c5ccc2[nH]5)C=C4)C=C3)cc1
REMARK SMILES IDX 23 1 22 2 21 3 20 4 18 5 19 6 2 8 1 9 3 10 4 11 5 12 6 14
REMARK SMILES IDX 7 15 8 16 16 17 9 18 15 19 17 20 10 21 14 22 11 23 13 24
REMARK SMILES IDX 12 26 24 27 25 28 26 29 27 30 28 31 29 33 30 34 31 35 92 36
REMARK SMILES IDX 32 37 91 38 33 39 34 40 35 41 85 42 36 43 90 44 84 45 86 46
REMARK SMILES IDX 37 47 89 48 83 49 82 50 38 52 70 53 50 54 69 55 51 56 54 57
REMARK SMILES IDX 68 58 87 59 52 60 53 61 67 63 88 64 55 65 39 66 40 67 48 68
REMARK SMILES IDX 41 69 42 70 46 71 49 72 43 73 44 74 47 75 45 76 71 77 72 78
REMARK SMILES IDX 80 79 73 80 74 81 78 82 81 83 75 84 76 85 79 86 77 87 56 88
REMARK SMILES IDX 57 89 65 90 58 91 59 92 63 93 66 94 60 95 61 96 64 97 62 98
REMARK H PARENT 20 7 4 13 14 25 27 32 86 51 54 62
REMARK Flexibility Score: inf
ROOT
ATOM      1  C   UNL A   1      34.375  32.652  28.874  1.00  0.00     0.002 C 
ENDROOT
BRANCH   1   2
ATOM      2  C   UNL A   1      34.727  31.637  27.779  1.00  0.00     0.021 C 
BRANCH   2   3
ATOM      3  C   UNL A   1      33.742  30.474  27.668  1.00  0.00     0.116 C 
BRANCH   3   4
ATOM      4  N   UNL A   1      33.146  30.407  26.346  1.00  0.00    -0.356 N 
ATOM      5  C   UNL A   1      32.663  29.358  25.627  1.00  0.00     0.224 C 
ATOM      6  O   UNL A   1      32.239  29.597  24.493  1.00  0.00    -0.275 OA
ATOM      7  H   UNL A   1      33.082  31.277  25.888  1.00  0.00     0.163 HD
BRANCH   5   8
ATOM      8  C   UNL A   1      32.637  27.938  26.178  1.00  0.00     0.094 C 
ATOM      9  C   UNL A   1      34.022  27.298  26.135  1.00  0.00     0.020 C 
BRANCH   8  10
ATOM     10  C   UNL A   1      31.504  27.140  25.527  1.00  0.00     0.130 C 
BRANCH  10  11
ATOM     11  N   UNL A   1      30.911  26.142  26.403  1.00  0.00    -0.337 N 
ATOM     12  C   UNL A   1      31.034  24.789  26.396  1.00  0.00     0.318 C 
ATOM     13  H   UNL A   1      30.332  26.503  27.111  1.00  0.00     0.165 HD
ATOM     14  O   UNL A   1      30.216  24.133  27.037  1.00  0.00    -0.249 OA
BRANCH  12  15
ATOM     15  N   UNL A   1      32.024  24.236  25.627  1.00  0.00    -0.311 N 
ATOM     16  C   UNL A   1      33.264  23.785  26.265  1.00  0.00     0.186 C 
ATOM     17  C   UNL A   1      31.683  23.484  24.404  1.00  0.00     0.139 C 
ATOM     18  C   UNL A   1      34.437  23.891  25.280  1.00  0.00     0.203 C 
ATOM     19  C   UNL A   1      32.931  23.256  23.486  1.00  0.00     0.287 C 
ATOM     20  C   UNL A   1      30.623  24.200  23.550  1.00  0.00     0.037 C 
ATOM     21  C   UNL A   1      35.765  23.592  25.988  1.00  0.00     0.067 C 
ATOM     22  N   UNL A   1      34.222  22.958  24.151  1.00  0.00    -0.329 N 
ATOM     23  C   UNL A   1      36.930  23.685  25.008  1.00  0.00     0.012 C 
ATOM     24  C   UNL A   1      35.315  23.064  23.169  1.00  0.00     0.262 C 
ATOM     25  H   UNL A   1      34.205  22.009  24.522  1.00  0.00     0.348 HD
ATOM     26  C   UNL A   1      36.682  22.793  23.798  1.00  0.00     0.062 C 
ENDBRANCH  12  15
ENDBRANCH  10  11
ENDBRANCH   8  10
ENDBRANCH   5   8
ENDBRANCH   3   4
ENDBRANCH   2   3
ENDBRANCH   1   2
BRANCH   1  27
ATOM     27  C   UNL A   1      34.263  34.106  28.402  1.00  0.00     0.002 C 
BRANCH  27  28
ATOM     28  C   UNL A   1      32.993  34.839  28.840  1.00  0.00     0.021 C 
BRANCH  28  29
ATOM     29  C   UNL A   1      33.234  36.206  29.471  1.00  0.00     0.116 C 
BRANCH  29  30
ATOM     30  N   UNL A   1      32.397  36.424  30.640  1.00  0.00    -0.352 N 
ATOM     31  C   UNL A   1      32.511  35.892  31.896  1.00  0.00     0.251 C 
ATOM     32  H   UNL A   1      31.641  37.041  30.510  1.00  0.00     0.163 HD
ATOM     33  O   UNL A   1      31.600  36.040  32.713  1.00  0.00    -0.269 OA
BRANCH  31  34
ATOM     34  C   UNL A   1      33.717  35.128  32.275  1.00  0.00     0.039 A 
ATOM     35  C   UNL A   1      33.566  33.825  32.757  1.00  0.00     0.014 A 
ATOM     36  C   UNL A   1      34.989  35.702  32.190  1.00  0.00     0.014 A 
ATOM     37  C   UNL A   1      34.693  33.083  33.115  1.00  0.00     0.010 A 
ATOM     38  C   UNL A   1      36.116  34.938  32.484  1.00  0.00     0.010 A 
ATOM     39  C   UNL A   1      35.978  33.626  32.963  1.00  0.00    -0.014 A 
BRANCH  39  40
ATOM     40  C   UNL A   1      37.189  32.855  33.341  1.00  0.00     0.031 A 
ATOM     41  C   UNL A   1      37.895  33.159  34.635  1.00  0.00     0.074 A 
ATOM     42  C   UNL A   1      37.679  31.919  32.506  1.00  0.00     0.049 A 
ATOM     43  N   UNL A   1      39.012  32.666  35.108  1.00  0.00    -0.248 NA
ATOM     44  C   UNL A   1      37.274  34.173  35.504  1.00  0.00     0.031 C 
ATOM     45  C   UNL A   1      37.107  31.559  31.209  1.00  0.00     0.029 A 
ATOM     46  N   UNL A   1      38.781  31.109  32.620  1.00  0.00    -0.354 N 
ATOM     47  C   UNL A   1      39.230  33.313  36.317  1.00  0.00     0.074 A 
ATOM     48  C   UNL A   1      38.162  34.276  36.481  1.00  0.00     0.031 C 
ATOM     49  C   UNL A   1      37.855  30.593  30.652  1.00  0.00     0.029 A 
ATOM     50  C   UNL A   1      38.977  30.290  31.535  1.00  0.00     0.049 A 
ATOM     51  H   UNL A   1      39.377  31.115  33.404  1.00  0.00     0.167 HD
ATOM     52  C   UNL A   1      40.214  33.103  37.223  1.00  0.00     0.037 A 
ATOM     53  C   UNL A   1      39.956  29.401  31.280  1.00  0.00     0.037 A 
ATOM     54  C   UNL A   1      41.261  32.128  37.070  1.00  0.00     0.049 A 
ATOM     55  C   UNL A   1      41.038  29.188  32.307  1.00  0.00     0.074 A 
ATOM     56  C   UNL A   1      42.297  31.828  37.937  1.00  0.00     0.029 A 
ATOM     57  N   UNL A   1      41.397  31.285  35.977  1.00  0.00    -0.354 N 
ATOM     58  N   UNL A   1      41.210  29.779  33.465  1.00  0.00    -0.248 NA
ATOM     59  C   UNL A   1      42.056  28.174  31.997  1.00  0.00     0.031 C 
ATOM     60  C   UNL A   1      43.076  30.823  37.357  1.00  0.00     0.029 A 
ATOM     61  C   UNL A   1      42.500  30.465  36.150  1.00  0.00     0.049 A 
ATOM     62  H   UNL A   1      40.799  31.272  35.195  1.00  0.00     0.167 HD
ATOM     63  C   UNL A   1      42.327  29.183  34.035  1.00  0.00     0.074 A 
ATOM     64  C   UNL A   1      42.786  28.176  33.102  1.00  0.00     0.031 C 
ATOM     65  C   UNL A   1      42.921  29.447  35.224  1.00  0.00     0.037 A 
BRANCH  52  66
ATOM     66  C   UNL A   1      40.194  33.931  38.475  1.00  0.00     0.064 A 
ATOM     67  C   UNL A   1      40.839  35.176  38.536  1.00  0.00     0.173 A 
ATOM     68  C   UNL A   1      39.480  33.505  39.605  1.00  0.00     0.173 A 
ATOM     69  F   UNL A   1      41.548  35.621  37.488  1.00  0.00    -0.203 F 
ATOM     70  C   UNL A   1      40.789  35.952  39.691  1.00  0.00     0.198 A 
ATOM     71  C   UNL A   1      39.407  34.298  40.747  1.00  0.00     0.198 A 
ATOM     72  F   UNL A   1      38.841  32.326  39.596  1.00  0.00    -0.203 F 
ATOM     73  F   UNL A   1      41.448  37.119  39.740  1.00  0.00    -0.200 F 
ATOM     74  C   UNL A   1      40.065  35.518  40.790  1.00  0.00     0.200 A 
ATOM     75  F   UNL A   1      38.697  33.883  41.805  1.00  0.00    -0.200 F 
ATOM     76  F   UNL A   1      40.007  36.273  41.896  1.00  0.00    -0.200 F 
ENDBRANCH  52  66
BRANCH  53  77
ATOM     77  C   UNL A   1      39.958  28.630  30.009  1.00  0.00     0.064 A 
ATOM     78  C   UNL A   1      39.357  27.366  29.930  1.00  0.00     0.173 A 
ATOM     79  C   UNL A   1      40.593  29.123  28.859  1.00  0.00     0.173 A 
ATOM     80  F   UNL A   1      38.755  26.843  31.008  1.00  0.00    -0.203 F 
ATOM     81  C   UNL A   1      39.419  26.610  28.762  1.00  0.00     0.198 A 
ATOM     82  C   UNL A   1      40.627  28.379  27.681  1.00  0.00     0.198 A 
ATOM     83  F   UNL A   1      41.177  30.330  28.878  1.00  0.00    -0.203 F 
ATOM     84  F   UNL A   1      38.889  25.379  28.734  1.00  0.00    -0.200 F 
ATOM     85  C   UNL A   1      40.052  27.118  27.638  1.00  0.00     0.200 A 
ATOM     86  F   UNL A   1      41.227  28.880  26.593  1.00  0.00    -0.200 F 
ATOM     87  F   UNL A   1      40.117  26.388  26.515  1.00  0.00    -0.200 F 
ENDBRANCH  53  77
BRANCH  65  88
ATOM     88  C   UNL A   1      44.093  28.594  35.612  1.00  0.00     0.064 A 
ATOM     89  C   UNL A   1      45.400  28.905  35.212  1.00  0.00     0.173 A 
ATOM     90  C   UNL A   1      43.906  27.469  36.431  1.00  0.00     0.173 A 
ATOM     91  F   UNL A   1      45.629  29.962  34.417  1.00  0.00    -0.203 F 
ATOM     92  C   UNL A   1      46.473  28.105  35.592  1.00  0.00     0.198 A 
ATOM     93  C   UNL A   1      44.985  26.689  36.834  1.00  0.00     0.198 A 
ATOM     94  F   UNL A   1      42.675  27.134  36.848  1.00  0.00    -0.203 F 
ATOM     95  F   UNL A   1      47.709  28.393  35.156  1.00  0.00    -0.200 F 
ATOM     96  C   UNL A   1      46.266  27.002  36.408  1.00  0.00     0.200 A 
ATOM     97  F   UNL A   1      44.784  25.632  37.633  1.00  0.00    -0.200 F 
ATOM     98  F   UNL A   1      47.302  26.237  36.778  1.00  0.00    -0.200 F 
ENDBRANCH  65  88
ENDBRANCH  39  40
ENDBRANCH  31  34
ENDBRANCH  29  30
ENDBRANCH  28  29
ENDBRANCH  27  28
ENDBRANCH   1  27
TORSDOF 16
ENDMDL
MODEL 2
REMARK VINA RESULT:     -11.6      1.321      2.610
REMARK SMILES C[C@H](CNC(=O)N1C[C@H]2CCCC[N@@H+]2C[C@@H]1C)C(=O)NCCCCCCNC(=O)c1ccc(-c2c3nc(c(-c4c(F)c(F)c(F)c(F)c4F)c4ccc([nH]4)c(-c4c(F)c(F)c(F)c(F)c4F)c4nc(c(-c5c(F)c(F)c(F)c(F)c5F)c5ccc2[nH]5)C=C4)C=C3)cc1
REMARK SMILES IDX 23 1 22 2 21 3 20 4 18 5 19 6 2 8 1 9 3 10 4 11 5 12 6 14
REMARK SMILES IDX 7 15 8 16 16 17 9 18 15 19 17 20 10 21 14 22 11 23 13 24
REMARK SMILES IDX 12 26 24 27 25 28 26 29 27 30 28 31 29 33 30 34 31 35 92 36
REMARK SMILES IDX 32 37 91 38 33 39 34 40 35 41 85 42 36 43 90 44 84 45 86 46
REMARK SMILES IDX 37 47 89 48 83 49 82 50 38 52 70 53 50 54 69 55 51 56 54 57
REMARK SMILES IDX 68 58 87 59 52 60 53 61 67 63 88 64 55 65 39 66 40 67 48 68
REMARK SMILES IDX 41 69 42 70 46 71 49 72 43 73 44 74 47 75 45 76 71 77 72 78
REMARK SMILES IDX 80 79 73 80 74 81 78 82 81 83 75 84 76 85 79 86 77 87 56 88
REMARK SMILES IDX 57 89 65 90 58 91 59 92 63 93 66 94 60 95 61 96 64 97 62 98
REMARK H PARENT 20 7 4 13 14 25 27 32 86 51 54 62
REMARK Flexibility Score: inf
ROOT
ATOM      1  C   UNL A   1      35.235  33.644  29.091  1.00  0.00     0.002 C 
ENDROOT
BRANCH   1   2
ATOM      2  C   UNL A   1      34.403  32.356  29.096  1.00  0.00     0.021 C 
BRANCH   2   3
ATOM      3  C   UNL A   1      34.398  31.612  27.761  1.00  0.00     0.116 C 
BRANCH   3   4
ATOM      4  N   UNL A   1      33.930  30.247  27.916  1.00  0.00    -0.356 N 
ATOM      5  C   UNL A   1      32.980  29.538  27.248  1.00  0.00     0.224 C 
ATOM      6  O   UNL A   1      32.765  28.383  27.626  1.00  0.00    -0.275 OA
ATOM      7  H   UNL A   1      34.380  29.745  28.634  1.00  0.00     0.163 HD
BRANCH   5   8
ATOM      8  C   UNL A   1      32.202  30.125  26.077  1.00  0.00     0.094 C 
ATOM      9  C   UNL A   1      31.403  31.356  26.500  1.00  0.00     0.020 C 
BRANCH   8  10
ATOM     10  C   UNL A   1      31.414  29.025  25.361  1.00  0.00     0.130 C 
BRANCH  10  11
ATOM     11  N   UNL A   1      30.894  29.425  24.063  1.00  0.00    -0.337 N 
ATOM     12  C   UNL A   1      31.102  28.887  22.834  1.00  0.00     0.318 C 
ATOM     13  H   UNL A   1      30.297  30.208  24.079  1.00  0.00     0.165 HD
ATOM     14  O   UNL A   1      30.802  29.561  21.852  1.00  0.00    -0.249 OA
BRANCH  12  15
ATOM     15  N   UNL A   1      31.689  27.651  22.763  1.00  0.00    -0.311 N 
ATOM     16  C   UNL A   1      30.845  26.453  22.736  1.00  0.00     0.186 C 
ATOM     17  C   UNL A   1      32.979  27.479  22.067  1.00  0.00     0.139 C 
ATOM     18  C   UNL A   1      31.588  25.265  23.363  1.00  0.00     0.203 C 
ATOM     19  C   UNL A   1      33.653  26.107  22.407  1.00  0.00     0.287 C 
ATOM     20  C   UNL A   1      33.993  28.578  22.427  1.00  0.00     0.037 C 
ATOM     21  C   UNL A   1      30.653  24.056  23.501  1.00  0.00     0.067 C 
ATOM     22  N   UNL A   1      32.768  24.925  22.536  1.00  0.00    -0.329 N 
ATOM     23  C   UNL A   1      31.393  22.871  24.113  1.00  0.00     0.012 C 
ATOM     24  C   UNL A   1      33.522  23.810  23.135  1.00  0.00     0.262 C 
ATOM     25  H   UNL A   1      32.439  24.641  21.614  1.00  0.00     0.348 HD
ATOM     26  C   UNL A   1      32.658  22.564  23.320  1.00  0.00     0.062 C 
ENDBRANCH  12  15
ENDBRANCH  10  11
ENDBRANCH   8  10
ENDBRANCH   5   8
ENDBRANCH   3   4
ENDBRANCH   2   3
ENDBRANCH   1   2
BRANCH   1  27
ATOM     27  C   UNL A   1      34.599  34.827  28.353  1.00  0.00     0.002 C 
BRANCH  27  28
ATOM     28  C   UNL A   1      33.260  35.306  28.920  1.00  0.00     0.021 C 
BRANCH  28  29
ATOM     29  C   UNL A   1      33.345  36.565  29.775  1.00  0.00     0.116 C 
BRANCH  29  30
ATOM     30  N   UNL A   1      32.402  36.538  30.882  1.00  0.00    -0.352 N 
ATOM     31  C   UNL A   1      32.441  35.799  32.033  1.00  0.00     0.251 C 
ATOM     32  H   UNL A   1      31.626  37.136  30.790  1.00  0.00     0.163 HD
ATOM     33  O   UNL A   1      31.457  35.762  32.776  1.00  0.00    -0.269 OA
BRANCH  31  34
ATOM     34  C   UNL A   1      33.652  35.031  32.385  1.00  0.00     0.039 A 
ATOM     35  C   UNL A   1      34.897  35.660  32.304  1.00  0.00     0.014 A 
ATOM     36  C   UNL A   1      33.568  33.686  32.761  1.00  0.00     0.014 A 
ATOM     37  C   UNL A   1      36.055  34.953  32.638  1.00  0.00     0.010 A 
ATOM     38  C   UNL A   1      34.715  33.003  33.157  1.00  0.00     0.010 A 
ATOM     39  C   UNL A   1      35.971  33.625  33.086  1.00  0.00    -0.014 A 
BRANCH  39  40
ATOM     40  C   UNL A   1      37.189  32.856  33.442  1.00  0.00     0.031 A 
ATOM     41  C   UNL A   1      37.907  33.147  34.733  1.00  0.00     0.074 A 
ATOM     42  C   UNL A   1      37.676  31.933  32.591  1.00  0.00     0.049 A 
ATOM     43  N   UNL A   1      39.031  32.654  35.188  1.00  0.00    -0.248 NA
ATOM     44  C   UNL A   1      37.289  34.147  35.621  1.00  0.00     0.031 C 
ATOM     45  C   UNL A   1      37.093  31.587  31.294  1.00  0.00     0.029 A 
ATOM     46  N   UNL A   1      38.783  31.128  32.683  1.00  0.00    -0.354 N 
ATOM     47  C   UNL A   1      39.257  33.287  36.403  1.00  0.00     0.074 A 
ATOM     48  C   UNL A   1      38.187  34.242  36.590  1.00  0.00     0.031 C 
ATOM     49  C   UNL A   1      37.839  30.631  30.717  1.00  0.00     0.029 A 
ATOM     50  C   UNL A   1      38.972  30.323  31.586  1.00  0.00     0.049 A 
ATOM     51  H   UNL A   1      39.386  31.127  33.461  1.00  0.00     0.167 HD
ATOM     52  C   UNL A   1      40.252  33.070  37.296  1.00  0.00     0.037 A 
ATOM     53  C   UNL A   1      39.954  29.443  31.310  1.00  0.00     0.037 A 
ATOM     54  C   UNL A   1      41.302  32.104  37.120  1.00  0.00     0.049 A 
ATOM     55  C   UNL A   1      41.047  29.223  32.323  1.00  0.00     0.074 A 
ATOM     56  C   UNL A   1      42.348  31.798  37.974  1.00  0.00     0.029 A 
ATOM     57  N   UNL A   1      41.432  31.275  36.016  1.00  0.00    -0.354 N 
ATOM     58  N   UNL A   1      41.228  29.800  33.486  1.00  0.00    -0.248 NA
ATOM     59  C   UNL A   1      42.066  28.218  31.989  1.00  0.00     0.031 C 
ATOM     60  C   UNL A   1      43.127  30.804  37.373  1.00  0.00     0.029 A 
ATOM     61  C   UNL A   1      42.541  30.458  36.167  1.00  0.00     0.049 A 
ATOM     62  H   UNL A   1      40.826  31.269  35.240  1.00  0.00     0.167 HD
ATOM     63  C   UNL A   1      42.353  29.203  34.037  1.00  0.00     0.074 A 
ATOM     64  C   UNL A   1      42.808  28.210  33.087  1.00  0.00     0.031 C 
ATOM     65  C   UNL A   1      42.958  29.455  35.224  1.00  0.00     0.037 A 
BRANCH  52  66
ATOM     66  C   UNL A   1      40.240  33.882  38.559  1.00  0.00     0.064 A 
ATOM     67  C   UNL A   1      39.533  33.456  39.693  1.00  0.00     0.173 A 
ATOM     68  C   UNL A   1      40.984  35.068  38.656  1.00  0.00     0.173 A 
ATOM     69  F   UNL A   1      38.795  32.336  39.647  1.00  0.00    -0.203 F 
ATOM     70  C   UNL A   1      39.554  34.198  40.871  1.00  0.00     0.198 A 
ATOM     71  C   UNL A   1      41.026  35.792  39.845  1.00  0.00     0.198 A 
ATOM     72  F   UNL A   1      41.681  35.517  37.602  1.00  0.00    -0.203 F 
ATOM     73  F   UNL A   1      38.836  33.792  41.928  1.00  0.00    -0.200 F 
ATOM     74  C   UNL A   1      40.306  35.359  40.949  1.00  0.00     0.200 A 
ATOM     75  F   UNL A   1      41.763  36.907  39.923  1.00  0.00    -0.200 F 
ATOM     76  F   UNL A   1      40.335  36.066  42.088  1.00  0.00    -0.200 F 
ENDBRANCH  52  66
BRANCH  53  77
ATOM     77  C   UNL A   1      39.947  28.688  30.029  1.00  0.00     0.064 A 
ATOM     78  C   UNL A   1      39.361  27.416  29.943  1.00  0.00     0.173 A 
ATOM     79  C   UNL A   1      40.556  29.205  28.876  1.00  0.00     0.173 A 
ATOM     80  F   UNL A   1      38.783  26.872  31.023  1.00  0.00    -0.203 F 
ATOM     81  C   UNL A   1      39.417  26.676  28.764  1.00  0.00     0.198 A 
ATOM     82  C   UNL A   1      40.583  28.476  27.688  1.00  0.00     0.198 A 
ATOM     83  F   UNL A   1      41.124  30.419  28.902  1.00  0.00    -0.203 F 
ATOM     84  F   UNL A   1      38.903  25.439  28.728  1.00  0.00    -0.200 F 
ATOM     85  C   UNL A   1      40.025  27.207  27.637  1.00  0.00     0.200 A 
ATOM     86  F   UNL A   1      41.160  28.998  26.597  1.00  0.00    -0.200 F 
ATOM     87  F   UNL A   1      40.083  26.493  26.505  1.00  0.00    -0.200 F 
ENDBRANCH  53  77
BRANCH  65  88
ATOM     88  C   UNL A   1      44.138  28.603  35.590  1.00  0.00     0.064 A 
ATOM     89  C   UNL A   1      43.995  27.415  36.321  1.00  0.00     0.173 A 
ATOM     90  C   UNL A   1      45.426  28.964  35.166  1.00  0.00     0.173 A 
ATOM     91  F   UNL A   1      42.785  27.034  36.760  1.00  0.00    -0.203 F 
ATOM     92  C   UNL A   1      45.102  26.635  36.640  1.00  0.00     0.198 A 
ATOM     93  C   UNL A   1      46.527  28.165  35.462  1.00  0.00     0.198 A 
ATOM     94  F   UNL A   1      45.615  30.087  34.457  1.00  0.00    -0.203 F 
ATOM     95  F   UNL A   1      44.948  25.528  37.382  1.00  0.00    -0.200 F 
ATOM     96  C   UNL A   1      46.365  27.006  36.204  1.00  0.00     0.200 A 
ATOM     97  F   UNL A   1      47.745  28.520  35.028  1.00  0.00    -0.200 F 
ATOM     98  F   UNL A   1      47.429  26.250  36.508  1.00  0.00    -0.200 F 
ENDBRANCH  65  88
ENDBRANCH  39  40
ENDBRANCH  31  34
ENDBRANCH  29  30
ENDBRANCH  28  29
ENDBRANCH  27  28
ENDBRANCH   1  27
TORSDOF 16
ENDMDL
MODEL 3
REMARK VINA RESULT:     -11.6      0.400      2.035
REMARK SMILES C[C@H](CNC(=O)N1C[C@H]2CCCC[N@@H+]2C[C@@H]1C)C(=O)NCCCCCCNC(=O)c1ccc(-c2c3nc(c(-c4c(F)c(F)c(F)c(F)c4F)c4ccc([nH]4)c(-c4c(F)c(F)c(F)c(F)c4F)c4nc(c(-c5c(F)c(F)c(F)c(F)c5F)c5ccc2[nH]5)C=C4)C=C3)cc1
REMARK SMILES IDX 23 1 22 2 21 3 20 4 18 5 19 6 2 8 1 9 3 10 4 11 5 12 6 14
REMARK SMILES IDX 7 15 8 16 16 17 9 18 15 19 17 20 10 21 14 22 11 23 13 24
REMARK SMILES IDX 12 26 24 27 25 28 26 29 27 30 28 31 29 33 30 34 31 35 92 36
REMARK SMILES IDX 32 37 91 38 33 39 34 40 35 41 85 42 36 43 90 44 84 45 86 46
REMARK SMILES IDX 37 47 89 48 83 49 82 50 38 52 70 53 50 54 69 55 51 56 54 57
REMARK SMILES IDX 68 58 87 59 52 60 53 61 67 63 88 64 55 65 39 66 40 67 48 68
REMARK SMILES IDX 41 69 42 70 46 71 49 72 43 73 44 74 47 75 45 76 71 77 72 78
REMARK SMILES IDX 80 79 73 80 74 81 78 82 81 83 75 84 76 85 79 86 77 87 56 88
REMARK SMILES IDX 57 89 65 90 58 91 59 92 63 93 66 94 60 95 61 96 64 97 62 98
REMARK H PARENT 20 7 4 13 14 25 27 32 86 51 54 62
REMARK Flexibility Score: inf
ROOT
ATOM      1  C   UNL A   1      34.406  32.438  29.025  1.00  0.00     0.002 C 
ENDROOT
BRANCH   1   2
ATOM      2  C   UNL A   1      34.700  31.539  27.818  1.00  0.00     0.021 C 
BRANCH   2   3
ATOM      3  C   UNL A   1      33.473  30.810  27.270  1.00  0.00     0.116 C 
BRANCH   3   4
ATOM      4  N   UNL A   1      33.827  29.921  26.180  1.00  0.00    -0.356 N 
ATOM      5  C   UNL A   1      33.198  28.828  25.668  1.00  0.00     0.224 C 
ATOM      6  O   UNL A   1      33.760  28.233  24.744  1.00  0.00    -0.275 OA
ATOM      7  H   UNL A   1      34.674  30.148  25.732  1.00  0.00     0.163 HD
BRANCH   5   8
ATOM      8  C   UNL A   1      31.855  28.341  26.197  1.00  0.00     0.094 C 
ATOM      9  C   UNL A   1      31.860  28.240  27.721  1.00  0.00     0.020 C 
BRANCH   8  10
ATOM     10  C   UNL A   1      31.414  27.085  25.440  1.00  0.00     0.130 C 
BRANCH  10  11
ATOM     11  N   UNL A   1      30.788  26.080  26.285  1.00  0.00    -0.337 N 
ATOM     12  C   UNL A   1      30.912  24.728  26.274  1.00  0.00     0.318 C 
ATOM     13  H   UNL A   1      30.182  26.436  26.974  1.00  0.00     0.165 HD
ATOM     14  O   UNL A   1      30.070  24.067  26.878  1.00  0.00    -0.249 OA
BRANCH  12  15
ATOM     15  N   UNL A   1      31.931  24.181  25.539  1.00  0.00    -0.311 N 
ATOM     16  C   UNL A   1      33.167  23.775  26.213  1.00  0.00     0.186 C 
ATOM     17  C   UNL A   1      31.634  23.393  24.327  1.00  0.00     0.139 C 
ATOM     18  C   UNL A   1      34.358  23.885  25.250  1.00  0.00     0.203 C 
ATOM     19  C   UNL A   1      32.906  23.174  23.441  1.00  0.00     0.287 C 
ATOM     20  C   UNL A   1      30.576  24.063  23.434  1.00  0.00     0.037 C 
ATOM     21  C   UNL A   1      35.677  23.634  25.994  1.00  0.00     0.067 C 
ATOM     22  N   UNL A   1      34.189  22.922  24.140  1.00  0.00    -0.329 N 
ATOM     23  C   UNL A   1      36.860  23.732  25.037  1.00  0.00     0.012 C 
ATOM     24  C   UNL A   1      35.301  23.031  23.179  1.00  0.00     0.262 C 
ATOM     25  H   UNL A   1      34.186  21.981  24.532  1.00  0.00     0.348 HD
ATOM     26  C   UNL A   1      36.659  22.807  23.842  1.00  0.00     0.062 C 
ENDBRANCH  12  15
ENDBRANCH  10  11
ENDBRANCH   8  10
ENDBRANCH   5   8
ENDBRANCH   3   4
ENDBRANCH   2   3
ENDBRANCH   1   2
BRANCH   1  27
ATOM     27  C   UNL A   1      34.520  33.943  28.759  1.00  0.00     0.002 C 
BRANCH  27  28
ATOM     28  C   UNL A   1      33.209  34.726  28.863  1.00  0.00     0.021 C 
BRANCH  28  29
ATOM     29  C   UNL A   1      33.345  36.116  29.475  1.00  0.00     0.116 C 
BRANCH  29  30
ATOM     30  N   UNL A   1      32.492  36.286  30.640  1.00  0.00    -0.352 N 
ATOM     31  C   UNL A   1      32.602  35.722  31.882  1.00  0.00     0.251 C 
ATOM     32  H   UNL A   1      31.727  36.894  30.519  1.00  0.00     0.163 HD
ATOM     33  O   UNL A   1      31.680  35.830  32.693  1.00  0.00    -0.269 OA
BRANCH  31  34
ATOM     34  C   UNL A   1      33.817  34.967  32.253  1.00  0.00     0.039 A 
ATOM     35  C   UNL A   1      35.062  35.587  32.121  1.00  0.00     0.014 A 
ATOM     36  C   UNL A   1      33.734  33.643  32.695  1.00  0.00     0.014 A 
ATOM     37  C   UNL A   1      36.223  34.893  32.472  1.00  0.00     0.010 A 
ATOM     38  C   UNL A   1      34.885  32.976  33.107  1.00  0.00     0.010 A 
ATOM     39  C   UNL A   1      36.142  33.589  32.986  1.00  0.00    -0.014 A 
BRANCH  39  40
ATOM     40  C   UNL A   1      37.364  32.834  33.361  1.00  0.00     0.031 A 
ATOM     41  C   UNL A   1      38.059  33.135  34.662  1.00  0.00     0.074 A 
ATOM     42  C   UNL A   1      37.873  31.916  32.518  1.00  0.00     0.049 A 
ATOM     43  N   UNL A   1      39.181  32.654  35.134  1.00  0.00    -0.248 NA
ATOM     44  C   UNL A   1      37.417  34.128  35.540  1.00  0.00     0.031 C 
ATOM     45  C   UNL A   1      37.313  31.562  31.213  1.00  0.00     0.029 A 
ATOM     46  N   UNL A   1      38.988  31.123  32.627  1.00  0.00    -0.354 N 
ATOM     47  C   UNL A   1      39.383  33.291  36.352  1.00  0.00     0.074 A 
ATOM     48  C   UNL A   1      38.299  34.234  36.522  1.00  0.00     0.031 C 
ATOM     49  C   UNL A   1      38.079  30.615  30.648  1.00  0.00     0.029 A 
ATOM     50  C   UNL A   1      39.201  30.320  31.534  1.00  0.00     0.049 A 
ATOM     51  H   UNL A   1      39.579  31.130  33.414  1.00  0.00     0.167 HD
ATOM     52  C   UNL A   1      40.367  33.086  37.260  1.00  0.00     0.037 A 
ATOM     53  C   UNL A   1      40.197  29.451  31.273  1.00  0.00     0.037 A 
ATOM     54  C   UNL A   1      41.430  32.131  37.100  1.00  0.00     0.049 A 
ATOM     55  C   UNL A   1      41.278  29.244  32.302  1.00  0.00     0.074 A 
ATOM     56  C   UNL A   1      42.467  31.838  37.969  1.00  0.00     0.029 A 
ATOM     57  N   UNL A   1      41.585  31.303  35.998  1.00  0.00    -0.354 N 
ATOM     58  N   UNL A   1      41.435  29.823  33.468  1.00  0.00    -0.248 NA
ATOM     59  C   UNL A   1      42.313  28.250  31.985  1.00  0.00     0.031 C 
ATOM     60  C   UNL A   1      43.265  30.852  37.381  1.00  0.00     0.029 A 
ATOM     61  C   UNL A   1      42.701  30.499  36.167  1.00  0.00     0.049 A 
ATOM     62  H   UNL A   1      40.991  31.289  35.214  1.00  0.00     0.167 HD
ATOM     63  C   UNL A   1      42.558  29.239  34.036  1.00  0.00     0.074 A 
ATOM     64  C   UNL A   1      43.038  28.251  33.094  1.00  0.00     0.031 C 
ATOM     65  C   UNL A   1      43.143  29.499  35.231  1.00  0.00     0.037 A 
BRANCH  52  66
ATOM     66  C   UNL A   1      40.327  33.899  38.521  1.00  0.00     0.064 A 
ATOM     67  C   UNL A   1      39.588  33.477  39.637  1.00  0.00     0.173 A 
ATOM     68  C   UNL A   1      41.075  35.080  38.637  1.00  0.00     0.173 A 
ATOM     69  F   UNL A   1      38.844  32.362  39.572  1.00  0.00    -0.203 F 
ATOM     70  C   UNL A   1      39.582  34.220  40.815  1.00  0.00     0.198 A 
ATOM     71  C   UNL A   1      41.091  35.804  39.827  1.00  0.00     0.198 A 
ATOM     72  F   UNL A   1      41.803  35.524  37.602  1.00  0.00    -0.203 F 
ATOM     73  F   UNL A   1      38.835  33.819  41.853  1.00  0.00    -0.200 F 
ATOM     74  C   UNL A   1      40.340  35.376  40.912  1.00  0.00     0.200 A 
ATOM     75  F   UNL A   1      41.833  36.915  39.923  1.00  0.00    -0.200 F 
ATOM     76  F   UNL A   1      40.343  36.083  42.050  1.00  0.00    -0.200 F 
ENDBRANCH  52  66
BRANCH  53  77
ATOM     77  C   UNL A   1      40.217  28.695  29.993  1.00  0.00     0.064 A 
ATOM     78  C   UNL A   1      40.830  29.228  28.849  1.00  0.00     0.173 A 
ATOM     79  C   UNL A   1      39.594  27.444  29.875  1.00  0.00     0.173 A 
ATOM     80  F   UNL A   1      41.422  30.430  28.907  1.00  0.00    -0.203 F 
ATOM     81  C   UNL A   1      40.788  28.557  27.630  1.00  0.00     0.198 A 
ATOM     82  C   UNL A   1      39.580  26.758  28.662  1.00  0.00     0.198 A 
ATOM     83  F   UNL A   1      39.000  26.886  30.939  1.00  0.00    -0.203 F 
ATOM     84  F   UNL A   1      41.329  29.118  26.540  1.00  0.00    -0.200 F 
ATOM     85  C   UNL A   1      40.166  27.321  27.538  1.00  0.00     0.200 A 
ATOM     86  F   UNL A   1      38.990  25.558  28.580  1.00  0.00    -0.200 F 
ATOM     87  F   UNL A   1      40.121  26.677  26.363  1.00  0.00    -0.200 F 
ENDBRANCH  53  77
BRANCH  65  88
ATOM     88  C   UNL A   1      44.326  28.661  35.615  1.00  0.00     0.064 A 
ATOM     89  C   UNL A   1      44.185  27.468  36.339  1.00  0.00     0.173 A 
ATOM     90  C   UNL A   1      45.618  29.040  35.217  1.00  0.00     0.173 A 
ATOM     91  F   UNL A   1      42.973  27.071  36.754  1.00  0.00    -0.203 F 
ATOM     92  C   UNL A   1      45.297  26.701  36.675  1.00  0.00     0.198 A 
ATOM     93  C   UNL A   1      46.723  28.254  35.529  1.00  0.00     0.198 A 
ATOM     94  F   UNL A   1      45.805  30.168  34.516  1.00  0.00    -0.203 F 
ATOM     95  F   UNL A   1      45.143  25.590  37.410  1.00  0.00    -0.200 F 
ATOM     96  C   UNL A   1      46.563  27.090  36.264  1.00  0.00     0.200 A 
ATOM     97  F   UNL A   1      47.944  28.626  35.120  1.00  0.00    -0.200 F 
ATOM     98  F   UNL A   1      47.631  26.347  36.584  1.00  0.00    -0.200 F 
ENDBRANCH  65  88
ENDBRANCH  39  40
ENDBRANCH  31  34
ENDBRANCH  29  30
ENDBRANCH  28  29
ENDBRANCH  27  28
ENDBRANCH   1  27
TORSDOF 16
ENDMDL
