MODEL 1
REMARK VINA RESULT:     -13.2      0.000      0.000
REMARK SMILES Cc1c(C(=O)NCCCCCCNC(=O)c2ccc(-c3c4nc(c(-c5c(F)c(F)c(F)c(F)c5F)c5ccc([nH]5)c(-c5c(F)c(F)c(F)c(F)c5F)c5nc(c(-c6c(F)c(F)c(F)c(F)c6F)c6ccc3[nH]6)C=C5)C=C4)cc2)sc2c1=C(CSc1nncn1-c1ccccc1)CC(=O)N=2
REMARK SMILES IDX 8 1 7 2 6 3 4 4 5 5 3 7 1 8 2 9 81 10 79 11 80 12 82 13
REMARK SMILES IDX 99 14 96 15 97 16 98 17 83 18 84 19 85 20 86 21 89 22 87 23
REMARK SMILES IDX 88 24 90 25 91 26 95 27 92 28 94 29 93 30 9 31 10 32 11 33
REMARK SMILES IDX 12 34 13 35 14 36 15 38 16 39 17 40 78 41 18 42 77 43 19 44
REMARK SMILES IDX 20 45 21 46 71 47 22 48 76 49 70 50 72 51 23 52 75 53 69 54
REMARK SMILES IDX 68 55 24 57 56 58 36 59 55 60 37 61 40 62 54 63 73 64 38 65
REMARK SMILES IDX 39 66 53 68 74 69 41 70 25 71 26 72 34 73 27 74 28 75 32 76
REMARK SMILES IDX 35 77 29 78 30 79 33 80 31 81 57 82 58 83 66 84 59 85 60 86
REMARK SMILES IDX 64 87 67 88 61 89 62 90 65 91 63 92 42 93 43 94 51 95 44 96
REMARK SMILES IDX 45 97 49 98 52 99 46 100 47 101 50 102 48 103
REMARK H PARENT 6 6 13 37 72 56 40 67
REMARK Flexibility Score: inf
ROOT
ATOM      1  C   UNL A   1      39.218  23.286  26.558  1.00  0.00     0.021 C 
ENDROOT
BRANCH   1   2
ATOM      2  C   UNL A   1      37.745  23.308  26.138  1.00  0.00     0.116 C 
BRANCH   2   3
ATOM      3  N   UNL A   1      37.272  21.983  25.823  1.00  0.00    -0.351 N 
ATOM      4  C   UNL A   1      36.103  21.443  25.408  1.00  0.00     0.261 C 
ATOM      5  O   UNL A   1      36.198  20.247  25.105  1.00  0.00    -0.268 OA
ATOM      6  H   UNL A   1      37.973  21.302  25.939  1.00  0.00     0.163 HD
BRANCH   4   7
ATOM      7  C   UNL A   1      34.778  22.160  25.256  1.00  0.00     0.098 A 
ATOM      8  C   UNL A   1      35.115  24.717  25.037  1.00  0.00     0.047 C 
ATOM      9  C   UNL A   1      34.350  23.435  25.063  1.00  0.00    -0.018 A 
ATOM     10  C   UNL A   1      32.884  23.534  25.066  1.00  0.00     0.016 A 
ATOM     11  S   UNL A   1      33.387  21.076  25.633  1.00  0.00    -0.110 S 
ATOM     12  C   UNL A   1      32.310  22.420  25.859  1.00  0.00     0.128 A 
ATOM     13  C   UNL A   1      32.094  24.627  25.039  1.00  0.00    -0.040 C 
ATOM     14  N   UNL A   1      31.286  22.415  26.633  1.00  0.00    -0.202 NA
ATOM     15  C   UNL A   1      31.375  24.889  26.357  1.00  0.00     0.135 C 
ATOM     16  C   UNL A   1      30.626  23.620  26.779  1.00  0.00     0.251 C 
ATOM     17  O   UNL A   1      29.504  23.706  27.268  1.00  0.00    -0.272 OA
BRANCH  13  18
ATOM     18  C   UNL A   1      31.097  24.807  23.890  1.00  0.00     0.110 C 
BRANCH  18  19
ATOM     19  S   UNL A   1      29.761  25.961  24.241  1.00  0.00    -0.081 SA
BRANCH  19  20
ATOM     20  C   UNL A   1      30.301  27.373  23.398  1.00  0.00     0.195 A 
ATOM     21  N   UNL A   1      29.748  27.808  22.287  1.00  0.00    -0.123 NA
ATOM     22  N   UNL A   1      31.244  28.278  23.854  1.00  0.00    -0.277 N 
ATOM     23  N   UNL A   1      30.309  29.017  21.981  1.00  0.00    -0.138 NA
ATOM     24  C   UNL A   1      31.190  29.286  22.914  1.00  0.00     0.231 A 
BRANCH  22  25
ATOM     25  C   UNL A   1      32.033  28.288  25.041  1.00  0.00     0.049 A 
ATOM     26  C   UNL A   1      31.486  28.595  26.293  1.00  0.00     0.027 A 
ATOM     27  C   UNL A   1      33.406  28.028  24.956  1.00  0.00     0.027 A 
ATOM     28  C   UNL A   1      32.303  28.747  27.416  1.00  0.00     0.002 A 
ATOM     29  C   UNL A   1      34.205  28.141  26.093  1.00  0.00     0.002 A 
ATOM     30  C   UNL A   1      33.669  28.538  27.311  1.00  0.00     0.000 A 
ENDBRANCH  22  25
ENDBRANCH  19  20
ENDBRANCH  18  19
ENDBRANCH  13  18
ENDBRANCH   4   7
ENDBRANCH   2   3
ENDBRANCH   1   2
BRANCH   1  31
ATOM     31  C   UNL A   1      39.804  21.871  26.692  1.00  0.00     0.002 C 
BRANCH  31  32
ATOM     32  C   UNL A   1      40.973  21.721  27.681  1.00  0.00     0.002 C 
BRANCH  32  33
ATOM     33  C   UNL A   1      42.038  20.683  27.313  1.00  0.00     0.021 C 
BRANCH  33  34
ATOM     34  C   UNL A   1      42.014  20.242  25.867  1.00  0.00     0.116 C 
BRANCH  34  35
ATOM     35  N   UNL A   1      43.323  19.822  25.379  1.00  0.00    -0.352 N 
ATOM     36  C   UNL A   1      44.367  20.630  24.957  1.00  0.00     0.251 C 
ATOM     37  H   UNL A   1      43.485  18.852  25.347  1.00  0.00     0.163 HD
ATOM     38  O   UNL A   1      45.267  20.203  24.263  1.00  0.00    -0.269 OA
BRANCH  36  39
ATOM     39  C   UNL A   1      44.343  22.043  25.376  1.00  0.00     0.039 A 
ATOM     40  C   UNL A   1      43.385  22.937  24.892  1.00  0.00     0.014 A 
ATOM     41  C   UNL A   1      45.264  22.434  26.342  1.00  0.00     0.014 A 
ATOM     42  C   UNL A   1      43.309  24.206  25.458  1.00  0.00     0.010 A 
ATOM     43  C   UNL A   1      45.054  23.594  27.032  1.00  0.00     0.010 A 
ATOM     44  C   UNL A   1      44.135  24.519  26.549  1.00  0.00    -0.014 A 
BRANCH  44  45
ATOM     45  C   UNL A   1      43.978  25.766  27.293  1.00  0.00     0.031 A 
ATOM     46  C   UNL A   1      44.945  26.832  26.904  1.00  0.00     0.074 A 
ATOM     47  C   UNL A   1      42.883  25.993  28.057  1.00  0.00     0.049 A 
ATOM     48  N   UNL A   1      45.820  27.422  27.649  1.00  0.00    -0.248 NA
ATOM     49  C   UNL A   1      45.051  27.193  25.477  1.00  0.00     0.031 C 
ATOM     50  C   UNL A   1      41.725  25.102  28.238  1.00  0.00     0.029 A 
ATOM     51  N   UNL A   1      42.492  27.115  28.724  1.00  0.00    -0.354 N 
ATOM     52  C   UNL A   1      46.432  28.380  26.838  1.00  0.00     0.074 A 
ATOM     53  C   UNL A   1      46.070  28.055  25.488  1.00  0.00     0.031 C 
ATOM     54  C   UNL A   1      40.678  25.802  28.725  1.00  0.00     0.029 A 
ATOM     55  C   UNL A   1      41.142  27.129  29.071  1.00  0.00     0.049 A 
ATOM     56  H   UNL A   1      43.109  27.850  28.943  1.00  0.00     0.167 HD
ATOM     57  C   UNL A   1      46.920  29.530  27.385  1.00  0.00     0.037 A 
ATOM     58  C   UNL A   1      40.445  28.169  29.589  1.00  0.00     0.037 A 
ATOM     59  C   UNL A   1      47.058  29.378  28.812  1.00  0.00     0.049 A 
ATOM     60  C   UNL A   1      41.433  29.109  30.159  1.00  0.00     0.074 A 
ATOM     61  C   UNL A   1      47.864  28.662  29.671  1.00  0.00     0.029 A 
ATOM     62  N   UNL A   1      45.956  29.771  29.523  1.00  0.00    -0.354 N 
ATOM     63  N   UNL A   1      42.179  28.833  31.192  1.00  0.00    -0.248 NA
ATOM     64  C   UNL A   1      41.873  30.239  29.352  1.00  0.00     0.031 C 
ATOM     65  C   UNL A   1      47.070  28.420  30.833  1.00  0.00     0.029 A 
ATOM     66  C   UNL A   1      45.832  29.041  30.670  1.00  0.00     0.049 A 
ATOM     67  H   UNL A   1      45.336  30.483  29.244  1.00  0.00     0.167 HD
ATOM     68  C   UNL A   1      43.386  29.450  30.920  1.00  0.00     0.074 A 
ATOM     69  C   UNL A   1      43.083  30.433  29.885  1.00  0.00     0.031 C 
ATOM     70  C   UNL A   1      44.555  28.880  31.331  1.00  0.00     0.037 A 
BRANCH  57  71
ATOM     71  C   UNL A   1      46.755  30.918  26.774  1.00  0.00     0.064 A 
ATOM     72  C   UNL A   1      47.866  31.794  26.789  1.00  0.00     0.173 A 
ATOM     73  C   UNL A   1      45.513  31.539  26.512  1.00  0.00     0.173 A 
ATOM     74  F   UNL A   1      49.102  31.326  27.020  1.00  0.00    -0.203 F 
ATOM     75  C   UNL A   1      47.723  33.181  26.677  1.00  0.00     0.198 A 
ATOM     76  C   UNL A   1      45.383  32.920  26.356  1.00  0.00     0.198 A 
ATOM     77  F   UNL A   1      44.358  30.868  26.502  1.00  0.00    -0.203 F 
ATOM     78  F   UNL A   1      48.789  33.976  26.843  1.00  0.00    -0.200 F 
ATOM     79  C   UNL A   1      46.479  33.745  26.476  1.00  0.00     0.200 A 
ATOM     80  F   UNL A   1      44.162  33.447  26.178  1.00  0.00    -0.200 F 
ATOM     81  F   UNL A   1      46.327  35.075  26.445  1.00  0.00    -0.200 F 
ENDBRANCH  57  71
BRANCH  58  82
ATOM     82  C   UNL A   1      39.018  28.527  29.407  1.00  0.00     0.064 A 
ATOM     83  C   UNL A   1      38.168  28.701  30.512  1.00  0.00     0.173 A 
ATOM     84  C   UNL A   1      38.535  28.987  28.168  1.00  0.00     0.173 A 
ATOM     85  F   UNL A   1      38.568  28.322  31.735  1.00  0.00    -0.203 F 
ATOM     86  C   UNL A   1      36.928  29.337  30.392  1.00  0.00     0.198 A 
ATOM     87  C   UNL A   1      37.295  29.618  28.048  1.00  0.00     0.198 A 
ATOM     88  F   UNL A   1      39.300  28.927  27.068  1.00  0.00    -0.203 F 
ATOM     89  F   UNL A   1      36.178  29.551  31.483  1.00  0.00    -0.200 F 
ATOM     90  C   UNL A   1      36.499  29.808  29.162  1.00  0.00     0.200 A 
ATOM     91  F   UNL A   1      36.909  30.102  26.859  1.00  0.00    -0.200 F 
ATOM     92  F   UNL A   1      35.346  30.481  29.059  1.00  0.00    -0.200 F 
ENDBRANCH  58  82
BRANCH  70  93
ATOM     93  C   UNL A   1      44.478  27.879  32.445  1.00  0.00     0.064 A 
ATOM     94  C   UNL A   1      44.366  26.491  32.267  1.00  0.00     0.173 A 
ATOM     95  C   UNL A   1      44.619  28.354  33.755  1.00  0.00     0.173 A 
ATOM     96  F   UNL A   1      44.312  25.953  31.043  1.00  0.00    -0.203 F 
ATOM     97  C   UNL A   1      44.355  25.623  33.358  1.00  0.00     0.198 A 
ATOM     98  C   UNL A   1      44.647  27.486  34.839  1.00  0.00     0.198 A 
ATOM     99  F   UNL A   1      44.774  29.669  33.979  1.00  0.00    -0.203 F 
ATOM    100  F   UNL A   1      44.228  24.302  33.166  1.00  0.00    -0.200 F 
ATOM    101  C   UNL A   1      44.503  26.122  34.643  1.00  0.00     0.200 A 
ATOM    102  F   UNL A   1      44.836  27.970  36.074  1.00  0.00    -0.200 F 
ATOM    103  F   UNL A   1      44.530  25.286  35.690  1.00  0.00    -0.200 F 
ENDBRANCH  70  93
ENDBRANCH  44  45
ENDBRANCH  36  39
ENDBRANCH  34  35
ENDBRANCH  33  34
ENDBRANCH  32  33
ENDBRANCH  31  32
ENDBRANCH   1  31
TORSDOF 17
ENDMDL
MODEL 2
REMARK VINA RESULT:     -12.6      3.629      9.331
REMARK SMILES Cc1c(C(=O)NCCCCCCNC(=O)c2ccc(-c3c4nc(c(-c5c(F)c(F)c(F)c(F)c5F)c5ccc([nH]5)c(-c5c(F)c(F)c(F)c(F)c5F)c5nc(c(-c6c(F)c(F)c(F)c(F)c6F)c6ccc3[nH]6)C=C5)C=C4)cc2)sc2c1=C(CSc1nncn1-c1ccccc1)CC(=O)N=2
REMARK SMILES IDX 8 1 7 2 6 3 4 4 5 5 3 7 1 8 2 9 81 10 79 11 80 12 82 13
REMARK SMILES IDX 99 14 96 15 97 16 98 17 83 18 84 19 85 20 86 21 89 22 87 23
REMARK SMILES IDX 88 24 90 25 91 26 95 27 92 28 94 29 93 30 9 31 10 32 11 33
REMARK SMILES IDX 12 34 13 35 14 36 15 38 16 39 17 40 78 41 18 42 77 43 19 44
REMARK SMILES IDX 20 45 21 46 71 47 22 48 76 49 70 50 72 51 23 52 75 53 69 54
REMARK SMILES IDX 68 55 24 57 56 58 36 59 55 60 37 61 40 62 54 63 73 64 38 65
REMARK SMILES IDX 39 66 53 68 74 69 41 70 25 71 26 72 34 73 27 74 28 75 32 76
REMARK SMILES IDX 35 77 29 78 30 79 33 80 31 81 57 82 58 83 66 84 59 85 60 86
REMARK SMILES IDX 64 87 67 88 61 89 62 90 65 91 63 92 42 93 43 94 51 95 44 96
REMARK SMILES IDX 45 97 49 98 52 99 46 100 47 101 50 102 48 103
REMARK H PARENT 6 6 13 37 72 56 40 67
REMARK Flexibility Score: inf
ROOT
ATOM      1  C   UNL A   1      35.065  30.547  27.416  1.00  0.00     0.021 C 
ENDROOT
BRANCH   1   2
ATOM      2  C   UNL A   1      33.966  29.520  27.127  1.00  0.00     0.116 C 
BRANCH   2   3
ATOM      3  N   UNL A   1      32.852  30.126  26.442  1.00  0.00    -0.351 N 
ATOM      4  C   UNL A   1      31.936  29.723  25.532  1.00  0.00     0.261 C 
ATOM      5  O   UNL A   1      31.043  30.557  25.336  1.00  0.00    -0.268 OA
ATOM      6  H   UNL A   1      32.728  31.068  26.699  1.00  0.00     0.163 HD
BRANCH   4   7
ATOM      7  C   UNL A   1      31.901  28.392  24.812  1.00  0.00     0.098 A 
ATOM      8  C   UNL A   1      33.203  26.581  26.125  1.00  0.00     0.047 C 
ATOM      9  C   UNL A   1      32.346  27.127  25.031  1.00  0.00    -0.018 A 
ATOM     10  C   UNL A   1      32.065  26.237  23.896  1.00  0.00     0.016 A 
ATOM     11  S   UNL A   1      31.291  28.564  23.123  1.00  0.00    -0.110 S 
ATOM     12  C   UNL A   1      31.961  27.033  22.650  1.00  0.00     0.128 A 
ATOM     13  C   UNL A   1      32.461  24.965  23.680  1.00  0.00    -0.040 C 
ATOM     14  N   UNL A   1      32.345  26.739  21.460  1.00  0.00    -0.202 NA
ATOM     15  C   UNL A   1      33.499  24.831  22.573  1.00  0.00     0.135 C 
ATOM     16  C   UNL A   1      32.971  25.517  21.307  1.00  0.00     0.251 C 
ATOM     17  O   UNL A   1      33.152  24.999  20.210  1.00  0.00    -0.272 OA
BRANCH  13  18
ATOM     18  C   UNL A   1      31.405  23.869  23.500  1.00  0.00     0.110 C 
BRANCH  18  19
ATOM     19  S   UNL A   1      31.923  22.241  24.067  1.00  0.00    -0.081 SA
BRANCH  19  20
ATOM     20  C   UNL A   1      32.284  22.558  25.729  1.00  0.00     0.195 A 
ATOM     21  N   UNL A   1      31.364  22.650  26.665  1.00  0.00    -0.123 NA
ATOM     22  N   UNL A   1      33.549  22.596  26.292  1.00  0.00    -0.277 N 
ATOM     23  N   UNL A   1      31.997  22.747  27.873  1.00  0.00    -0.138 NA
ATOM     24  C   UNL A   1      33.287  22.713  27.641  1.00  0.00     0.231 A 
BRANCH  22  25
ATOM     25  C   UNL A   1      34.838  22.450  25.703  1.00  0.00     0.049 A 
ATOM     26  C   UNL A   1      35.358  21.197  25.357  1.00  0.00     0.027 A 
ATOM     27  C   UNL A   1      35.635  23.584  25.502  1.00  0.00     0.027 A 
ATOM     28  C   UNL A   1      36.679  21.062  24.923  1.00  0.00     0.002 A 
ATOM     29  C   UNL A   1      36.938  23.441  25.029  1.00  0.00     0.002 A 
ATOM     30  C   UNL A   1      37.477  22.186  24.776  1.00  0.00     0.000 A 
ENDBRANCH  22  25
ENDBRANCH  19  20
ENDBRANCH  18  19
ENDBRANCH  13  18
ENDBRANCH   4   7
ENDBRANCH   2   3
ENDBRANCH   1   2
BRANCH   1  31
ATOM     31  C   UNL A   1      34.682  31.582  28.486  1.00  0.00     0.002 C 
BRANCH  31  32
ATOM     32  C   UNL A   1      34.834  33.057  28.075  1.00  0.00     0.002 C 
BRANCH  32  33
ATOM     33  C   UNL A   1      33.753  34.014  28.590  1.00  0.00     0.021 C 
BRANCH  33  34
ATOM     34  C   UNL A   1      34.283  35.246  29.287  1.00  0.00     0.116 C 
BRANCH  34  35
ATOM     35  N   UNL A   1      33.574  35.547  30.527  1.00  0.00    -0.352 N 
ATOM     36  C   UNL A   1      33.684  34.893  31.743  1.00  0.00     0.251 C 
ATOM     37  H   UNL A   1      32.945  36.303  30.495  1.00  0.00     0.163 HD
ATOM     38  O   UNL A   1      32.829  34.987  32.600  1.00  0.00    -0.269 OA
BRANCH  36  39
ATOM     39  C   UNL A   1      34.883  34.063  31.962  1.00  0.00     0.039 A 
ATOM     40  C   UNL A   1      34.823  32.668  31.944  1.00  0.00     0.014 A 
ATOM     41  C   UNL A   1      36.096  34.727  32.103  1.00  0.00     0.014 A 
ATOM     42  C   UNL A   1      36.014  31.948  31.981  1.00  0.00     0.010 A 
ATOM     43  C   UNL A   1      37.260  34.032  31.932  1.00  0.00     0.010 A 
ATOM     44  C   UNL A   1      37.234  32.642  31.950  1.00  0.00    -0.014 A 
BRANCH  44  45
ATOM     45  C   UNL A   1      38.508  31.941  31.810  1.00  0.00     0.031 A 
ATOM     46  C   UNL A   1      39.189  31.654  33.105  1.00  0.00     0.074 A 
ATOM     47  C   UNL A   1      38.874  31.382  30.633  1.00  0.00     0.049 A 
ATOM     48  N   UNL A   1      40.354  32.050  33.496  1.00  0.00    -0.248 NA
ATOM     49  C   UNL A   1      38.426  30.953  34.156  1.00  0.00     0.031 C 
ATOM     50  C   UNL A   1      38.098  31.354  29.382  1.00  0.00     0.029 A 
ATOM     51  N   UNL A   1      39.945  30.596  30.327  1.00  0.00    -0.354 N 
ATOM     52  C   UNL A   1      40.560  31.467  34.748  1.00  0.00     0.074 A 
ATOM     53  C   UNL A   1      39.279  30.983  35.182  1.00  0.00     0.031 C 
ATOM     54  C   UNL A   1      38.579  30.394  28.564  1.00  0.00     0.029 A 
ATOM     55  C   UNL A   1      39.802  29.877  29.141  1.00  0.00     0.049 A 
ATOM     56  H   UNL A   1      40.748  30.542  30.893  1.00  0.00     0.167 HD
ATOM     57  C   UNL A   1      41.822  31.162  35.163  1.00  0.00     0.037 A 
ATOM     58  C   UNL A   1      40.623  28.907  28.673  1.00  0.00     0.037 A 
ATOM     59  C   UNL A   1      42.790  31.867  34.360  1.00  0.00     0.049 A 
ATOM     60  C   UNL A   1      41.918  29.065  29.369  1.00  0.00     0.074 A 
ATOM     61  C   UNL A   1      43.192  33.174  34.194  1.00  0.00     0.029 A 
ATOM     62  N   UNL A   1      43.221  31.168  33.265  1.00  0.00    -0.354 N 
ATOM     63  N   UNL A   1      42.705  30.091  29.202  1.00  0.00    -0.248 NA
ATOM     64  C   UNL A   1      42.183  28.257  30.550  1.00  0.00     0.031 C 
ATOM     65  C   UNL A   1      43.636  33.272  32.840  1.00  0.00     0.029 A 
ATOM     66  C   UNL A   1      43.544  32.014  32.244  1.00  0.00     0.049 A 
ATOM     67  H   UNL A   1      43.286  30.187  33.219  1.00  0.00     0.167 HD
ATOM     68  C   UNL A   1      43.258  30.307  30.450  1.00  0.00     0.074 A 
ATOM     69  C   UNL A   1      43.046  29.061  31.179  1.00  0.00     0.031 C 
ATOM     70  C   UNL A   1      43.539  31.576  30.866  1.00  0.00     0.037 A 
BRANCH  57  71
ATOM     71  C   UNL A   1      42.212  29.869  35.874  1.00  0.00     0.064 A 
ATOM     72  C   UNL A   1      43.211  29.928  36.873  1.00  0.00     0.173 A 
ATOM     73  C   UNL A   1      41.928  28.570  35.394  1.00  0.00     0.173 A 
ATOM     74  F   UNL A   1      43.568  31.103  37.414  1.00  0.00    -0.203 F 
ATOM     75  C   UNL A   1      43.945  28.802  37.262  1.00  0.00     0.198 A 
ATOM     76  C   UNL A   1      42.633  27.443  35.820  1.00  0.00     0.198 A 
ATOM     77  F   UNL A   1      41.041  28.337  34.423  1.00  0.00    -0.203 F 
ATOM     78  F   UNL A   1      44.977  28.938  38.105  1.00  0.00    -0.200 F 
ATOM     79  C   UNL A   1      43.665  27.562  36.723  1.00  0.00     0.200 A 
ATOM     80  F   UNL A   1      42.355  26.251  35.271  1.00  0.00    -0.200 F 
ATOM     81  F   UNL A   1      44.414  26.496  37.034  1.00  0.00    -0.200 F 
ENDBRANCH  57  71
BRANCH  58  82
ATOM     82  C   UNL A   1      40.296  27.710  27.863  1.00  0.00     0.064 A 
ATOM     83  C   UNL A   1      40.972  27.442  26.661  1.00  0.00     0.173 A 
ATOM     84  C   UNL A   1      39.524  26.659  28.394  1.00  0.00     0.173 A 
ATOM     85  F   UNL A   1      41.756  28.378  26.107  1.00  0.00    -0.203 F 
ATOM     86  C   UNL A   1      40.913  26.185  26.050  1.00  0.00     0.198 A 
ATOM     87  C   UNL A   1      39.464  25.406  27.781  1.00  0.00     0.198 A 
ATOM     88  F   UNL A   1      38.897  26.796  29.572  1.00  0.00    -0.203 F 
ATOM     89  F   UNL A   1      41.631  25.945  24.943  1.00  0.00    -0.200 F 
ATOM     90  C   UNL A   1      40.171  25.163  26.619  1.00  0.00     0.200 A 
ATOM     91  F   UNL A   1      38.772  24.416  28.363  1.00  0.00    -0.200 F 
ATOM     92  F   UNL A   1      40.173  23.939  26.075  1.00  0.00    -0.200 F 
ENDBRANCH  58  82
BRANCH  70  93
ATOM     93  C   UNL A   1      43.682  32.629  29.808  1.00  0.00     0.064 A 
ATOM     94  C   UNL A   1      42.668  33.523  29.425  1.00  0.00     0.173 A 
ATOM     95  C   UNL A   1      44.944  32.795  29.223  1.00  0.00     0.173 A 
ATOM     96  F   UNL A   1      41.460  33.484  29.999  1.00  0.00    -0.203 F 
ATOM     97  C   UNL A   1      42.902  34.510  28.469  1.00  0.00     0.198 A 
ATOM     98  C   UNL A   1      45.186  33.804  28.300  1.00  0.00     0.198 A 
ATOM     99  F   UNL A   1      45.961  31.996  29.587  1.00  0.00    -0.203 F 
ATOM    100  F   UNL A   1      41.913  35.340  28.104  1.00  0.00    -0.200 F 
ATOM    101  C   UNL A   1      44.163  34.654  27.913  1.00  0.00     0.200 A 
ATOM    102  F   UNL A   1      46.419  33.966  27.800  1.00  0.00    -0.200 F 
ATOM    103  F   UNL A   1      44.399  35.626  27.021  1.00  0.00    -0.200 F 
ENDBRANCH  70  93
ENDBRANCH  44  45
ENDBRANCH  36  39
ENDBRANCH  34  35
ENDBRANCH  33  34
ENDBRANCH  32  33
ENDBRANCH  31  32
ENDBRANCH   1  31
TORSDOF 17
ENDMDL
MODEL 3
REMARK VINA RESULT:     -12.4      4.054      9.920
REMARK SMILES Cc1c(C(=O)NCCCCCCNC(=O)c2ccc(-c3c4nc(c(-c5c(F)c(F)c(F)c(F)c5F)c5ccc([nH]5)c(-c5c(F)c(F)c(F)c(F)c5F)c5nc(c(-c6c(F)c(F)c(F)c(F)c6F)c6ccc3[nH]6)C=C5)C=C4)cc2)sc2c1=C(CSc1nncn1-c1ccccc1)CC(=O)N=2
REMARK SMILES IDX 8 1 7 2 6 3 4 4 5 5 3 7 1 8 2 9 81 10 79 11 80 12 82 13
REMARK SMILES IDX 99 14 96 15 97 16 98 17 83 18 84 19 85 20 86 21 89 22 87 23
REMARK SMILES IDX 88 24 90 25 91 26 95 27 92 28 94 29 93 30 9 31 10 32 11 33
REMARK SMILES IDX 12 34 13 35 14 36 15 38 16 39 17 40 78 41 18 42 77 43 19 44
REMARK SMILES IDX 20 45 21 46 71 47 22 48 76 49 70 50 72 51 23 52 75 53 69 54
REMARK SMILES IDX 68 55 24 57 56 58 36 59 55 60 37 61 40 62 54 63 73 64 38 65
REMARK SMILES IDX 39 66 53 68 74 69 41 70 25 71 26 72 34 73 27 74 28 75 32 76
REMARK SMILES IDX 35 77 29 78 30 79 33 80 31 81 57 82 58 83 66 84 59 85 60 86
REMARK SMILES IDX 64 87 67 88 61 89 62 90 65 91 63 92 42 93 43 94 51 95 44 96
REMARK SMILES IDX 45 97 49 98 52 99 46 100 47 101 50 102 48 103
REMARK H PARENT 6 6 13 37 72 56 40 67
REMARK Flexibility Score: inf
ROOT
ATOM      1  C   UNL A   1      34.635  31.608  27.547  1.00  0.00     0.021 C 
ENDROOT
BRANCH   1   2
ATOM      2  C   UNL A   1      33.731  30.377  27.418  1.00  0.00     0.116 C 
BRANCH   2   3
ATOM      3  N   UNL A   1      33.255  30.218  26.067  1.00  0.00    -0.351 N 
ATOM      4  C   UNL A   1      32.799  29.192  25.313  1.00  0.00     0.261 C 
ATOM      5  O   UNL A   1      32.340  29.554  24.222  1.00  0.00    -0.268 OA
ATOM      6  H   UNL A   1      33.265  31.067  25.569  1.00  0.00     0.163 HD
BRANCH   4   7
ATOM      7  C   UNL A   1      32.772  27.728  25.697  1.00  0.00     0.098 A 
ATOM      8  C   UNL A   1      34.137  26.296  24.029  1.00  0.00     0.047 C 
ATOM      9  C   UNL A   1      33.319  26.569  25.247  1.00  0.00    -0.018 A 
ATOM     10  C   UNL A   1      32.854  25.403  26.013  1.00  0.00     0.016 A 
ATOM     11  S   UNL A   1      31.525  27.393  26.956  1.00  0.00    -0.110 S 
ATOM     12  C   UNL A   1      31.526  25.692  26.604  1.00  0.00     0.128 A 
ATOM     13  C   UNL A   1      33.061  24.088  25.792  1.00  0.00    -0.040 C 
ATOM     14  N   UNL A   1      30.520  24.910  26.769  1.00  0.00    -0.202 NA
ATOM     15  C   UNL A   1      31.815  23.347  25.324  1.00  0.00     0.135 C 
ATOM     16  C   UNL A   1      30.673  23.616  26.312  1.00  0.00     0.251 C 
ATOM     17  O   UNL A   1      29.913  22.707  26.629  1.00  0.00    -0.272 OA
BRANCH  13  18
ATOM     18  C   UNL A   1      33.761  23.247  26.864  1.00  0.00     0.110 C 
BRANCH  18  19
ATOM     19  S   UNL A   1      33.639  21.469  26.607  1.00  0.00    -0.081 SA
BRANCH  19  20
ATOM     20  C   UNL A   1      35.141  21.136  25.814  1.00  0.00     0.195 A 
ATOM     21  N   UNL A   1      36.238  21.831  26.021  1.00  0.00    -0.123 NA
ATOM     22  N   UNL A   1      35.409  20.039  25.012  1.00  0.00    -0.277 N 
ATOM     23  N   UNL A   1      37.263  21.208  25.365  1.00  0.00    -0.138 NA
ATOM     24  C   UNL A   1      36.763  20.151  24.773  1.00  0.00     0.231 A 
BRANCH  22  25
ATOM     25  C   UNL A   1      34.574  18.966  24.587  1.00  0.00     0.049 A 
ATOM     26  C   UNL A   1      35.085  17.689  24.319  1.00  0.00     0.027 A 
ATOM     27  C   UNL A   1      33.207  19.196  24.385  1.00  0.00     0.027 A 
ATOM     28  C   UNL A   1      34.278  16.696  23.760  1.00  0.00     0.002 A 
ATOM     29  C   UNL A   1      32.402  18.183  23.866  1.00  0.00     0.002 A 
ATOM     30  C   UNL A   1      32.937  16.950  23.516  1.00  0.00     0.000 A 
ENDBRANCH  22  25
ENDBRANCH  19  20
ENDBRANCH  18  19
ENDBRANCH  13  18
ENDBRANCH   4   7
ENDBRANCH   2   3
ENDBRANCH   1   2
BRANCH   1  31
ATOM     31  C   UNL A   1      34.147  32.629  28.586  1.00  0.00     0.002 C 
BRANCH  31  32
ATOM     32  C   UNL A   1      34.165  34.101  28.138  1.00  0.00     0.002 C 
BRANCH  32  33
ATOM     33  C   UNL A   1      33.131  35.019  28.799  1.00  0.00     0.021 C 
BRANCH  33  34
ATOM     34  C   UNL A   1      33.703  35.977  29.820  1.00  0.00     0.116 C 
BRANCH  34  35
ATOM     35  N   UNL A   1      32.912  36.041  31.044  1.00  0.00    -0.352 N 
ATOM     36  C   UNL A   1      33.003  35.218  32.155  1.00  0.00     0.251 C 
ATOM     37  H   UNL A   1      32.234  36.754  31.087  1.00  0.00     0.163 HD
ATOM     38  O   UNL A   1      32.101  35.128  32.962  1.00  0.00    -0.269 OA
BRANCH  36  39
ATOM     39  C   UNL A   1      34.244  34.439  32.321  1.00  0.00     0.039 A 
ATOM     40  C   UNL A   1      34.294  33.070  32.049  1.00  0.00     0.014 A 
ATOM     41  C   UNL A   1      35.390  35.141  32.680  1.00  0.00     0.014 A 
ATOM     42  C   UNL A   1      35.532  32.432  32.056  1.00  0.00     0.010 A 
ATOM     43  C   UNL A   1      36.613  34.564  32.484  1.00  0.00     0.010 A 
ATOM     44  C   UNL A   1      36.693  33.196  32.251  1.00  0.00    -0.014 A 
BRANCH  44  45
ATOM     45  C   UNL A   1      38.024  32.614  32.096  1.00  0.00     0.031 A 
ATOM     46  C   UNL A   1      38.760  32.426  33.379  1.00  0.00     0.074 A 
ATOM     47  C   UNL A   1      38.414  32.060  30.923  1.00  0.00     0.049 A 
ATOM     48  N   UNL A   1      39.891  32.941  33.730  1.00  0.00    -0.248 NA
ATOM     49  C   UNL A   1      38.091  31.685  34.466  1.00  0.00     0.031 C 
ATOM     50  C   UNL A   1      37.614  31.927  29.693  1.00  0.00     0.029 A 
ATOM     51  N   UNL A   1      39.546  31.371  30.608  1.00  0.00    -0.354 N 
ATOM     52  C   UNL A   1      40.180  32.413  34.989  1.00  0.00     0.074 A 
ATOM     53  C   UNL A   1      38.962  31.823  35.468  1.00  0.00     0.031 C 
ATOM     54  C   UNL A   1      38.164  30.995  28.887  1.00  0.00     0.029 A 
ATOM     55  C   UNL A   1      39.444  30.611  29.445  1.00  0.00     0.049 A 
ATOM     56  H   UNL A   1      40.364  31.408  31.154  1.00  0.00     0.167 HD
ATOM     57  C   UNL A   1      41.475  32.239  35.379  1.00  0.00     0.037 A 
ATOM     58  C   UNL A   1      40.342  29.709  28.979  1.00  0.00     0.037 A 
ATOM     59  C   UNL A   1      42.353  33.010  34.534  1.00  0.00     0.049 A 
ATOM     60  C   UNL A   1      41.632  30.008  29.636  1.00  0.00     0.074 A 
ATOM     61  C   UNL A   1      42.625  34.345  34.326  1.00  0.00     0.029 A 
ATOM     62  N   UNL A   1      42.822  32.326  33.445  1.00  0.00    -0.354 N 
ATOM     63  N   UNL A   1      42.314  31.098  29.424  1.00  0.00    -0.248 NA
ATOM     64  C   UNL A   1      42.001  29.260  30.830  1.00  0.00     0.031 C 
ATOM     65  C   UNL A   1      43.027  34.448  32.959  1.00  0.00     0.029 A 
ATOM     66  C   UNL A   1      43.040  33.172  32.396  1.00  0.00     0.049 A 
ATOM     67  H   UNL A   1      42.979  31.354  33.422  1.00  0.00     0.167 HD
ATOM     68  C   UNL A   1      42.873  31.398  30.652  1.00  0.00     0.074 A 
ATOM     69  C   UNL A   1      42.798  30.157  31.416  1.00  0.00     0.031 C 
ATOM     70  C   UNL A   1      43.043  32.698  31.029  1.00  0.00     0.037 A 
BRANCH  57  71
ATOM     71  C   UNL A   1      42.002  31.007  36.110  1.00  0.00     0.064 A 
ATOM     72  C   UNL A   1      42.997  31.190  37.099  1.00  0.00     0.173 A 
ATOM     73  C   UNL A   1      41.852  29.677  35.658  1.00  0.00     0.173 A 
ATOM     74  F   UNL A   1      43.234  32.406  37.615  1.00  0.00    -0.203 F 
ATOM     75  C   UNL A   1      43.847  30.154  37.502  1.00  0.00     0.198 A 
ATOM     76  C   UNL A   1      42.673  28.638  36.098  1.00  0.00     0.198 A 
ATOM     77  F   UNL A   1      40.988  29.334  34.699  1.00  0.00    -0.203 F 
ATOM     78  F   UNL A   1      44.866  30.413  38.333  1.00  0.00    -0.200 F 
ATOM     79  C   UNL A   1      43.693  28.881  36.989  1.00  0.00     0.200 A 
ATOM     80  F   UNL A   1      42.517  27.413  35.574  1.00  0.00    -0.200 F 
ATOM     81  F   UNL A   1      44.551  27.904  37.314  1.00  0.00    -0.200 F 
ENDBRANCH  57  71
BRANCH  58  82
ATOM     82  C   UNL A   1      40.110  28.466  28.206  1.00  0.00     0.064 A 
ATOM     83  C   UNL A   1      40.743  28.252  26.970  1.00  0.00     0.173 A 
ATOM     84  C   UNL A   1      39.498  27.345  28.797  1.00  0.00     0.173 A 
ATOM     85  F   UNL A   1      41.380  29.261  26.357  1.00  0.00    -0.203 F 
ATOM     86  C   UNL A   1      40.796  26.984  26.382  1.00  0.00     0.198 A 
ATOM     87  C   UNL A   1      39.548  26.080  28.207  1.00  0.00     0.198 A 
ATOM     88  F   UNL A   1      38.928  27.433  30.008  1.00  0.00    -0.203 F 
ATOM     89  F   UNL A   1      41.473  26.806  25.238  1.00  0.00    -0.200 F 
ATOM     90  C   UNL A   1      40.212  25.896  27.008  1.00  0.00     0.200 A 
ATOM     91  F   UNL A   1      39.011  25.029  28.843  1.00  0.00    -0.200 F 
ATOM     92  F   UNL A   1      40.325  24.670  26.483  1.00  0.00    -0.200 F 
ENDBRANCH  58  82
BRANCH  70  93
ATOM     93  C   UNL A   1      43.061  33.732  29.943  1.00  0.00     0.064 A 
ATOM     94  C   UNL A   1      41.943  34.470  29.522  1.00  0.00     0.173 A 
ATOM     95  C   UNL A   1      44.299  34.050  29.369  1.00  0.00     0.173 A 
ATOM     96  F   UNL A   1      40.742  34.285  30.081  1.00  0.00    -0.203 F 
ATOM     97  C   UNL A   1      42.057  35.453  28.540  1.00  0.00     0.198 A 
ATOM     98  C   UNL A   1      44.418  35.056  28.419  1.00  0.00     0.198 A 
ATOM     99  F   UNL A   1      45.408  33.405  29.768  1.00  0.00    -0.203 F 
ATOM    100  F   UNL A   1      40.973  36.133  28.139  1.00  0.00    -0.200 F 
ATOM    101  C   UNL A   1      43.297  35.750  27.996  1.00  0.00     0.200 A 
ATOM    102  F   UNL A   1      45.626  35.369  27.931  1.00  0.00    -0.200 F 
ATOM    103  F   UNL A   1      43.414  36.721  27.079  1.00  0.00    -0.200 F 
ENDBRANCH  70  93
ENDBRANCH  44  45
ENDBRANCH  36  39
ENDBRANCH  34  35
ENDBRANCH  33  34
ENDBRANCH  32  33
ENDBRANCH  31  32
ENDBRANCH   1  31
TORSDOF 17
ENDMDL
