MODEL 1
REMARK VINA RESULT:     -13.5      0.000      0.000
REMARK SMILES CC1=CC[C@](C(=O)NCCCCCCNC(=O)c2ccc(-c3c4nc(c(-c5c(F)c(F)c(F)c(F)c5F)c5ccc([nH]5)c(-c5c(F)c(F)c(F)c(F)c5F)c5nc(c(-c6c(F)c(F)c(F)c(F)c6F)c6ccc3[nH]6)C=C5)C=C4)cc2)(C(=O)N/N=C/C2=C([O-])CC(C)(C)CC2=O)C[C@@H]1c1ccccc1
REMARK SMILES IDX 11 1 10 2 9 3 8 4 6 5 7 6 5 8 1 9 2 10 3 11 97 12 4 13 96 14
REMARK SMILES IDX 98 15 99 16 103 17 100 18 102 19 101 20 81 21 82 22 83 23
REMARK SMILES IDX 84 25 85 26 86 27 87 28 94 29 88 30 89 31 93 32 95 33 90 34
REMARK SMILES IDX 91 35 92 36 12 37 13 38 14 39 15 40 16 41 17 43 18 44 19 45
REMARK SMILES IDX 80 46 20 47 79 48 21 49 22 50 23 51 73 52 24 53 78 54 72 55
REMARK SMILES IDX 74 56 25 57 77 58 71 59 70 60 26 62 58 63 38 64 57 65 39 66
REMARK SMILES IDX 42 67 56 68 75 69 40 70 41 71 55 73 76 74 43 75 27 76 28 77
REMARK SMILES IDX 36 78 29 79 30 80 34 81 37 82 31 83 32 84 35 85 33 86 59 87
REMARK SMILES IDX 60 88 68 89 61 90 62 91 66 92 69 93 63 94 64 95 67 96 65 97
REMARK SMILES IDX 44 98 45 99 53 100 46 101 47 102 51 103 54 104 48 105 49 106
REMARK SMILES IDX 52 107 50 108
REMARK H PARENT 8 7 83 24 15 42 74 61 42 72
REMARK Flexibility Score: inf
ROOT
ATOM      1  C   UNL A   1      33.311  30.022  26.508  1.00  0.00     0.002 C 
ENDROOT
BRANCH   1   2
ATOM      2  C   UNL A   1      33.633  29.167  25.269  1.00  0.00     0.021 C 
BRANCH   2   3
ATOM      3  C   UNL A   1      33.993  27.731  25.646  1.00  0.00     0.116 C 
BRANCH   3   4
ATOM      4  N   UNL A   1      32.890  27.116  26.357  1.00  0.00    -0.355 N 
ATOM      5  C   UNL A   1      32.379  25.864  26.436  1.00  0.00     0.236 C 
ATOM      6  O   UNL A   1      31.397  25.774  27.184  1.00  0.00    -0.274 OA
ATOM      7  H   UNL A   1      32.394  27.760  26.913  1.00  0.00     0.163 HD
BRANCH   5   8
ATOM      8  C   UNL A   1      32.987  24.597  25.799  1.00  0.00     0.133 C 
ATOM      9  C   UNL A   1      36.540  22.130  24.606  1.00  0.00     0.040 C 
ATOM     10  C   UNL A   1      35.358  22.959  25.036  1.00  0.00    -0.070 C 
ATOM     11  C   UNL A   1      35.179  23.289  26.327  1.00  0.00    -0.026 C 
ATOM     12  C   UNL A   1      34.416  23.442  23.945  1.00  0.00     0.046 C 
ATOM     13  C   UNL A   1      34.065  24.157  26.839  1.00  0.00     0.054 C 
ATOM     14  C   UNL A   1      33.654  24.722  24.408  1.00  0.00     0.040 C 
BRANCH  12  15
ATOM     15  C   UNL A   1      33.488  22.374  23.366  1.00  0.00    -0.041 A 
ATOM     16  C   UNL A   1      33.409  21.121  24.000  1.00  0.00     0.004 A 
ATOM     17  C   UNL A   1      32.739  22.561  22.192  1.00  0.00     0.004 A 
ATOM     18  C   UNL A   1      32.650  20.082  23.455  1.00  0.00     0.000 A 
ATOM     19  C   UNL A   1      31.967  21.528  21.656  1.00  0.00     0.000 A 
ATOM     20  C   UNL A   1      31.931  20.285  22.281  1.00  0.00     0.000 A 
ENDBRANCH  12  15
BRANCH   8  21
ATOM     21  C   UNL A   1      31.847  23.537  25.740  1.00  0.00     0.256 C 
ATOM     22  O   UNL A   1      31.914  22.474  26.372  1.00  0.00    -0.272 OA
ATOM     23  N   UNL A   1      30.702  23.741  24.988  1.00  0.00    -0.246 N 
ATOM     24  H   UNL A   1      29.976  23.091  25.132  1.00  0.00     0.193 HD
BRANCH  23  25
ATOM     25  N   UNL A   1      30.442  24.721  24.072  1.00  0.00    -0.181 NA
ATOM     26  C   UNL A   1      29.826  25.767  24.530  1.00  0.00     0.144 C 
BRANCH  26  27
ATOM     27  C   UNL A   1      29.486  26.932  23.675  1.00  0.00     0.026 C 
ATOM     28  C   UNL A   1      30.395  27.555  22.902  1.00  0.00    -0.119 C 
ATOM     29  C   UNL A   1      28.080  27.386  23.586  1.00  0.00     0.164 C 
ATOM     30  O   UNL A   1      31.741  27.244  22.900  1.00  0.00    -0.875 OA
ATOM     31  C   UNL A   1      30.014  28.680  21.966  1.00  0.00     0.026 C 
ATOM     32  C   UNL A   1      27.777  28.797  23.116  1.00  0.00     0.087 C 
ATOM     33  O   UNL A   1      27.169  26.640  23.945  1.00  0.00    -0.294 OA
ATOM     34  C   UNL A   1      28.970  29.618  22.600  1.00  0.00    -0.025 C 
ATOM     35  C   UNL A   1      29.617  30.427  23.748  1.00  0.00     0.012 C 
ATOM     36  C   UNL A   1      28.438  30.625  21.562  1.00  0.00     0.012 C 
ENDBRANCH  26  27
ENDBRANCH  23  25
ENDBRANCH   8  21
ENDBRANCH   5   8
ENDBRANCH   3   4
ENDBRANCH   2   3
ENDBRANCH   1   2
BRANCH   1  37
ATOM     37  C   UNL A   1      31.849  30.449  26.643  1.00  0.00     0.002 C 
BRANCH  37  38
ATOM     38  C   UNL A   1      31.610  31.955  26.793  1.00  0.00     0.021 C 
BRANCH  38  39
ATOM     39  C   UNL A   1      32.807  32.778  27.261  1.00  0.00     0.116 C 
BRANCH  39  40
ATOM     40  N   UNL A   1      32.459  34.147  27.609  1.00  0.00    -0.352 N 
ATOM     41  C   UNL A   1      32.983  34.953  28.591  1.00  0.00     0.251 C 
ATOM     42  H   UNL A   1      31.745  34.553  27.064  1.00  0.00     0.163 HD
ATOM     43  O   UNL A   1      32.473  36.038  28.851  1.00  0.00    -0.269 OA
BRANCH  41  44
ATOM     44  C   UNL A   1      34.156  34.490  29.361  1.00  0.00     0.039 A 
ATOM     45  C   UNL A   1      33.957  33.933  30.626  1.00  0.00     0.014 A 
ATOM     46  C   UNL A   1      35.442  34.581  28.822  1.00  0.00     0.014 A 
ATOM     47  C   UNL A   1      35.041  33.392  31.319  1.00  0.00     0.010 A 
ATOM     48  C   UNL A   1      36.511  33.980  29.485  1.00  0.00     0.010 A 
ATOM     49  C   UNL A   1      36.320  33.373  30.736  1.00  0.00    -0.014 A 
BRANCH  49  50
ATOM     50  C   UNL A   1      37.461  32.704  31.414  1.00  0.00     0.031 A 
ATOM     51  C   UNL A   1      38.152  31.538  30.766  1.00  0.00     0.074 A 
ATOM     52  C   UNL A   1      37.832  33.104  32.645  1.00  0.00     0.049 A 
ATOM     53  N   UNL A   1      39.126  30.793  31.223  1.00  0.00    -0.248 NA
ATOM     54  C   UNL A   1      37.665  31.140  29.436  1.00  0.00     0.031 C 
ATOM     55  C   UNL A   1      37.206  34.187  33.407  1.00  0.00     0.029 A 
ATOM     56  N   UNL A   1      38.817  32.638  33.482  1.00  0.00    -0.354 N 
ATOM     57  C   UNL A   1      39.361  29.835  30.246  1.00  0.00     0.074 A 
ATOM     58  C   UNL A   1      38.391  30.058  29.196  1.00  0.00     0.031 C 
ATOM     59  C   UNL A   1      37.831  34.313  34.588  1.00  0.00     0.029 A 
ATOM     60  C   UNL A   1      38.878  33.300  34.685  1.00  0.00     0.049 A 
ATOM     61  H   UNL A   1      39.422  31.900  33.242  1.00  0.00     0.167 HD
ATOM     62  C   UNL A   1      40.314  28.873  30.216  1.00  0.00     0.037 A 
ATOM     63  C   UNL A   1      39.681  33.106  35.748  1.00  0.00     0.037 A 
ATOM     64  C   UNL A   1      41.289  28.665  31.255  1.00  0.00     0.049 A 
ATOM     65  C   UNL A   1      40.731  32.030  35.691  1.00  0.00     0.074 A 
ATOM     66  C   UNL A   1      42.335  27.758  31.287  1.00  0.00     0.029 A 
ATOM     67  N   UNL A   1      41.335  29.370  32.449  1.00  0.00    -0.354 N 
ATOM     68  N   UNL A   1      40.996  31.182  34.727  1.00  0.00    -0.248 NA
ATOM     69  C   UNL A   1      41.601  31.889  36.869  1.00  0.00     0.031 C 
ATOM     70  C   UNL A   1      42.982  27.881  32.522  1.00  0.00     0.029 A 
ATOM     71  C   UNL A   1      42.375  28.901  33.236  1.00  0.00     0.049 A 
ATOM     72  H   UNL A   1      40.720  30.096  32.699  1.00  0.00     0.167 HD
ATOM     73  C   UNL A   1      42.074  30.427  35.167  1.00  0.00     0.074 A 
ATOM     74  C   UNL A   1      42.426  30.928  36.480  1.00  0.00     0.031 C 
ATOM     75  C   UNL A   1      42.716  29.410  34.541  1.00  0.00     0.037 A 
BRANCH  62  76
ATOM     76  C   UNL A   1      40.347  27.970  29.017  1.00  0.00     0.064 A 
ATOM     77  C   UNL A   1      39.625  26.767  28.979  1.00  0.00     0.173 A 
ATOM     78  C   UNL A   1      41.089  28.323  27.880  1.00  0.00     0.173 A 
ATOM     79  F   UNL A   1      38.907  26.378  30.044  1.00  0.00    -0.203 F 
ATOM     80  C   UNL A   1      39.673  25.935  27.864  1.00  0.00     0.198 A 
ATOM     81  C   UNL A   1      41.108  27.504  26.753  1.00  0.00     0.198 A 
ATOM     82  F   UNL A   1      41.793  29.464  27.858  1.00  0.00    -0.203 F 
ATOM     83  F   UNL A   1      39.019  24.764  27.875  1.00  0.00    -0.200 F 
ATOM     84  C   UNL A   1      40.409  26.306  26.750  1.00  0.00     0.200 A 
ATOM     85  F   UNL A   1      41.810  27.871  25.671  1.00  0.00    -0.200 F 
ATOM     86  F   UNL A   1      40.452  25.507  25.676  1.00  0.00    -0.200 F 
ENDBRANCH  62  76
BRANCH  63  87
ATOM     87  C   UNL A   1      39.536  33.967  36.951  1.00  0.00     0.064 A 
ATOM     88  C   UNL A   1      38.778  33.547  38.053  1.00  0.00     0.173 A 
ATOM     89  C   UNL A   1      40.154  35.225  37.025  1.00  0.00     0.173 A 
ATOM     90  F   UNL A   1      38.153  32.361  38.022  1.00  0.00    -0.203 F 
ATOM     91  C   UNL A   1      38.626  34.360  39.175  1.00  0.00     0.198 A 
ATOM     92  C   UNL A   1      40.025  36.025  38.158  1.00  0.00     0.198 A 
ATOM     93  F   UNL A   1      40.896  35.671  36.000  1.00  0.00    -0.203 F 
ATOM     94  F   UNL A   1      37.860  33.954  40.196  1.00  0.00    -0.200 F 
ATOM     95  C   UNL A   1      39.255  35.595  39.228  1.00  0.00     0.200 A 
ATOM     96  F   UNL A   1      40.646  37.210  38.213  1.00  0.00    -0.200 F 
ATOM     97  F   UNL A   1      39.113  36.375  40.310  1.00  0.00    -0.200 F 
ENDBRANCH  63  87
BRANCH  75  98
ATOM     98  C   UNL A   1      43.884  28.788  35.252  1.00  0.00     0.064 A 
ATOM     99  C   UNL A   1      43.722  27.698  36.119  1.00  0.00     0.173 A 
ATOM    100  C   UNL A   1      45.184  29.265  35.030  1.00  0.00     0.173 A 
ATOM    101  F   UNL A   1      42.497  27.216  36.376  1.00  0.00    -0.203 F 
ATOM    102  C   UNL A   1      44.818  27.123  36.757  1.00  0.00     0.198 A 
ATOM    103  C   UNL A   1      46.281  28.668  35.646  1.00  0.00     0.198 A 
ATOM    104  F   UNL A   1      45.394  30.302  34.206  1.00  0.00    -0.203 F 
ATOM    105  F   UNL A   1      44.635  26.112  37.617  1.00  0.00    -0.200 F 
ATOM    106  C   UNL A   1      46.097  27.603  36.514  1.00  0.00     0.200 A 
ATOM    107  F   UNL A   1      47.517  29.125  35.399  1.00  0.00    -0.200 F 
ATOM    108  F   UNL A   1      47.151  27.043  37.122  1.00  0.00    -0.200 F 
ENDBRANCH  75  98
ENDBRANCH  49  50
ENDBRANCH  41  44
ENDBRANCH  39  40
ENDBRANCH  38  39
ENDBRANCH  37  38
ENDBRANCH   1  37
TORSDOF 17
ENDMDL
MODEL 2
REMARK VINA RESULT:     -13.4      1.080      2.114
REMARK SMILES CC1=CC[C@](C(=O)NCCCCCCNC(=O)c2ccc(-c3c4nc(c(-c5c(F)c(F)c(F)c(F)c5F)c5ccc([nH]5)c(-c5c(F)c(F)c(F)c(F)c5F)c5nc(c(-c6c(F)c(F)c(F)c(F)c6F)c6ccc3[nH]6)C=C5)C=C4)cc2)(C(=O)N/N=C/C2=C([O-])CC(C)(C)CC2=O)C[C@@H]1c1ccccc1
REMARK SMILES IDX 11 1 10 2 9 3 8 4 6 5 7 6 5 8 1 9 2 10 3 11 97 12 4 13 96 14
REMARK SMILES IDX 98 15 99 16 103 17 100 18 102 19 101 20 81 21 82 22 83 23
REMARK SMILES IDX 84 25 85 26 86 27 87 28 94 29 88 30 89 31 93 32 95 33 90 34
REMARK SMILES IDX 91 35 92 36 12 37 13 38 14 39 15 40 16 41 17 43 18 44 19 45
REMARK SMILES IDX 80 46 20 47 79 48 21 49 22 50 23 51 73 52 24 53 78 54 72 55
REMARK SMILES IDX 74 56 25 57 77 58 71 59 70 60 26 62 58 63 38 64 57 65 39 66
REMARK SMILES IDX 42 67 56 68 75 69 40 70 41 71 55 73 76 74 43 75 27 76 28 77
REMARK SMILES IDX 36 78 29 79 30 80 34 81 37 82 31 83 32 84 35 85 33 86 59 87
REMARK SMILES IDX 60 88 68 89 61 90 62 91 66 92 69 93 63 94 64 95 67 96 65 97
REMARK SMILES IDX 44 98 45 99 53 100 46 101 47 102 51 103 54 104 48 105 49 106
REMARK SMILES IDX 52 107 50 108
REMARK H PARENT 8 7 83 24 15 42 74 61 42 72
REMARK Flexibility Score: inf
ROOT
ATOM      1  C   UNL A   1      33.298  29.970  26.402  1.00  0.00     0.002 C 
ENDROOT
BRANCH   1   2
ATOM      2  C   UNL A   1      31.900  29.436  26.763  1.00  0.00     0.021 C 
BRANCH   2   3
ATOM      3  C   UNL A   1      31.976  28.175  27.622  1.00  0.00     0.116 C 
BRANCH   3   4
ATOM      4  N   UNL A   1      30.857  27.304  27.318  1.00  0.00    -0.355 N 
ATOM      5  C   UNL A   1      30.663  26.243  26.500  1.00  0.00     0.236 C 
ATOM      6  O   UNL A   1      29.515  25.781  26.548  1.00  0.00    -0.274 OA
ATOM      7  H   UNL A   1      30.047  27.540  27.826  1.00  0.00     0.163 HD
BRANCH   5   8
ATOM      8  C   UNL A   1      31.749  25.534  25.664  1.00  0.00     0.133 C 
ATOM      9  C   UNL A   1      35.943  24.015  25.170  1.00  0.00     0.040 C 
ATOM     10  C   UNL A   1      34.533  24.509  25.362  1.00  0.00    -0.070 C 
ATOM     11  C   UNL A   1      33.775  24.056  26.377  1.00  0.00    -0.026 C 
ATOM     12  C   UNL A   1      34.030  25.569  24.395  1.00  0.00     0.046 C 
ATOM     13  C   UNL A   1      32.382  24.532  26.681  1.00  0.00     0.054 C 
ATOM     14  C   UNL A   1      32.875  26.395  25.042  1.00  0.00     0.040 C 
BRANCH  12  15
ATOM     15  C   UNL A   1      33.688  25.063  22.994  1.00  0.00    -0.041 A 
ATOM     16  C   UNL A   1      33.305  25.989  22.007  1.00  0.00     0.004 A 
ATOM     17  C   UNL A   1      33.687  23.701  22.648  1.00  0.00     0.004 A 
ATOM     18  C   UNL A   1      32.891  25.567  20.741  1.00  0.00     0.000 A 
ATOM     19  C   UNL A   1      33.289  23.279  21.377  1.00  0.00     0.000 A 
ATOM     20  C   UNL A   1      32.881  24.211  20.428  1.00  0.00     0.000 A 
ENDBRANCH  12  15
BRANCH   8  21
ATOM     21  C   UNL A   1      31.008  24.750  24.542  1.00  0.00     0.256 C 
ATOM     22  O   UNL A   1      31.028  23.512  24.490  1.00  0.00    -0.272 OA
ATOM     23  N   UNL A   1      30.281  25.400  23.558  1.00  0.00    -0.246 N 
ATOM     24  H   UNL A   1      29.726  24.821  22.986  1.00  0.00     0.193 HD
BRANCH  23  25
ATOM     25  N   UNL A   1      30.232  26.735  23.271  1.00  0.00    -0.181 NA
ATOM     26  C   UNL A   1      29.046  27.259  23.249  1.00  0.00     0.144 C 
BRANCH  26  27
ATOM     27  C   UNL A   1      28.814  28.700  22.975  1.00  0.00     0.026 C 
ATOM     28  C   UNL A   1      29.724  29.477  22.357  1.00  0.00    -0.119 C 
ATOM     29  C   UNL A   1      27.505  29.305  23.306  1.00  0.00     0.164 C 
ATOM     30  O   UNL A   1      30.990  29.045  22.008  1.00  0.00    -0.875 OA
ATOM     31  C   UNL A   1      29.436  30.917  22.001  1.00  0.00     0.026 C 
ATOM     32  C   UNL A   1      27.393  30.809  23.468  1.00  0.00     0.087 C 
ATOM     33  O   UNL A   1      26.527  28.583  23.500  1.00  0.00    -0.294 OA
ATOM     34  C   UNL A   1      28.643  31.630  23.112  1.00  0.00    -0.025 C 
ATOM     35  C   UNL A   1      29.541  31.832  24.354  1.00  0.00     0.012 C 
ATOM     36  C   UNL A   1      28.177  33.023  22.644  1.00  0.00     0.012 C 
ENDBRANCH  26  27
ENDBRANCH  23  25
ENDBRANCH   8  21
ENDBRANCH   5   8
ENDBRANCH   3   4
ENDBRANCH   2   3
ENDBRANCH   1   2
BRANCH   1  37
ATOM     37  C   UNL A   1      34.005  30.746  27.512  1.00  0.00     0.002 C 
BRANCH  37  38
ATOM     38  C   UNL A   1      33.280  32.000  28.011  1.00  0.00     0.021 C 
BRANCH  38  39
ATOM     39  C   UNL A   1      33.356  33.222  27.100  1.00  0.00     0.116 C 
BRANCH  39  40
ATOM     40  N   UNL A   1      32.821  34.427  27.715  1.00  0.00    -0.352 N 
ATOM     41  C   UNL A   1      33.179  35.030  28.897  1.00  0.00     0.251 C 
ATOM     42  H   UNL A   1      32.100  34.873  27.213  1.00  0.00     0.163 HD
ATOM     43  O   UNL A   1      32.525  35.965  29.347  1.00  0.00    -0.269 OA
BRANCH  41  44
ATOM     44  C   UNL A   1      34.348  34.525  29.646  1.00  0.00     0.039 A 
ATOM     45  C   UNL A   1      34.144  33.918  30.887  1.00  0.00     0.014 A 
ATOM     46  C   UNL A   1      35.634  34.624  29.109  1.00  0.00     0.014 A 
ATOM     47  C   UNL A   1      35.223  33.337  31.556  1.00  0.00     0.010 A 
ATOM     48  C   UNL A   1      36.697  33.986  29.745  1.00  0.00     0.010 A 
ATOM     49  C   UNL A   1      36.501  33.330  30.971  1.00  0.00    -0.014 A 
BRANCH  49  50
ATOM     50  C   UNL A   1      37.635  32.622  31.620  1.00  0.00     0.031 A 
ATOM     51  C   UNL A   1      38.292  31.455  30.938  1.00  0.00     0.074 A 
ATOM     52  C   UNL A   1      38.031  32.988  32.854  1.00  0.00     0.049 A 
ATOM     53  N   UNL A   1      39.255  30.679  31.367  1.00  0.00    -0.248 NA
ATOM     54  C   UNL A   1      37.779  31.096  29.607  1.00  0.00     0.031 C 
ATOM     55  C   UNL A   1      37.439  34.067  33.646  1.00  0.00     0.029 A 
ATOM     56  N   UNL A   1      39.017  32.483  33.667  1.00  0.00    -0.354 N 
ATOM     57  C   UNL A   1      39.456  29.738  30.367  1.00  0.00     0.074 A 
ATOM     58  C   UNL A   1      38.478  30.004  29.334  1.00  0.00     0.031 C 
ATOM     59  C   UNL A   1      38.082  34.155  34.821  1.00  0.00     0.029 A 
ATOM     60  C   UNL A   1      39.108  33.117  34.883  1.00  0.00     0.049 A 
ATOM     61  H   UNL A   1      39.602  31.737  33.403  1.00  0.00     0.167 HD
ATOM     62  C   UNL A   1      40.387  28.755  30.304  1.00  0.00     0.037 A 
ATOM     63  C   UNL A   1      39.920  32.884  35.931  1.00  0.00     0.037 A 
ATOM     64  C   UNL A   1      41.371  28.504  31.325  1.00  0.00     0.049 A 
ATOM     65  C   UNL A   1      40.945  31.786  35.838  1.00  0.00     0.074 A 
ATOM     66  C   UNL A   1      42.397  27.575  31.324  1.00  0.00     0.029 A 
ATOM     67  N   UNL A   1      41.448  29.183  32.533  1.00  0.00    -0.354 N 
ATOM     68  N   UNL A   1      41.179  30.953  34.853  1.00  0.00    -0.248 NA
ATOM     69  C   UNL A   1      41.827  31.602  37.000  1.00  0.00     0.031 C 
ATOM     70  C   UNL A   1      43.062  27.657  32.553  1.00  0.00     0.029 A 
ATOM     71  C   UNL A   1      42.487  28.675  33.296  1.00  0.00     0.049 A 
ATOM     72  H   UNL A   1      40.852  29.917  32.807  1.00  0.00     0.167 HD
ATOM     73  C   UNL A   1      42.246  30.166  35.262  1.00  0.00     0.074 A 
ATOM     74  C   UNL A   1      42.626  30.631  36.581  1.00  0.00     0.031 C 
ATOM     75  C   UNL A   1      42.857  29.149  34.606  1.00  0.00     0.037 A 
BRANCH  62  76
ATOM     76  C   UNL A   1      40.385  27.877  29.086  1.00  0.00     0.064 A 
ATOM     77  C   UNL A   1      41.130  28.202  27.942  1.00  0.00     0.173 A 
ATOM     78  C   UNL A   1      39.650  26.682  29.070  1.00  0.00     0.173 A 
ATOM     79  F   UNL A   1      41.842  29.339  27.901  1.00  0.00    -0.203 F 
ATOM     80  C   UNL A   1      41.111  27.383  26.816  1.00  0.00     0.198 A 
ATOM     81  C   UNL A   1      39.659  25.849  27.954  1.00  0.00     0.198 A 
ATOM     82  F   UNL A   1      38.925  26.319  30.139  1.00  0.00    -0.203 F 
ATOM     83  F   UNL A   1      41.786  27.744  25.715  1.00  0.00    -0.200 F 
ATOM     84  C   UNL A   1      40.381  26.205  26.824  1.00  0.00     0.200 A 
ATOM     85  F   UNL A   1      38.963  24.703  27.969  1.00  0.00    -0.200 F 
ATOM     86  F   UNL A   1      40.365  25.416  25.742  1.00  0.00    -0.200 F 
ENDBRANCH  62  76
BRANCH  63  87
ATOM     87  C   UNL A   1      39.810  33.722  37.154  1.00  0.00     0.064 A 
ATOM     88  C   UNL A   1      40.608  34.862  37.322  1.00  0.00     0.173 A 
ATOM     89  C   UNL A   1      38.905  33.402  38.177  1.00  0.00     0.173 A 
ATOM     90  F   UNL A   1      41.502  35.198  36.380  1.00  0.00    -0.203 F 
ATOM     91  C   UNL A   1      40.520  35.640  38.475  1.00  0.00     0.198 A 
ATOM     92  C   UNL A   1      38.798  34.196  39.316  1.00  0.00     0.198 A 
ATOM     93  F   UNL A   1      38.114  32.325  38.062  1.00  0.00    -0.203 F 
ATOM     94  F   UNL A   1      41.326  36.699  38.630  1.00  0.00    -0.200 F 
ATOM     95  C   UNL A   1      39.611  35.309  39.468  1.00  0.00     0.200 A 
ATOM     96  F   UNL A   1      37.907  33.883  40.267  1.00  0.00    -0.200 F 
ATOM     97  F   UNL A   1      39.522  36.060  40.575  1.00  0.00    -0.200 F 
ENDBRANCH  63  87
BRANCH  75  98
ATOM     98  C   UNL A   1      44.019  28.486  35.289  1.00  0.00     0.064 A 
ATOM     99  C   UNL A   1      43.848  27.363  36.110  1.00  0.00     0.173 A 
ATOM    100  C   UNL A   1      45.324  28.959  35.084  1.00  0.00     0.173 A 
ATOM    101  F   UNL A   1      42.619  26.882  36.349  1.00  0.00    -0.203 F 
ATOM    102  C   UNL A   1      44.940  26.751  36.721  1.00  0.00     0.198 A 
ATOM    103  C   UNL A   1      46.416  28.327  35.673  1.00  0.00     0.198 A 
ATOM    104  F   UNL A   1      45.543  30.028  34.303  1.00  0.00    -0.203 F 
ATOM    105  F   UNL A   1      44.749  25.707  37.539  1.00  0.00    -0.200 F 
ATOM    106  C   UNL A   1      46.223  27.228  36.496  1.00  0.00     0.200 A 
ATOM    107  F   UNL A   1      47.656  28.781  35.443  1.00  0.00    -0.200 F 
ATOM    108  F   UNL A   1      47.272  26.633  37.078  1.00  0.00    -0.200 F 
ENDBRANCH  75  98
ENDBRANCH  49  50
ENDBRANCH  41  44
ENDBRANCH  39  40
ENDBRANCH  38  39
ENDBRANCH  37  38
ENDBRANCH   1  37
TORSDOF 17
ENDMDL
MODEL 3
REMARK VINA RESULT:     -13.2      1.130      7.110
REMARK SMILES CC1=CC[C@](C(=O)NCCCCCCNC(=O)c2ccc(-c3c4nc(c(-c5c(F)c(F)c(F)c(F)c5F)c5ccc([nH]5)c(-c5c(F)c(F)c(F)c(F)c5F)c5nc(c(-c6c(F)c(F)c(F)c(F)c6F)c6ccc3[nH]6)C=C5)C=C4)cc2)(C(=O)N/N=C/C2=C([O-])CC(C)(C)CC2=O)C[C@@H]1c1ccccc1
REMARK SMILES IDX 11 1 10 2 9 3 8 4 6 5 7 6 5 8 1 9 2 10 3 11 97 12 4 13 96 14
REMARK SMILES IDX 98 15 99 16 103 17 100 18 102 19 101 20 81 21 82 22 83 23
REMARK SMILES IDX 84 25 85 26 86 27 87 28 94 29 88 30 89 31 93 32 95 33 90 34
REMARK SMILES IDX 91 35 92 36 12 37 13 38 14 39 15 40 16 41 17 43 18 44 19 45
REMARK SMILES IDX 80 46 20 47 79 48 21 49 22 50 23 51 73 52 24 53 78 54 72 55
REMARK SMILES IDX 74 56 25 57 77 58 71 59 70 60 26 62 58 63 38 64 57 65 39 66
REMARK SMILES IDX 42 67 56 68 75 69 40 70 41 71 55 73 76 74 43 75 27 76 28 77
REMARK SMILES IDX 36 78 29 79 30 80 34 81 37 82 31 83 32 84 35 85 33 86 59 87
REMARK SMILES IDX 60 88 68 89 61 90 62 91 66 92 69 93 63 94 64 95 67 96 65 97
REMARK SMILES IDX 44 98 45 99 53 100 46 101 47 102 51 103 54 104 48 105 49 106
REMARK SMILES IDX 52 107 50 108
REMARK H PARENT 8 7 83 24 15 42 74 61 42 72
REMARK Flexibility Score: inf
ROOT
ATOM      1  C   UNL A   1      32.792  30.284  25.986  1.00  0.00     0.002 C 
ENDROOT
BRANCH   1   2
ATOM      2  C   UNL A   1      31.749  29.153  25.959  1.00  0.00     0.021 C 
BRANCH   2   3
ATOM      3  C   UNL A   1      31.841  28.262  27.196  1.00  0.00     0.116 C 
BRANCH   3   4
ATOM      4  N   UNL A   1      30.816  27.238  27.144  1.00  0.00    -0.355 N 
ATOM      5  C   UNL A   1      30.676  26.055  26.500  1.00  0.00     0.236 C 
ATOM      6  O   UNL A   1      29.606  25.481  26.744  1.00  0.00    -0.274 OA
ATOM      7  H   UNL A   1      30.039  27.454  27.709  1.00  0.00     0.163 HD
BRANCH   5   8
ATOM      8  C   UNL A   1      31.752  25.358  25.642  1.00  0.00     0.133 C 
ATOM      9  C   UNL A   1      35.937  23.842  25.078  1.00  0.00     0.040 C 
ATOM     10  C   UNL A   1      34.530  24.335  25.293  1.00  0.00    -0.070 C 
ATOM     11  C   UNL A   1      33.783  23.867  26.309  1.00  0.00    -0.026 C 
ATOM     12  C   UNL A   1      34.018  25.410  24.349  1.00  0.00     0.046 C 
ATOM     13  C   UNL A   1      32.394  24.339  26.635  1.00  0.00     0.054 C 
ATOM     14  C   UNL A   1      32.872  26.227  25.020  1.00  0.00     0.040 C 
BRANCH  12  15
ATOM     15  C   UNL A   1      33.661  24.927  22.944  1.00  0.00    -0.041 A 
ATOM     16  C   UNL A   1      33.249  25.867  21.982  1.00  0.00     0.004 A 
ATOM     17  C   UNL A   1      33.673  23.572  22.571  1.00  0.00     0.004 A 
ATOM     18  C   UNL A   1      32.820  25.463  20.714  1.00  0.00     0.000 A 
ATOM     19  C   UNL A   1      33.260  23.169  21.298  1.00  0.00     0.000 A 
ATOM     20  C   UNL A   1      32.824  24.114  20.374  1.00  0.00     0.000 A 
ENDBRANCH  12  15
BRANCH   8  21
ATOM     21  C   UNL A   1      30.997  24.592  24.515  1.00  0.00     0.256 C 
ATOM     22  O   UNL A   1      30.989  23.355  24.461  1.00  0.00    -0.272 OA
ATOM     23  N   UNL A   1      30.289  25.260  23.530  1.00  0.00    -0.246 N 
ATOM     24  H   UNL A   1      29.723  24.695  22.955  1.00  0.00     0.193 HD
BRANCH  23  25
ATOM     25  N   UNL A   1      30.270  26.597  23.245  1.00  0.00    -0.181 NA
ATOM     26  C   UNL A   1      29.102  27.159  23.274  1.00  0.00     0.144 C 
BRANCH  26  27
ATOM     27  C   UNL A   1      28.905  28.606  23.010  1.00  0.00     0.026 C 
ATOM     28  C   UNL A   1      29.860  29.380  22.460  1.00  0.00    -0.119 C 
ATOM     29  C   UNL A   1      27.586  29.224  23.271  1.00  0.00     0.164 C 
ATOM     30  O   UNL A   1      31.139  28.937  22.180  1.00  0.00    -0.875 OA
ATOM     31  C   UNL A   1      29.612  30.830  22.111  1.00  0.00     0.026 C 
ATOM     32  C   UNL A   1      27.484  30.727  23.451  1.00  0.00     0.087 C 
ATOM     33  O   UNL A   1      26.588  28.512  23.395  1.00  0.00    -0.294 OA
ATOM     34  C   UNL A   1      28.763  31.537  23.184  1.00  0.00    -0.025 C 
ATOM     35  C   UNL A   1      29.587  31.707  24.480  1.00  0.00     0.012 C 
ATOM     36  C   UNL A   1      28.343  32.942  22.711  1.00  0.00     0.012 C 
ENDBRANCH  26  27
ENDBRANCH  23  25
ENDBRANCH   8  21
ENDBRANCH   5   8
ENDBRANCH   3   4
ENDBRANCH   2   3
ENDBRANCH   1   2
BRANCH   1  37
ATOM     37  C   UNL A   1      33.364  30.610  27.366  1.00  0.00     0.002 C 
BRANCH  37  38
ATOM     38  C   UNL A   1      32.921  31.947  27.968  1.00  0.00     0.021 C 
BRANCH  38  39
ATOM     39  C   UNL A   1      33.065  33.167  27.062  1.00  0.00     0.116 C 
BRANCH  39  40
ATOM     40  N   UNL A   1      32.619  34.401  27.690  1.00  0.00    -0.352 N 
ATOM     41  C   UNL A   1      33.067  34.998  28.844  1.00  0.00     0.251 C 
ATOM     42  H   UNL A   1      31.893  34.875  27.222  1.00  0.00     0.163 HD
ATOM     43  O   UNL A   1      32.480  35.966  29.318  1.00  0.00    -0.269 OA
BRANCH  41  44
ATOM     44  C   UNL A   1      34.250  34.446  29.536  1.00  0.00     0.039 A 
ATOM     45  C   UNL A   1      34.073  33.787  30.755  1.00  0.00     0.014 A 
ATOM     46  C   UNL A   1      35.521  34.556  28.968  1.00  0.00     0.014 A 
ATOM     47  C   UNL A   1      35.164  33.165  31.366  1.00  0.00     0.010 A 
ATOM     48  C   UNL A   1      36.594  33.877  29.544  1.00  0.00     0.010 A 
ATOM     49  C   UNL A   1      36.425  33.170  30.744  1.00  0.00    -0.014 A 
BRANCH  49  50
ATOM     50  C   UNL A   1      37.568  32.421  31.328  1.00  0.00     0.031 A 
ATOM     51  C   UNL A   1      38.118  32.802  32.673  1.00  0.00     0.074 A 
ATOM     52  C   UNL A   1      38.154  31.439  30.617  1.00  0.00     0.049 A 
ATOM     53  N   UNL A   1      39.141  32.305  33.322  1.00  0.00    -0.248 NA
ATOM     54  C   UNL A   1      37.445  33.908  33.371  1.00  0.00     0.031 C 
ATOM     55  C   UNL A   1      37.751  31.010  29.277  1.00  0.00     0.029 A 
ATOM     56  N   UNL A   1      39.225  30.631  30.915  1.00  0.00    -0.354 N 
ATOM     57  C   UNL A   1      39.240  33.041  34.495  1.00  0.00     0.074 A 
ATOM     58  C   UNL A   1      38.208  34.055  34.444  1.00  0.00     0.031 C 
ATOM     59  C   UNL A   1      38.551  30.009  28.875  1.00  0.00     0.029 A 
ATOM     60  C   UNL A   1      39.545  29.748  29.912  1.00  0.00     0.049 A 
ATOM     61  H   UNL A   1      39.716  30.681  31.766  1.00  0.00     0.167 HD
ATOM     62  C   UNL A   1      40.096  32.871  35.530  1.00  0.00     0.037 A 
ATOM     63  C   UNL A   1      40.533  28.836  29.834  1.00  0.00     0.037 A 
ATOM     64  C   UNL A   1      41.110  31.850  35.586  1.00  0.00     0.049 A 
ATOM     65  C   UNL A   1      41.473  28.667  30.997  1.00  0.00     0.074 A 
ATOM     66  C   UNL A   1      41.984  31.557  36.619  1.00  0.00     0.029 A 
ATOM     67  N   UNL A   1      41.390  30.957  34.561  1.00  0.00    -0.354 N 
ATOM     68  N   UNL A   1      41.505  29.316  32.136  1.00  0.00    -0.248 NA
ATOM     69  C   UNL A   1      42.509  27.632  30.867  1.00  0.00     0.031 C 
ATOM     70  C   UNL A   1      42.825  30.521  36.199  1.00  0.00     0.029 A 
ATOM     71  C   UNL A   1      42.440  30.131  34.927  1.00  0.00     0.049 A 
ATOM     72  H   UNL A   1      40.912  30.918  33.701  1.00  0.00     0.167 HD
ATOM     73  C   UNL A   1      42.543  28.754  32.867  1.00  0.00     0.074 A 
ATOM     74  C   UNL A   1      43.106  27.700  32.049  1.00  0.00     0.031 C 
ATOM     75  C   UNL A   1      42.989  29.082  34.104  1.00  0.00     0.037 A 
BRANCH  62  76
ATOM     76  C   UNL A   1      39.972  33.815  36.691  1.00  0.00     0.064 A 
ATOM     77  C   UNL A   1      40.660  35.038  36.725  1.00  0.00     0.173 A 
ATOM     78  C   UNL A   1      39.135  33.506  37.774  1.00  0.00     0.173 A 
ATOM     79  F   UNL A   1      41.481  35.377  35.719  1.00  0.00    -0.203 F 
ATOM     80  C   UNL A   1      40.542  35.899  37.813  1.00  0.00     0.198 A 
ATOM     81  C   UNL A   1      38.994  34.385  38.846  1.00  0.00     0.198 A 
ATOM     82  F   UNL A   1      38.449  32.354  37.792  1.00  0.00    -0.203 F 
ATOM     83  F   UNL A   1      41.254  37.035  37.846  1.00  0.00    -0.200 F 
ATOM     84  C   UNL A   1      39.705  35.575  38.870  1.00  0.00     0.200 A 
ATOM     85  F   UNL A   1      38.174  34.076  39.861  1.00  0.00    -0.200 F 
ATOM     86  F   UNL A   1      39.590  36.405  39.914  1.00  0.00    -0.200 F 
ENDBRANCH  62  76
BRANCH  63  87
ATOM     87  C   UNL A   1      40.670  27.996  28.615  1.00  0.00     0.064 A 
ATOM     88  C   UNL A   1      41.457  28.415  27.534  1.00  0.00     0.173 A 
ATOM     89  C   UNL A   1      40.019  26.758  28.508  1.00  0.00     0.173 A 
ATOM     90  F   UNL A   1      42.084  29.600  27.582  1.00  0.00    -0.203 F 
ATOM     91  C   UNL A   1      41.573  27.637  26.383  1.00  0.00     0.198 A 
ATOM     92  C   UNL A   1      40.158  25.968  27.369  1.00  0.00     0.198 A 
ATOM     93  F   UNL A   1      39.259  26.308  29.517  1.00  0.00    -0.203 F 
ATOM     94  F   UNL A   1      42.296  28.082  25.347  1.00  0.00    -0.200 F 
ATOM     95  C   UNL A   1      40.928  26.412  26.304  1.00  0.00     0.200 A 
ATOM     96  F   UNL A   1      39.547  24.778  27.302  1.00  0.00    -0.200 F 
ATOM     97  F   UNL A   1      41.044  25.662  25.199  1.00  0.00    -0.200 F 
ENDBRANCH  63  87
BRANCH  75  98
ATOM     98  C   UNL A   1      44.124  28.274  34.665  1.00  0.00     0.064 A 
ATOM     99  C   UNL A   1      45.456  28.700  34.555  1.00  0.00     0.173 A 
ATOM    100  C   UNL A   1      43.871  27.080  35.356  1.00  0.00     0.173 A 
ATOM    101  F   UNL A   1      45.752  29.827  33.891  1.00  0.00    -0.203 F 
ATOM    102  C   UNL A   1      46.495  27.947  35.096  1.00  0.00     0.198 A 
ATOM    103  C   UNL A   1      44.909  26.345  35.921  1.00  0.00     0.198 A 
ATOM    104  F   UNL A   1      42.614  26.631  35.493  1.00  0.00    -0.203 F 
ATOM    105  F   UNL A   1      47.764  28.348  34.939  1.00  0.00    -0.200 F 
ATOM    106  C   UNL A   1      46.220  26.774  35.785  1.00  0.00     0.200 A 
ATOM    107  F   UNL A   1      44.640  25.220  36.598  1.00  0.00    -0.200 F 
ATOM    108  F   UNL A   1      47.220  26.055  36.312  1.00  0.00    -0.200 F 
ENDBRANCH  75  98
ENDBRANCH  49  50
ENDBRANCH  41  44
ENDBRANCH  39  40
ENDBRANCH  38  39
ENDBRANCH  37  38
ENDBRANCH   1  37
TORSDOF 17
ENDMDL
