MODEL 1
REMARK VINA RESULT:     -11.3      0.000      0.000
REMARK SMILES O=C(NCCCCCCNC(=O)c1cc(OCc2ccccc2C(F)(F)F)cs1)c1ccc(-c2c3nc(c(-c4c(F)c(F)c(F)c(F)c4F)c4ccc([nH]4)c(-c4c(F)c(F)c(F)c(F)c4F)c4nc(c(-c5c(F)c(F)c(F)c(F)c5F)c5ccc2[nH]5)C=C4)C=C3)cc1
REMARK SMILES IDX 7 1 6 2 5 3 4 4 3 5 1 6 2 7 30 9 31 10 92 11 32 12 91 13
REMARK SMILES IDX 33 14 34 15 35 16 85 17 36 18 90 19 84 20 86 21 37 22 89 23
REMARK SMILES IDX 83 24 82 25 38 27 70 28 50 29 69 30 51 31 54 32 68 33 87 34
REMARK SMILES IDX 52 35 53 36 67 38 88 39 55 40 39 41 40 42 48 43 41 44 42 45
REMARK SMILES IDX 46 46 49 47 43 48 44 49 47 50 45 51 71 52 72 53 80 54 73 55
REMARK SMILES IDX 74 56 78 57 81 58 75 59 76 60 79 61 77 62 56 63 57 64 65 65
REMARK SMILES IDX 58 66 59 67 63 68 66 69 60 70 61 71 64 72 62 73 8 74 9 75
REMARK SMILES IDX 10 76 11 77 12 79 13 80 14 81 29 82 15 83 28 84 16 85 17 86
REMARK SMILES IDX 18 87 19 88 23 89 20 90 22 91 21 92 24 93 25 94 26 95 27 96
REMARK H PARENT 3 8 86 26 54 37 10 78
REMARK Flexibility Score: inf
ROOT
ATOM      1  C   UNL A   1      34.754  32.572  29.127  1.00  0.00     0.002 C 
ENDROOT
BRANCH   1   2
ATOM      2  C   UNL A   1      34.661  34.098  28.972  1.00  0.00     0.002 C 
BRANCH   2   3
ATOM      3  C   UNL A   1      33.281  34.769  28.993  1.00  0.00     0.021 C 
BRANCH   3   4
ATOM      4  C   UNL A   1      33.165  36.187  29.541  1.00  0.00     0.116 C 
BRANCH   4   5
ATOM      5  N   UNL A   1      32.351  36.290  30.737  1.00  0.00    -0.352 N 
ATOM      6  O   UNL A   1      31.659  35.940  32.849  1.00  0.00    -0.269 OA
ATOM      7  C   UNL A   1      32.549  35.800  32.003  1.00  0.00     0.251 C 
ATOM      8  H   UNL A   1      31.515  36.797  30.622  1.00  0.00     0.163 HD
BRANCH   7   9
ATOM      9  C   UNL A   1      33.789  35.081  32.384  1.00  0.00     0.039 A 
ATOM     10  C   UNL A   1      35.046  35.687  32.333  1.00  0.00     0.014 A 
ATOM     11  C   UNL A   1      33.676  33.772  32.873  1.00  0.00     0.014 A 
ATOM     12  C   UNL A   1      36.192  34.953  32.648  1.00  0.00     0.010 A 
ATOM     13  C   UNL A   1      34.818  33.060  33.253  1.00  0.00     0.010 A 
ATOM     14  C   UNL A   1      36.092  33.633  33.116  1.00  0.00    -0.014 A 
BRANCH  14  15
ATOM     15  C   UNL A   1      37.310  32.869  33.496  1.00  0.00     0.031 A 
ATOM     16  C   UNL A   1      38.024  33.152  34.790  1.00  0.00     0.074 A 
ATOM     17  C   UNL A   1      37.791  31.928  32.661  1.00  0.00     0.049 A 
ATOM     18  N   UNL A   1      39.130  32.628  35.260  1.00  0.00    -0.248 NA
ATOM     19  C   UNL A   1      37.420  34.163  35.667  1.00  0.00     0.031 C 
ATOM     20  C   UNL A   1      37.196  31.563  31.376  1.00  0.00     0.029 A 
ATOM     21  N   UNL A   1      38.893  31.115  32.760  1.00  0.00    -0.354 N 
ATOM     22  C   UNL A   1      39.363  33.259  36.475  1.00  0.00     0.074 A 
ATOM     23  C   UNL A   1      38.301  34.226  36.656  1.00  0.00     0.031 C 
ATOM     24  C   UNL A   1      37.928  30.591  30.812  1.00  0.00     0.029 A 
ATOM     25  C   UNL A   1      39.077  30.306  31.666  1.00  0.00     0.049 A 
ATOM     26  H   UNL A   1      39.494  31.113  33.540  1.00  0.00     0.167 HD
ATOM     27  C   UNL A   1      40.368  33.045  37.362  1.00  0.00     0.037 A 
ATOM     28  C   UNL A   1      40.074  29.452  31.365  1.00  0.00     0.037 A 
ATOM     29  C   UNL A   1      41.424  32.082  37.174  1.00  0.00     0.049 A 
ATOM     30  C   UNL A   1      41.204  29.267  32.339  1.00  0.00     0.074 A 
ATOM     31  C   UNL A   1      42.467  31.767  38.028  1.00  0.00     0.029 A 
ATOM     32  N   UNL A   1      41.583  31.291  36.044  1.00  0.00    -0.354 N 
ATOM     33  N   UNL A   1      41.392  29.837  33.504  1.00  0.00    -0.248 NA
ATOM     34  C   UNL A   1      42.259  28.319  31.957  1.00  0.00     0.031 C 
ATOM     35  C   UNL A   1      43.290  30.833  37.389  1.00  0.00     0.029 A 
ATOM     36  C   UNL A   1      42.722  30.510  36.167  1.00  0.00     0.049 A 
ATOM     37  H   UNL A   1      40.976  31.285  35.269  1.00  0.00     0.167 HD
ATOM     38  C   UNL A   1      42.567  29.297  34.010  1.00  0.00     0.074 A 
ATOM     39  C   UNL A   1      43.045  28.346  33.026  1.00  0.00     0.031 C 
ATOM     40  C   UNL A   1      43.186  29.559  35.187  1.00  0.00     0.037 A 
BRANCH  27  41
ATOM     41  C   UNL A   1      40.391  33.893  38.604  1.00  0.00     0.064 A 
ATOM     42  C   UNL A   1      39.692  33.528  39.766  1.00  0.00     0.173 A 
ATOM     43  C   UNL A   1      41.141  35.079  38.642  1.00  0.00     0.173 A 
ATOM     44  F   UNL A   1      38.954  32.407  39.786  1.00  0.00    -0.203 F 
ATOM     45  C   UNL A   1      39.711  34.336  40.900  1.00  0.00     0.198 A 
ATOM     46  C   UNL A   1      41.187  35.867  39.789  1.00  0.00     0.198 A 
ATOM     47  F   UNL A   1      41.839  35.473  37.565  1.00  0.00    -0.203 F 
ATOM     48  F   UNL A   1      38.985  33.997  41.975  1.00  0.00    -0.200 F 
ATOM     49  C   UNL A   1      40.461  35.503  40.912  1.00  0.00     0.200 A 
ATOM     50  F   UNL A   1      41.927  36.984  39.804  1.00  0.00    -0.200 F 
ATOM     51  F   UNL A   1      40.479  36.279  42.005  1.00  0.00    -0.200 F 
ENDBRANCH  27  41
BRANCH  28  52
ATOM     52  C   UNL A   1      40.039  28.712  30.077  1.00  0.00     0.064 A 
ATOM     53  C   UNL A   1      40.633  29.240  28.923  1.00  0.00     0.173 A 
ATOM     54  C   UNL A   1      39.435  27.449  29.980  1.00  0.00     0.173 A 
ATOM     55  F   UNL A   1      41.206  30.452  28.960  1.00  0.00    -0.203 F 
ATOM     56  C   UNL A   1      40.617  28.538  27.720  1.00  0.00     0.198 A 
ATOM     57  C   UNL A   1      39.446  26.735  28.785  1.00  0.00     0.198 A 
ATOM     58  F   UNL A   1      38.857  26.897  31.057  1.00  0.00    -0.203 F 
ATOM     59  F   UNL A   1      41.161  29.081  26.622  1.00  0.00    -0.200 F 
ATOM     60  C   UNL A   1      40.031  27.282  27.654  1.00  0.00     0.200 A 
ATOM     61  F   UNL A   1      38.896  25.513  28.731  1.00  0.00    -0.200 F 
ATOM     62  F   UNL A   1      40.029  26.601  26.500  1.00  0.00    -0.200 F 
ENDBRANCH  28  52
BRANCH  40  63
ATOM     63  C   UNL A   1      44.424  28.772  35.510  1.00  0.00     0.064 A 
ATOM     64  C   UNL A   1      44.371  27.542  36.180  1.00  0.00     0.173 A 
ATOM     65  C   UNL A   1      45.681  29.236  35.090  1.00  0.00     0.173 A 
ATOM     66  F   UNL A   1      43.198  27.060  36.617  1.00  0.00    -0.203 F 
ATOM     67  C   UNL A   1      45.532  26.816  36.437  1.00  0.00     0.198 A 
ATOM     68  C   UNL A   1      46.835  28.492  35.318  1.00  0.00     0.198 A 
ATOM     69  F   UNL A   1      45.789  30.405  34.440  1.00  0.00    -0.203 F 
ATOM     70  F   UNL A   1      45.462  25.664  37.119  1.00  0.00    -0.200 F 
ATOM     71  C   UNL A   1      46.761  27.286  35.998  1.00  0.00     0.200 A 
ATOM     72  F   UNL A   1      48.019  28.942  34.879  1.00  0.00    -0.200 F 
ATOM     73  F   UNL A   1      47.874  26.579  36.233  1.00  0.00    -0.200 F 
ENDBRANCH  40  63
ENDBRANCH  14  15
ENDBRANCH   7   9
ENDBRANCH   4   5
ENDBRANCH   3   4
ENDBRANCH   2   3
ENDBRANCH   1   2
BRANCH   1  74
ATOM     74  C   UNL A   1      35.382  31.738  28.002  1.00  0.00     0.021 C 
BRANCH  74  75
ATOM     75  C   UNL A   1      34.519  30.720  27.251  1.00  0.00     0.116 C 
BRANCH  75  76
ATOM     76  N   UNL A   1      33.172  30.390  27.663  1.00  0.00    -0.351 N 
ATOM     77  C   UNL A   1      32.434  29.284  27.203  1.00  0.00     0.261 C 
ATOM     78  H   UNL A   1      32.738  30.985  28.315  1.00  0.00     0.163 HD
ATOM     79  O   UNL A   1      31.493  28.905  27.901  1.00  0.00    -0.268 OA
BRANCH  77  80
ATOM     80  C   UNL A   1      32.795  28.621  25.944  1.00  0.00     0.096 A 
ATOM     81  C   UNL A   1      32.683  29.040  24.614  1.00  0.00     0.072 A 
ATOM     82  S   UNL A   1      33.630  27.122  26.012  1.00  0.00    -0.135 S 
ATOM     83  C   UNL A   1      32.828  27.937  23.697  1.00  0.00     0.131 A 
ATOM     84  C   UNL A   1      33.518  26.915  24.314  1.00  0.00     0.112 A 
BRANCH  83  85
ATOM     85  O   UNL A   1      32.461  27.753  22.392  1.00  0.00    -0.488 OA
BRANCH  85  86
ATOM     86  C   UNL A   1      31.137  27.293  22.053  1.00  0.00     0.266 C 
BRANCH  86  87
ATOM     87  C   UNL A   1      29.972  28.256  22.365  1.00  0.00     0.001 A 
ATOM     88  C   UNL A   1      29.995  29.611  22.002  1.00  0.00     0.008 A 
ATOM     89  C   UNL A   1      28.859  27.871  23.125  1.00  0.00     0.062 A 
ATOM     90  C   UNL A   1      28.908  30.468  22.283  1.00  0.00     0.000 A 
ATOM     91  C   UNL A   1      27.701  28.664  23.236  1.00  0.00     0.013 A 
ATOM     92  C   UNL A   1      27.732  29.979  22.836  1.00  0.00     0.001 A 
BRANCH  89  93
ATOM     93  C   UNL A   1      28.860  26.631  23.922  1.00  0.00     0.416 C 
ATOM     94  F   UNL A   1      29.160  25.530  23.186  1.00  0.00    -0.166 F 
ATOM     95  F   UNL A   1      29.799  26.725  24.875  1.00  0.00    -0.166 F 
ATOM     96  F   UNL A   1      27.668  26.328  24.490  1.00  0.00    -0.166 F 
ENDBRANCH  89  93
ENDBRANCH  86  87
ENDBRANCH  85  86
ENDBRANCH  83  85
ENDBRANCH  77  80
ENDBRANCH  75  76
ENDBRANCH  74  75
ENDBRANCH   1  74
TORSDOF 17
ENDMDL
MODEL 2
REMARK VINA RESULT:     -11.1      4.328      6.841
REMARK SMILES O=C(NCCCCCCNC(=O)c1cc(OCc2ccccc2C(F)(F)F)cs1)c1ccc(-c2c3nc(c(-c4c(F)c(F)c(F)c(F)c4F)c4ccc([nH]4)c(-c4c(F)c(F)c(F)c(F)c4F)c4nc(c(-c5c(F)c(F)c(F)c(F)c5F)c5ccc2[nH]5)C=C4)C=C3)cc1
REMARK SMILES IDX 7 1 6 2 5 3 4 4 3 5 1 6 2 7 30 9 31 10 92 11 32 12 91 13
REMARK SMILES IDX 33 14 34 15 35 16 85 17 36 18 90 19 84 20 86 21 37 22 89 23
REMARK SMILES IDX 83 24 82 25 38 27 70 28 50 29 69 30 51 31 54 32 68 33 87 34
REMARK SMILES IDX 52 35 53 36 67 38 88 39 55 40 39 41 40 42 48 43 41 44 42 45
REMARK SMILES IDX 46 46 49 47 43 48 44 49 47 50 45 51 71 52 72 53 80 54 73 55
REMARK SMILES IDX 74 56 78 57 81 58 75 59 76 60 79 61 77 62 56 63 57 64 65 65
REMARK SMILES IDX 58 66 59 67 63 68 66 69 60 70 61 71 64 72 62 73 8 74 9 75
REMARK SMILES IDX 10 76 11 77 12 79 13 80 14 81 29 82 15 83 28 84 16 85 17 86
REMARK SMILES IDX 18 87 19 88 23 89 20 90 22 91 21 92 24 93 25 94 26 95 27 96
REMARK H PARENT 3 8 86 26 54 37 10 78
REMARK Flexibility Score: inf
ROOT
ATOM      1  C   UNL A   1      30.691  26.716  26.141  1.00  0.00     0.002 C 
ENDROOT
BRANCH   1   2
ATOM      2  C   UNL A   1      32.213  26.526  26.036  1.00  0.00     0.002 C 
BRANCH   2   3
ATOM      3  C   UNL A   1      33.117  27.763  25.951  1.00  0.00     0.021 C 
BRANCH   3   4
ATOM      4  C   UNL A   1      33.889  28.192  27.194  1.00  0.00     0.116 C 
BRANCH   4   5
ATOM      5  N   UNL A   1      33.803  29.612  27.478  1.00  0.00    -0.352 N 
ATOM      6  O   UNL A   1      34.376  31.639  28.268  1.00  0.00    -0.269 OA
ATOM      7  C   UNL A   1      34.713  30.472  28.040  1.00  0.00     0.251 C 
ATOM      8  H   UNL A   1      32.948  30.030  27.226  1.00  0.00     0.163 HD
BRANCH   7   9
ATOM      9  C   UNL A   1      36.083  30.039  28.408  1.00  0.00     0.039 A 
ATOM     10  C   UNL A   1      36.379  29.495  29.660  1.00  0.00     0.014 A 
ATOM     11  C   UNL A   1      37.091  30.122  27.438  1.00  0.00     0.014 A 
ATOM     12  C   UNL A   1      37.695  29.153  29.982  1.00  0.00     0.010 A 
ATOM     13  C   UNL A   1      38.395  29.714  27.739  1.00  0.00     0.010 A 
ATOM     14  C   UNL A   1      38.717  29.253  29.025  1.00  0.00    -0.014 A 
BRANCH  14  15
ATOM     15  C   UNL A   1      40.108  28.844  29.355  1.00  0.00     0.031 A 
ATOM     16  C   UNL A   1      41.009  29.748  30.151  1.00  0.00     0.074 A 
ATOM     17  C   UNL A   1      40.572  27.658  28.916  1.00  0.00     0.049 A 
ATOM     18  N   UNL A   1      42.265  29.584  30.485  1.00  0.00    -0.248 NA
ATOM     19  C   UNL A   1      40.421  31.007  30.629  1.00  0.00     0.031 C 
ATOM     20  C   UNL A   1      39.803  26.693  28.131  1.00  0.00     0.029 A 
ATOM     21  N   UNL A   1      41.803  27.065  29.058  1.00  0.00    -0.354 N 
ATOM     22  C   UNL A   1      42.624  30.724  31.192  1.00  0.00     0.074 A 
ATOM     23  C   UNL A   1      41.460  31.587  31.214  1.00  0.00     0.031 C 
ATOM     24  C   UNL A   1      40.571  25.624  27.871  1.00  0.00     0.029 A 
ATOM     25  C   UNL A   1      41.904  25.853  28.419  1.00  0.00     0.049 A 
ATOM     26  H   UNL A   1      42.542  27.470  29.567  1.00  0.00     0.167 HD
ATOM     27  C   UNL A   1      43.812  31.021  31.776  1.00  0.00     0.037 A 
ATOM     28  C   UNL A   1      42.959  25.030  28.263  1.00  0.00     0.037 A 
ATOM     29  C   UNL A   1      44.967  30.159  31.748  1.00  0.00     0.049 A 
ATOM     30  C   UNL A   1      44.280  25.402  28.876  1.00  0.00     0.074 A 
ATOM     31  C   UNL A   1      46.204  30.354  32.338  1.00  0.00     0.029 A 
ATOM     32  N   UNL A   1      45.033  28.945  31.078  1.00  0.00    -0.354 N 
ATOM     33  N   UNL A   1      44.596  26.463  29.579  1.00  0.00    -0.248 NA
ATOM     34  C   UNL A   1      45.391  24.463  28.676  1.00  0.00     0.031 C 
ATOM     35  C   UNL A   1      47.037  29.291  31.973  1.00  0.00     0.029 A 
ATOM     36  C   UNL A   1      46.299  28.394  31.217  1.00  0.00     0.049 A 
ATOM     37  H   UNL A   1      44.291  28.534  30.579  1.00  0.00     0.167 HD
ATOM     38  C   UNL A   1      45.929  26.306  29.932  1.00  0.00     0.074 A 
ATOM     39  C   UNL A   1      46.361  25.042  29.370  1.00  0.00     0.031 C 
ATOM     40  C   UNL A   1      46.718  27.131  30.663  1.00  0.00     0.037 A 
BRANCH  27  41
ATOM     41  C   UNL A   1      43.933  32.351  32.469  1.00  0.00     0.064 A 
ATOM     42  C   UNL A   1      44.366  33.504  31.793  1.00  0.00     0.173 A 
ATOM     43  C   UNL A   1      43.590  32.481  33.824  1.00  0.00     0.173 A 
ATOM     44  F   UNL A   1      44.712  33.438  30.499  1.00  0.00    -0.203 F 
ATOM     45  C   UNL A   1      44.489  34.722  32.458  1.00  0.00     0.198 A 
ATOM     46  C   UNL A   1      43.681  33.708  34.476  1.00  0.00     0.198 A 
ATOM     47  F   UNL A   1      43.159  31.416  34.518  1.00  0.00    -0.203 F 
ATOM     48  F   UNL A   1      44.964  35.793  31.806  1.00  0.00    -0.200 F 
ATOM     49  C   UNL A   1      44.143  34.824  33.797  1.00  0.00     0.200 A 
ATOM     50  F   UNL A   1      43.328  33.808  35.765  1.00  0.00    -0.200 F 
ATOM     51  F   UNL A   1      44.262  35.997  34.433  1.00  0.00    -0.200 F 
ENDBRANCH  27  41
BRANCH  28  52
ATOM     52  C   UNL A   1      42.796  23.774  27.487  1.00  0.00     0.064 A 
ATOM     53  C   UNL A   1      43.180  23.699  26.141  1.00  0.00     0.173 A 
ATOM     54  C   UNL A   1      42.280  22.612  28.084  1.00  0.00     0.173 A 
ATOM     55  F   UNL A   1      43.660  24.788  25.522  1.00  0.00    -0.203 F 
ATOM     56  C   UNL A   1      43.045  22.515  25.419  1.00  0.00     0.198 A 
ATOM     57  C   UNL A   1      42.175  21.422  27.370  1.00  0.00     0.198 A 
ATOM     58  F   UNL A   1      41.903  22.629  29.370  1.00  0.00    -0.203 F 
ATOM     59  F   UNL A   1      43.386  22.482  24.124  1.00  0.00    -0.200 F 
ATOM     60  C   UNL A   1      42.551  21.376  26.036  1.00  0.00     0.200 A 
ATOM     61  F   UNL A   1      41.716  20.318  27.975  1.00  0.00    -0.200 F 
ATOM     62  F   UNL A   1      42.436  20.233  25.345  1.00  0.00    -0.200 F 
ENDBRANCH  28  52
BRANCH  40  63
ATOM     63  C   UNL A   1      48.121  26.675  30.948  1.00  0.00     0.064 A 
ATOM     64  C   UNL A   1      49.209  27.075  30.159  1.00  0.00     0.173 A 
ATOM     65  C   UNL A   1      48.384  25.866  32.065  1.00  0.00     0.173 A 
ATOM     66  F   UNL A   1      49.012  27.835  29.071  1.00  0.00    -0.203 F 
ATOM     67  C   UNL A   1      50.505  26.665  30.465  1.00  0.00     0.198 A 
ATOM     68  C   UNL A   1      49.683  25.486  32.388  1.00  0.00     0.198 A 
ATOM     69  F   UNL A   1      47.379  25.458  32.857  1.00  0.00    -0.203 F 
ATOM     70  F   UNL A   1      51.523  27.022  29.672  1.00  0.00    -0.200 F 
ATOM     71  C   UNL A   1      50.742  25.880  31.584  1.00  0.00     0.200 A 
ATOM     72  F   UNL A   1      49.911  24.740  33.478  1.00  0.00    -0.200 F 
ATOM     73  F   UNL A   1      51.991  25.499  31.885  1.00  0.00    -0.200 F 
ENDBRANCH  40  63
ENDBRANCH  14  15
ENDBRANCH   7   9
ENDBRANCH   4   5
ENDBRANCH   3   4
ENDBRANCH   2   3
ENDBRANCH   1   2
BRANCH   1  74
ATOM     74  C   UNL A   1      29.758  25.722  25.437  1.00  0.00     0.021 C 
BRANCH  74  75
ATOM     75  C   UNL A   1      29.216  26.058  24.045  1.00  0.00     0.116 C 
BRANCH  75  76
ATOM     76  N   UNL A   1      29.017  27.419  23.597  1.00  0.00    -0.351 N 
ATOM     77  C   UNL A   1      29.818  28.084  22.651  1.00  0.00     0.261 C 
ATOM     78  H   UNL A   1      28.262  27.918  23.983  1.00  0.00     0.163 HD
ATOM     79  O   UNL A   1      29.326  29.060  22.083  1.00  0.00    -0.268 OA
BRANCH  77  80
ATOM     80  C   UNL A   1      31.179  27.613  22.367  1.00  0.00     0.096 A 
ATOM     81  C   UNL A   1      31.646  26.408  21.830  1.00  0.00     0.072 A 
ATOM     82  S   UNL A   1      32.488  28.706  22.566  1.00  0.00    -0.135 S 
ATOM     83  C   UNL A   1      33.060  26.240  22.058  1.00  0.00     0.131 A 
ATOM     84  C   UNL A   1      33.641  27.473  22.269  1.00  0.00     0.112 A 
BRANCH  83  85
ATOM     85  O   UNL A   1      33.882  25.146  22.062  1.00  0.00    -0.488 OA
BRANCH  85  86
ATOM     86  C   UNL A   1      33.447  23.894  22.631  1.00  0.00     0.266 C 
BRANCH  86  87
ATOM     87  C   UNL A   1      33.844  23.629  24.098  1.00  0.00     0.001 A 
ATOM     88  C   UNL A   1      35.142  23.856  24.581  1.00  0.00     0.008 A 
ATOM     89  C   UNL A   1      32.968  23.043  25.022  1.00  0.00     0.062 A 
ATOM     90  C   UNL A   1      35.476  23.622  25.934  1.00  0.00     0.000 A 
ATOM     91  C   UNL A   1      33.239  22.993  26.403  1.00  0.00     0.013 A 
ATOM     92  C   UNL A   1      34.508  23.259  26.860  1.00  0.00     0.001 A 
BRANCH  89  93
ATOM     93  C   UNL A   1      31.727  22.374  24.592  1.00  0.00     0.416 C 
ATOM     94  F   UNL A   1      30.925  23.176  23.846  1.00  0.00    -0.166 F 
ATOM     95  F   UNL A   1      32.043  21.321  23.823  1.00  0.00    -0.166 F 
ATOM     96  F   UNL A   1      30.928  21.968  25.607  1.00  0.00    -0.166 F 
ENDBRANCH  89  93
ENDBRANCH  86  87
ENDBRANCH  85  86
ENDBRANCH  83  85
ENDBRANCH  77  80
ENDBRANCH  75  76
ENDBRANCH  74  75
ENDBRANCH   1  74
TORSDOF 17
ENDMDL
MODEL 3
REMARK VINA RESULT:     -11.1      5.371      9.747
REMARK SMILES O=C(NCCCCCCNC(=O)c1cc(OCc2ccccc2C(F)(F)F)cs1)c1ccc(-c2c3nc(c(-c4c(F)c(F)c(F)c(F)c4F)c4ccc([nH]4)c(-c4c(F)c(F)c(F)c(F)c4F)c4nc(c(-c5c(F)c(F)c(F)c(F)c5F)c5ccc2[nH]5)C=C4)C=C3)cc1
REMARK SMILES IDX 7 1 6 2 5 3 4 4 3 5 1 6 2 7 30 9 31 10 92 11 32 12 91 13
REMARK SMILES IDX 33 14 34 15 35 16 85 17 36 18 90 19 84 20 86 21 37 22 89 23
REMARK SMILES IDX 83 24 82 25 38 27 70 28 50 29 69 30 51 31 54 32 68 33 87 34
REMARK SMILES IDX 52 35 53 36 67 38 88 39 55 40 39 41 40 42 48 43 41 44 42 45
REMARK SMILES IDX 46 46 49 47 43 48 44 49 47 50 45 51 71 52 72 53 80 54 73 55
REMARK SMILES IDX 74 56 78 57 81 58 75 59 76 60 79 61 77 62 56 63 57 64 65 65
REMARK SMILES IDX 58 66 59 67 63 68 66 69 60 70 61 71 64 72 62 73 8 74 9 75
REMARK SMILES IDX 10 76 11 77 12 79 13 80 14 81 29 82 15 83 28 84 16 85 17 86
REMARK SMILES IDX 18 87 19 88 23 89 20 90 22 91 21 92 24 93 25 94 26 95 27 96
REMARK H PARENT 3 8 86 26 54 37 10 78
REMARK Flexibility Score: inf
ROOT
ATOM      1  C   UNL A   1      37.756  32.682  30.206  1.00  0.00     0.002 C 
ENDROOT
BRANCH   1   2
ATOM      2  C   UNL A   1      37.155  33.665  29.189  1.00  0.00     0.002 C 
BRANCH   2   3
ATOM      3  C   UNL A   1      35.733  33.424  28.666  1.00  0.00     0.021 C 
BRANCH   3   4
ATOM      4  C   UNL A   1      34.860  32.390  29.367  1.00  0.00     0.116 C 
BRANCH   4   5
ATOM      5  N   UNL A   1      34.312  31.383  28.478  1.00  0.00    -0.352 N 
ATOM      6  O   UNL A   1      34.240  29.609  27.098  1.00  0.00    -0.269 OA
ATOM      7  C   UNL A   1      34.892  30.279  27.905  1.00  0.00     0.251 C 
ATOM      8  H   UNL A   1      33.364  31.513  28.247  1.00  0.00     0.163 HD
BRANCH   7   9
ATOM      9  C   UNL A   1      36.288  29.880  28.203  1.00  0.00     0.039 A 
ATOM     10  C   UNL A   1      36.647  29.270  29.407  1.00  0.00     0.014 A 
ATOM     11  C   UNL A   1      37.260  30.063  27.210  1.00  0.00     0.014 A 
ATOM     12  C   UNL A   1      37.985  28.961  29.666  1.00  0.00     0.010 A 
ATOM     13  C   UNL A   1      38.588  29.691  27.444  1.00  0.00     0.010 A 
ATOM     14  C   UNL A   1      38.970  29.163  28.687  1.00  0.00    -0.014 A 
BRANCH  14  15
ATOM     15  C   UNL A   1      40.386  28.790  28.947  1.00  0.00     0.031 A 
ATOM     16  C   UNL A   1      41.330  29.761  29.601  1.00  0.00     0.074 A 
ATOM     17  C   UNL A   1      40.831  27.575  28.572  1.00  0.00     0.049 A 
ATOM     18  N   UNL A   1      42.610  29.633  29.855  1.00  0.00    -0.248 NA
ATOM     19  C   UNL A   1      40.764  31.051  30.017  1.00  0.00     0.031 C 
ATOM     20  C   UNL A   1      40.019  26.545  27.925  1.00  0.00     0.029 A 
ATOM     21  N   UNL A   1      42.076  27.003  28.671  1.00  0.00    -0.354 N 
ATOM     22  C   UNL A   1      43.004  30.829  30.440  1.00  0.00     0.074 A 
ATOM     23  C   UNL A   1      41.835  31.683  30.476  1.00  0.00     0.031 C 
ATOM     24  C   UNL A   1      40.779  25.464  27.697  1.00  0.00     0.029 A 
ATOM     25  C   UNL A   1      42.146  25.745  28.127  1.00  0.00     0.049 A 
ATOM     26  H   UNL A   1      42.845  27.453  29.091  1.00  0.00     0.167 HD
ATOM     27  C   UNL A   1      44.227  31.179  30.911  1.00  0.00     0.037 A 
ATOM     28  C   UNL A   1      43.196  24.918  27.961  1.00  0.00     0.037 A 
ATOM     29  C   UNL A   1      45.388  30.325  30.868  1.00  0.00     0.049 A 
ATOM     30  C   UNL A   1      44.554  25.347  28.445  1.00  0.00     0.074 A 
ATOM     31  C   UNL A   1      46.662  30.574  31.349  1.00  0.00     0.029 A 
ATOM     32  N   UNL A   1      45.420  29.060  30.295  1.00  0.00    -0.354 N 
ATOM     33  N   UNL A   1      44.906  26.463  29.036  1.00  0.00    -0.248 NA
ATOM     34  C   UNL A   1      45.658  24.401  28.241  1.00  0.00     0.031 C 
ATOM     35  C   UNL A   1      47.479  29.490  31.011  1.00  0.00     0.029 A 
ATOM     36  C   UNL A   1      46.699  28.531  30.385  1.00  0.00     0.049 A 
ATOM     37  H   UNL A   1      44.649  28.606  29.885  1.00  0.00     0.167 HD
ATOM     38  C   UNL A   1      46.263  26.342  29.302  1.00  0.00     0.074 A 
ATOM     39  C   UNL A   1      46.669  25.040  28.814  1.00  0.00     0.031 C 
ATOM     40  C   UNL A   1      47.093  27.229  29.905  1.00  0.00     0.037 A 
BRANCH  27  41
ATOM     41  C   UNL A   1      44.382  32.561  31.483  1.00  0.00     0.064 A 
ATOM     42  C   UNL A   1      44.224  32.819  32.855  1.00  0.00     0.173 A 
ATOM     43  C   UNL A   1      44.715  33.642  30.652  1.00  0.00     0.173 A 
ATOM     44  F   UNL A   1      43.900  31.825  33.696  1.00  0.00    -0.203 F 
ATOM     45  C   UNL A   1      44.353  34.109  33.363  1.00  0.00     0.198 A 
ATOM     46  C   UNL A   1      44.878  34.925  31.169  1.00  0.00     0.198 A 
ATOM     47  F   UNL A   1      44.890  33.454  29.335  1.00  0.00    -0.203 F 
ATOM     48  F   UNL A   1      44.136  34.339  34.666  1.00  0.00    -0.200 F 
ATOM     49  C   UNL A   1      44.684  35.160  32.521  1.00  0.00     0.200 A 
ATOM     50  F   UNL A   1      45.216  35.936  30.356  1.00  0.00    -0.200 F 
ATOM     51  F   UNL A   1      44.808  36.401  33.012  1.00  0.00    -0.200 F 
ENDBRANCH  27  41
BRANCH  28  52
ATOM     52  C   UNL A   1      42.993  23.602  27.303  1.00  0.00     0.064 A 
ATOM     53  C   UNL A   1      43.387  23.389  25.975  1.00  0.00     0.173 A 
ATOM     54  C   UNL A   1      42.427  22.521  27.997  1.00  0.00     0.173 A 
ATOM     55  F   UNL A   1      43.915  24.396  25.264  1.00  0.00    -0.203 F 
ATOM     56  C   UNL A   1      43.214  22.148  25.364  1.00  0.00     0.198 A 
ATOM     57  C   UNL A   1      42.283  21.274  27.395  1.00  0.00     0.198 A 
ATOM     58  F   UNL A   1      42.038  22.671  29.271  1.00  0.00    -0.203 F 
ATOM     59  F   UNL A   1      43.567  21.982  24.082  1.00  0.00    -0.200 F 
ATOM     60  C   UNL A   1      42.671  21.090  26.076  1.00  0.00     0.200 A 
ATOM     61  F   UNL A   1      41.775  20.249  28.093  1.00  0.00    -0.200 F 
ATOM     62  F   UNL A   1      42.519  19.894  25.492  1.00  0.00    -0.200 F 
ENDBRANCH  28  52
BRANCH  40  63
ATOM     63  C   UNL A   1      48.518  26.806  30.124  1.00  0.00     0.064 A 
ATOM     64  C   UNL A   1      49.545  27.165  29.239  1.00  0.00     0.173 A 
ATOM     65  C   UNL A   1      48.866  26.074  31.270  1.00  0.00     0.173 A 
ATOM     66  F   UNL A   1      49.265  27.851  28.121  1.00  0.00    -0.203 F 
ATOM     67  C   UNL A   1      50.864  26.788  29.483  1.00  0.00     0.198 A 
ATOM     68  C   UNL A   1      50.188  25.728  31.528  1.00  0.00     0.198 A 
ATOM     69  F   UNL A   1      47.922  25.708  32.152  1.00  0.00    -0.203 F 
ATOM     70  F   UNL A   1      51.822  27.104  28.601  1.00  0.00    -0.200 F 
ATOM     71  C   UNL A   1      51.186  26.079  30.631  1.00  0.00     0.200 A 
ATOM     72  F   UNL A   1      50.499  25.056  32.645  1.00  0.00    -0.200 F 
ATOM     73  F   UNL A   1      52.457  25.731  30.871  1.00  0.00    -0.200 F 
ENDBRANCH  40  63
ENDBRANCH  14  15
ENDBRANCH   7   9
ENDBRANCH   4   5
ENDBRANCH   3   4
ENDBRANCH   2   3
ENDBRANCH   1   2
BRANCH   1  74
ATOM     74  C   UNL A   1      37.903  33.110  31.672  1.00  0.00     0.021 C 
BRANCH  74  75
ATOM     75  C   UNL A   1      38.195  32.051  32.738  1.00  0.00     0.116 C 
BRANCH  75  76
ATOM     76  N   UNL A   1      37.640  30.717  32.681  1.00  0.00    -0.351 N 
ATOM     77  C   UNL A   1      38.208  29.578  33.279  1.00  0.00     0.261 C 
ATOM     78  H   UNL A   1      36.798  30.597  32.184  1.00  0.00     0.163 HD
ATOM     79  O   UNL A   1      37.462  28.620  33.488  1.00  0.00    -0.268 OA
BRANCH  77  80
ATOM     80  C   UNL A   1      39.631  29.558  33.637  1.00  0.00     0.096 A 
ATOM     81  C   UNL A   1      40.774  29.307  32.869  1.00  0.00     0.072 A 
ATOM     82  S   UNL A   1      40.089  30.045  35.219  1.00  0.00    -0.135 S 
ATOM     83  C   UNL A   1      41.923  29.045  33.700  1.00  0.00     0.131 A 
ATOM     84  C   UNL A   1      41.721  29.593  34.949  1.00  0.00     0.112 A 
BRANCH  83  85
ATOM     85  O   UNL A   1      43.119  28.422  33.469  1.00  0.00    -0.488 OA
BRANCH  85  86
ATOM     86  C   UNL A   1      43.651  27.467  34.410  1.00  0.00     0.266 C 
BRANCH  86  87
ATOM     87  C   UNL A   1      43.849  26.027  33.893  1.00  0.00     0.001 A 
ATOM     88  C   UNL A   1      44.613  25.732  32.754  1.00  0.00     0.008 A 
ATOM     89  C   UNL A   1      43.194  24.925  34.460  1.00  0.00     0.062 A 
ATOM     90  C   UNL A   1      44.795  24.404  32.311  1.00  0.00     0.000 A 
ATOM     91  C   UNL A   1      43.527  23.594  34.142  1.00  0.00     0.013 A 
ATOM     92  C   UNL A   1      44.311  23.329  33.045  1.00  0.00     0.001 A 
BRANCH  89  93
ATOM     93  C   UNL A   1      42.057  25.094  35.383  1.00  0.00     0.416 C 
ATOM     94  F   UNL A   1      41.342  23.952  35.555  1.00  0.00    -0.166 F 
ATOM     95  F   UNL A   1      42.524  25.443  36.591  1.00  0.00    -0.166 F 
ATOM     96  F   UNL A   1      41.134  25.998  34.977  1.00  0.00    -0.166 F 
ENDBRANCH  89  93
ENDBRANCH  86  87
ENDBRANCH  85  86
ENDBRANCH  83  85
ENDBRANCH  77  80
ENDBRANCH  75  76
ENDBRANCH  74  75
ENDBRANCH   1  74
TORSDOF 17
ENDMDL
