MODEL 1
REMARK VINA RESULT:     -14.0      0.000      0.000
REMARK SMILES COc1ccc(-c2c(C(=O)NCCCCCCNC(=O)c3ccc(-c4c5nc(c(-c6c(F)c(F)c(F)c(F)c6F)c6ccc([nH]6)c(-c6c(F)c(F)c(F)c(F)c6F)c6nc(c(-c7c(F)c(F)c(F)c(F)c7F)c7ccc4[nH]7)C=C6)C=C5)cc3)sc3c2N=C(O)C[C@H]3c2ccc(OC)c(OC)c2)cc1
REMARK SMILES IDX 14 1 13 2 12 3 11 4 9 5 10 6 8 8 7 9 86 10 84 11 85 12 87 13
REMARK SMILES IDX 91 14 88 15 90 16 6 17 3 18 4 19 103 20 5 21 102 22 2 23
REMARK SMILES IDX 1 24 92 25 93 26 101 27 94 28 98 29 95 30 99 31 100 32 96 33
REMARK SMILES IDX 97 34 89 35 15 37 16 38 17 39 18 40 19 41 20 43 21 44 22 45
REMARK SMILES IDX 83 46 23 47 82 48 24 49 25 50 26 51 76 52 27 53 81 54 75 55
REMARK SMILES IDX 77 56 28 57 80 58 74 59 73 60 29 62 61 63 41 64 60 65 42 66
REMARK SMILES IDX 45 67 59 68 78 69 43 70 44 71 58 73 79 74 46 75 30 76 31 77
REMARK SMILES IDX 39 78 32 79 33 80 37 81 40 82 34 83 35 84 38 85 36 86 62 87
REMARK SMILES IDX 63 88 71 89 64 90 65 91 69 92 72 93 66 94 67 95 70 96 68 97
REMARK SMILES IDX 47 98 48 99 56 100 49 101 50 102 54 103 57 104 51 105 52 106
REMARK SMILES IDX 55 107 53 108
REMARK H PARENT 11 7 89 36 18 42 77 61 45 72
REMARK Flexibility Score: inf
ROOT
ATOM      1  C   UNL A   1      35.937  22.510  25.718  1.00  0.00     0.002 C 
ENDROOT
BRANCH   1   2
ATOM      2  C   UNL A   1      35.063  22.870  26.915  1.00  0.00     0.021 C 
BRANCH   2   3
ATOM      3  C   UNL A   1      34.129  21.812  27.484  1.00  0.00     0.116 C 
BRANCH   3   4
ATOM      4  N   UNL A   1      32.782  22.181  27.801  1.00  0.00    -0.351 N 
ATOM      5  C   UNL A   1      31.845  22.879  27.057  1.00  0.00     0.262 C 
ATOM      6  O   UNL A   1      30.753  22.948  27.640  1.00  0.00    -0.268 OA
ATOM      7  H   UNL A   1      32.472  21.892  28.690  1.00  0.00     0.163 HD
BRANCH   5   8
ATOM      8  C   UNL A   1      32.061  23.517  25.732  1.00  0.00     0.102 A 
ATOM      9  C   UNL A   1      32.169  23.160  24.379  1.00  0.00     0.031 A 
ATOM     10  C   UNL A   1      32.389  24.285  23.525  1.00  0.00     0.090 A 
ATOM     11  S   UNL A   1      32.273  25.273  25.844  1.00  0.00    -0.131 S 
ATOM     12  C   UNL A   1      32.533  25.463  24.184  1.00  0.00     0.040 A 
ATOM     13  N   UNL A   1      32.535  24.144  22.139  1.00  0.00    -0.216 NA
ATOM     14  C   UNL A   1      32.909  26.744  23.525  1.00  0.00     0.071 C 
ATOM     15  C   UNL A   1      32.999  25.172  21.519  1.00  0.00     0.186 C 
ATOM     16  C   UNL A   1      33.427  26.495  22.098  1.00  0.00     0.111 C 
BRANCH   9  17
ATOM     17  C   UNL A   1      32.284  21.829  23.816  1.00  0.00    -0.014 A 
ATOM     18  C   UNL A   1      32.469  19.195  22.942  1.00  0.00     0.118 A 
ATOM     19  C   UNL A   1      31.991  20.192  22.082  1.00  0.00     0.047 A 
ATOM     20  C   UNL A   1      32.965  19.534  24.199  1.00  0.00     0.047 A 
ATOM     21  C   UNL A   1      31.897  21.518  22.515  1.00  0.00     0.012 A 
ATOM     22  C   UNL A   1      32.878  20.849  24.632  1.00  0.00     0.012 A 
BRANCH  18  23
ATOM     23  O   UNL A   1      32.402  17.912  22.472  1.00  0.00    -0.497 OA
ATOM     24  C   UNL A   1      33.333  17.024  23.084  1.00  0.00     0.278 C 
ENDBRANCH  18  23
ENDBRANCH   9  17
BRANCH  14  25
ATOM     25  C   UNL A   1      31.792  27.770  23.521  1.00  0.00    -0.035 A 
ATOM     26  C   UNL A   1      30.733  27.715  22.614  1.00  0.00     0.008 A 
ATOM     27  C   UNL A   1      31.846  28.829  24.442  1.00  0.00     0.054 A 
ATOM     28  C   UNL A   1      29.755  28.707  22.634  1.00  0.00     0.051 A 
ATOM     29  C   UNL A   1      30.875  29.841  24.464  1.00  0.00     0.161 A 
ATOM     30  C   UNL A   1      29.812  29.772  23.547  1.00  0.00     0.160 A 
BRANCH  29  31
ATOM     31  O   UNL A   1      30.937  30.897  25.332  1.00  0.00    -0.493 OA
ATOM     32  C   UNL A   1      31.835  30.813  26.432  1.00  0.00     0.278 C 
ENDBRANCH  29  31
BRANCH  30  33
ATOM     33  O   UNL A   1      28.767  30.643  23.382  1.00  0.00    -0.493 OA
ATOM     34  C   UNL A   1      27.825  30.386  22.352  1.00  0.00     0.278 C 
ENDBRANCH  30  33
ENDBRANCH  14  25
BRANCH  15  35
ATOM     35  O   UNL A   1      33.208  25.061  20.191  1.00  0.00    -0.496 OA
ATOM     36  H   UNL A   1      32.537  24.709  19.639  1.00  0.00     0.294 HD
ENDBRANCH  15  35
ENDBRANCH   5   8
ENDBRANCH   3   4
ENDBRANCH   2   3
ENDBRANCH   1   2
BRANCH   1  37
ATOM     37  C   UNL A   1      37.428  22.876  25.754  1.00  0.00     0.002 C 
BRANCH  37  38
ATOM     38  C   UNL A   1      38.469  21.781  25.488  1.00  0.00     0.021 C 
BRANCH  38  39
ATOM     39  C   UNL A   1      39.602  21.667  26.497  1.00  0.00     0.116 C 
BRANCH  39  40
ATOM     40  N   UNL A   1      40.935  21.623  25.911  1.00  0.00    -0.352 N 
ATOM     41  C   UNL A   1      41.836  22.667  25.771  1.00  0.00     0.251 C 
ATOM     42  H   UNL A   1      41.233  20.747  25.575  1.00  0.00     0.163 HD
ATOM     43  O   UNL A   1      42.754  22.597  24.970  1.00  0.00    -0.269 OA
BRANCH  41  44
ATOM     44  C   UNL A   1      41.671  23.886  26.596  1.00  0.00     0.039 A 
ATOM     45  C   UNL A   1      42.290  23.996  27.846  1.00  0.00     0.014 A 
ATOM     46  C   UNL A   1      40.879  24.926  26.119  1.00  0.00     0.014 A 
ATOM     47  C   UNL A   1      42.173  25.188  28.566  1.00  0.00     0.010 A 
ATOM     48  C   UNL A   1      40.872  26.143  26.765  1.00  0.00     0.010 A 
ATOM     49  C   UNL A   1      41.481  26.275  28.010  1.00  0.00    -0.014 A 
BRANCH  49  50
ATOM     50  C   UNL A   1      41.482  27.582  28.676  1.00  0.00     0.031 A 
ATOM     51  C   UNL A   1      42.595  28.503  28.293  1.00  0.00     0.074 A 
ATOM     52  C   UNL A   1      40.447  28.043  29.415  1.00  0.00     0.049 A 
ATOM     53  N   UNL A   1      43.493  29.031  29.059  1.00  0.00    -0.248 NA
ATOM     54  C   UNL A   1      42.781  28.817  26.870  1.00  0.00     0.031 C 
ATOM     55  C   UNL A   1      39.148  27.407  29.666  1.00  0.00     0.029 A 
ATOM     56  N   UNL A   1      40.298  29.260  30.015  1.00  0.00    -0.354 N 
ATOM     57  C   UNL A   1      44.265  29.865  28.248  1.00  0.00     0.074 A 
ATOM     58  C   UNL A   1      43.866  29.591  26.893  1.00  0.00     0.031 C 
ATOM     59  C   UNL A   1      38.277  28.321  30.143  1.00  0.00     0.029 A 
ATOM     60  C   UNL A   1      38.995  29.555  30.399  1.00  0.00     0.049 A 
ATOM     61  H   UNL A   1      41.051  29.877  30.163  1.00  0.00     0.167 HD
ATOM     62  C   UNL A   1      45.024  30.864  28.778  1.00  0.00     0.037 A 
ATOM     63  C   UNL A   1      38.529  30.736  30.875  1.00  0.00     0.037 A 
ATOM     64  C   UNL A   1      45.239  30.655  30.187  1.00  0.00     0.049 A 
ATOM     65  C   UNL A   1      39.694  31.492  31.390  1.00  0.00     0.074 A 
ATOM     66  C   UNL A   1      45.819  29.653  30.941  1.00  0.00     0.029 A 
ATOM     67  N   UNL A   1      44.499  31.398  31.072  1.00  0.00    -0.354 N 
ATOM     68  N   UNL A   1      40.378  31.145  32.444  1.00  0.00    -0.248 NA
ATOM     69  C   UNL A   1      40.368  32.405  30.480  1.00  0.00     0.031 C 
ATOM     70  C   UNL A   1      44.995  29.548  32.103  1.00  0.00     0.029 A 
ATOM     71  C   UNL A   1      44.013  30.534  32.015  1.00  0.00     0.049 A 
ATOM     72  H   UNL A   1      44.347  32.370  31.035  1.00  0.00     0.167 HD
ATOM     73  C   UNL A   1      41.693  31.414  32.106  1.00  0.00     0.074 A 
ATOM     74  C   UNL A   1      41.616  32.287  30.937  1.00  0.00     0.031 C 
ATOM     75  C   UNL A   1      42.715  30.675  32.629  1.00  0.00     0.037 A 
BRANCH  62  76
ATOM     76  C   UNL A   1      45.266  32.209  28.128  1.00  0.00     0.064 A 
ATOM     77  C   UNL A   1      44.163  33.054  27.876  1.00  0.00     0.173 A 
ATOM     78  C   UNL A   1      46.459  32.558  27.461  1.00  0.00     0.173 A 
ATOM     79  F   UNL A   1      42.975  32.820  28.453  1.00  0.00    -0.203 F 
ATOM     80  C   UNL A   1      44.223  34.093  26.943  1.00  0.00     0.198 A 
ATOM     81  C   UNL A   1      46.530  33.630  26.571  1.00  0.00     0.198 A 
ATOM     82  F   UNL A   1      47.568  31.817  27.546  1.00  0.00    -0.203 F 
ATOM     83  F   UNL A   1      43.111  34.770  26.628  1.00  0.00    -0.200 F 
ATOM     84  C   UNL A   1      45.405  34.373  26.281  1.00  0.00     0.200 A 
ATOM     85  F   UNL A   1      47.680  33.877  25.927  1.00  0.00    -0.200 F 
ATOM     86  F   UNL A   1      45.447  35.316  25.332  1.00  0.00    -0.200 F 
ENDBRANCH  62  76
BRANCH  63  87
ATOM     87  C   UNL A   1      37.200  31.363  30.687  1.00  0.00     0.064 A 
ATOM     88  C   UNL A   1      36.324  31.538  31.772  1.00  0.00     0.173 A 
ATOM     89  C   UNL A   1      36.885  32.069  29.510  1.00  0.00     0.173 A 
ATOM     90  F   UNL A   1      36.569  30.931  32.942  1.00  0.00    -0.203 F 
ATOM     91  C   UNL A   1      35.227  32.401  31.698  1.00  0.00     0.198 A 
ATOM     92  C   UNL A   1      35.785  32.923  29.434  1.00  0.00     0.198 A 
ATOM     93  F   UNL A   1      37.694  32.022  28.442  1.00  0.00    -0.203 F 
ATOM     94  F   UNL A   1      34.459  32.600  32.779  1.00  0.00    -0.200 F 
ATOM     95  C   UNL A   1      34.967  33.104  30.534  1.00  0.00     0.200 A 
ATOM     96  F   UNL A   1      35.564  33.625  28.313  1.00  0.00    -0.200 F 
ATOM     97  F   UNL A   1      33.959  33.987  30.485  1.00  0.00    -0.200 F 
ENDBRANCH  63  87
BRANCH  75  98
ATOM     98  C   UNL A   1      42.402  29.765  33.784  1.00  0.00     0.064 A 
ATOM     99  C   UNL A   1      41.937  28.444  33.652  1.00  0.00     0.173 A 
ATOM    100  C   UNL A   1      42.706  30.212  35.077  1.00  0.00     0.173 A 
ATOM    101  F   UNL A   1      41.722  27.903  32.448  1.00  0.00    -0.203 F 
ATOM    102  C   UNL A   1      41.733  27.633  34.767  1.00  0.00     0.198 A 
ATOM    103  C   UNL A   1      42.540  29.387  36.185  1.00  0.00     0.198 A 
ATOM    104  F   UNL A   1      43.208  31.443  35.262  1.00  0.00    -0.203 F 
ATOM    105  F   UNL A   1      41.267  26.386  34.614  1.00  0.00    -0.200 F 
ATOM    106  C   UNL A   1      42.041  28.104  36.032  1.00  0.00     0.200 A 
ATOM    107  F   UNL A   1      42.886  29.829  37.402  1.00  0.00    -0.200 F 
ATOM    108  F   UNL A   1      41.879  27.313  37.102  1.00  0.00    -0.200 F 
ENDBRANCH  75  98
ENDBRANCH  49  50
ENDBRANCH  41  44
ENDBRANCH  39  40
ENDBRANCH  38  39
ENDBRANCH  37  38
ENDBRANCH   1  37
TORSDOF 19
ENDMDL
MODEL 2
REMARK VINA RESULT:     -11.9      6.112     11.302
REMARK SMILES COc1ccc(-c2c(C(=O)NCCCCCCNC(=O)c3ccc(-c4c5nc(c(-c6c(F)c(F)c(F)c(F)c6F)c6ccc([nH]6)c(-c6c(F)c(F)c(F)c(F)c6F)c6nc(c(-c7c(F)c(F)c(F)c(F)c7F)c7ccc4[nH]7)C=C6)C=C5)cc3)sc3c2N=C(O)C[C@H]3c2ccc(OC)c(OC)c2)cc1
REMARK SMILES IDX 14 1 13 2 12 3 11 4 9 5 10 6 8 8 7 9 86 10 84 11 85 12 87 13
REMARK SMILES IDX 91 14 88 15 90 16 6 17 3 18 4 19 103 20 5 21 102 22 2 23
REMARK SMILES IDX 1 24 92 25 93 26 101 27 94 28 98 29 95 30 99 31 100 32 96 33
REMARK SMILES IDX 97 34 89 35 15 37 16 38 17 39 18 40 19 41 20 43 21 44 22 45
REMARK SMILES IDX 83 46 23 47 82 48 24 49 25 50 26 51 76 52 27 53 81 54 75 55
REMARK SMILES IDX 77 56 28 57 80 58 74 59 73 60 29 62 61 63 41 64 60 65 42 66
REMARK SMILES IDX 45 67 59 68 78 69 43 70 44 71 58 73 79 74 46 75 30 76 31 77
REMARK SMILES IDX 39 78 32 79 33 80 37 81 40 82 34 83 35 84 38 85 36 86 62 87
REMARK SMILES IDX 63 88 71 89 64 90 65 91 69 92 72 93 66 94 67 95 70 96 68 97
REMARK SMILES IDX 47 98 48 99 56 100 49 101 50 102 54 103 57 104 51 105 52 106
REMARK SMILES IDX 55 107 53 108
REMARK H PARENT 11 7 89 36 18 42 77 61 45 72
REMARK Flexibility Score: inf
ROOT
ATOM      1  C   UNL A   1      46.184  32.337  31.194  1.00  0.00     0.002 C 
ENDROOT
BRANCH   1   2
ATOM      2  C   UNL A   1      46.554  30.859  31.134  1.00  0.00     0.021 C 
BRANCH   2   3
ATOM      3  C   UNL A   1      45.481  29.823  31.435  1.00  0.00     0.116 C 
BRANCH   3   4
ATOM      4  N   UNL A   1      45.879  28.470  31.684  1.00  0.00    -0.351 N 
ATOM      5  C   UNL A   1      45.743  27.336  30.900  1.00  0.00     0.262 C 
ATOM      6  O   UNL A   1      46.273  26.347  31.426  1.00  0.00    -0.268 OA
ATOM      7  H   UNL A   1      46.320  28.321  32.552  1.00  0.00     0.163 HD
BRANCH   5   8
ATOM      8  C   UNL A   1      45.036  27.240  29.596  1.00  0.00     0.102 A 
ATOM      9  C   UNL A   1      45.073  27.815  28.316  1.00  0.00     0.031 A 
ATOM     10  C   UNL A   1      44.081  27.276  27.438  1.00  0.00     0.090 A 
ATOM     11  S   UNL A   1      43.718  26.057  29.617  1.00  0.00    -0.131 S 
ATOM     12  C   UNL A   1      43.248  26.380  28.025  1.00  0.00     0.040 A 
ATOM     13  N   UNL A   1      43.942  27.722  26.117  1.00  0.00    -0.216 NA
ATOM     14  C   UNL A   1      42.055  25.791  27.356  1.00  0.00     0.071 C 
ATOM     15  C   UNL A   1      42.856  27.372  25.522  1.00  0.00     0.186 C 
ATOM     16  C   UNL A   1      41.709  26.566  26.073  1.00  0.00     0.111 C 
BRANCH   9  17
ATOM     17  C   UNL A   1      45.825  28.976  27.883  1.00  0.00    -0.014 A 
ATOM     18  C   UNL A   1      47.427  31.062  26.978  1.00  0.00     0.118 A 
ATOM     19  C   UNL A   1      46.032  31.192  26.977  1.00  0.00     0.047 A 
ATOM     20  C   UNL A   1      48.025  29.937  27.540  1.00  0.00     0.047 A 
ATOM     21  C   UNL A   1      45.221  30.148  27.432  1.00  0.00     0.012 A 
ATOM     22  C   UNL A   1      47.225  28.899  27.996  1.00  0.00     0.012 A 
BRANCH  18  23
ATOM     23  O   UNL A   1      48.127  32.084  26.395  1.00  0.00    -0.497 OA
ATOM     24  C   UNL A   1      49.473  32.193  26.850  1.00  0.00     0.278 C 
ENDBRANCH  18  23
ENDBRANCH   9  17
BRANCH  14  25
ATOM     25  C   UNL A   1      42.195  24.309  27.070  1.00  0.00    -0.035 A 
ATOM     26  C   UNL A   1      41.511  23.340  27.807  1.00  0.00     0.008 A 
ATOM     27  C   UNL A   1      43.069  23.898  26.050  1.00  0.00     0.054 A 
ATOM     28  C   UNL A   1      41.708  21.991  27.523  1.00  0.00     0.051 A 
ATOM     29  C   UNL A   1      43.285  22.543  25.762  1.00  0.00     0.161 A 
ATOM     30  C   UNL A   1      42.588  21.578  26.510  1.00  0.00     0.160 A 
BRANCH  29  31
ATOM     31  O   UNL A   1      44.162  22.130  24.796  1.00  0.00    -0.493 OA
ATOM     32  C   UNL A   1      45.099  23.073  24.290  1.00  0.00     0.278 C 
ENDBRANCH  29  31
BRANCH  30  33
ATOM     33  O   UNL A   1      42.648  20.212  26.411  1.00  0.00    -0.493 OA
ATOM     34  C   UNL A   1      41.446  19.494  26.180  1.00  0.00     0.278 C 
ENDBRANCH  30  33
ENDBRANCH  14  25
BRANCH  15  35
ATOM     35  O   UNL A   1      42.655  27.826  24.268  1.00  0.00    -0.496 OA
ATOM     36  H   UNL A   1      41.962  28.433  24.095  1.00  0.00     0.294 HD
ENDBRANCH  15  35
ENDBRANCH   5   8
ENDBRANCH   3   4
ENDBRANCH   2   3
ENDBRANCH   1   2
BRANCH   1  37
ATOM     37  C   UNL A   1      45.909  33.085  29.881  1.00  0.00     0.002 C 
BRANCH  37  38
ATOM     38  C   UNL A   1      46.985  34.025  29.322  1.00  0.00     0.021 C 
BRANCH  38  39
ATOM     39  C   UNL A   1      46.672  34.693  27.991  1.00  0.00     0.116 C 
BRANCH  39  40
ATOM     40  N   UNL A   1      46.598  36.147  28.043  1.00  0.00    -0.352 N 
ATOM     41  C   UNL A   1      45.497  36.931  28.346  1.00  0.00     0.251 C 
ATOM     42  H   UNL A   1      47.431  36.631  27.839  1.00  0.00     0.163 HD
ATOM     43  O   UNL A   1      45.459  38.107  28.022  1.00  0.00    -0.269 OA
BRANCH  41  44
ATOM     44  C   UNL A   1      44.348  36.327  29.060  1.00  0.00     0.039 A 
ATOM     45  C   UNL A   1      43.319  35.692  28.356  1.00  0.00     0.014 A 
ATOM     46  C   UNL A   1      44.294  36.408  30.448  1.00  0.00     0.014 A 
ATOM     47  C   UNL A   1      42.288  35.069  29.063  1.00  0.00     0.010 A 
ATOM     48  C   UNL A   1      43.351  35.685  31.147  1.00  0.00     0.010 A 
ATOM     49  C   UNL A   1      42.319  35.045  30.467  1.00  0.00    -0.014 A 
BRANCH  49  50
ATOM     50  C   UNL A   1      41.334  34.263  31.223  1.00  0.00     0.031 A 
ATOM     51  C   UNL A   1      41.745  33.869  32.605  1.00  0.00     0.074 A 
ATOM     52  C   UNL A   1      40.055  34.085  30.821  1.00  0.00     0.049 A 
ATOM     53  N   UNL A   1      41.849  32.678  33.098  1.00  0.00    -0.248 NA
ATOM     54  C   UNL A   1      42.164  34.926  33.534  1.00  0.00     0.031 C 
ATOM     55  C   UNL A   1      39.385  34.637  29.637  1.00  0.00     0.029 A 
ATOM     56  N   UNL A   1      39.035  33.450  31.466  1.00  0.00    -0.354 N 
ATOM     57  C   UNL A   1      42.197  32.834  34.440  1.00  0.00     0.074 A 
ATOM     58  C   UNL A   1      42.507  34.228  34.617  1.00  0.00     0.031 C 
ATOM     59  C   UNL A   1      38.047  34.522  29.777  1.00  0.00     0.029 A 
ATOM     60  C   UNL A   1      37.771  33.737  30.964  1.00  0.00     0.049 A 
ATOM     61  H   UNL A   1      39.182  32.841  32.226  1.00  0.00     0.167 HD
ATOM     62  C   UNL A   1      41.999  31.835  35.345  1.00  0.00     0.037 A 
ATOM     63  C   UNL A   1      36.577  33.372  31.494  1.00  0.00     0.037 A 
ATOM     64  C   UNL A   1      41.819  30.569  34.682  1.00  0.00     0.049 A 
ATOM     65  C   UNL A   1      36.828  32.221  32.392  1.00  0.00     0.074 A 
ATOM     66  C   UNL A   1      42.589  29.804  33.826  1.00  0.00     0.029 A 
ATOM     67  N   UNL A   1      40.545  30.071  34.572  1.00  0.00    -0.354 N 
ATOM     68  N   UNL A   1      37.192  31.041  31.974  1.00  0.00    -0.248 NA
ATOM     69  C   UNL A   1      37.089  32.497  33.795  1.00  0.00     0.031 C 
ATOM     70  C   UNL A   1      41.660  29.256  32.890  1.00  0.00     0.029 A 
ATOM     71  C   UNL A   1      40.383  29.664  33.275  1.00  0.00     0.049 A 
ATOM     72  H   UNL A   1      39.874  30.017  35.290  1.00  0.00     0.167 HD
ATOM     73  C   UNL A   1      38.119  30.615  32.911  1.00  0.00     0.074 A 
ATOM     74  C   UNL A   1      37.933  31.498  34.060  1.00  0.00     0.031 C 
ATOM     75  C   UNL A   1      39.138  29.779  32.556  1.00  0.00     0.037 A 
BRANCH  62  76
ATOM     76  C   UNL A   1      41.603  32.038  36.791  1.00  0.00     0.064 A 
ATOM     77  C   UNL A   1      40.436  32.776  37.082  1.00  0.00     0.173 A 
ATOM     78  C   UNL A   1      42.471  31.826  37.883  1.00  0.00     0.173 A 
ATOM     79  F   UNL A   1      39.537  33.043  36.122  1.00  0.00    -0.203 F 
ATOM     80  C   UNL A   1      40.216  33.352  38.337  1.00  0.00     0.198 A 
ATOM     81  C   UNL A   1      42.222  32.357  39.149  1.00  0.00     0.198 A 
ATOM     82  F   UNL A   1      43.647  31.203  37.750  1.00  0.00    -0.203 F 
ATOM     83  F   UNL A   1      39.169  34.168  38.520  1.00  0.00    -0.200 F 
ATOM     84  C   UNL A   1      41.116  33.152  39.367  1.00  0.00     0.200 A 
ATOM     85  F   UNL A   1      43.114  32.164  40.131  1.00  0.00    -0.200 F 
ATOM     86  F   UNL A   1      40.949  33.763  40.546  1.00  0.00    -0.200 F 
ENDBRANCH  62  76
BRANCH  63  87
ATOM     87  C   UNL A   1      35.287  34.101  31.484  1.00  0.00     0.064 A 
ATOM     88  C   UNL A   1      34.998  35.071  32.460  1.00  0.00     0.173 A 
ATOM     89  C   UNL A   1      34.443  34.078  30.357  1.00  0.00     0.173 A 
ATOM     90  F   UNL A   1      35.773  35.185  33.548  1.00  0.00    -0.203 F 
ATOM     91  C   UNL A   1      33.958  35.991  32.296  1.00  0.00     0.198 A 
ATOM     92  C   UNL A   1      33.400  34.991  30.198  1.00  0.00     0.198 A 
ATOM     93  F   UNL A   1      34.676  33.236  29.340  1.00  0.00    -0.203 F 
ATOM     94  F   UNL A   1      33.762  36.949  33.212  1.00  0.00    -0.200 F 
ATOM     95  C   UNL A   1      33.169  35.958  31.158  1.00  0.00     0.200 A 
ATOM     96  F   UNL A   1      32.665  34.971  29.076  1.00  0.00    -0.200 F 
ATOM     97  F   UNL A   1      32.219  36.885  30.966  1.00  0.00    -0.200 F 
ENDBRANCH  63  87
BRANCH  75  98
ATOM     98  C   UNL A   1      39.061  29.112  31.211  1.00  0.00     0.064 A 
ATOM     99  C   UNL A   1      39.391  29.735  29.995  1.00  0.00     0.173 A 
ATOM    100  C   UNL A   1      38.757  27.744  31.169  1.00  0.00     0.173 A 
ATOM    101  F   UNL A   1      39.794  31.011  29.957  1.00  0.00    -0.203 F 
ATOM    102  C   UNL A   1      39.363  29.035  28.790  1.00  0.00     0.198 A 
ATOM    103  C   UNL A   1      38.769  27.037  29.970  1.00  0.00     0.198 A 
ATOM    104  F   UNL A   1      38.489  27.080  32.305  1.00  0.00    -0.203 F 
ATOM    105  F   UNL A   1      39.661  29.660  27.642  1.00  0.00    -0.200 F 
ATOM    106  C   UNL A   1      39.058  27.685  28.780  1.00  0.00     0.200 A 
ATOM    107  F   UNL A   1      38.522  25.720  29.972  1.00  0.00    -0.200 F 
ATOM    108  F   UNL A   1      39.065  27.001  27.628  1.00  0.00    -0.200 F 
ENDBRANCH  75  98
ENDBRANCH  49  50
ENDBRANCH  41  44
ENDBRANCH  39  40
ENDBRANCH  38  39
ENDBRANCH  37  38
ENDBRANCH   1  37
TORSDOF 19
ENDMDL
MODEL 3
REMARK VINA RESULT:     -11.9      1.633      2.951
REMARK SMILES COc1ccc(-c2c(C(=O)NCCCCCCNC(=O)c3ccc(-c4c5nc(c(-c6c(F)c(F)c(F)c(F)c6F)c6ccc([nH]6)c(-c6c(F)c(F)c(F)c(F)c6F)c6nc(c(-c7c(F)c(F)c(F)c(F)c7F)c7ccc4[nH]7)C=C6)C=C5)cc3)sc3c2N=C(O)C[C@H]3c2ccc(OC)c(OC)c2)cc1
REMARK SMILES IDX 14 1 13 2 12 3 11 4 9 5 10 6 8 8 7 9 86 10 84 11 85 12 87 13
REMARK SMILES IDX 91 14 88 15 90 16 6 17 3 18 4 19 103 20 5 21 102 22 2 23
REMARK SMILES IDX 1 24 92 25 93 26 101 27 94 28 98 29 95 30 99 31 100 32 96 33
REMARK SMILES IDX 97 34 89 35 15 37 16 38 17 39 18 40 19 41 20 43 21 44 22 45
REMARK SMILES IDX 83 46 23 47 82 48 24 49 25 50 26 51 76 52 27 53 81 54 75 55
REMARK SMILES IDX 77 56 28 57 80 58 74 59 73 60 29 62 61 63 41 64 60 65 42 66
REMARK SMILES IDX 45 67 59 68 78 69 43 70 44 71 58 73 79 74 46 75 30 76 31 77
REMARK SMILES IDX 39 78 32 79 33 80 37 81 40 82 34 83 35 84 38 85 36 86 62 87
REMARK SMILES IDX 63 88 71 89 64 90 65 91 69 92 72 93 66 94 67 95 70 96 68 97
REMARK SMILES IDX 47 98 48 99 56 100 49 101 50 102 54 103 57 104 51 105 52 106
REMARK SMILES IDX 55 107 53 108
REMARK H PARENT 11 7 89 36 18 42 77 61 45 72
REMARK Flexibility Score: inf
ROOT
ATOM      1  C   UNL A   1      36.777  23.786  25.990  1.00  0.00     0.002 C 
ENDROOT
BRANCH   1   2
ATOM      2  C   UNL A   1      35.901  23.824  24.742  1.00  0.00     0.021 C 
BRANCH   2   3
ATOM      3  C   UNL A   1      36.181  22.835  23.620  1.00  0.00     0.116 C 
BRANCH   3   4
ATOM      4  N   UNL A   1      35.480  22.981  22.380  1.00  0.00    -0.351 N 
ATOM      5  C   UNL A   1      34.191  23.421  22.125  1.00  0.00     0.262 C 
ATOM      6  O   UNL A   1      33.955  23.475  20.910  1.00  0.00    -0.268 OA
ATOM      7  H   UNL A   1      35.995  22.727  21.580  1.00  0.00     0.163 HD
BRANCH   5   8
ATOM      8  C   UNL A   1      33.159  23.775  23.135  1.00  0.00     0.102 A 
ATOM      9  C   UNL A   1      32.548  23.229  24.274  1.00  0.00     0.031 A 
ATOM     10  C   UNL A   1      31.569  24.099  24.848  1.00  0.00     0.090 A 
ATOM     11  S   UNL A   1      32.432  25.363  22.842  1.00  0.00    -0.131 S 
ATOM     12  C   UNL A   1      31.359  25.240  24.144  1.00  0.00     0.040 A 
ATOM     13  N   UNL A   1      30.835  23.738  25.986  1.00  0.00    -0.216 NA
ATOM     14  C   UNL A   1      30.295  26.231  24.463  1.00  0.00     0.071 C 
ATOM     15  C   UNL A   1      29.806  24.468  26.240  1.00  0.00     0.186 C 
ATOM     16  C   UNL A   1      29.279  25.642  25.458  1.00  0.00     0.111 C 
BRANCH   9  17
ATOM     17  C   UNL A   1      32.647  21.872  24.774  1.00  0.00    -0.014 A 
ATOM     18  C   UNL A   1      32.871  19.202  25.521  1.00  0.00     0.118 A 
ATOM     19  C   UNL A   1      33.278  20.217  26.397  1.00  0.00     0.047 A 
ATOM     20  C   UNL A   1      32.244  19.525  24.320  1.00  0.00     0.047 A 
ATOM     21  C   UNL A   1      33.166  21.561  26.029  1.00  0.00     0.012 A 
ATOM     22  C   UNL A   1      32.128  20.857  23.951  1.00  0.00     0.012 A 
BRANCH  18  23
ATOM     23  O   UNL A   1      33.139  17.920  25.919  1.00  0.00    -0.497 OA
ATOM     24  C   UNL A   1      33.768  17.125  24.918  1.00  0.00     0.278 C 
ENDBRANCH  18  23
ENDBRANCH   9  17
BRANCH  14  25
ATOM     25  C   UNL A   1      30.835  27.555  24.966  1.00  0.00    -0.035 A 
ATOM     26  C   UNL A   1      30.568  28.763  24.319  1.00  0.00     0.008 A 
ATOM     27  C   UNL A   1      31.661  27.560  26.102  1.00  0.00     0.054 A 
ATOM     28  C   UNL A   1      31.123  29.944  24.805  1.00  0.00     0.051 A 
ATOM     29  C   UNL A   1      32.236  28.740  26.594  1.00  0.00     0.161 A 
ATOM     30  C   UNL A   1      31.956  29.950  25.935  1.00  0.00     0.160 A 
BRANCH  29  31
ATOM     31  O   UNL A   1      33.072  28.751  27.679  1.00  0.00    -0.493 OA
ATOM     32  C   UNL A   1      34.448  29.040  27.465  1.00  0.00     0.278 C 
ENDBRANCH  29  31
BRANCH  30  33
ATOM     33  O   UNL A   1      32.409  31.209  26.230  1.00  0.00    -0.493 OA
ATOM     34  C   UNL A   1      31.537  32.105  26.901  1.00  0.00     0.278 C 
ENDBRANCH  30  33
ENDBRANCH  14  25
BRANCH  15  35
ATOM     35  O   UNL A   1      29.039  24.123  27.295  1.00  0.00    -0.496 OA
ATOM     36  H   UNL A   1      29.434  23.973  28.132  1.00  0.00     0.294 HD
ENDBRANCH  15  35
ENDBRANCH   5   8
ENDBRANCH   3   4
ENDBRANCH   2   3
ENDBRANCH   1   2
BRANCH   1  37
ATOM     37  C   UNL A   1      38.251  23.383  25.846  1.00  0.00     0.002 C 
BRANCH  37  38
ATOM     38  C   UNL A   1      39.252  23.831  26.920  1.00  0.00     0.021 C 
BRANCH  38  39
ATOM     39  C   UNL A   1      40.222  22.772  27.422  1.00  0.00     0.116 C 
BRANCH  39  40
ATOM     40  N   UNL A   1      41.396  22.576  26.582  1.00  0.00    -0.352 N 
ATOM     41  C   UNL A   1      42.206  23.547  26.015  1.00  0.00     0.251 C 
ATOM     42  H   UNL A   1      41.645  21.642  26.395  1.00  0.00     0.163 HD
ATOM     43  O   UNL A   1      42.929  23.283  25.068  1.00  0.00    -0.269 OA
BRANCH  41  44
ATOM     44  C   UNL A   1      42.181  24.924  26.560  1.00  0.00     0.039 A 
ATOM     45  C   UNL A   1      41.517  25.953  25.882  1.00  0.00     0.014 A 
ATOM     46  C   UNL A   1      42.839  25.193  27.757  1.00  0.00     0.014 A 
ATOM     47  C   UNL A   1      41.450  27.223  26.460  1.00  0.00     0.010 A 
ATOM     48  C   UNL A   1      42.662  26.406  28.387  1.00  0.00     0.010 A 
ATOM     49  C   UNL A   1      42.005  27.443  27.731  1.00  0.00    -0.014 A 
BRANCH  49  50
ATOM     50  C   UNL A   1      41.808  28.722  28.422  1.00  0.00     0.031 A 
ATOM     51  C   UNL A   1      42.805  29.788  28.106  1.00  0.00     0.074 A 
ATOM     52  C   UNL A   1      40.692  29.025  29.124  1.00  0.00     0.049 A 
ATOM     53  N   UNL A   1      43.595  30.410  28.920  1.00  0.00    -0.248 NA
ATOM     54  C   UNL A   1      43.005  30.160  26.699  1.00  0.00     0.031 C 
ATOM     55  C   UNL A   1      39.479  28.219  29.306  1.00  0.00     0.029 A 
ATOM     56  N   UNL A   1      40.361  30.196  29.741  1.00  0.00    -0.354 N 
ATOM     57  C   UNL A   1      44.282  31.357  28.160  1.00  0.00     0.074 A 
ATOM     58  C   UNL A   1      43.978  31.068  26.784  1.00  0.00     0.031 C 
ATOM     59  C   UNL A   1      38.477  29.000  29.763  1.00  0.00     0.029 A 
ATOM     60  C   UNL A   1      39.016  30.310  30.074  1.00  0.00     0.049 A 
ATOM     61  H   UNL A   1      41.020  30.902  29.934  1.00  0.00     0.167 HD
ATOM     62  C   UNL A   1      44.882  32.433  28.741  1.00  0.00     0.037 A 
ATOM     63  C   UNL A   1      38.381  31.408  30.553  1.00  0.00     0.037 A 
ATOM     64  C   UNL A   1      45.065  32.219  30.154  1.00  0.00     0.049 A 
ATOM     65  C   UNL A   1      39.415  32.296  31.132  1.00  0.00     0.074 A 
ATOM     66  C   UNL A   1      45.741  31.282  30.913  1.00  0.00     0.029 A 
ATOM     67  N   UNL A   1      44.199  32.837  31.021  1.00  0.00    -0.354 N 
ATOM     68  N   UNL A   1      40.095  32.014  32.207  1.00  0.00    -0.248 NA
ATOM     69  C   UNL A   1      39.999  33.312  30.270  1.00  0.00     0.031 C 
ATOM     70  C   UNL A   1      44.892  31.041  32.036  1.00  0.00     0.029 A 
ATOM     71  C   UNL A   1      43.793  31.893  31.925  1.00  0.00     0.049 A 
ATOM     72  H   UNL A   1      43.923  33.781  30.996  1.00  0.00     0.167 HD
ATOM     73  C   UNL A   1      41.376  32.461  31.932  1.00  0.00     0.074 A 
ATOM     74  C   UNL A   1      41.232  33.346  30.779  1.00  0.00     0.031 C 
ATOM     75  C   UNL A   1      42.464  31.849  32.484  1.00  0.00     0.037 A 
BRANCH  62  76
ATOM     76  C   UNL A   1      44.972  33.814  28.129  1.00  0.00     0.064 A 
ATOM     77  C   UNL A   1      46.235  34.437  28.034  1.00  0.00     0.173 A 
ATOM     78  C   UNL A   1      43.862  34.665  27.939  1.00  0.00     0.173 A 
ATOM     79  F   UNL A   1      47.362  33.729  28.200  1.00  0.00    -0.203 F 
ATOM     80  C   UNL A   1      46.370  35.819  27.875  1.00  0.00     0.198 A 
ATOM     81  C   UNL A   1      44.003  36.037  27.726  1.00  0.00     0.198 A 
ATOM     82  F   UNL A   1      42.603  34.236  28.065  1.00  0.00    -0.203 F 
ATOM     83  F   UNL A   1      47.584  36.382  27.941  1.00  0.00    -0.200 F 
ATOM     84  C   UNL A   1      45.252  36.620  27.733  1.00  0.00     0.200 A 
ATOM     85  F   UNL A   1      42.906  36.799  27.605  1.00  0.00    -0.200 F 
ATOM     86  F   UNL A   1      45.373  37.951  27.657  1.00  0.00    -0.200 F 
ENDBRANCH  62  76
BRANCH  63  87
ATOM     87  C   UNL A   1      36.989  31.861  30.319  1.00  0.00     0.064 A 
ATOM     88  C   UNL A   1      36.120  32.104  31.396  1.00  0.00     0.173 A 
ATOM     89  C   UNL A   1      36.581  32.349  29.063  1.00  0.00     0.173 A 
ATOM     90  F   UNL A   1      36.448  31.706  32.633  1.00  0.00    -0.203 F 
ATOM     91  C   UNL A   1      34.935  32.831  31.233  1.00  0.00     0.198 A 
ATOM     92  C   UNL A   1      35.395  33.066  28.900  1.00  0.00     0.198 A 
ATOM     93  F   UNL A   1      37.371  32.228  27.987  1.00  0.00    -0.203 F 
ATOM     94  F   UNL A   1      34.170  33.108  32.298  1.00  0.00    -0.200 F 
ATOM     95  C   UNL A   1      34.582  33.323  29.989  1.00  0.00     0.200 A 
ATOM     96  F   UNL A   1      35.082  33.568  27.697  1.00  0.00    -0.200 F 
ATOM     97  F   UNL A   1      33.486  34.082  29.846  1.00  0.00    -0.200 F 
ENDBRANCH  63  87
BRANCH  75  98
ATOM     98  C   UNL A   1      42.227  30.877  33.607  1.00  0.00     0.064 A 
ATOM     99  C   UNL A   1      42.153  31.234  34.965  1.00  0.00     0.173 A 
ATOM    100  C   UNL A   1      41.939  29.546  33.277  1.00  0.00     0.173 A 
ATOM    101  F   UNL A   1      42.311  32.503  35.357  1.00  0.00    -0.203 F 
ATOM    102  C   UNL A   1      41.861  30.289  35.947  1.00  0.00     0.198 A 
ATOM    103  C   UNL A   1      41.608  28.613  34.255  1.00  0.00     0.198 A 
ATOM    104  F   UNL A   1      41.937  29.157  31.992  1.00  0.00    -0.203 F 
ATOM    105  F   UNL A   1      41.820  30.652  37.237  1.00  0.00    -0.200 F 
ATOM    106  C   UNL A   1      41.583  28.982  35.591  1.00  0.00     0.200 A 
ATOM    107  F   UNL A   1      41.290  27.361  33.900  1.00  0.00    -0.200 F 
ATOM    108  F   UNL A   1      41.267  28.080  36.531  1.00  0.00    -0.200 F 
ENDBRANCH  75  98
ENDBRANCH  49  50
ENDBRANCH  41  44
ENDBRANCH  39  40
ENDBRANCH  38  39
ENDBRANCH  37  38
ENDBRANCH   1  37
TORSDOF 19
ENDMDL
