MODEL 1
REMARK VINA RESULT:     -12.9      0.000      0.000
REMARK SMILES COc1ccc(CCC(=O)Nc2ccc(N3CCCC3)cc2C(=O)NCCCCCCNC(=O)c2ccc(-c3c4nc(c(-c5c(F)c(F)c(F)c(F)c5F)c5ccc([nH]5)c(-c5c(F)c(F)c(F)c(F)c5F)c5nc(c(-c6c(F)c(F)c(F)c(F)c6F)c6ccc3[nH]6)C=C5)C=C4)cc2)cc1
REMARK SMILES IDX 27 1 26 2 25 3 23 4 24 5 22 7 12 8 13 9 14 10 21 11 15 12
REMARK SMILES IDX 11 13 9 14 10 15 8 17 7 18 6 19 3 20 4 21 99 22 5 23 98 24
REMARK SMILES IDX 2 25 1 26 16 27 17 28 20 29 18 30 19 31 28 32 29 33 30 34
REMARK SMILES IDX 31 35 32 36 33 37 34 39 35 40 36 41 97 42 37 43 96 44 38 45
REMARK SMILES IDX 39 46 40 47 90 48 41 49 95 50 89 51 91 52 42 53 94 54 88 55
REMARK SMILES IDX 87 56 43 58 75 59 55 60 74 61 56 62 59 63 73 64 92 65 57 66
REMARK SMILES IDX 58 67 72 69 93 70 60 71 44 72 45 73 53 74 46 75 47 76 51 77
REMARK SMILES IDX 54 78 48 79 49 80 52 81 50 82 76 83 77 84 85 85 78 86 79 87
REMARK SMILES IDX 83 88 86 89 80 90 81 91 84 92 82 93 61 94 62 95 70 96 63 97
REMARK SMILES IDX 64 98 68 99 71 100 65 101 66 102 69 103 67 104
REMARK H PARENT 25 6 11 16 32 38 91 57 59 68
REMARK Flexibility Score: inf
ROOT
ATOM      1  C   UNL A   1      32.299  28.291  26.636  1.00  0.00     0.021 C 
ENDROOT
BRANCH   1   2
ATOM      2  C   UNL A   1      31.097  27.393  26.870  1.00  0.00     0.116 C 
BRANCH   2   3
ATOM      3  N   UNL A   1      31.370  25.990  26.664  1.00  0.00    -0.352 N 
ATOM      4  C   UNL A   1      31.128  25.381  25.438  1.00  0.00     0.253 C 
ATOM      5  O   UNL A   1      29.992  25.401  24.955  1.00  0.00    -0.269 OA
ATOM      6  H   UNL A   1      31.734  25.454  27.406  1.00  0.00     0.163 HD
BRANCH   4   7
ATOM      7  C   UNL A   1      32.310  24.895  24.624  1.00  0.00     0.065 A 
ATOM      8  C   UNL A   1      32.650  25.600  23.483  1.00  0.00     0.054 A 
ATOM      9  C   UNL A   1      33.000  24.898  22.343  1.00  0.00     0.029 A 
ATOM     10  C   UNL A   1      33.594  23.658  22.532  1.00  0.00     0.028 A 
ATOM     11  C   UNL A   1      32.963  23.669  24.809  1.00  0.00     0.042 A 
ATOM     12  C   UNL A   1      33.816  23.158  23.820  1.00  0.00     0.038 A 
BRANCH   8  13
ATOM     13  N   UNL A   1      32.932  26.971  23.544  1.00  0.00    -0.325 N 
ATOM     14  C   UNL A   1      32.242  27.966  22.872  1.00  0.00     0.224 C 
ATOM     15  O   UNL A   1      32.830  29.033  22.677  1.00  0.00    -0.275 OA
ATOM     16  H   UNL A   1      33.684  27.251  24.114  1.00  0.00     0.169 HD
BRANCH  14  17
ATOM     17  C   UNL A   1      30.748  27.788  22.468  1.00  0.00     0.105 C 
BRANCH  17  18
ATOM     18  C   UNL A   1      29.620  28.433  23.333  1.00  0.00     0.045 C 
BRANCH  18  19
ATOM     19  C   UNL A   1      28.903  29.674  22.790  1.00  0.00    -0.047 A 
ATOM     20  C   UNL A   1      28.022  32.294  22.221  1.00  0.00     0.118 A 
ATOM     21  C   UNL A   1      27.452  31.585  23.270  1.00  0.00     0.046 A 
ATOM     22  C   UNL A   1      28.793  31.599  21.285  1.00  0.00     0.046 A 
ATOM     23  C   UNL A   1      27.868  30.267  23.530  1.00  0.00     0.007 A 
ATOM     24  C   UNL A   1      29.262  30.302  21.587  1.00  0.00     0.007 A 
BRANCH  20  25
ATOM     25  O   UNL A   1      28.422  33.578  22.558  1.00  0.00    -0.497 OA
ATOM     26  C   UNL A   1      29.516  33.759  23.427  1.00  0.00     0.278 C 
ENDBRANCH  20  25
ENDBRANCH  18  19
ENDBRANCH  17  18
ENDBRANCH  14  17
ENDBRANCH   8  13
BRANCH  12  27
ATOM     27  N   UNL A   1      34.878  22.304  24.017  1.00  0.00    -0.372 N 
ATOM     28  C   UNL A   1      34.905  21.043  24.737  1.00  0.00     0.116 C 
ATOM     29  C   UNL A   1      36.242  22.838  23.860  1.00  0.00     0.116 C 
ATOM     30  C   UNL A   1      36.296  20.996  25.377  1.00  0.00     0.023 C 
ATOM     31  C   UNL A   1      37.162  21.738  24.377  1.00  0.00     0.023 C 
ENDBRANCH  12  27
ENDBRANCH   4   7
ENDBRANCH   2   3
ENDBRANCH   1   2
BRANCH   1  32
ATOM     32  C   UNL A   1      32.177  29.774  27.008  1.00  0.00     0.002 C 
BRANCH  32  33
ATOM     33  C   UNL A   1      31.480  30.764  26.069  1.00  0.00     0.002 C 
BRANCH  33  34
ATOM     34  C   UNL A   1      31.334  32.222  26.495  1.00  0.00     0.021 C 
BRANCH  34  35
ATOM     35  C   UNL A   1      32.554  32.879  27.113  1.00  0.00     0.116 C 
BRANCH  35  36
ATOM     36  N   UNL A   1      32.313  34.221  27.613  1.00  0.00    -0.352 N 
ATOM     37  C   UNL A   1      32.998  34.871  28.603  1.00  0.00     0.251 C 
ATOM     38  H   UNL A   1      31.575  34.719  27.192  1.00  0.00     0.163 HD
ATOM     39  O   UNL A   1      32.621  35.982  29.010  1.00  0.00    -0.269 OA
BRANCH  37  40
ATOM     40  C   UNL A   1      34.176  34.231  29.222  1.00  0.00     0.039 A 
ATOM     41  C   UNL A   1      33.985  33.232  30.179  1.00  0.00     0.014 A 
ATOM     42  C   UNL A   1      35.470  34.595  28.835  1.00  0.00     0.014 A 
ATOM     43  C   UNL A   1      35.090  32.573  30.721  1.00  0.00     0.010 A 
ATOM     44  C   UNL A   1      36.565  33.881  29.311  1.00  0.00     0.010 A 
ATOM     45  C   UNL A   1      36.389  32.880  30.278  1.00  0.00    -0.014 A 
BRANCH  45  46
ATOM     46  C   UNL A   1      37.573  32.204  30.864  1.00  0.00     0.031 A 
ATOM     47  C   UNL A   1      38.042  32.585  32.243  1.00  0.00     0.074 A 
ATOM     48  C   UNL A   1      38.240  31.273  30.154  1.00  0.00     0.049 A 
ATOM     49  N   UNL A   1      39.061  32.131  32.929  1.00  0.00    -0.248 NA
ATOM     50  C   UNL A   1      37.279  33.638  32.933  1.00  0.00     0.031 C 
ATOM     51  C   UNL A   1      37.911  30.853  28.791  1.00  0.00     0.029 A 
ATOM     52  N   UNL A   1      39.333  30.510  30.481  1.00  0.00    -0.354 N 
ATOM     53  C   UNL A   1      39.062  32.847  34.119  1.00  0.00     0.074 A 
ATOM     54  C   UNL A   1      37.990  33.813  34.035  1.00  0.00     0.031 C 
ATOM     55  C   UNL A   1      38.761  29.884  28.413  1.00  0.00     0.029 A 
ATOM     56  C   UNL A   1      39.713  29.637  29.491  1.00  0.00     0.049 A 
ATOM     57  H   UNL A   1      39.801  30.583  31.344  1.00  0.00     0.167 HD
ATOM     58  C   UNL A   1      39.862  32.691  35.201  1.00  0.00     0.037 A 
ATOM     59  C   UNL A   1      40.713  28.736  29.464  1.00  0.00     0.037 A 
ATOM     60  C   UNL A   1      40.911  31.710  35.289  1.00  0.00     0.049 A 
ATOM     61  C   UNL A   1      41.592  28.584  30.678  1.00  0.00     0.074 A 
ATOM     62  C   UNL A   1      41.757  31.442  36.351  1.00  0.00     0.029 A 
ATOM     63  N   UNL A   1      41.254  30.832  34.271  1.00  0.00    -0.354 N 
ATOM     64  N   UNL A   1      41.544  29.223  31.822  1.00  0.00    -0.248 NA
ATOM     65  C   UNL A   1      42.655  27.573  30.602  1.00  0.00     0.031 C 
ATOM     66  C   UNL A   1      42.639  30.429  35.961  1.00  0.00     0.029 A 
ATOM     67  C   UNL A   1      42.308  30.029  34.676  1.00  0.00     0.049 A 
ATOM     68  H   UNL A   1      40.814  30.787  33.392  1.00  0.00     0.167 HD
ATOM     69  C   UNL A   1      42.541  28.668  32.613  1.00  0.00     0.074 A 
ATOM     70  C   UNL A   1      43.169  27.630  31.822  1.00  0.00     0.031 C 
ATOM     71  C   UNL A   1      42.905  28.988  33.880  1.00  0.00     0.037 A 
BRANCH  58  72
ATOM     72  C   UNL A   1      39.623  33.594  36.376  1.00  0.00     0.064 A 
ATOM     73  C   UNL A   1      38.794  33.209  37.442  1.00  0.00     0.173 A 
ATOM     74  C   UNL A   1      40.247  34.848  36.454  1.00  0.00     0.173 A 
ATOM     75  F   UNL A   1      38.162  32.026  37.414  1.00  0.00    -0.203 F 
ATOM     76  C   UNL A   1      38.574  34.058  38.524  1.00  0.00     0.198 A 
ATOM     77  C   UNL A   1      40.051  35.681  37.553  1.00  0.00     0.198 A 
ATOM     78  F   UNL A   1      41.053  35.265  35.466  1.00  0.00    -0.203 F 
ATOM     79  F   UNL A   1      37.734  33.690  39.503  1.00  0.00    -0.200 F 
ATOM     80  C   UNL A   1      39.208  35.289  38.583  1.00  0.00     0.200 A 
ATOM     81  F   UNL A   1      40.675  36.865  37.615  1.00  0.00    -0.200 F 
ATOM     82  F   UNL A   1      39.002  36.103  39.628  1.00  0.00    -0.200 F 
ENDBRANCH  58  72
BRANCH  59  83
ATOM     83  C   UNL A   1      40.918  27.880  28.266  1.00  0.00     0.064 A 
ATOM     84  C   UNL A   1      40.324  26.613  28.176  1.00  0.00     0.173 A 
ATOM     85  C   UNL A   1      41.725  28.297  27.197  1.00  0.00     0.173 A 
ATOM     86  F   UNL A   1      39.558  26.160  29.180  1.00  0.00    -0.203 F 
ATOM     87  C   UNL A   1      40.550  25.784  27.078  1.00  0.00     0.198 A 
ATOM     88  C   UNL A   1      41.927  27.479  26.085  1.00  0.00     0.198 A 
ATOM     89  F   UNL A   1      42.313  29.500  27.229  1.00  0.00    -0.203 F 
ATOM     90  F   UNL A   1      40.014  24.557  27.045  1.00  0.00    -0.200 F 
ATOM     91  C   UNL A   1      41.348  26.220  26.032  1.00  0.00     0.200 A 
ATOM     92  F   UNL A   1      42.688  27.911  25.070  1.00  0.00    -0.200 F 
ATOM     93  F   UNL A   1      41.569  25.424  24.977  1.00  0.00    -0.200 F 
ENDBRANCH  59  83
BRANCH  71  94
ATOM     94  C   UNL A   1      43.995  28.169  34.508  1.00  0.00     0.064 A 
ATOM     95  C   UNL A   1      43.724  26.978  35.199  1.00  0.00     0.173 A 
ATOM     96  C   UNL A   1      45.335  28.568  34.388  1.00  0.00     0.173 A 
ATOM     97  F   UNL A   1      42.458  26.561  35.353  1.00  0.00    -0.203 F 
ATOM     98  C   UNL A   1      44.752  26.236  35.776  1.00  0.00     0.198 A 
ATOM     99  C   UNL A   1      46.362  27.806  34.936  1.00  0.00     0.198 A 
ATOM    100  F   UNL A   1      45.649  29.693  33.728  1.00  0.00    -0.203 F 
ATOM    101  F   UNL A   1      44.464  25.133  36.480  1.00  0.00    -0.200 F 
ATOM    102  C   UNL A   1      46.069  26.647  35.637  1.00  0.00     0.200 A 
ATOM    103  F   UNL A   1      47.636  28.195  34.787  1.00  0.00    -0.200 F 
ATOM    104  F   UNL A   1      47.057  25.929  36.189  1.00  0.00    -0.200 F 
ENDBRANCH  71  94
ENDBRANCH  45  46
ENDBRANCH  37  40
ENDBRANCH  35  36
ENDBRANCH  34  35
ENDBRANCH  33  34
ENDBRANCH  32  33
ENDBRANCH   1  32
TORSDOF 19
ENDMDL
MODEL 2
REMARK VINA RESULT:     -12.7      0.642      6.887
REMARK SMILES COc1ccc(CCC(=O)Nc2ccc(N3CCCC3)cc2C(=O)NCCCCCCNC(=O)c2ccc(-c3c4nc(c(-c5c(F)c(F)c(F)c(F)c5F)c5ccc([nH]5)c(-c5c(F)c(F)c(F)c(F)c5F)c5nc(c(-c6c(F)c(F)c(F)c(F)c6F)c6ccc3[nH]6)C=C5)C=C4)cc2)cc1
REMARK SMILES IDX 27 1 26 2 25 3 23 4 24 5 22 7 12 8 13 9 14 10 21 11 15 12
REMARK SMILES IDX 11 13 9 14 10 15 8 17 7 18 6 19 3 20 4 21 99 22 5 23 98 24
REMARK SMILES IDX 2 25 1 26 16 27 17 28 20 29 18 30 19 31 28 32 29 33 30 34
REMARK SMILES IDX 31 35 32 36 33 37 34 39 35 40 36 41 97 42 37 43 96 44 38 45
REMARK SMILES IDX 39 46 40 47 90 48 41 49 95 50 89 51 91 52 42 53 94 54 88 55
REMARK SMILES IDX 87 56 43 58 75 59 55 60 74 61 56 62 59 63 73 64 92 65 57 66
REMARK SMILES IDX 58 67 72 69 93 70 60 71 44 72 45 73 53 74 46 75 47 76 51 77
REMARK SMILES IDX 54 78 48 79 49 80 52 81 50 82 76 83 77 84 85 85 78 86 79 87
REMARK SMILES IDX 83 88 86 89 80 90 81 91 84 92 82 93 61 94 62 95 70 96 63 97
REMARK SMILES IDX 64 98 68 99 71 100 65 101 66 102 69 103 67 104
REMARK H PARENT 25 6 11 16 32 38 91 57 59 68
REMARK Flexibility Score: inf
ROOT
ATOM      1  C   UNL A   1      32.365  28.376  26.893  1.00  0.00     0.021 C 
ENDROOT
BRANCH   1   2
ATOM      2  C   UNL A   1      31.146  27.477  26.987  1.00  0.00     0.116 C 
BRANCH   2   3
ATOM      3  N   UNL A   1      31.438  26.076  26.793  1.00  0.00    -0.352 N 
ATOM      4  C   UNL A   1      31.163  25.444  25.586  1.00  0.00     0.253 C 
ATOM      5  O   UNL A   1      30.009  25.434  25.146  1.00  0.00    -0.269 OA
ATOM      6  H   UNL A   1      31.840  25.560  27.528  1.00  0.00     0.163 HD
BRANCH   4   7
ATOM      7  C   UNL A   1      32.322  24.968  24.735  1.00  0.00     0.065 A 
ATOM      8  C   UNL A   1      32.639  25.691  23.599  1.00  0.00     0.054 A 
ATOM      9  C   UNL A   1      32.958  25.008  22.439  1.00  0.00     0.029 A 
ATOM     10  C   UNL A   1      33.551  23.763  22.592  1.00  0.00     0.028 A 
ATOM     11  C   UNL A   1      32.975  23.735  24.884  1.00  0.00     0.042 A 
ATOM     12  C   UNL A   1      33.802  23.239  23.865  1.00  0.00     0.038 A 
BRANCH   8  13
ATOM     13  N   UNL A   1      32.928  27.060  23.677  1.00  0.00    -0.325 N 
ATOM     14  C   UNL A   1      32.336  28.053  22.916  1.00  0.00     0.224 C 
ATOM     15  O   UNL A   1      32.955  29.111  22.780  1.00  0.00    -0.275 OA
ATOM     16  H   UNL A   1      33.609  27.339  24.330  1.00  0.00     0.169 HD
BRANCH  14  17
ATOM     17  C   UNL A   1      30.899  27.886  22.337  1.00  0.00     0.105 C 
BRANCH  17  18
ATOM     18  C   UNL A   1      29.658  28.305  23.186  1.00  0.00     0.045 C 
BRANCH  18  19
ATOM     19  C   UNL A   1      28.854  29.534  22.746  1.00  0.00    -0.047 A 
ATOM     20  C   UNL A   1      27.932  32.140  22.181  1.00  0.00     0.118 A 
ATOM     21  C   UNL A   1      27.677  31.569  23.421  1.00  0.00     0.046 A 
ATOM     22  C   UNL A   1      28.364  31.313  21.141  1.00  0.00     0.046 A 
ATOM     23  C   UNL A   1      28.107  30.258  23.689  1.00  0.00     0.007 A 
ATOM     24  C   UNL A   1      28.859  30.022  21.431  1.00  0.00     0.007 A 
BRANCH  20  25
ATOM     25  O   UNL A   1      28.456  33.422  22.246  1.00  0.00    -0.497 OA
ATOM     26  C   UNL A   1      29.277  33.782  23.333  1.00  0.00     0.278 C 
ENDBRANCH  20  25
ENDBRANCH  18  19
ENDBRANCH  17  18
ENDBRANCH  14  17
ENDBRANCH   8  13
BRANCH  12  27
ATOM     27  N   UNL A   1      34.864  22.378  24.022  1.00  0.00    -0.372 N 
ATOM     28  C   UNL A   1      34.916  21.127  24.759  1.00  0.00     0.116 C 
ATOM     29  C   UNL A   1      36.223  22.895  23.788  1.00  0.00     0.116 C 
ATOM     30  C   UNL A   1      36.337  21.076  25.329  1.00  0.00     0.023 C 
ATOM     31  C   UNL A   1      37.158  21.794  24.275  1.00  0.00     0.023 C 
ENDBRANCH  12  27
ENDBRANCH   4   7
ENDBRANCH   2   3
ENDBRANCH   1   2
BRANCH   1  32
ATOM     32  C   UNL A   1      32.192  29.866  27.210  1.00  0.00     0.002 C 
BRANCH  32  33
ATOM     33  C   UNL A   1      31.601  30.827  26.172  1.00  0.00     0.002 C 
BRANCH  33  34
ATOM     34  C   UNL A   1      31.457  32.306  26.518  1.00  0.00     0.021 C 
BRANCH  34  35
ATOM     35  C   UNL A   1      32.594  32.938  27.300  1.00  0.00     0.116 C 
BRANCH  35  36
ATOM     36  N   UNL A   1      32.346  34.314  27.692  1.00  0.00    -0.352 N 
ATOM     37  C   UNL A   1      32.992  35.026  28.667  1.00  0.00     0.251 C 
ATOM     38  H   UNL A   1      31.636  34.788  27.202  1.00  0.00     0.163 HD
ATOM     39  O   UNL A   1      32.610  36.166  28.975  1.00  0.00    -0.269 OA
BRANCH  37  40
ATOM     40  C   UNL A   1      34.130  34.419  29.385  1.00  0.00     0.039 A 
ATOM     41  C   UNL A   1      33.890  33.685  30.548  1.00  0.00     0.014 A 
ATOM     42  C   UNL A   1      35.434  34.551  28.894  1.00  0.00     0.014 A 
ATOM     43  C   UNL A   1      34.950  33.051  31.197  1.00  0.00     0.010 A 
ATOM     44  C   UNL A   1      36.476  33.849  29.493  1.00  0.00     0.010 A 
ATOM     45  C   UNL A   1      36.250  33.113  30.664  1.00  0.00    -0.014 A 
BRANCH  45  46
ATOM     46  C   UNL A   1      37.391  32.464  31.359  1.00  0.00     0.031 A 
ATOM     47  C   UNL A   1      38.139  31.349  30.679  1.00  0.00     0.074 A 
ATOM     48  C   UNL A   1      37.735  32.854  32.601  1.00  0.00     0.049 A 
ATOM     49  N   UNL A   1      39.149  30.639  31.116  1.00  0.00    -0.248 NA
ATOM     50  C   UNL A   1      37.672  30.959  29.339  1.00  0.00     0.031 C 
ATOM     51  C   UNL A   1      37.056  33.891  33.381  1.00  0.00     0.029 A 
ATOM     52  N   UNL A   1      38.745  32.426  33.426  1.00  0.00    -0.354 N 
ATOM     53  C   UNL A   1      39.428  29.722  30.111  1.00  0.00     0.074 A 
ATOM     54  C   UNL A   1      38.439  29.914  29.075  1.00  0.00     0.031 C 
ATOM     55  C   UNL A   1      37.691  34.042  34.555  1.00  0.00     0.029 A 
ATOM     56  C   UNL A   1      38.798  33.094  34.625  1.00  0.00     0.049 A 
ATOM     57  H   UNL A   1      39.372  31.707  33.181  1.00  0.00     0.167 HD
ATOM     58  C   UNL A   1      40.438  28.823  30.041  1.00  0.00     0.037 A 
ATOM     59  C   UNL A   1      39.650  32.957  35.659  1.00  0.00     0.037 A 
ATOM     60  C   UNL A   1      41.435  28.653  31.065  1.00  0.00     0.049 A 
ATOM     61  C   UNL A   1      40.764  31.947  35.558  1.00  0.00     0.074 A 
ATOM     62  C   UNL A   1      42.523  27.798  31.079  1.00  0.00     0.029 A 
ATOM     63  N   UNL A   1      41.465  29.361  32.258  1.00  0.00    -0.354 N 
ATOM     64  N   UNL A   1      41.055  31.129  34.576  1.00  0.00    -0.248 NA
ATOM     65  C   UNL A   1      41.676  31.854  36.706  1.00  0.00     0.031 C 
ATOM     66  C   UNL A   1      43.187  27.958  32.300  1.00  0.00     0.029 A 
ATOM     67  C   UNL A   1      42.546  28.952  33.021  1.00  0.00     0.049 A 
ATOM     68  H   UNL A   1      40.814  30.050  32.522  1.00  0.00     0.167 HD
ATOM     69  C   UNL A   1      42.202  30.452  34.969  1.00  0.00     0.074 A 
ATOM     70  C   UNL A   1      42.561  30.967  36.274  1.00  0.00     0.031 C 
ATOM     71  C   UNL A   1      42.897  29.492  34.310  1.00  0.00     0.037 A 
BRANCH  58  72
ATOM     72  C   UNL A   1      40.519  27.964  28.811  1.00  0.00     0.064 A 
ATOM     73  C   UNL A   1      39.846  26.734  28.729  1.00  0.00     0.173 A 
ATOM     74  C   UNL A   1      41.254  28.383  27.692  1.00  0.00     0.173 A 
ATOM     75  F   UNL A   1      39.139  26.280  29.775  1.00  0.00    -0.203 F 
ATOM     76  C   UNL A   1      39.933  25.943  27.586  1.00  0.00     0.198 A 
ATOM     77  C   UNL A   1      41.312  27.605  26.539  1.00  0.00     0.198 A 
ATOM     78  F   UNL A   1      41.912  29.552  27.714  1.00  0.00    -0.203 F 
ATOM     79  F   UNL A   1      39.328  24.747  27.554  1.00  0.00    -0.200 F 
ATOM     80  C   UNL A   1      40.659  26.382  26.490  1.00  0.00     0.200 A 
ATOM     81  F   UNL A   1      42.002  28.036  25.475  1.00  0.00    -0.200 F 
ATOM     82  F   UNL A   1      40.736  25.623  25.388  1.00  0.00    -0.200 F 
ENDBRANCH  58  72
BRANCH  59  83
ATOM     83  C   UNL A   1      39.514  33.821  36.861  1.00  0.00     0.064 A 
ATOM     84  C   UNL A   1      38.809  33.378  37.990  1.00  0.00     0.173 A 
ATOM     85  C   UNL A   1      40.065  35.110  36.903  1.00  0.00     0.173 A 
ATOM     86  F   UNL A   1      38.248  32.160  37.993  1.00  0.00    -0.203 F 
ATOM     87  C   UNL A   1      38.636  34.200  39.102  1.00  0.00     0.198 A 
ATOM     88  C   UNL A   1      39.917  35.921  38.028  1.00  0.00     0.198 A 
ATOM     89  F   UNL A   1      40.753  35.581  35.854  1.00  0.00    -0.203 F 
ATOM     90  F   UNL A   1      37.912  33.771  40.144  1.00  0.00    -0.200 F 
ATOM     91  C   UNL A   1      39.194  35.469  39.122  1.00  0.00     0.200 A 
ATOM     92  F   UNL A   1      40.470  37.141  38.048  1.00  0.00    -0.200 F 
ATOM     93  F   UNL A   1      39.027  36.261  40.190  1.00  0.00    -0.200 F 
ENDBRANCH  59  83
BRANCH  71  94
ATOM     94  C   UNL A   1      44.146  28.976  34.965  1.00  0.00     0.064 A 
ATOM     95  C   UNL A   1      44.129  27.862  35.818  1.00  0.00     0.173 A 
ATOM     96  C   UNL A   1      45.381  29.589  34.709  1.00  0.00     0.173 A 
ATOM     97  F   UNL A   1      42.970  27.249  36.105  1.00  0.00    -0.203 F 
ATOM     98  C   UNL A   1      45.299  27.402  36.417  1.00  0.00     0.198 A 
ATOM     99  C   UNL A   1      46.554  29.105  35.282  1.00  0.00     0.198 A 
ATOM    100  F   UNL A   1      45.453  30.651  33.893  1.00  0.00    -0.203 F 
ATOM    101  F   UNL A   1      45.251  26.372  37.272  1.00  0.00    -0.200 F 
ATOM    102  C   UNL A   1      46.510  28.019  36.142  1.00  0.00     0.200 A 
ATOM    103  F   UNL A   1      47.725  29.693  35.003  1.00  0.00    -0.200 F 
ATOM    104  F   UNL A   1      47.636  27.573  36.716  1.00  0.00    -0.200 F 
ENDBRANCH  71  94
ENDBRANCH  45  46
ENDBRANCH  37  40
ENDBRANCH  35  36
ENDBRANCH  34  35
ENDBRANCH  33  34
ENDBRANCH  32  33
ENDBRANCH   1  32
TORSDOF 19
ENDMDL
MODEL 3
REMARK VINA RESULT:     -12.5      1.003      1.977
REMARK SMILES COc1ccc(CCC(=O)Nc2ccc(N3CCCC3)cc2C(=O)NCCCCCCNC(=O)c2ccc(-c3c4nc(c(-c5c(F)c(F)c(F)c(F)c5F)c5ccc([nH]5)c(-c5c(F)c(F)c(F)c(F)c5F)c5nc(c(-c6c(F)c(F)c(F)c(F)c6F)c6ccc3[nH]6)C=C5)C=C4)cc2)cc1
REMARK SMILES IDX 27 1 26 2 25 3 23 4 24 5 22 7 12 8 13 9 14 10 21 11 15 12
REMARK SMILES IDX 11 13 9 14 10 15 8 17 7 18 6 19 3 20 4 21 99 22 5 23 98 24
REMARK SMILES IDX 2 25 1 26 16 27 17 28 20 29 18 30 19 31 28 32 29 33 30 34
REMARK SMILES IDX 31 35 32 36 33 37 34 39 35 40 36 41 97 42 37 43 96 44 38 45
REMARK SMILES IDX 39 46 40 47 90 48 41 49 95 50 89 51 91 52 42 53 94 54 88 55
REMARK SMILES IDX 87 56 43 58 75 59 55 60 74 61 56 62 59 63 73 64 92 65 57 66
REMARK SMILES IDX 58 67 72 69 93 70 60 71 44 72 45 73 53 74 46 75 47 76 51 77
REMARK SMILES IDX 54 78 48 79 49 80 52 81 50 82 76 83 77 84 85 85 78 86 79 87
REMARK SMILES IDX 83 88 86 89 80 90 81 91 84 92 82 93 61 94 62 95 70 96 63 97
REMARK SMILES IDX 64 98 68 99 71 100 65 101 66 102 69 103 67 104
REMARK H PARENT 25 6 11 16 32 38 91 57 59 68
REMARK Flexibility Score: inf
ROOT
ATOM      1  C   UNL A   1      33.523  28.551  26.621  1.00  0.00     0.021 C 
ENDROOT
BRANCH   1   2
ATOM      2  C   UNL A   1      33.646  27.430  25.604  1.00  0.00     0.116 C 
BRANCH   2   3
ATOM      3  N   UNL A   1      33.502  26.111  26.173  1.00  0.00    -0.352 N 
ATOM      4  C   UNL A   1      32.428  25.294  25.836  1.00  0.00     0.253 C 
ATOM      5  O   UNL A   1      31.274  25.685  26.031  1.00  0.00    -0.269 OA
ATOM      6  H   UNL A   1      34.176  25.783  26.811  1.00  0.00     0.163 HD
BRANCH   4   7
ATOM      7  C   UNL A   1      32.697  24.034  25.039  1.00  0.00     0.065 A 
ATOM      8  C   UNL A   1      32.575  24.093  23.663  1.00  0.00     0.054 A 
ATOM      9  C   UNL A   1      31.959  23.045  23.001  1.00  0.00     0.029 A 
ATOM     10  C   UNL A   1      32.072  21.790  23.581  1.00  0.00     0.028 A 
ATOM     11  C   UNL A   1      32.857  22.754  25.590  1.00  0.00     0.042 A 
ATOM     12  C   UNL A   1      32.773  21.613  24.779  1.00  0.00     0.038 A 
BRANCH   8  13
ATOM     13  N   UNL A   1      33.307  25.025  22.916  1.00  0.00    -0.325 N 
ATOM     14  C   UNL A   1      32.773  25.956  22.041  1.00  0.00     0.224 C 
ATOM     15  O   UNL A   1      33.516  26.404  21.164  1.00  0.00    -0.275 OA
ATOM     16  H   UNL A   1      34.286  25.019  23.024  1.00  0.00     0.169 HD
BRANCH  14  17
ATOM     17  C   UNL A   1      31.323  26.498  22.217  1.00  0.00     0.105 C 
BRANCH  17  18
ATOM     18  C   UNL A   1      31.069  27.811  23.021  1.00  0.00     0.045 C 
BRANCH  18  19
ATOM     19  C   UNL A   1      29.938  28.739  22.563  1.00  0.00    -0.047 A 
ATOM     20  C   UNL A   1      28.015  30.790  22.310  1.00  0.00     0.118 A 
ATOM     21  C   UNL A   1      27.702  29.628  23.005  1.00  0.00     0.046 A 
ATOM     22  C   UNL A   1      29.151  30.795  21.497  1.00  0.00     0.046 A 
ATOM     23  C   UNL A   1      28.649  28.594  23.101  1.00  0.00     0.007 A 
ATOM     24  C   UNL A   1      30.129  29.788  21.650  1.00  0.00     0.007 A 
BRANCH  20  25
ATOM     25  O   UNL A   1      27.703  31.956  22.990  1.00  0.00    -0.497 OA
ATOM     26  C   UNL A   1      28.667  32.980  23.092  1.00  0.00     0.278 C 
ENDBRANCH  20  25
ENDBRANCH  18  19
ENDBRANCH  17  18
ENDBRANCH  14  17
ENDBRANCH   8  13
BRANCH  12  27
ATOM     27  N   UNL A   1      33.380  20.399  25.010  1.00  0.00    -0.372 N 
ATOM     28  C   UNL A   1      34.791  20.063  24.943  1.00  0.00     0.116 C 
ATOM     29  C   UNL A   1      32.555  19.181  24.932  1.00  0.00     0.116 C 
ATOM     30  C   UNL A   1      34.819  18.624  24.419  1.00  0.00     0.023 C 
ATOM     31  C   UNL A   1      33.547  18.025  24.988  1.00  0.00     0.023 C 
ENDBRANCH  12  27
ENDBRANCH   4   7
ENDBRANCH   2   3
ENDBRANCH   1   2
BRANCH   1  32
ATOM     32  C   UNL A   1      32.151  29.210  26.808  1.00  0.00     0.002 C 
BRANCH  32  33
ATOM     33  C   UNL A   1      31.677  30.321  25.863  1.00  0.00     0.002 C 
BRANCH  33  34
ATOM     34  C   UNL A   1      31.473  31.731  26.409  1.00  0.00     0.021 C 
BRANCH  34  35
ATOM     35  C   UNL A   1      32.673  32.389  27.065  1.00  0.00     0.116 C 
BRANCH  35  36
ATOM     36  N   UNL A   1      32.438  33.759  27.486  1.00  0.00    -0.352 N 
ATOM     37  C   UNL A   1      33.132  34.465  28.431  1.00  0.00     0.251 C 
ATOM     38  H   UNL A   1      31.698  34.232  27.042  1.00  0.00     0.163 HD
ATOM     39  O   UNL A   1      32.760  35.599  28.773  1.00  0.00    -0.269 OA
BRANCH  37  40
ATOM     40  C   UNL A   1      34.313  33.860  29.078  1.00  0.00     0.039 A 
ATOM     41  C   UNL A   1      34.140  32.766  29.928  1.00  0.00     0.014 A 
ATOM     42  C   UNL A   1      35.597  34.354  28.821  1.00  0.00     0.014 A 
ATOM     43  C   UNL A   1      35.255  32.144  30.491  1.00  0.00     0.010 A 
ATOM     44  C   UNL A   1      36.711  33.682  29.314  1.00  0.00     0.010 A 
ATOM     45  C   UNL A   1      36.552  32.586  30.174  1.00  0.00    -0.014 A 
BRANCH  45  46
ATOM     46  C   UNL A   1      37.745  31.949  30.786  1.00  0.00     0.031 A 
ATOM     47  C   UNL A   1      38.180  32.356  32.169  1.00  0.00     0.074 A 
ATOM     48  C   UNL A   1      38.449  31.031  30.096  1.00  0.00     0.049 A 
ATOM     49  N   UNL A   1      39.199  31.937  32.876  1.00  0.00    -0.248 NA
ATOM     50  C   UNL A   1      37.376  33.393  32.837  1.00  0.00     0.031 C 
ATOM     51  C   UNL A   1      38.155  30.590  28.732  1.00  0.00     0.029 A 
ATOM     52  N   UNL A   1      39.557  30.303  30.448  1.00  0.00    -0.354 N 
ATOM     53  C   UNL A   1      39.160  32.663  34.059  1.00  0.00     0.074 A 
ATOM     54  C   UNL A   1      38.063  33.598  33.948  1.00  0.00     0.031 C 
ATOM     55  C   UNL A   1      39.038  29.642  28.377  1.00  0.00     0.029 A 
ATOM     56  C   UNL A   1      39.979  29.432  29.473  1.00  0.00     0.049 A 
ATOM     57  H   UNL A   1      40.009  30.397  31.318  1.00  0.00     0.167 HD
ATOM     58  C   UNL A   1      39.946  32.540  35.156  1.00  0.00     0.037 A 
ATOM     59  C   UNL A   1      41.004  28.560  29.471  1.00  0.00     0.037 A 
ATOM     60  C   UNL A   1      41.021  31.590  35.271  1.00  0.00     0.049 A 
ATOM     61  C   UNL A   1      41.866  28.444  30.701  1.00  0.00     0.074 A 
ATOM     62  C   UNL A   1      41.856  31.355  36.348  1.00  0.00     0.029 A 
ATOM     63  N   UNL A   1      41.406  30.713  34.266  1.00  0.00    -0.354 N 
ATOM     64  N   UNL A   1      41.781  29.091  31.837  1.00  0.00    -0.248 NA
ATOM     65  C   UNL A   1      42.958  27.462  30.652  1.00  0.00     0.031 C 
ATOM     66  C   UNL A   1      42.773  30.365  35.982  1.00  0.00     0.029 A 
ATOM     67  C   UNL A   1      42.474  29.944  34.696  1.00  0.00     0.049 A 
ATOM     68  H   UNL A   1      40.982  30.647  33.380  1.00  0.00     0.167 HD
ATOM     69  C   UNL A   1      42.780  28.572  32.650  1.00  0.00     0.074 A 
ATOM     70  C   UNL A   1      43.450  27.545  31.880  1.00  0.00     0.031 C 
ATOM     71  C   UNL A   1      43.114  28.912  33.920  1.00  0.00     0.037 A 
BRANCH  58  72
ATOM     72  C   UNL A   1      39.662  33.446  36.318  1.00  0.00     0.064 A 
ATOM     73  C   UNL A   1      40.219  34.733  36.400  1.00  0.00     0.173 A 
ATOM     74  C   UNL A   1      38.804  33.039  37.351  1.00  0.00     0.173 A 
ATOM     75  F   UNL A   1      41.056  35.168  35.447  1.00  0.00    -0.203 F 
ATOM     76  C   UNL A   1      39.954  35.562  37.487  1.00  0.00     0.198 A 
ATOM     77  C   UNL A   1      38.515  33.884  38.420  1.00  0.00     0.198 A 
ATOM     78  F   UNL A   1      38.240  31.822  37.322  1.00  0.00    -0.203 F 
ATOM     79  F   UNL A   1      40.543  36.764  37.569  1.00  0.00    -0.200 F 
ATOM     80  C   UNL A   1      39.097  35.141  38.491  1.00  0.00     0.200 A 
ATOM     81  F   UNL A   1      37.675  33.481  39.383  1.00  0.00    -0.200 F 
ATOM     82  F   UNL A   1      38.837  35.943  39.533  1.00  0.00    -0.200 F 
ENDBRANCH  58  72
BRANCH  59  83
ATOM     83  C   UNL A   1      41.253  27.699  28.285  1.00  0.00     0.064 A 
ATOM     84  C   UNL A   1      42.090  28.128  27.245  1.00  0.00     0.173 A 
ATOM     85  C   UNL A   1      40.647  26.440  28.153  1.00  0.00     0.173 A 
ATOM     86  F   UNL A   1      42.679  29.331  27.314  1.00  0.00    -0.203 F 
ATOM     87  C   UNL A   1      42.290  27.347  26.108  1.00  0.00     0.198 A 
ATOM     88  C   UNL A   1      40.870  25.646  27.029  1.00  0.00     0.198 A 
ATOM     89  F   UNL A   1      39.841  25.979  29.120  1.00  0.00    -0.203 F 
ATOM     90  F   UNL A   1      43.051  27.807  25.107  1.00  0.00    -0.200 F 
ATOM     91  C   UNL A   1      41.683  26.105  26.003  1.00  0.00     0.200 A 
ATOM     92  F   UNL A   1      40.293  24.441  26.939  1.00  0.00    -0.200 F 
ATOM     93  F   UNL A   1      41.872  25.354  24.910  1.00  0.00    -0.200 F 
ENDBRANCH  59  83
BRANCH  71  94
ATOM     94  C   UNL A   1      44.216  28.130  34.574  1.00  0.00     0.064 A 
ATOM     95  C   UNL A   1      43.969  26.932  35.260  1.00  0.00     0.173 A 
ATOM     96  C   UNL A   1      45.545  28.574  34.483  1.00  0.00     0.173 A 
ATOM     97  F   UNL A   1      42.714  26.473  35.385  1.00  0.00    -0.203 F 
ATOM     98  C   UNL A   1      45.007  26.224  35.860  1.00  0.00     0.198 A 
ATOM     99  C   UNL A   1      46.584  27.846  35.055  1.00  0.00     0.198 A 
ATOM    100  F   UNL A   1      45.835  29.709  33.830  1.00  0.00    -0.203 F 
ATOM    101  F   UNL A   1      44.740  25.112  36.559  1.00  0.00    -0.200 F 
ATOM    102  C   UNL A   1      46.313  26.678  35.751  1.00  0.00     0.200 A 
ATOM    103  F   UNL A   1      47.847  28.278  34.936  1.00  0.00    -0.200 F 
ATOM    104  F   UNL A   1      47.311  25.994  36.326  1.00  0.00    -0.200 F 
ENDBRANCH  71  94
ENDBRANCH  45  46
ENDBRANCH  37  40
ENDBRANCH  35  36
ENDBRANCH  34  35
ENDBRANCH  33  34
ENDBRANCH  32  33
ENDBRANCH   1  32
TORSDOF 19
ENDMDL
