MODEL 1
REMARK VINA RESULT:     -12.3      0.000      0.000
REMARK SMILES O=C(CSc1nc(-c2cccc(F)c2)n[nH]1)NCCCCCCNC(=O)c1ccc(-c2c3nc(c(-c4c(F)c(F)c(F)c(F)c4F)c4ccc([nH]4)c(-c4c(F)c(F)c(F)c(F)c4F)c4nc(c(-c5c(F)c(F)c(F)c(F)c5F)c5ccc2[nH]5)C=C4)C=C3)cc1
REMARK SMILES IDX 20 1 19 2 18 3 17 4 1 5 2 6 3 8 4 9 5 10 6 11 16 12 7 13
REMARK SMILES IDX 15 14 8 16 9 17 14 18 10 19 12 20 11 21 13 22 21 23 22 24
REMARK SMILES IDX 23 25 24 26 25 27 26 29 27 30 28 31 89 32 29 33 88 34 30 35
REMARK SMILES IDX 31 36 32 37 82 38 33 39 87 40 81 41 83 42 34 43 86 44 80 45
REMARK SMILES IDX 79 46 35 48 67 49 47 50 66 51 48 52 51 53 65 54 84 55 49 56
REMARK SMILES IDX 50 57 64 59 85 60 52 61 36 62 37 63 45 64 38 65 39 66 43 67
REMARK SMILES IDX 46 68 40 69 41 70 44 71 42 72 68 73 69 74 77 75 70 76 71 77
REMARK SMILES IDX 75 78 78 79 72 80 73 81 76 82 74 83 53 84 54 85 62 86 55 87
REMARK SMILES IDX 56 88 60 89 63 90 57 91 58 92 61 93 59 94
REMARK H PARENT 17 7 16 15 24 28 83 47 51 58
REMARK Flexibility Score: inf
ROOT
ATOM      1  C   UNL A   1      33.202  30.029  26.055  1.00  0.00     0.002 C 
ENDROOT
BRANCH   1   2
ATOM      2  C   UNL A   1      33.578  28.768  25.268  1.00  0.00     0.021 C 
BRANCH   2   3
ATOM      3  C   UNL A   1      33.604  27.482  26.094  1.00  0.00     0.116 C 
BRANCH   3   4
ATOM      4  N   UNL A   1      32.607  26.535  25.643  1.00  0.00    -0.355 N 
ATOM      5  O   UNL A   1      30.971  27.165  27.123  1.00  0.00    -0.274 OA
ATOM      6  C   UNL A   1      31.340  26.471  26.177  1.00  0.00     0.230 C 
ATOM      7  H   UNL A   1      32.847  25.908  24.923  1.00  0.00     0.163 HD
BRANCH   6   8
ATOM      8  C   UNL A   1      30.456  25.366  25.622  1.00  0.00     0.178 C 
BRANCH   8   9
ATOM      9  S   UNL A   1      30.333  25.355  23.808  1.00  0.00    -0.077 SA
BRANCH   9  10
ATOM     10  C   UNL A   1      29.358  26.745  23.553  1.00  0.00     0.184 A 
ATOM     11  N   UNL A   1      29.726  27.904  23.075  1.00  0.00    -0.201 NA
ATOM     12  N   UNL A   1      28.029  26.752  23.825  1.00  0.00    -0.254 N 
ATOM     13  C   UNL A   1      28.562  28.643  23.130  1.00  0.00     0.182 A 
ATOM     14  N   UNL A   1      27.500  27.967  23.602  1.00  0.00    -0.153 NA
ATOM     15  H   UNL A   1      27.520  25.972  24.143  1.00  0.00     0.192 HD
BRANCH  13  16
ATOM     16  C   UNL A   1      28.503  30.028  22.694  1.00  0.00     0.024 A 
ATOM     17  C   UNL A   1      28.789  31.063  23.597  1.00  0.00     0.012 A 
ATOM     18  C   UNL A   1      28.169  30.344  21.373  1.00  0.00     0.051 A 
ATOM     19  C   UNL A   1      28.755  32.397  23.183  1.00  0.00     0.004 A 
ATOM     20  C   UNL A   1      28.118  31.675  20.977  1.00  0.00     0.123 A 
ATOM     21  C   UNL A   1      28.413  32.703  21.866  1.00  0.00     0.039 A 
ATOM     22  F   UNL A   1      27.781  31.975  19.715  1.00  0.00    -0.207 F 
ENDBRANCH  13  16
ENDBRANCH   9  10
ENDBRANCH   8   9
ENDBRANCH   6   8
ENDBRANCH   3   4
ENDBRANCH   2   3
ENDBRANCH   1   2
BRANCH   1  23
ATOM     23  C   UNL A   1      31.763  30.519  25.869  1.00  0.00     0.002 C 
BRANCH  23  24
ATOM     24  C   UNL A   1      31.422  31.833  26.574  1.00  0.00     0.021 C 
BRANCH  24  25
ATOM     25  C   UNL A   1      32.603  32.535  27.240  1.00  0.00     0.116 C 
BRANCH  25  26
ATOM     26  N   UNL A   1      32.331  33.936  27.525  1.00  0.00    -0.352 N 
ATOM     27  C   UNL A   1      32.914  34.774  28.444  1.00  0.00     0.251 C 
ATOM     28  H   UNL A   1      31.623  34.345  26.977  1.00  0.00     0.163 HD
ATOM     29  O   UNL A   1      32.436  35.885  28.658  1.00  0.00    -0.269 OA
BRANCH  27  30
ATOM     30  C   UNL A   1      34.102  34.330  29.204  1.00  0.00     0.039 A 
ATOM     31  C   UNL A   1      33.918  33.715  30.445  1.00  0.00     0.014 A 
ATOM     32  C   UNL A   1      35.391  34.511  28.695  1.00  0.00     0.014 A 
ATOM     33  C   UNL A   1      35.019  33.205  31.136  1.00  0.00     0.010 A 
ATOM     34  C   UNL A   1      36.480  33.939  29.349  1.00  0.00     0.010 A 
ATOM     35  C   UNL A   1      36.304  33.269  30.569  1.00  0.00    -0.014 A 
BRANCH  35  36
ATOM     36  C   UNL A   1      37.461  32.593  31.209  1.00  0.00     0.031 A 
ATOM     37  C   UNL A   1      38.150  31.445  30.531  1.00  0.00     0.074 A 
ATOM     38  C   UNL A   1      37.841  32.969  32.446  1.00  0.00     0.049 A 
ATOM     39  N   UNL A   1      39.127  30.691  30.972  1.00  0.00    -0.248 NA
ATOM     40  C   UNL A   1      37.664  31.078  29.193  1.00  0.00     0.031 C 
ATOM     41  C   UNL A   1      37.223  34.042  33.226  1.00  0.00     0.029 A 
ATOM     42  N   UNL A   1      38.829  32.487  33.270  1.00  0.00    -0.354 N 
ATOM     43  C   UNL A   1      39.364  29.758  29.972  1.00  0.00     0.074 A 
ATOM     44  C   UNL A   1      38.398  30.007  28.923  1.00  0.00     0.031 C 
ATOM     45  C   UNL A   1      37.861  34.155  34.400  1.00  0.00     0.029 A 
ATOM     46  C   UNL A   1      38.900  33.133  34.480  1.00  0.00     0.049 A 
ATOM     47  H   UNL A   1      39.429  31.748  33.016  1.00  0.00     0.167 HD
ATOM     48  C   UNL A   1      40.315  28.794  29.928  1.00  0.00     0.037 A 
ATOM     49  C   UNL A   1      39.701  32.921  35.541  1.00  0.00     0.037 A 
ATOM     50  C   UNL A   1      41.285  28.566  30.968  1.00  0.00     0.049 A 
ATOM     51  C   UNL A   1      40.730  31.827  35.483  1.00  0.00     0.074 A 
ATOM     52  C   UNL A   1      42.336  27.667  30.980  1.00  0.00     0.029 A 
ATOM     53  N   UNL A   1      41.316  29.231  32.187  1.00  0.00    -0.354 N 
ATOM     54  N   UNL A   1      40.994  30.997  34.504  1.00  0.00    -0.248 NA
ATOM     55  C   UNL A   1      41.570  31.637  36.674  1.00  0.00     0.031 C 
ATOM     56  C   UNL A   1      42.960  27.739  32.228  1.00  0.00     0.029 A 
ATOM     57  C   UNL A   1      42.341  28.730  32.972  1.00  0.00     0.049 A 
ATOM     58  H   UNL A   1      40.699  29.953  32.452  1.00  0.00     0.167 HD
ATOM     59  C   UNL A   1      42.036  30.197  34.950  1.00  0.00     0.074 A 
ATOM     60  C   UNL A   1      42.368  30.650  36.285  1.00  0.00     0.031 C 
ATOM     61  C   UNL A   1      42.659  29.179  34.306  1.00  0.00     0.037 A 
BRANCH  48  62
ATOM     62  C   UNL A   1      40.359  27.906  28.718  1.00  0.00     0.064 A 
ATOM     63  C   UNL A   1      39.671  26.682  28.710  1.00  0.00     0.173 A 
ATOM     64  C   UNL A   1      41.130  28.231  27.592  1.00  0.00     0.173 A 
ATOM     65  F   UNL A   1      38.926  26.318  29.764  1.00  0.00    -0.203 F 
ATOM     66  C   UNL A   1      39.762  25.815  27.625  1.00  0.00     0.198 A 
ATOM     67  C   UNL A   1      41.192  27.376  26.494  1.00  0.00     0.198 A 
ATOM     68  F   UNL A   1      41.802  29.391  27.544  1.00  0.00    -0.203 F 
ATOM     69  F   UNL A   1      39.122  24.638  27.654  1.00  0.00    -0.200 F 
ATOM     70  C   UNL A   1      40.516  26.166  26.515  1.00  0.00     0.200 A 
ATOM     71  F   UNL A   1      41.900  27.728  25.412  1.00  0.00    -0.200 F 
ATOM     72  F   UNL A   1      40.589  25.337  25.464  1.00  0.00    -0.200 F 
ENDBRANCH  48  62
BRANCH  49  73
ATOM     73  C   UNL A   1      39.566  33.797  36.735  1.00  0.00     0.064 A 
ATOM     74  C   UNL A   1      40.265  35.008  36.834  1.00  0.00     0.173 A 
ATOM     75  C   UNL A   1      38.793  33.396  37.832  1.00  0.00     0.173 A 
ATOM     76  F   UNL A   1      41.024  35.433  35.812  1.00  0.00    -0.203 F 
ATOM     77  C   UNL A   1      40.223  35.770  38.001  1.00  0.00     0.198 A 
ATOM     78  C   UNL A   1      38.730  34.171  38.989  1.00  0.00     0.198 A 
ATOM     79  F   UNL A   1      38.091  32.254  37.776  1.00  0.00    -0.203 F 
ATOM     80  F   UNL A   1      40.941  36.897  38.089  1.00  0.00    -0.200 F 
ATOM     81  C   UNL A   1      39.456  35.350  39.077  1.00  0.00     0.200 A 
ATOM     82  F   UNL A   1      37.973  33.773  40.019  1.00  0.00    -0.200 F 
ATOM     83  F   UNL A   1      39.420  36.080  40.200  1.00  0.00    -0.200 F 
ENDBRANCH  49  73
BRANCH  61  84
ATOM     84  C   UNL A   1      43.772  28.472  35.023  1.00  0.00     0.064 A 
ATOM     85  C   UNL A   1      43.527  27.273  35.712  1.00  0.00     0.173 A 
ATOM     86  C   UNL A   1      45.054  29.032  35.116  1.00  0.00     0.173 A 
ATOM     87  F   UNL A   1      42.316  26.700  35.661  1.00  0.00    -0.203 F 
ATOM     88  C   UNL A   1      44.517  26.678  36.488  1.00  0.00     0.198 A 
ATOM     89  C   UNL A   1      46.051  28.417  35.870  1.00  0.00     0.198 A 
ATOM     90  F   UNL A   1      45.343  30.169  34.467  1.00  0.00    -0.203 F 
ATOM     91  F   UNL A   1      44.245  25.559  37.175  1.00  0.00    -0.200 F 
ATOM     92  C   UNL A   1      45.778  27.248  36.566  1.00  0.00     0.200 A 
ATOM     93  F   UNL A   1      47.276  28.957  35.925  1.00  0.00    -0.200 F 
ATOM     94  F   UNL A   1      46.730  26.673  37.313  1.00  0.00    -0.200 F 
ENDBRANCH  61  84
ENDBRANCH  35  36
ENDBRANCH  27  30
ENDBRANCH  25  26
ENDBRANCH  24  25
ENDBRANCH  23  24
ENDBRANCH   1  23
TORSDOF 16
ENDMDL
MODEL 2
REMARK VINA RESULT:     -12.1      0.749      1.766
REMARK SMILES O=C(CSc1nc(-c2cccc(F)c2)n[nH]1)NCCCCCCNC(=O)c1ccc(-c2c3nc(c(-c4c(F)c(F)c(F)c(F)c4F)c4ccc([nH]4)c(-c4c(F)c(F)c(F)c(F)c4F)c4nc(c(-c5c(F)c(F)c(F)c(F)c5F)c5ccc2[nH]5)C=C4)C=C3)cc1
REMARK SMILES IDX 20 1 19 2 18 3 17 4 1 5 2 6 3 8 4 9 5 10 6 11 16 12 7 13
REMARK SMILES IDX 15 14 8 16 9 17 14 18 10 19 12 20 11 21 13 22 21 23 22 24
REMARK SMILES IDX 23 25 24 26 25 27 26 29 27 30 28 31 89 32 29 33 88 34 30 35
REMARK SMILES IDX 31 36 32 37 82 38 33 39 87 40 81 41 83 42 34 43 86 44 80 45
REMARK SMILES IDX 79 46 35 48 67 49 47 50 66 51 48 52 51 53 65 54 84 55 49 56
REMARK SMILES IDX 50 57 64 59 85 60 52 61 36 62 37 63 45 64 38 65 39 66 43 67
REMARK SMILES IDX 46 68 40 69 41 70 44 71 42 72 68 73 69 74 77 75 70 76 71 77
REMARK SMILES IDX 75 78 78 79 72 80 73 81 76 82 74 83 53 84 54 85 62 86 55 87
REMARK SMILES IDX 56 88 60 89 63 90 57 91 58 92 61 93 59 94
REMARK H PARENT 17 7 16 15 24 28 83 47 51 58
REMARK Flexibility Score: inf
ROOT
ATOM      1  C   UNL A   1      31.945  29.422  27.077  1.00  0.00     0.002 C 
ENDROOT
BRANCH   1   2
ATOM      2  C   UNL A   1      33.366  28.849  27.145  1.00  0.00     0.021 C 
BRANCH   2   3
ATOM      3  C   UNL A   1      33.893  28.289  25.824  1.00  0.00     0.116 C 
BRANCH   3   4
ATOM      4  N   UNL A   1      32.959  27.363  25.223  1.00  0.00    -0.355 N 
ATOM      5  O   UNL A   1      34.369  25.554  25.205  1.00  0.00    -0.274 OA
ATOM      6  C   UNL A   1      33.262  26.041  24.987  1.00  0.00     0.230 C 
ATOM      7  H   UNL A   1      32.067  27.694  24.970  1.00  0.00     0.163 HD
BRANCH   6   8
ATOM      8  C   UNL A   1      32.176  25.241  24.285  1.00  0.00     0.178 C 
BRANCH   8   9
ATOM      9  S   UNL A   1      31.892  25.732  22.558  1.00  0.00    -0.077 SA
BRANCH   9  10
ATOM     10  C   UNL A   1      30.662  26.912  22.767  1.00  0.00     0.184 A 
ATOM     11  N   UNL A   1      30.631  28.128  22.292  1.00  0.00    -0.201 NA
ATOM     12  N   UNL A   1      29.533  26.656  23.474  1.00  0.00    -0.254 N 
ATOM     13  C   UNL A   1      29.449  28.627  22.801  1.00  0.00     0.182 A 
ATOM     14  N   UNL A   1      28.756  27.750  23.548  1.00  0.00    -0.153 NA
ATOM     15  H   UNL A   1      29.312  25.787  23.880  1.00  0.00     0.192 HD
BRANCH  13  16
ATOM     16  C   UNL A   1      29.000  29.982  22.529  1.00  0.00     0.024 A 
ATOM     17  C   UNL A   1      29.085  30.965  23.528  1.00  0.00     0.012 A 
ATOM     18  C   UNL A   1      28.487  30.322  21.273  1.00  0.00     0.051 A 
ATOM     19  C   UNL A   1      28.674  32.275  23.270  1.00  0.00     0.004 A 
ATOM     20  C   UNL A   1      28.063  31.624  21.035  1.00  0.00     0.123 A 
ATOM     21  C   UNL A   1      28.157  32.604  22.017  1.00  0.00     0.039 A 
ATOM     22  F   UNL A   1      27.556  31.943  19.836  1.00  0.00    -0.207 F 
ENDBRANCH  13  16
ENDBRANCH   9  10
ENDBRANCH   8   9
ENDBRANCH   6   8
ENDBRANCH   3   4
ENDBRANCH   2   3
ENDBRANCH   1   2
BRANCH   1  23
ATOM     23  C   UNL A   1      31.760  30.620  26.140  1.00  0.00     0.002 C 
BRANCH  23  24
ATOM     24  C   UNL A   1      31.481  31.955  26.833  1.00  0.00     0.021 C 
BRANCH  24  25
ATOM     25  C   UNL A   1      32.722  32.729  27.271  1.00  0.00     0.116 C 
BRANCH  25  26
ATOM     26  N   UNL A   1      32.425  34.113  27.613  1.00  0.00    -0.352 N 
ATOM     27  C   UNL A   1      32.990  34.920  28.570  1.00  0.00     0.251 C 
ATOM     28  H   UNL A   1      31.712  34.532  27.080  1.00  0.00     0.163 HD
ATOM     29  O   UNL A   1      32.492  36.013  28.828  1.00  0.00    -0.269 OA
BRANCH  27  30
ATOM     30  C   UNL A   1      34.182  34.464  29.316  1.00  0.00     0.039 A 
ATOM     31  C   UNL A   1      34.007  33.871  30.569  1.00  0.00     0.014 A 
ATOM     32  C   UNL A   1      35.466  34.613  28.784  1.00  0.00     0.014 A 
ATOM     33  C   UNL A   1      35.110  33.350  31.249  1.00  0.00     0.010 A 
ATOM     34  C   UNL A   1      36.554  34.031  29.428  1.00  0.00     0.010 A 
ATOM     35  C   UNL A   1      36.386  33.380  30.660  1.00  0.00    -0.014 A 
BRANCH  35  36
ATOM     36  C   UNL A   1      37.541  32.692  31.291  1.00  0.00     0.031 A 
ATOM     37  C   UNL A   1      38.223  31.548  30.599  1.00  0.00     0.074 A 
ATOM     38  C   UNL A   1      37.926  33.053  32.530  1.00  0.00     0.049 A 
ATOM     39  N   UNL A   1      39.196  30.784  31.029  1.00  0.00    -0.248 NA
ATOM     40  C   UNL A   1      37.732  31.197  29.258  1.00  0.00     0.031 C 
ATOM     41  C   UNL A   1      37.314  34.121  33.323  1.00  0.00     0.029 A 
ATOM     42  N   UNL A   1      38.913  32.557  33.347  1.00  0.00    -0.354 N 
ATOM     43  C   UNL A   1      39.426  29.860  30.019  1.00  0.00     0.074 A 
ATOM     44  C   UNL A   1      38.459  30.125  28.976  1.00  0.00     0.031 C 
ATOM     45  C   UNL A   1      37.956  34.218  34.497  1.00  0.00     0.029 A 
ATOM     46  C   UNL A   1      38.990  33.190  34.564  1.00  0.00     0.049 A 
ATOM     47  H   UNL A   1      39.508  31.818  33.084  1.00  0.00     0.167 HD
ATOM     48  C   UNL A   1      40.372  28.892  29.963  1.00  0.00     0.037 A 
ATOM     49  C   UNL A   1      39.792  32.962  35.621  1.00  0.00     0.037 A 
ATOM     50  C   UNL A   1      41.343  28.648  30.999  1.00  0.00     0.049 A 
ATOM     51  C   UNL A   1      40.815  31.864  35.549  1.00  0.00     0.074 A 
ATOM     52  C   UNL A   1      42.389  27.743  30.999  1.00  0.00     0.029 A 
ATOM     53  N   UNL A   1      41.380  29.300  32.224  1.00  0.00    -0.354 N 
ATOM     54  N   UNL A   1      41.073  31.043  34.561  1.00  0.00    -0.248 NA
ATOM     55  C   UNL A   1      41.656  31.657  36.736  1.00  0.00     0.031 C 
ATOM     56  C   UNL A   1      43.016  27.798  32.246  1.00  0.00     0.029 A 
ATOM     57  C   UNL A   1      42.404  28.785  33.002  1.00  0.00     0.049 A 
ATOM     58  H   UNL A   1      40.768  30.022  32.498  1.00  0.00     0.167 HD
ATOM     59  C   UNL A   1      42.111  30.233  34.996  1.00  0.00     0.074 A 
ATOM     60  C   UNL A   1      42.449  30.670  36.335  1.00  0.00     0.031 C 
ATOM     61  C   UNL A   1      42.727  29.219  34.340  1.00  0.00     0.037 A 
BRANCH  48  62
ATOM     62  C   UNL A   1      40.409  28.016  28.744  1.00  0.00     0.064 A 
ATOM     63  C   UNL A   1      39.733  26.786  28.733  1.00  0.00     0.173 A 
ATOM     64  C   UNL A   1      41.162  28.360  27.611  1.00  0.00     0.173 A 
ATOM     65  F   UNL A   1      39.006  26.404  29.792  1.00  0.00    -0.203 F 
ATOM     66  C   UNL A   1      39.818  25.931  27.637  1.00  0.00     0.198 A 
ATOM     67  C   UNL A   1      41.218  27.517  26.504  1.00  0.00     0.198 A 
ATOM     68  F   UNL A   1      41.822  29.528  27.566  1.00  0.00    -0.203 F 
ATOM     69  F   UNL A   1      39.190  24.747  27.663  1.00  0.00    -0.200 F 
ATOM     70  C   UNL A   1      40.554  26.300  26.522  1.00  0.00     0.200 A 
ATOM     71  F   UNL A   1      41.908  27.886  25.416  1.00  0.00    -0.200 F 
ATOM     72  F   UNL A   1      40.621  25.482  25.461  1.00  0.00    -0.200 F 
ENDBRANCH  48  62
BRANCH  49  73
ATOM     73  C   UNL A   1      39.664  33.826  36.824  1.00  0.00     0.064 A 
ATOM     74  C   UNL A   1      38.864  33.448  37.912  1.00  0.00     0.173 A 
ATOM     75  C   UNL A   1      40.278  35.084  36.871  1.00  0.00     0.173 A 
ATOM     76  F   UNL A   1      38.248  32.255  37.912  1.00  0.00    -0.203 F 
ATOM     77  C   UNL A   1      38.656  34.310  38.987  1.00  0.00     0.198 A 
ATOM     78  C   UNL A   1      40.091  35.935  37.958  1.00  0.00     0.198 A 
ATOM     79  F   UNL A   1      41.068  35.481  35.862  1.00  0.00    -0.203 F 
ATOM     80  F   UNL A   1      37.846  33.946  39.990  1.00  0.00    -0.200 F 
ATOM     81  C   UNL A   1      39.270  35.553  39.008  1.00  0.00     0.200 A 
ATOM     82  F   UNL A   1      40.701  37.127  37.985  1.00  0.00    -0.200 F 
ATOM     83  F   UNL A   1      39.066  36.384  40.039  1.00  0.00    -0.200 F 
ENDBRANCH  49  73
BRANCH  61  84
ATOM     84  C   UNL A   1      43.838  28.497  35.047  1.00  0.00     0.064 A 
ATOM     85  C   UNL A   1      45.175  28.870  34.840  1.00  0.00     0.173 A 
ATOM     86  C   UNL A   1      43.586  27.373  35.847  1.00  0.00     0.173 A 
ATOM     87  F   UNL A   1      45.470  29.934  34.079  1.00  0.00    -0.203 F 
ATOM     88  C   UNL A   1      46.219  28.128  35.386  1.00  0.00     0.198 A 
ATOM     89  C   UNL A   1      44.632  26.651  36.416  1.00  0.00     0.198 A 
ATOM     90  F   UNL A   1      42.325  26.982  36.086  1.00  0.00    -0.203 F 
ATOM     91  F   UNL A   1      47.489  28.477  35.135  1.00  0.00    -0.200 F 
ATOM     92  C   UNL A   1      45.948  27.020  36.174  1.00  0.00     0.200 A 
ATOM     93  F   UNL A   1      44.368  25.594  37.196  1.00  0.00    -0.200 F 
ATOM     94  F   UNL A   1      46.953  26.308  36.699  1.00  0.00    -0.200 F 
ENDBRANCH  61  84
ENDBRANCH  35  36
ENDBRANCH  27  30
ENDBRANCH  25  26
ENDBRANCH  24  25
ENDBRANCH  23  24
ENDBRANCH   1  23
TORSDOF 16
ENDMDL
MODEL 3
REMARK VINA RESULT:     -12.0      6.393     11.827
REMARK SMILES O=C(CSc1nc(-c2cccc(F)c2)n[nH]1)NCCCCCCNC(=O)c1ccc(-c2c3nc(c(-c4c(F)c(F)c(F)c(F)c4F)c4ccc([nH]4)c(-c4c(F)c(F)c(F)c(F)c4F)c4nc(c(-c5c(F)c(F)c(F)c(F)c5F)c5ccc2[nH]5)C=C4)C=C3)cc1
REMARK SMILES IDX 20 1 19 2 18 3 17 4 1 5 2 6 3 8 4 9 5 10 6 11 16 12 7 13
REMARK SMILES IDX 15 14 8 16 9 17 14 18 10 19 12 20 11 21 13 22 21 23 22 24
REMARK SMILES IDX 23 25 24 26 25 27 26 29 27 30 28 31 89 32 29 33 88 34 30 35
REMARK SMILES IDX 31 36 32 37 82 38 33 39 87 40 81 41 83 42 34 43 86 44 80 45
REMARK SMILES IDX 79 46 35 48 67 49 47 50 66 51 48 52 51 53 65 54 84 55 49 56
REMARK SMILES IDX 50 57 64 59 85 60 52 61 36 62 37 63 45 64 38 65 39 66 43 67
REMARK SMILES IDX 46 68 40 69 41 70 44 71 42 72 68 73 69 74 77 75 70 76 71 77
REMARK SMILES IDX 75 78 78 79 72 80 73 81 76 82 74 83 53 84 54 85 62 86 55 87
REMARK SMILES IDX 56 88 60 89 63 90 57 91 58 92 61 93 59 94
REMARK H PARENT 17 7 16 15 24 28 83 47 51 58
REMARK Flexibility Score: inf
ROOT
ATOM      1  C   UNL A   1      37.955  22.554  25.448  1.00  0.00     0.002 C 
ENDROOT
BRANCH   1   2
ATOM      2  C   UNL A   1      37.046  23.787  25.365  1.00  0.00     0.021 C 
BRANCH   2   3
ATOM      3  C   UNL A   1      35.565  23.507  25.624  1.00  0.00     0.116 C 
BRANCH   3   4
ATOM      4  N   UNL A   1      34.752  23.805  24.465  1.00  0.00    -0.355 N 
ATOM      5  O   UNL A   1      33.730  25.662  25.342  1.00  0.00    -0.274 OA
ATOM      6  C   UNL A   1      33.911  24.893  24.400  1.00  0.00     0.230 C 
ATOM      7  H   UNL A   1      34.803  23.203  23.688  1.00  0.00     0.163 HD
BRANCH   6   8
ATOM      8  C   UNL A   1      33.087  25.002  23.128  1.00  0.00     0.178 C 
BRANCH   8   9
ATOM      9  S   UNL A   1      31.413  24.305  23.265  1.00  0.00    -0.077 SA
BRANCH   9  10
ATOM     10  C   UNL A   1      31.775  22.743  23.880  1.00  0.00     0.184 A 
ATOM     11  N   UNL A   1      32.389  21.766  23.268  1.00  0.00    -0.201 NA
ATOM     12  N   UNL A   1      31.453  22.375  25.145  1.00  0.00    -0.254 N 
ATOM     13  C   UNL A   1      32.366  20.754  24.206  1.00  0.00     0.182 A 
ATOM     14  N   UNL A   1      31.782  21.092  25.369  1.00  0.00    -0.153 NA
ATOM     15  H   UNL A   1      31.033  22.968  25.809  1.00  0.00     0.192 HD
BRANCH  13  16
ATOM     16  C   UNL A   1      32.945  19.446  23.949  1.00  0.00     0.024 A 
ATOM     17  C   UNL A   1      32.341  18.580  23.024  1.00  0.00     0.012 A 
ATOM     18  C   UNL A   1      34.108  19.040  24.611  1.00  0.00     0.051 A 
ATOM     19  C   UNL A   1      32.901  17.328  22.755  1.00  0.00     0.004 A 
ATOM     20  C   UNL A   1      34.645  17.785  24.349  1.00  0.00     0.123 A 
ATOM     21  C   UNL A   1      34.057  16.928  23.424  1.00  0.00     0.039 A 
ATOM     22  F   UNL A   1      35.749  17.392  24.998  1.00  0.00    -0.207 F 
ENDBRANCH  13  16
ENDBRANCH   9  10
ENDBRANCH   8   9
ENDBRANCH   6   8
ENDBRANCH   3   4
ENDBRANCH   2   3
ENDBRANCH   1   2
BRANCH   1  23
ATOM     23  C   UNL A   1      37.429  21.297  24.748  1.00  0.00     0.002 C 
BRANCH  23  24
ATOM     24  C   UNL A   1      38.241  20.024  24.993  1.00  0.00     0.021 C 
BRANCH  24  25
ATOM     25  C   UNL A   1      39.302  20.133  26.085  1.00  0.00     0.116 C 
BRANCH  25  26
ATOM     26  N   UNL A   1      40.300  19.076  26.001  1.00  0.00    -0.352 N 
ATOM     27  C   UNL A   1      41.670  19.158  26.048  1.00  0.00     0.251 C 
ATOM     28  H   UNL A   1      39.939  18.167  25.895  1.00  0.00     0.163 HD
ATOM     29  O   UNL A   1      42.357  18.173  25.791  1.00  0.00    -0.269 OA
BRANCH  27  30
ATOM     30  C   UNL A   1      42.326  20.442  26.377  1.00  0.00     0.039 A 
ATOM     31  C   UNL A   1      42.982  21.143  25.363  1.00  0.00     0.014 A 
ATOM     32  C   UNL A   1      42.290  20.956  27.676  1.00  0.00     0.014 A 
ATOM     33  C   UNL A   1      43.528  22.401  25.631  1.00  0.00     0.010 A 
ATOM     34  C   UNL A   1      42.770  22.240  27.925  1.00  0.00     0.010 A 
ATOM     35  C   UNL A   1      43.382  22.981  26.903  1.00  0.00    -0.014 A 
BRANCH  35  36
ATOM     36  C   UNL A   1      43.811  24.379  27.164  1.00  0.00     0.031 A 
ATOM     37  C   UNL A   1      42.824  25.410  27.628  1.00  0.00     0.074 A 
ATOM     38  C   UNL A   1      45.084  24.735  26.906  1.00  0.00     0.049 A 
ATOM     39  N   UNL A   1      43.004  26.691  27.836  1.00  0.00    -0.248 NA
ATOM     40  C   UNL A   1      41.448  24.950  27.866  1.00  0.00     0.031 C 
ATOM     41  C   UNL A   1      46.126  23.834  26.411  1.00  0.00     0.029 A 
ATOM     42  N   UNL A   1      45.718  25.949  27.011  1.00  0.00    -0.354 N 
ATOM     43  C   UNL A   1      41.766  27.188  28.219  1.00  0.00     0.074 A 
ATOM     44  C   UNL A   1      40.832  26.085  28.167  1.00  0.00     0.031 C 
ATOM     45  C   UNL A   1      47.273  24.518  26.283  1.00  0.00     0.029 A 
ATOM     46  C   UNL A   1      47.039  25.914  26.637  1.00  0.00     0.049 A 
ATOM     47  H   UNL A   1      45.268  26.766  27.326  1.00  0.00     0.167 HD
ATOM     48  C   UNL A   1      41.446  28.449  28.596  1.00  0.00     0.037 A 
ATOM     49  C   UNL A   1      47.958  26.897  26.572  1.00  0.00     0.037 A 
ATOM     50  C   UNL A   1      42.387  29.538  28.663  1.00  0.00     0.049 A 
ATOM     51  C   UNL A   1      47.574  28.294  26.968  1.00  0.00     0.074 A 
ATOM     52  C   UNL A   1      42.175  30.830  29.110  1.00  0.00     0.029 A 
ATOM     53  N   UNL A   1      43.714  29.468  28.261  1.00  0.00    -0.354 N 
ATOM     54  N   UNL A   1      46.420  28.740  27.398  1.00  0.00    -0.248 NA
ATOM     55  C   UNL A   1      48.616  29.326  26.869  1.00  0.00     0.031 C 
ATOM     56  C   UNL A   1      43.351  31.559  28.914  1.00  0.00     0.029 A 
ATOM     57  C   UNL A   1      44.319  30.706  28.409  1.00  0.00     0.049 A 
ATOM     58  H   UNL A   1      44.159  28.657  27.922  1.00  0.00     0.167 HD
ATOM     59  C   UNL A   1      46.595  30.096  27.634  1.00  0.00     0.074 A 
ATOM     60  C   UNL A   1      47.975  30.399  27.314  1.00  0.00     0.031 C 
ATOM     61  C   UNL A   1      45.691  31.003  28.077  1.00  0.00     0.037 A 
BRANCH  48  62
ATOM     62  C   UNL A   1      40.019  28.731  28.967  1.00  0.00     0.064 A 
ATOM     63  C   UNL A   1      39.574  28.529  30.284  1.00  0.00     0.173 A 
ATOM     64  C   UNL A   1      39.075  29.138  28.013  1.00  0.00     0.173 A 
ATOM     65  F   UNL A   1      40.432  28.133  31.235  1.00  0.00    -0.203 F 
ATOM     66  C   UNL A   1      38.238  28.716  30.626  1.00  0.00     0.198 A 
ATOM     67  C   UNL A   1      37.746  29.356  28.366  1.00  0.00     0.198 A 
ATOM     68  F   UNL A   1      39.447  29.351  26.741  1.00  0.00    -0.203 F 
ATOM     69  F   UNL A   1      37.831  28.487  31.882  1.00  0.00    -0.200 F 
ATOM     70  C   UNL A   1      37.326  29.136  29.669  1.00  0.00     0.200 A 
ATOM     71  F   UNL A   1      36.871  29.786  27.446  1.00  0.00    -0.200 F 
ATOM     72  F   UNL A   1      36.043  29.332  30.005  1.00  0.00    -0.200 F 
ENDBRANCH  48  62
BRANCH  49  73
ATOM     73  C   UNL A   1      49.340  26.564  26.137  1.00  0.00     0.064 A 
ATOM     74  C   UNL A   1      50.308  26.127  27.052  1.00  0.00     0.173 A 
ATOM     75  C   UNL A   1      49.737  26.755  24.807  1.00  0.00     0.173 A 
ATOM     76  F   UNL A   1      49.979  25.936  28.339  1.00  0.00    -0.203 F 
ATOM     77  C   UNL A   1      51.631  25.926  26.661  1.00  0.00     0.198 A 
ATOM     78  C   UNL A   1      51.054  26.528  24.411  1.00  0.00     0.198 A 
ATOM     79  F   UNL A   1      48.841  27.154  23.892  1.00  0.00    -0.203 F 
ATOM     80  F   UNL A   1      52.548  25.558  27.566  1.00  0.00    -0.200 F 
ATOM     81  C   UNL A   1      52.002  26.127  25.340  1.00  0.00     0.200 A 
ATOM     82  F   UNL A   1      51.405  26.704  23.130  1.00  0.00    -0.200 F 
ATOM     83  F   UNL A   1      53.274  25.938  24.965  1.00  0.00    -0.200 F 
ENDBRANCH  49  73
BRANCH  61  84
ATOM     84  C   UNL A   1      46.149  32.422  28.252  1.00  0.00     0.064 A 
ATOM     85  C   UNL A   1      46.672  32.857  29.480  1.00  0.00     0.173 A 
ATOM     86  C   UNL A   1      45.973  33.376  27.238  1.00  0.00     0.173 A 
ATOM     87  F   UNL A   1      46.853  31.986  30.483  1.00  0.00    -0.203 F 
ATOM     88  C   UNL A   1      46.977  34.198  29.695  1.00  0.00     0.198 A 
ATOM     89  C   UNL A   1      46.308  34.712  27.447  1.00  0.00     0.198 A 
ATOM     90  F   UNL A   1      45.489  33.010  26.042  1.00  0.00    -0.203 F 
ATOM     91  F   UNL A   1      47.430  34.596  30.891  1.00  0.00    -0.200 F 
ATOM     92  C   UNL A   1      46.796  35.125  28.679  1.00  0.00     0.200 A 
ATOM     93  F   UNL A   1      46.154  35.602  26.458  1.00  0.00    -0.200 F 
ATOM     94  F   UNL A   1      47.091  36.414  28.888  1.00  0.00    -0.200 F 
ENDBRANCH  61  84
ENDBRANCH  35  36
ENDBRANCH  27  30
ENDBRANCH  25  26
ENDBRANCH  24  25
ENDBRANCH  23  24
ENDBRANCH   1  23
TORSDOF 16
ENDMDL
