MODEL 1
REMARK VINA RESULT:     -11.4      0.000      0.000
REMARK SMILES C[NH+](C)CC[NH2+][C@@H](C(=O)NCCCCCCNC(=O)c1ccc(-c2c3nc(c(-c4c(F)c(F)c(F)c(F)c4F)c4ccc([nH]4)c(-c4c(F)c(F)c(F)c(F)c4F)c4nc(c(-c5c(F)c(F)c(F)c(F)c5F)c5ccc2[nH]5)C=C4)C=C3)cc1)c1cccc(C2CC2)c1
REMARK SMILES IDX 12 1 11 2 10 3 8 4 9 5 7 7 6 8 5 11 4 12 2 13 1 14 3 15
REMARK SMILES IDX 83 17 84 18 91 19 85 20 87 21 86 22 88 23 89 24 90 25 13 26
REMARK SMILES IDX 14 27 15 28 16 29 17 30 18 31 19 33 20 34 21 35 82 36 22 37
REMARK SMILES IDX 81 38 23 39 24 40 25 41 75 42 26 43 80 44 74 45 76 46 27 47
REMARK SMILES IDX 79 48 73 49 72 50 28 52 60 53 40 54 59 55 41 56 44 57 58 58
REMARK SMILES IDX 77 59 42 60 43 61 57 63 78 64 45 65 29 66 30 67 38 68 31 69
REMARK SMILES IDX 32 70 36 71 39 72 33 73 34 74 37 75 35 76 61 77 62 78 70 79
REMARK SMILES IDX 63 80 64 81 68 82 71 83 65 84 66 85 69 86 67 87 46 88 47 89
REMARK SMILES IDX 55 90 48 91 49 92 53 93 56 94 50 95 51 96 54 97 52 98
REMARK H PARENT 10 6 6 9 6 10 2 16 17 32 76 51 44 62
REMARK Flexibility Score: inf
ROOT
ATOM      1  C   UNL A   1      36.893  23.291  24.700  1.00  0.00     0.021 C 
ENDROOT
BRANCH   1   2
ATOM      2  C   UNL A   1      35.827  23.896  25.630  1.00  0.00     0.116 C 
BRANCH   2   3
ATOM      3  N   UNL A   1      35.380  22.892  26.575  1.00  0.00    -0.351 N 
ATOM      4  C   UNL A   1      34.119  22.536  26.965  1.00  0.00     0.283 C 
ATOM      5  O   UNL A   1      34.034  22.051  28.100  1.00  0.00    -0.268 OA
ATOM      6  H   UNL A   1      36.103  22.382  27.008  1.00  0.00     0.163 HD
BRANCH   4   7
ATOM      7  C   UNL A   1      32.857  22.727  26.046  1.00  0.00     0.304 C 
BRANCH   7   8
ATOM      8  N   UNL A   1      31.621  22.631  26.859  1.00  0.00    -0.328 N 
ATOM      9  H   UNL A   1      31.438  21.642  27.024  1.00  0.00     0.347 HD
ATOM     10  H   UNL A   1      31.815  23.180  27.697  1.00  0.00     0.347 HD
BRANCH   8  11
ATOM     11  C   UNL A   1      30.417  23.213  26.301  1.00  0.00     0.323 C 
BRANCH  11  12
ATOM     12  C   UNL A   1      30.586  24.669  25.799  1.00  0.00     0.323 C 
BRANCH  12  13
ATOM     13  N   UNL A   1      30.064  25.058  24.479  1.00  0.00    -0.335 N 
ATOM     14  C   UNL A   1      29.216  26.244  24.492  1.00  0.00     0.332 C 
ATOM     15  C   UNL A   1      31.060  25.113  23.418  1.00  0.00     0.332 C 
ATOM     16  H   UNL A   1      29.454  24.274  24.243  1.00  0.00     0.347 HD
ENDBRANCH  12  13
ENDBRANCH  11  12
ENDBRANCH   8  11
ENDBRANCH   7   8
BRANCH   7  17
ATOM     17  C   UNL A   1      32.857  21.592  24.992  1.00  0.00     0.019 A 
ATOM     18  C   UNL A   1      32.302  21.782  23.711  1.00  0.00     0.010 A 
ATOM     19  C   UNL A   1      33.289  20.292  25.332  1.00  0.00     0.014 A 
ATOM     20  C   UNL A   1      32.153  20.724  22.823  1.00  0.00     0.001 A 
ATOM     21  C   UNL A   1      33.137  19.193  24.455  1.00  0.00    -0.044 A 
ATOM     22  C   UNL A   1      32.558  19.449  23.198  1.00  0.00     0.004 A 
BRANCH  21  23
ATOM     23  C   UNL A   1      33.498  17.759  24.796  1.00  0.00     0.019 C 
ATOM     24  C   UNL A   1      33.649  16.658  23.781  1.00  0.00     0.009 C 
ATOM     25  C   UNL A   1      34.871  17.249  24.424  1.00  0.00     0.009 C 
ENDBRANCH  21  23
ENDBRANCH   7  17
ENDBRANCH   4   7
ENDBRANCH   2   3
ENDBRANCH   1   2
BRANCH   1  26
ATOM     26  C   UNL A   1      37.660  22.097  25.273  1.00  0.00     0.002 C 
BRANCH  26  27
ATOM     27  C   UNL A   1      37.346  20.754  24.615  1.00  0.00     0.002 C 
BRANCH  27  28
ATOM     28  C   UNL A   1      38.300  19.609  24.972  1.00  0.00     0.021 C 
BRANCH  28  29
ATOM     29  C   UNL A   1      39.406  19.973  25.961  1.00  0.00     0.116 C 
BRANCH  29  30
ATOM     30  N   UNL A   1      40.445  18.957  26.016  1.00  0.00    -0.352 N 
ATOM     31  C   UNL A   1      41.807  19.108  26.097  1.00  0.00     0.251 C 
ATOM     32  H   UNL A   1      40.125  18.026  25.993  1.00  0.00     0.163 HD
ATOM     33  O   UNL A   1      42.552  18.154  25.905  1.00  0.00    -0.269 OA
BRANCH  31  34
ATOM     34  C   UNL A   1      42.379  20.436  26.403  1.00  0.00     0.039 A 
ATOM     35  C   UNL A   1      42.893  21.211  25.360  1.00  0.00     0.014 A 
ATOM     36  C   UNL A   1      42.413  20.910  27.717  1.00  0.00     0.014 A 
ATOM     37  C   UNL A   1      43.383  22.491  25.627  1.00  0.00     0.010 A 
ATOM     38  C   UNL A   1      42.840  22.210  27.972  1.00  0.00     0.010 A 
ATOM     39  C   UNL A   1      43.329  23.013  26.930  1.00  0.00    -0.014 A 
BRANCH  39  40
ATOM     40  C   UNL A   1      43.771  24.400  27.222  1.00  0.00     0.031 A 
ATOM     41  C   UNL A   1      42.784  25.420  27.715  1.00  0.00     0.074 A 
ATOM     42  C   UNL A   1      45.046  24.759  26.972  1.00  0.00     0.049 A 
ATOM     43  N   UNL A   1      42.959  26.698  27.948  1.00  0.00    -0.248 NA
ATOM     44  C   UNL A   1      41.411  24.949  27.950  1.00  0.00     0.031 C 
ATOM     45  C   UNL A   1      46.084  23.872  26.446  1.00  0.00     0.029 A 
ATOM     46  N   UNL A   1      45.680  25.968  27.110  1.00  0.00    -0.354 N 
ATOM     47  C   UNL A   1      41.719  27.182  28.343  1.00  0.00     0.074 A 
ATOM     48  C   UNL A   1      40.790  26.076  28.267  1.00  0.00     0.031 C 
ATOM     49  C   UNL A   1      47.227  24.563  26.316  1.00  0.00     0.029 A 
ATOM     50  C   UNL A   1      46.995  25.947  26.714  1.00  0.00     0.049 A 
ATOM     51  H   UNL A   1      45.235  26.773  27.460  1.00  0.00     0.167 HD
ATOM     52  C   UNL A   1      41.391  28.431  28.752  1.00  0.00     0.037 A 
ATOM     53  C   UNL A   1      47.906  26.938  26.664  1.00  0.00     0.037 A 
ATOM     54  C   UNL A   1      42.325  29.523  28.845  1.00  0.00     0.049 A 
ATOM     55  C   UNL A   1      47.516  28.319  27.118  1.00  0.00     0.074 A 
ATOM     56  C   UNL A   1      42.108  30.808  29.312  1.00  0.00     0.029 A 
ATOM     57  N   UNL A   1      43.656  29.458  28.455  1.00  0.00    -0.354 N 
ATOM     58  N   UNL A   1      46.360  28.747  27.562  1.00  0.00    -0.248 NA
ATOM     59  C   UNL A   1      48.560  29.352  27.069  1.00  0.00     0.031 C 
ATOM     60  C   UNL A   1      43.293  31.535  29.157  1.00  0.00     0.029 A 
ATOM     61  C   UNL A   1      44.263  30.690  28.645  1.00  0.00     0.049 A 
ATOM     62  H   UNL A   1      44.101  28.658  28.097  1.00  0.00     0.167 HD
ATOM     63  C   UNL A   1      46.542  30.089  27.868  1.00  0.00     0.074 A 
ATOM     64  C   UNL A   1      47.925  30.400  27.574  1.00  0.00     0.031 C 
ATOM     65  C   UNL A   1      45.643  30.984  28.348  1.00  0.00     0.037 A 
BRANCH  52  66
ATOM     66  C   UNL A   1      39.961  28.684  29.130  1.00  0.00     0.064 A 
ATOM     67  C   UNL A   1      39.019  29.140  28.194  1.00  0.00     0.173 A 
ATOM     68  C   UNL A   1      39.515  28.440  30.438  1.00  0.00     0.173 A 
ATOM     69  F   UNL A   1      39.394  29.399  26.932  1.00  0.00    -0.203 F 
ATOM     70  C   UNL A   1      37.696  29.373  28.560  1.00  0.00     0.198 A 
ATOM     71  C   UNL A   1      38.185  28.644  30.794  1.00  0.00     0.198 A 
ATOM     72  F   UNL A   1      40.370  27.996  31.372  1.00  0.00    -0.203 F 
ATOM     73  F   UNL A   1      36.829  29.860  27.662  1.00  0.00    -0.200 F 
ATOM     74  C   UNL A   1      37.279  29.119  29.858  1.00  0.00     0.200 A 
ATOM     75  F   UNL A   1      37.779  28.384  32.045  1.00  0.00    -0.200 F 
ATOM     76  F   UNL A   1      36.004  29.338  30.208  1.00  0.00    -0.200 F 
ENDBRANCH  52  66
BRANCH  53  77
ATOM     77  C   UNL A   1      49.281  26.653  26.177  1.00  0.00     0.064 A 
ATOM     78  C   UNL A   1      49.638  26.893  24.843  1.00  0.00     0.173 A 
ATOM     79  C   UNL A   1      50.267  26.143  27.035  1.00  0.00     0.173 A 
ATOM     80  F   UNL A   1      48.725  27.362  23.980  1.00  0.00    -0.203 F 
ATOM     81  C   UNL A   1      50.923  26.615  24.380  1.00  0.00     0.198 A 
ATOM     82  C   UNL A   1      51.560  25.894  26.578  1.00  0.00     0.198 A 
ATOM     83  F   UNL A   1      49.979  25.902  28.322  1.00  0.00    -0.203 F 
ATOM     84  F   UNL A   1      51.225  26.813  23.090  1.00  0.00    -0.200 F 
ATOM     85  C   UNL A   1      51.884  26.122  25.250  1.00  0.00     0.200 A 
ATOM     86  F   UNL A   1      52.490  25.433  27.426  1.00  0.00    -0.200 F 
ATOM     87  F   UNL A   1      53.122  25.862  24.806  1.00  0.00    -0.200 F 
ENDBRANCH  53  77
BRANCH  65  88
ATOM     88  C   UNL A   1      46.132  32.378  28.611  1.00  0.00     0.064 A 
ATOM     89  C   UNL A   1      46.671  32.747  29.853  1.00  0.00     0.173 A 
ATOM     90  C   UNL A   1      46.100  33.345  27.595  1.00  0.00     0.173 A 
ATOM     91  F   UNL A   1      46.708  31.863  30.862  1.00  0.00    -0.203 F 
ATOM     92  C   UNL A   1      47.140  34.038  30.074  1.00  0.00     0.198 A 
ATOM     93  C   UNL A   1      46.599  34.627  27.811  1.00  0.00     0.198 A 
ATOM     94  F   UNL A   1      45.601  33.043  26.388  1.00  0.00    -0.203 F 
ATOM     95  F   UNL A   1      47.610  34.381  31.282  1.00  0.00    -0.200 F 
ATOM     96  C   UNL A   1      47.113  34.975  29.051  1.00  0.00     0.200 A 
ATOM     97  F   UNL A   1      46.584  35.526  26.816  1.00  0.00    -0.200 F 
ATOM     98  F   UNL A   1      47.575  36.214  29.263  1.00  0.00    -0.200 F 
ENDBRANCH  65  88
ENDBRANCH  39  40
ENDBRANCH  31  34
ENDBRANCH  29  30
ENDBRANCH  28  29
ENDBRANCH  27  28
ENDBRANCH  26  27
ENDBRANCH   1  26
TORSDOF 19
ENDMDL
MODEL 2
REMARK VINA RESULT:     -11.3      5.972     11.590
REMARK SMILES C[NH+](C)CC[NH2+][C@@H](C(=O)NCCCCCCNC(=O)c1ccc(-c2c3nc(c(-c4c(F)c(F)c(F)c(F)c4F)c4ccc([nH]4)c(-c4c(F)c(F)c(F)c(F)c4F)c4nc(c(-c5c(F)c(F)c(F)c(F)c5F)c5ccc2[nH]5)C=C4)C=C3)cc1)c1cccc(C2CC2)c1
REMARK SMILES IDX 12 1 11 2 10 3 8 4 9 5 7 7 6 8 5 11 4 12 2 13 1 14 3 15
REMARK SMILES IDX 83 17 84 18 91 19 85 20 87 21 86 22 88 23 89 24 90 25 13 26
REMARK SMILES IDX 14 27 15 28 16 29 17 30 18 31 19 33 20 34 21 35 82 36 22 37
REMARK SMILES IDX 81 38 23 39 24 40 25 41 75 42 26 43 80 44 74 45 76 46 27 47
REMARK SMILES IDX 79 48 73 49 72 50 28 52 60 53 40 54 59 55 41 56 44 57 58 58
REMARK SMILES IDX 77 59 42 60 43 61 57 63 78 64 45 65 29 66 30 67 38 68 31 69
REMARK SMILES IDX 32 70 36 71 39 72 33 73 34 74 37 75 35 76 61 77 62 78 70 79
REMARK SMILES IDX 63 80 64 81 68 82 71 83 65 84 66 85 69 86 67 87 46 88 47 89
REMARK SMILES IDX 55 90 48 91 49 92 53 93 56 94 50 95 51 96 54 97 52 98
REMARK H PARENT 10 6 6 9 6 10 2 16 17 32 76 51 44 62
REMARK Flexibility Score: inf
ROOT
ATOM      1  C   UNL A   1      32.930  28.642  26.762  1.00  0.00     0.021 C 
ENDROOT
BRANCH   1   2
ATOM      2  C   UNL A   1      34.270  28.580  26.008  1.00  0.00     0.116 C 
BRANCH   2   3
ATOM      3  N   UNL A   1      34.064  28.944  24.620  1.00  0.00    -0.351 N 
ATOM      4  C   UNL A   1      33.637  28.196  23.559  1.00  0.00     0.283 C 
ATOM      5  O   UNL A   1      34.029  28.581  22.450  1.00  0.00    -0.268 OA
ATOM      6  H   UNL A   1      34.265  29.884  24.407  1.00  0.00     0.163 HD
BRANCH   4   7
ATOM      7  C   UNL A   1      32.714  26.934  23.721  1.00  0.00     0.304 C 
BRANCH   7   8
ATOM      8  N   UNL A   1      32.929  26.001  22.590  1.00  0.00    -0.328 N 
ATOM      9  H   UNL A   1      32.050  25.930  22.079  1.00  0.00     0.347 HD
ATOM     10  H   UNL A   1      33.704  26.403  22.062  1.00  0.00     0.347 HD
BRANCH   8  11
ATOM     11  C   UNL A   1      33.356  24.655  22.916  1.00  0.00     0.323 C 
BRANCH  11  12
ATOM     12  C   UNL A   1      33.371  24.341  24.433  1.00  0.00     0.323 C 
BRANCH  12  13
ATOM     13  N   UNL A   1      34.197  23.236  24.948  1.00  0.00    -0.335 N 
ATOM     14  C   UNL A   1      33.948  22.899  26.345  1.00  0.00     0.332 C 
ATOM     15  C   UNL A   1      34.233  22.052  24.101  1.00  0.00     0.332 C 
ATOM     16  H   UNL A   1      35.138  23.628  24.912  1.00  0.00     0.347 HD
ENDBRANCH  12  13
ENDBRANCH  11  12
ENDBRANCH   8  11
ENDBRANCH   7   8
BRANCH   7  17
ATOM     17  C   UNL A   1      31.241  27.414  23.707  1.00  0.00     0.019 A 
ATOM     18  C   UNL A   1      30.173  26.506  23.850  1.00  0.00     0.010 A 
ATOM     19  C   UNL A   1      30.923  28.757  23.411  1.00  0.00     0.014 A 
ATOM     20  C   UNL A   1      28.855  26.906  23.675  1.00  0.00     0.001 A 
ATOM     21  C   UNL A   1      29.591  29.191  23.213  1.00  0.00    -0.044 A 
ATOM     22  C   UNL A   1      28.574  28.229  23.352  1.00  0.00     0.004 A 
BRANCH  21  23
ATOM     23  C   UNL A   1      29.193  30.597  22.806  1.00  0.00     0.019 C 
ATOM     24  C   UNL A   1      27.802  31.155  22.935  1.00  0.00     0.009 C 
ATOM     25  C   UNL A   1      28.873  31.602  23.888  1.00  0.00     0.009 C 
ENDBRANCH  21  23
ENDBRANCH   7  17
ENDBRANCH   4   7
ENDBRANCH   2   3
ENDBRANCH   1   2
BRANCH   1  26
ATOM     26  C   UNL A   1      32.540  30.024  27.290  1.00  0.00     0.002 C 
BRANCH  26  27
ATOM     27  C   UNL A   1      31.442  30.732  26.497  1.00  0.00     0.002 C 
BRANCH  27  28
ATOM     28  C   UNL A   1      31.505  32.262  26.509  1.00  0.00     0.021 C 
BRANCH  28  29
ATOM     29  C   UNL A   1      32.667  32.856  27.302  1.00  0.00     0.116 C 
BRANCH  29  30
ATOM     30  N   UNL A   1      32.436  34.249  27.650  1.00  0.00    -0.352 N 
ATOM     31  C   UNL A   1      32.995  35.001  28.653  1.00  0.00     0.251 C 
ATOM     32  H   UNL A   1      31.784  34.722  27.082  1.00  0.00     0.163 HD
ATOM     33  O   UNL A   1      32.524  36.092  28.951  1.00  0.00    -0.269 OA
BRANCH  31  34
ATOM     34  C   UNL A   1      34.167  34.481  29.389  1.00  0.00     0.039 A 
ATOM     35  C   UNL A   1      33.970  33.849  30.620  1.00  0.00     0.014 A 
ATOM     36  C   UNL A   1      35.455  34.626  28.869  1.00  0.00     0.014 A 
ATOM     37  C   UNL A   1      35.062  33.303  31.298  1.00  0.00     0.010 A 
ATOM     38  C   UNL A   1      36.532  34.024  29.512  1.00  0.00     0.010 A 
ATOM     39  C   UNL A   1      36.346  33.357  30.734  1.00  0.00    -0.014 A 
BRANCH  39  40
ATOM     40  C   UNL A   1      37.508  32.714  31.399  1.00  0.00     0.031 A 
ATOM     41  C   UNL A   1      38.205  31.553  30.748  1.00  0.00     0.074 A 
ATOM     42  C   UNL A   1      37.885  33.128  32.624  1.00  0.00     0.049 A 
ATOM     43  N   UNL A   1      39.182  30.810  31.205  1.00  0.00    -0.248 NA
ATOM     44  C   UNL A   1      37.723  31.157  29.416  1.00  0.00     0.031 C 
ATOM     45  C   UNL A   1      37.255  34.211  33.380  1.00  0.00     0.029 A 
ATOM     46  N   UNL A   1      38.878  32.676  33.456  1.00  0.00    -0.354 N 
ATOM     47  C   UNL A   1      39.420  29.854  30.227  1.00  0.00     0.074 A 
ATOM     48  C   UNL A   1      38.451  30.077  29.175  1.00  0.00     0.031 C 
ATOM     49  C   UNL A   1      37.883  34.347  34.559  1.00  0.00     0.029 A 
ATOM     50  C   UNL A   1      38.934  33.340  34.658  1.00  0.00     0.049 A 
ATOM     51  H   UNL A   1      39.493  31.946  33.215  1.00  0.00     0.167 HD
ATOM     52  C   UNL A   1      40.373  28.892  30.200  1.00  0.00     0.037 A 
ATOM     53  C   UNL A   1      39.733  33.147  35.724  1.00  0.00     0.037 A 
ATOM     54  C   UNL A   1      41.346  28.688  31.240  1.00  0.00     0.049 A 
ATOM     55  C   UNL A   1      40.780  32.067  35.672  1.00  0.00     0.074 A 
ATOM     56  C   UNL A   1      42.395  27.786  31.277  1.00  0.00     0.029 A 
ATOM     57  N   UNL A   1      41.385  29.395  32.434  1.00  0.00    -0.354 N 
ATOM     58  N   UNL A   1      41.046  31.219  34.709  1.00  0.00    -0.248 NA
ATOM     59  C   UNL A   1      41.642  31.923  36.853  1.00  0.00     0.031 C 
ATOM     60  C   UNL A   1      43.037  27.912  32.513  1.00  0.00     0.029 A 
ATOM     61  C   UNL A   1      42.423  28.929  33.226  1.00  0.00     0.049 A 
ATOM     62  H   UNL A   1      40.767  30.120  32.682  1.00  0.00     0.167 HD
ATOM     63  C   UNL A   1      42.118  30.458  35.156  1.00  0.00     0.074 A 
ATOM     64  C   UNL A   1      42.464  30.956  36.470  1.00  0.00     0.031 C 
ATOM     65  C   UNL A   1      42.757  29.437  34.533  1.00  0.00     0.037 A 
BRANCH  52  66
ATOM     66  C   UNL A   1      40.408  27.985  29.004  1.00  0.00     0.064 A 
ATOM     67  C   UNL A   1      39.688  26.780  28.971  1.00  0.00     0.173 A 
ATOM     68  C   UNL A   1      41.147  28.337  27.864  1.00  0.00     0.173 A 
ATOM     69  F   UNL A   1      38.974  26.391  30.037  1.00  0.00    -0.203 F 
ATOM     70  C   UNL A   1      39.734  25.946  27.856  1.00  0.00     0.198 A 
ATOM     71  C   UNL A   1      41.165  27.517  26.738  1.00  0.00     0.198 A 
ATOM     72  F   UNL A   1      41.847  29.480  27.838  1.00  0.00    -0.203 F 
ATOM     73  F   UNL A   1      39.082  24.776  27.869  1.00  0.00    -0.200 F 
ATOM     74  C   UNL A   1      40.467  26.319  26.739  1.00  0.00     0.200 A 
ATOM     75  F   UNL A   1      41.861  27.884  25.654  1.00  0.00    -0.200 F 
ATOM     76  F   UNL A   1      40.504  25.519  25.665  1.00  0.00    -0.200 F 
ENDBRANCH  52  66
BRANCH  53  77
ATOM     77  C   UNL A   1      39.581  34.007  36.927  1.00  0.00     0.064 A 
ATOM     78  C   UNL A   1      38.811  33.587  38.021  1.00  0.00     0.173 A 
ATOM     79  C   UNL A   1      40.205  35.260  37.010  1.00  0.00     0.173 A 
ATOM     80  F   UNL A   1      38.179  32.405  37.981  1.00  0.00    -0.203 F 
ATOM     81  C   UNL A   1      38.656  34.397  39.144  1.00  0.00     0.198 A 
ATOM     82  C   UNL A   1      40.074  36.056  38.146  1.00  0.00     0.198 A 
ATOM     83  F   UNL A   1      40.958  35.705  35.993  1.00  0.00    -0.203 F 
ATOM     84  F   UNL A   1      37.880  33.991  40.158  1.00  0.00    -0.200 F 
ATOM     85  C   UNL A   1      39.293  35.627  39.209  1.00  0.00     0.200 A 
ATOM     86  F   UNL A   1      40.704  37.237  38.211  1.00  0.00    -0.200 F 
ATOM     87  F   UNL A   1      39.150  36.402  40.293  1.00  0.00    -0.200 F 
ENDBRANCH  53  77
BRANCH  65  88
ATOM     88  C   UNL A   1      43.913  28.807  35.253  1.00  0.00     0.064 A 
ATOM     89  C   UNL A   1      45.223  29.289  35.107  1.00  0.00     0.173 A 
ATOM     90  C   UNL A   1      43.703  27.733  36.132  1.00  0.00     0.173 A 
ATOM     91  F   UNL A   1      45.478  30.303  34.266  1.00  0.00    -0.203 F 
ATOM     92  C   UNL A   1      46.280  28.708  35.799  1.00  0.00     0.198 A 
ATOM     93  C   UNL A   1      44.759  27.174  36.845  1.00  0.00     0.198 A 
ATOM     94  F   UNL A   1      42.470  27.238  36.311  1.00  0.00    -0.203 F 
ATOM     95  F   UNL A   1      47.529  29.157  35.610  1.00  0.00    -0.200 F 
ATOM     96  C   UNL A   1      46.048  27.657  36.674  1.00  0.00     0.200 A 
ATOM     97  F   UNL A   1      44.530  26.167  37.701  1.00  0.00    -0.200 F 
ATOM     98  F   UNL A   1      47.066  27.105  37.346  1.00  0.00    -0.200 F 
ENDBRANCH  65  88
ENDBRANCH  39  40
ENDBRANCH  31  34
ENDBRANCH  29  30
ENDBRANCH  28  29
ENDBRANCH  27  28
ENDBRANCH  26  27
ENDBRANCH   1  26
TORSDOF 19
ENDMDL
MODEL 3
REMARK VINA RESULT:     -11.0      5.766     11.004
REMARK SMILES C[NH+](C)CC[NH2+][C@@H](C(=O)NCCCCCCNC(=O)c1ccc(-c2c3nc(c(-c4c(F)c(F)c(F)c(F)c4F)c4ccc([nH]4)c(-c4c(F)c(F)c(F)c(F)c4F)c4nc(c(-c5c(F)c(F)c(F)c(F)c5F)c5ccc2[nH]5)C=C4)C=C3)cc1)c1cccc(C2CC2)c1
REMARK SMILES IDX 12 1 11 2 10 3 8 4 9 5 7 7 6 8 5 11 4 12 2 13 1 14 3 15
REMARK SMILES IDX 83 17 84 18 91 19 85 20 87 21 86 22 88 23 89 24 90 25 13 26
REMARK SMILES IDX 14 27 15 28 16 29 17 30 18 31 19 33 20 34 21 35 82 36 22 37
REMARK SMILES IDX 81 38 23 39 24 40 25 41 75 42 26 43 80 44 74 45 76 46 27 47
REMARK SMILES IDX 79 48 73 49 72 50 28 52 60 53 40 54 59 55 41 56 44 57 58 58
REMARK SMILES IDX 77 59 42 60 43 61 57 63 78 64 45 65 29 66 30 67 38 68 31 69
REMARK SMILES IDX 32 70 36 71 39 72 33 73 34 74 37 75 35 76 61 77 62 78 70 79
REMARK SMILES IDX 63 80 64 81 68 82 71 83 65 84 66 85 69 86 67 87 46 88 47 89
REMARK SMILES IDX 55 90 48 91 49 92 53 93 56 94 50 95 51 96 54 97 52 98
REMARK H PARENT 10 6 6 9 6 10 2 16 17 32 76 51 44 62
REMARK Flexibility Score: inf
ROOT
ATOM      1  C   UNL A   1      32.701  28.510  26.709  1.00  0.00     0.021 C 
ENDROOT
BRANCH   1   2
ATOM      2  C   UNL A   1      31.509  27.684  26.197  1.00  0.00     0.116 C 
BRANCH   2   3
ATOM      3  N   UNL A   1      31.454  26.419  26.903  1.00  0.00    -0.351 N 
ATOM      4  C   UNL A   1      31.734  25.151  26.477  1.00  0.00     0.283 C 
ATOM      5  O   UNL A   1      31.138  24.249  27.078  1.00  0.00    -0.268 OA
ATOM      6  H   UNL A   1      31.168  26.484  27.843  1.00  0.00     0.163 HD
BRANCH   4   7
ATOM      7  C   UNL A   1      32.740  24.847  25.308  1.00  0.00     0.304 C 
BRANCH   7   8
ATOM      8  N   UNL A   1      32.018  24.823  24.013  1.00  0.00    -0.328 N 
ATOM      9  H   UNL A   1      32.127  23.889  23.617  1.00  0.00     0.347 HD
ATOM     10  H   UNL A   1      31.059  25.085  24.243  1.00  0.00     0.347 HD
BRANCH   8  11
ATOM     11  C   UNL A   1      32.435  25.777  23.006  1.00  0.00     0.323 C 
BRANCH  11  12
ATOM     12  C   UNL A   1      31.297  26.694  22.487  1.00  0.00     0.323 C 
BRANCH  12  13
ATOM     13  N   UNL A   1      31.548  28.130  22.278  1.00  0.00    -0.335 N 
ATOM     14  C   UNL A   1      30.498  29.005  22.788  1.00  0.00     0.332 C 
ATOM     15  C   UNL A   1      32.874  28.585  22.673  1.00  0.00     0.332 C 
ATOM     16  H   UNL A   1      31.520  28.213  21.261  1.00  0.00     0.347 HD
ENDBRANCH  12  13
ENDBRANCH  11  12
ENDBRANCH   8  11
ENDBRANCH   7   8
BRANCH   7  17
ATOM     17  C   UNL A   1      33.364  23.453  25.564  1.00  0.00     0.019 A 
ATOM     18  C   UNL A   1      34.549  23.307  26.312  1.00  0.00     0.010 A 
ATOM     19  C   UNL A   1      32.840  22.302  24.936  1.00  0.00     0.014 A 
ATOM     20  C   UNL A   1      35.199  22.082  26.405  1.00  0.00     0.001 A 
ATOM     21  C   UNL A   1      33.487  21.046  25.002  1.00  0.00    -0.044 A 
ATOM     22  C   UNL A   1      34.676  20.973  25.751  1.00  0.00     0.004 A 
BRANCH  21  23
ATOM     23  C   UNL A   1      33.021  19.796  24.278  1.00  0.00     0.019 C 
ATOM     24  C   UNL A   1      33.794  18.505  24.232  1.00  0.00     0.009 C 
ATOM     25  C   UNL A   1      32.570  18.609  25.097  1.00  0.00     0.009 C 
ENDBRANCH  21  23
ENDBRANCH   7  17
ENDBRANCH   4   7
ENDBRANCH   2   3
ENDBRANCH   1   2
BRANCH   1  26
ATOM     26  C   UNL A   1      32.692  29.988  26.314  1.00  0.00     0.002 C 
BRANCH  26  27
ATOM     27  C   UNL A   1      31.367  30.711  26.551  1.00  0.00     0.002 C 
BRANCH  27  28
ATOM     28  C   UNL A   1      31.443  32.241  26.547  1.00  0.00     0.021 C 
BRANCH  28  29
ATOM     29  C   UNL A   1      32.621  32.833  27.320  1.00  0.00     0.116 C 
BRANCH  29  30
ATOM     30  N   UNL A   1      32.414  34.236  27.639  1.00  0.00    -0.352 N 
ATOM     31  C   UNL A   1      32.999  35.002  28.617  1.00  0.00     0.251 C 
ATOM     32  H   UNL A   1      31.760  34.706  27.071  1.00  0.00     0.163 HD
ATOM     33  O   UNL A   1      32.547  36.107  28.897  1.00  0.00    -0.269 OA
BRANCH  31  34
ATOM     34  C   UNL A   1      34.174  34.482  29.347  1.00  0.00     0.039 A 
ATOM     35  C   UNL A   1      33.986  33.878  30.593  1.00  0.00     0.014 A 
ATOM     36  C   UNL A   1      35.457  34.601  28.806  1.00  0.00     0.014 A 
ATOM     37  C   UNL A   1      35.081  33.331  31.267  1.00  0.00     0.010 A 
ATOM     38  C   UNL A   1      36.535  33.998  29.447  1.00  0.00     0.010 A 
ATOM     39  C   UNL A   1      36.358  33.357  30.684  1.00  0.00    -0.014 A 
BRANCH  39  40
ATOM     40  C   UNL A   1      37.520  32.713  31.346  1.00  0.00     0.031 A 
ATOM     41  C   UNL A   1      38.227  31.565  30.683  1.00  0.00     0.074 A 
ATOM     42  C   UNL A   1      37.890  33.115  32.578  1.00  0.00     0.049 A 
ATOM     43  N   UNL A   1      39.207  30.822  31.136  1.00  0.00    -0.248 NA
ATOM     44  C   UNL A   1      37.753  31.182  29.345  1.00  0.00     0.031 C 
ATOM     45  C   UNL A   1      37.251  34.184  33.345  1.00  0.00     0.029 A 
ATOM     46  N   UNL A   1      38.883  32.658  33.409  1.00  0.00    -0.354 N 
ATOM     47  C   UNL A   1      39.454  29.879  30.146  1.00  0.00     0.074 A 
ATOM     48  C   UNL A   1      38.489  30.110  29.093  1.00  0.00     0.031 C 
ATOM     49  C   UNL A   1      37.873  34.309  34.527  1.00  0.00     0.029 A 
ATOM     50  C   UNL A   1      38.929  33.307  34.618  1.00  0.00     0.049 A 
ATOM     51  H   UNL A   1      39.503  31.934  33.160  1.00  0.00     0.167 HD
ATOM     52  C   UNL A   1      40.413  28.924  30.111  1.00  0.00     0.037 A 
ATOM     53  C   UNL A   1      39.725  33.105  35.685  1.00  0.00     0.037 A 
ATOM     54  C   UNL A   1      41.384  28.713  31.153  1.00  0.00     0.049 A 
ATOM     55  C   UNL A   1      40.779  32.033  35.625  1.00  0.00     0.074 A 
ATOM     56  C   UNL A   1      42.438  27.816  31.183  1.00  0.00     0.029 A 
ATOM     57  N   UNL A   1      41.413  29.405  32.356  1.00  0.00    -0.354 N 
ATOM     58  N   UNL A   1      41.054  31.198  34.652  1.00  0.00    -0.248 NA
ATOM     59  C   UNL A   1      41.637  31.879  36.807  1.00  0.00     0.031 C 
ATOM     60  C   UNL A   1      43.074  27.930  32.423  1.00  0.00     0.029 A 
ATOM     61  C   UNL A   1      42.451  28.934  33.146  1.00  0.00     0.049 A 
ATOM     62  H   UNL A   1      40.790  30.122  32.610  1.00  0.00     0.167 HD
ATOM     63  C   UNL A   1      42.129  30.438  35.094  1.00  0.00     0.074 A 
ATOM     64  C   UNL A   1      42.467  30.922  36.416  1.00  0.00     0.031 C 
ATOM     65  C   UNL A   1      42.776  29.429  34.461  1.00  0.00     0.037 A 
BRANCH  52  66
ATOM     66  C   UNL A   1      40.459  28.032  28.904  1.00  0.00     0.064 A 
ATOM     67  C   UNL A   1      39.750  26.821  28.854  1.00  0.00     0.173 A 
ATOM     68  C   UNL A   1      41.196  28.404  27.770  1.00  0.00     0.173 A 
ATOM     69  F   UNL A   1      39.037  26.413  29.915  1.00  0.00    -0.203 F 
ATOM     70  C   UNL A   1      39.805  26.002  27.730  1.00  0.00     0.198 A 
ATOM     71  C   UNL A   1      41.224  27.599  26.635  1.00  0.00     0.198 A 
ATOM     72  F   UNL A   1      41.887  29.554  27.760  1.00  0.00    -0.203 F 
ATOM     73  F   UNL A   1      39.163  24.826  27.727  1.00  0.00    -0.200 F 
ATOM     74  C   UNL A   1      40.536  26.395  26.619  1.00  0.00     0.200 A 
ATOM     75  F   UNL A   1      41.919  27.985  25.556  1.00  0.00    -0.200 F 
ATOM     76  F   UNL A   1      40.583  25.608  25.535  1.00  0.00    -0.200 F 
ENDBRANCH  52  66
BRANCH  53  77
ATOM     77  C   UNL A   1      39.563  33.949  36.898  1.00  0.00     0.064 A 
ATOM     78  C   UNL A   1      38.790  33.512  37.983  1.00  0.00     0.173 A 
ATOM     79  C   UNL A   1      40.182  35.204  37.001  1.00  0.00     0.173 A 
ATOM     80  F   UNL A   1      38.162  32.328  37.924  1.00  0.00    -0.203 F 
ATOM     81  C   UNL A   1      38.625  34.307  39.116  1.00  0.00     0.198 A 
ATOM     82  C   UNL A   1      40.041  35.985  38.146  1.00  0.00     0.198 A 
ATOM     83  F   UNL A   1      40.938  35.665  35.994  1.00  0.00    -0.203 F 
ATOM     84  F   UNL A   1      37.846  33.885  40.120  1.00  0.00    -0.200 F 
ATOM     85  C   UNL A   1      39.256  35.539  39.199  1.00  0.00     0.200 A 
ATOM     86  F   UNL A   1      40.666  37.167  38.230  1.00  0.00    -0.200 F 
ATOM     87  F   UNL A   1      39.104  36.300  40.292  1.00  0.00    -0.200 F 
ENDBRANCH  53  77
BRANCH  65  88
ATOM     88  C   UNL A   1      43.933  28.796  35.177  1.00  0.00     0.064 A 
ATOM     89  C   UNL A   1      45.221  29.351  35.128  1.00  0.00     0.173 A 
ATOM     90  C   UNL A   1      43.743  27.645  35.957  1.00  0.00     0.173 A 
ATOM     91  F   UNL A   1      45.458  30.441  34.384  1.00  0.00    -0.203 F 
ATOM     92  C   UNL A   1      46.279  28.764  35.817  1.00  0.00     0.198 A 
ATOM     93  C   UNL A   1      44.797  27.079  36.668  1.00  0.00     0.198 A 
ATOM     94  F   UNL A   1      42.530  27.078  36.041  1.00  0.00    -0.203 F 
ATOM     95  F   UNL A   1      47.510  29.286  35.720  1.00  0.00    -0.200 F 
ATOM     96  C   UNL A   1      46.065  27.634  36.594  1.00  0.00     0.200 A 
ATOM     97  F   UNL A   1      44.584  25.995  37.429  1.00  0.00    -0.200 F 
ATOM     98  F   UNL A   1      47.083  27.077  37.263  1.00  0.00    -0.200 F 
ENDBRANCH  65  88
ENDBRANCH  39  40
ENDBRANCH  31  34
ENDBRANCH  29  30
ENDBRANCH  28  29
ENDBRANCH  27  28
ENDBRANCH  26  27
ENDBRANCH   1  26
TORSDOF 19
ENDMDL
