MODEL 1
REMARK VINA RESULT:     -11.8      0.000      0.000
REMARK SMILES Cc1n[nH]c(CN(C)C(=O)N[C@](C)(C(=O)NCCCCCCNC(=O)c2ccc(-c3c4nc(c(-c5c(F)c(F)c(F)c(F)c5F)c5ccc([nH]5)c(-c5c(F)c(F)c(F)c(F)c5F)c5nc(c(-c6c(F)c(F)c(F)c(F)c6F)c6ccc3[nH]6)C=C5)C=C4)cc2)C(F)(F)F)n1
REMARK SMILES IDX 18 1 17 2 16 3 14 4 15 5 12 7 13 8 11 9 9 10 10 11 7 13 8 14
REMARK SMILES IDX 6 15 5 16 1 17 2 18 3 19 93 20 4 21 89 23 90 24 91 25 92 26
REMARK SMILES IDX 19 27 20 28 21 29 22 30 23 31 24 32 25 34 26 35 27 36 88 37
REMARK SMILES IDX 28 38 87 39 29 40 30 41 31 42 81 43 32 44 86 45 80 46 82 47
REMARK SMILES IDX 33 48 85 49 79 50 78 51 34 53 66 54 46 55 65 56 47 57 50 58
REMARK SMILES IDX 64 59 83 60 48 61 49 62 63 64 84 65 51 66 35 67 36 68 44 69
REMARK SMILES IDX 37 70 38 71 42 72 45 73 39 74 40 75 43 76 41 77 67 78 68 79
REMARK SMILES IDX 76 80 69 81 70 82 74 83 77 84 71 85 72 86 75 87 73 88 52 89
REMARK SMILES IDX 53 90 61 91 54 92 55 93 59 94 62 95 56 96 57 97 60 98 58 99
REMARK H PARENT 16 6 11 12 4 22 23 33 82 52 50 63
REMARK Flexibility Score: inf
ROOT
ATOM      1  C   UNL A   1      39.168  22.755  26.462  1.00  0.00     0.021 C 
ENDROOT
BRANCH   1   2
ATOM      2  C   UNL A   1      37.782  22.334  25.978  1.00  0.00     0.116 C 
BRANCH   2   3
ATOM      3  N   UNL A   1      37.631  22.418  24.532  1.00  0.00    -0.354 N 
ATOM      4  C   UNL A   1      36.621  22.937  23.760  1.00  0.00     0.255 C 
ATOM      5  O   UNL A   1      36.760  22.839  22.539  1.00  0.00    -0.272 OA
ATOM      6  H   UNL A   1      38.382  22.039  24.020  1.00  0.00     0.163 HD
BRANCH   4   7
ATOM      7  C   UNL A   1      35.323  23.467  24.416  1.00  0.00     0.213 C 
ATOM      8  C   UNL A   1      35.794  24.210  25.671  1.00  0.00     0.056 C 
BRANCH   7   9
ATOM      9  N   UNL A   1      34.607  24.234  23.332  1.00  0.00    -0.316 N 
ATOM     10  C   UNL A   1      33.725  25.201  23.075  1.00  0.00     0.318 C 
ATOM     11  O   UNL A   1      33.449  25.324  21.875  1.00  0.00    -0.249 OA
ATOM     12  H   UNL A   1      34.912  23.875  22.467  1.00  0.00     0.166 HD
BRANCH  10  13
ATOM     13  N   UNL A   1      33.209  26.056  23.991  1.00  0.00    -0.320 N 
ATOM     14  C   UNL A   1      32.426  25.735  25.161  1.00  0.00     0.149 C 
BRANCH  13  15
ATOM     15  C   UNL A   1      33.365  27.486  23.719  1.00  0.00     0.197 C 
BRANCH  15  16
ATOM     16  C   UNL A   1      32.081  28.134  23.316  1.00  0.00     0.144 A 
ATOM     17  C   UNL A   1      29.184  30.163  23.365  1.00  0.00     0.092 C 
ATOM     18  C   UNL A   1      30.275  29.204  23.103  1.00  0.00     0.147 A 
ATOM     19  N   UNL A   1      30.283  28.426  22.015  1.00  0.00    -0.159 NA
ATOM     20  N   UNL A   1      31.354  29.046  23.937  1.00  0.00    -0.215 NA
ATOM     21  N   UNL A   1      31.451  27.785  22.154  1.00  0.00    -0.262 N 
ATOM     22  H   UNL A   1      31.812  27.143  21.499  1.00  0.00     0.192 HD
ENDBRANCH  15  16
ENDBRANCH  13  15
ENDBRANCH  10  13
ENDBRANCH   7   9
BRANCH   7  23
ATOM     23  C   UNL A   1      34.481  22.248  24.835  1.00  0.00     0.420 C 
ATOM     24  F   UNL A   1      33.149  22.467  24.764  1.00  0.00    -0.168 F 
ATOM     25  F   UNL A   1      34.739  21.200  24.005  1.00  0.00    -0.168 F 
ATOM     26  F   UNL A   1      34.780  21.823  26.086  1.00  0.00    -0.168 F 
ENDBRANCH   7  23
ENDBRANCH   4   7
ENDBRANCH   2   3
ENDBRANCH   1   2
BRANCH   1  27
ATOM     27  C   UNL A   1      40.293  21.761  26.173  1.00  0.00     0.002 C 
BRANCH  27  28
ATOM     28  C   UNL A   1      41.109  21.284  27.384  1.00  0.00     0.002 C 
BRANCH  28  29
ATOM     29  C   UNL A   1      42.151  20.182  27.140  1.00  0.00     0.021 C 
BRANCH  29  30
ATOM     30  C   UNL A   1      42.254  19.723  25.697  1.00  0.00     0.116 C 
BRANCH  30  31
ATOM     31  N   UNL A   1      43.639  19.589  25.233  1.00  0.00    -0.352 N 
ATOM     32  C   UNL A   1      44.536  20.579  24.860  1.00  0.00     0.251 C 
ATOM     33  H   UNL A   1      43.980  18.666  25.179  1.00  0.00     0.163 HD
ATOM     34  O   UNL A   1      45.497  20.328  24.155  1.00  0.00    -0.269 OA
BRANCH  32  35
ATOM     35  C   UNL A   1      44.312  21.951  25.350  1.00  0.00     0.039 A 
ATOM     36  C   UNL A   1      43.426  22.842  24.736  1.00  0.00     0.014 A 
ATOM     37  C   UNL A   1      45.015  22.332  26.484  1.00  0.00     0.014 A 
ATOM     38  C   UNL A   1      43.237  24.096  25.317  1.00  0.00     0.010 A 
ATOM     39  C   UNL A   1      44.611  23.419  27.196  1.00  0.00     0.010 A 
ATOM     40  C   UNL A   1      43.840  24.367  26.554  1.00  0.00    -0.014 A 
BRANCH  40  41
ATOM     41  C   UNL A   1      43.646  25.615  27.271  1.00  0.00     0.031 A 
ATOM     42  C   UNL A   1      44.604  26.674  26.888  1.00  0.00     0.074 A 
ATOM     43  C   UNL A   1      42.536  25.858  28.008  1.00  0.00     0.049 A 
ATOM     44  N   UNL A   1      45.550  27.174  27.607  1.00  0.00    -0.248 NA
ATOM     45  C   UNL A   1      44.624  27.112  25.482  1.00  0.00     0.031 C 
ATOM     46  C   UNL A   1      41.345  25.012  28.181  1.00  0.00     0.029 A 
ATOM     47  N   UNL A   1      42.191  26.982  28.690  1.00  0.00    -0.354 N 
ATOM     48  C   UNL A   1      46.144  28.151  26.818  1.00  0.00     0.074 A 
ATOM     49  C   UNL A   1      45.695  27.907  25.474  1.00  0.00     0.031 C 
ATOM     50  C   UNL A   1      40.340  25.738  28.719  1.00  0.00     0.029 A 
ATOM     51  C   UNL A   1      40.859  27.039  29.088  1.00  0.00     0.049 A 
ATOM     52  H   UNL A   1      42.835  27.701  28.887  1.00  0.00     0.167 HD
ATOM     53  C   UNL A   1      46.711  29.247  27.396  1.00  0.00     0.037 A 
ATOM     54  C   UNL A   1      40.233  28.099  29.660  1.00  0.00     0.037 A 
ATOM     55  C   UNL A   1      46.955  29.009  28.801  1.00  0.00     0.049 A 
ATOM     56  C   UNL A   1      41.293  28.990  30.197  1.00  0.00     0.074 A 
ATOM     57  C   UNL A   1      47.683  28.075  29.517  1.00  0.00     0.029 A 
ATOM     58  N   UNL A   1      46.075  29.557  29.704  1.00  0.00    -0.354 N 
ATOM     59  N   UNL A   1      42.071  28.668  31.194  1.00  0.00    -0.248 NA
ATOM     60  C   UNL A   1      41.802  30.030  29.316  1.00  0.00     0.031 C 
ATOM     61  C   UNL A   1      46.876  27.771  30.656  1.00  0.00     0.029 A 
ATOM     62  C   UNL A   1      45.748  28.589  30.618  1.00  0.00     0.049 A 
ATOM     63  H   UNL A   1      45.741  30.482  29.697  1.00  0.00     0.167 HD
ATOM     64  C   UNL A   1      43.326  29.128  30.823  1.00  0.00     0.074 A 
ATOM     65  C   UNL A   1      43.082  30.029  29.698  1.00  0.00     0.031 C 
ATOM     66  C   UNL A   1      44.458  28.505  31.264  1.00  0.00     0.037 A 
BRANCH  53  67
ATOM     67  C   UNL A   1      46.645  30.646  26.818  1.00  0.00     0.064 A 
ATOM     68  C   UNL A   1      47.815  31.431  26.830  1.00  0.00     0.173 A 
ATOM     69  C   UNL A   1      45.451  31.352  26.548  1.00  0.00     0.173 A 
ATOM     70  F   UNL A   1      49.011  30.872  27.070  1.00  0.00    -0.203 F 
ATOM     71  C   UNL A   1      47.776  32.822  26.706  1.00  0.00     0.198 A 
ATOM     72  C   UNL A   1      45.423  32.735  26.372  1.00  0.00     0.198 A 
ATOM     73  F   UNL A   1      44.247  30.772  26.549  1.00  0.00    -0.203 F 
ATOM     74  F   UNL A   1      48.898  33.534  26.874  1.00  0.00    -0.200 F 
ATOM     75  C   UNL A   1      46.578  33.474  26.491  1.00  0.00     0.200 A 
ATOM     76  F   UNL A   1      44.246  33.348  26.176  1.00  0.00    -0.200 F 
ATOM     77  F   UNL A   1      46.526  34.811  26.447  1.00  0.00    -0.200 F 
ENDBRANCH  53  67
BRANCH  54  78
ATOM     78  C   UNL A   1      38.830  28.553  29.498  1.00  0.00     0.064 A 
ATOM     79  C   UNL A   1      38.008  28.780  30.616  1.00  0.00     0.173 A 
ATOM     80  C   UNL A   1      38.363  29.055  28.268  1.00  0.00     0.173 A 
ATOM     81  F   UNL A   1      38.398  28.374  31.833  1.00  0.00    -0.203 F 
ATOM     82  C   UNL A   1      36.809  29.497  30.514  1.00  0.00     0.198 A 
ATOM     83  C   UNL A   1      37.165  29.767  28.167  1.00  0.00     0.198 A 
ATOM     84  F   UNL A   1      39.108  28.954  27.158  1.00  0.00    -0.203 F 
ATOM     85  F   UNL A   1      36.087  29.752  31.613  1.00  0.00    -0.200 F 
ATOM     86  C   UNL A   1      36.396  30.001  29.291  1.00  0.00     0.200 A 
ATOM     87  F   UNL A   1      36.797  30.283  26.984  1.00  0.00    -0.200 F 
ATOM     88  F   UNL A   1      35.285  30.745  29.204  1.00  0.00    -0.200 F 
ENDBRANCH  54  78
BRANCH  66  89
ATOM     89  C   UNL A   1      44.315  27.492  32.368  1.00  0.00     0.064 A 
ATOM     90  C   UNL A   1      44.126  27.814  33.724  1.00  0.00     0.173 A 
ATOM     91  C   UNL A   1      44.231  26.139  32.015  1.00  0.00     0.173 A 
ATOM     92  F   UNL A   1      44.094  29.088  34.134  1.00  0.00    -0.203 F 
ATOM     93  C   UNL A   1      43.907  26.824  34.683  1.00  0.00     0.198 A 
ATOM     94  C   UNL A   1      43.976  25.156  32.966  1.00  0.00     0.198 A 
ATOM     95  F   UNL A   1      44.352  25.774  30.729  1.00  0.00    -0.203 F 
ATOM     96  F   UNL A   1      43.744  27.160  35.971  1.00  0.00    -0.200 F 
ATOM     97  C   UNL A   1      43.826  25.496  34.300  1.00  0.00     0.200 A 
ATOM     98  F   UNL A   1      43.850  23.878  32.584  1.00  0.00    -0.200 F 
ATOM     99  F   UNL A   1      43.577  24.547  35.213  1.00  0.00    -0.200 F 
ENDBRANCH  66  89
ENDBRANCH  40  41
ENDBRANCH  32  35
ENDBRANCH  30  31
ENDBRANCH  29  30
ENDBRANCH  28  29
ENDBRANCH  27  28
ENDBRANCH   1  27
TORSDOF 18
ENDMDL
MODEL 2
REMARK VINA RESULT:     -11.5      2.062      3.170
REMARK SMILES Cc1n[nH]c(CN(C)C(=O)N[C@](C)(C(=O)NCCCCCCNC(=O)c2ccc(-c3c4nc(c(-c5c(F)c(F)c(F)c(F)c5F)c5ccc([nH]5)c(-c5c(F)c(F)c(F)c(F)c5F)c5nc(c(-c6c(F)c(F)c(F)c(F)c6F)c6ccc3[nH]6)C=C5)C=C4)cc2)C(F)(F)F)n1
REMARK SMILES IDX 18 1 17 2 16 3 14 4 15 5 12 7 13 8 11 9 9 10 10 11 7 13 8 14
REMARK SMILES IDX 6 15 5 16 1 17 2 18 3 19 93 20 4 21 89 23 90 24 91 25 92 26
REMARK SMILES IDX 19 27 20 28 21 29 22 30 23 31 24 32 25 34 26 35 27 36 88 37
REMARK SMILES IDX 28 38 87 39 29 40 30 41 31 42 81 43 32 44 86 45 80 46 82 47
REMARK SMILES IDX 33 48 85 49 79 50 78 51 34 53 66 54 46 55 65 56 47 57 50 58
REMARK SMILES IDX 64 59 83 60 48 61 49 62 63 64 84 65 51 66 35 67 36 68 44 69
REMARK SMILES IDX 37 70 38 71 42 72 45 73 39 74 40 75 43 76 41 77 67 78 68 79
REMARK SMILES IDX 76 80 69 81 70 82 74 83 77 84 71 85 72 86 75 87 73 88 52 89
REMARK SMILES IDX 53 90 61 91 54 92 55 93 59 94 62 95 56 96 57 97 60 98 58 99
REMARK H PARENT 16 6 11 12 4 22 23 33 82 52 50 63
REMARK Flexibility Score: inf
ROOT
ATOM      1  C   UNL A   1      38.563  23.109  26.610  1.00  0.00     0.021 C 
ENDROOT
BRANCH   1   2
ATOM      2  C   UNL A   1      37.310  23.614  25.897  1.00  0.00     0.116 C 
BRANCH   2   3
ATOM      3  N   UNL A   1      37.340  23.390  24.458  1.00  0.00    -0.354 N 
ATOM      4  C   UNL A   1      36.324  23.268  23.543  1.00  0.00     0.255 C 
ATOM      5  O   UNL A   1      36.660  23.051  22.378  1.00  0.00    -0.272 OA
ATOM      6  H   UNL A   1      38.244  23.314  24.076  1.00  0.00     0.163 HD
BRANCH   4   7
ATOM      7  C   UNL A   1      34.847  23.255  24.007  1.00  0.00     0.213 C 
ATOM      8  C   UNL A   1      34.057  22.773  22.785  1.00  0.00     0.056 C 
BRANCH   7   9
ATOM      9  N   UNL A   1      34.827  22.429  25.269  1.00  0.00    -0.316 N 
ATOM     10  C   UNL A   1      34.075  21.992  26.280  1.00  0.00     0.318 C 
ATOM     11  O   UNL A   1      34.704  21.362  27.140  1.00  0.00    -0.249 OA
ATOM     12  H   UNL A   1      35.735  22.069  25.399  1.00  0.00     0.166 HD
BRANCH  10  13
ATOM     13  N   UNL A   1      32.729  22.123  26.371  1.00  0.00    -0.320 N 
ATOM     14  C   UNL A   1      31.974  22.849  27.364  1.00  0.00     0.149 C 
BRANCH  13  15
ATOM     15  C   UNL A   1      31.926  21.356  25.416  1.00  0.00     0.197 C 
BRANCH  15  16
ATOM     16  C   UNL A   1      32.520  20.020  25.116  1.00  0.00     0.144 A 
ATOM     17  C   UNL A   1      33.899  17.275  23.362  1.00  0.00     0.092 C 
ATOM     18  C   UNL A   1      33.325  18.238  24.322  1.00  0.00     0.147 A 
ATOM     19  N   UNL A   1      33.165  17.935  25.614  1.00  0.00    -0.159 NA
ATOM     20  N   UNL A   1      32.928  19.505  23.969  1.00  0.00    -0.215 NA
ATOM     21  N   UNL A   1      32.688  19.088  26.102  1.00  0.00    -0.262 N 
ATOM     22  H   UNL A   1      32.485  19.244  27.053  1.00  0.00     0.192 HD
ENDBRANCH  15  16
ENDBRANCH  13  15
ENDBRANCH  10  13
ENDBRANCH   7   9
BRANCH   7  23
ATOM     23  C   UNL A   1      34.446  24.707  24.328  1.00  0.00     0.420 C 
ATOM     24  F   UNL A   1      34.816  25.588  23.373  1.00  0.00    -0.168 F 
ATOM     25  F   UNL A   1      33.091  24.801  24.428  1.00  0.00    -0.168 F 
ATOM     26  F   UNL A   1      34.943  25.125  25.516  1.00  0.00    -0.168 F 
ENDBRANCH   7  23
ENDBRANCH   4   7
ENDBRANCH   2   3
ENDBRANCH   1   2
BRANCH   1  27
ATOM     27  C   UNL A   1      39.263  21.925  25.944  1.00  0.00     0.002 C 
BRANCH  27  28
ATOM     28  C   UNL A   1      40.342  21.215  26.775  1.00  0.00     0.002 C 
BRANCH  28  29
ATOM     29  C   UNL A   1      41.074  20.035  26.118  1.00  0.00     0.021 C 
BRANCH  29  30
ATOM     30  C   UNL A   1      42.400  19.679  26.765  1.00  0.00     0.116 C 
BRANCH  30  31
ATOM     31  N   UNL A   1      43.512  19.627  25.810  1.00  0.00    -0.352 N 
ATOM     32  C   UNL A   1      44.080  20.656  25.073  1.00  0.00     0.251 C 
ATOM     33  H   UNL A   1      43.911  18.737  25.673  1.00  0.00     0.163 HD
ATOM     34  O   UNL A   1      44.724  20.430  24.065  1.00  0.00    -0.269 OA
BRANCH  32  35
ATOM     35  C   UNL A   1      43.900  22.041  25.546  1.00  0.00     0.039 A 
ATOM     36  C   UNL A   1      43.025  22.945  24.937  1.00  0.00     0.014 A 
ATOM     37  C   UNL A   1      44.636  22.421  26.659  1.00  0.00     0.014 A 
ATOM     38  C   UNL A   1      42.879  24.212  25.501  1.00  0.00     0.010 A 
ATOM     39  C   UNL A   1      44.275  23.529  27.362  1.00  0.00     0.010 A 
ATOM     40  C   UNL A   1      43.515  24.487  26.721  1.00  0.00    -0.014 A 
BRANCH  40  41
ATOM     41  C   UNL A   1      43.367  25.750  27.422  1.00  0.00     0.031 A 
ATOM     42  C   UNL A   1      44.346  26.777  27.004  1.00  0.00     0.074 A 
ATOM     43  C   UNL A   1      42.278  26.033  28.176  1.00  0.00     0.049 A 
ATOM     44  N   UNL A   1      45.318  27.263  27.697  1.00  0.00    -0.248 NA
ATOM     45  C   UNL A   1      44.350  27.193  25.592  1.00  0.00     0.031 C 
ATOM     46  C   UNL A   1      41.070  25.222  28.385  1.00  0.00     0.029 A 
ATOM     47  N   UNL A   1      41.977  27.176  28.847  1.00  0.00    -0.354 N 
ATOM     48  C   UNL A   1      45.922  28.212  26.882  1.00  0.00     0.074 A 
ATOM     49  C   UNL A   1      45.441  27.960  25.551  1.00  0.00     0.031 C 
ATOM     50  C   UNL A   1      40.095  25.982  28.930  1.00  0.00     0.029 A 
ATOM     51  C   UNL A   1      40.655  27.275  29.269  1.00  0.00     0.049 A 
ATOM     52  H   UNL A   1      42.643  27.881  29.021  1.00  0.00     0.167 HD
ATOM     53  C   UNL A   1      46.528  29.301  27.432  1.00  0.00     0.037 A 
ATOM     54  C   UNL A   1      40.068  28.359  29.836  1.00  0.00     0.037 A 
ATOM     55  C   UNL A   1      46.793  29.078  28.836  1.00  0.00     0.049 A 
ATOM     56  C   UNL A   1      41.161  29.230  30.339  1.00  0.00     0.074 A 
ATOM     57  C   UNL A   1      47.510  28.137  29.552  1.00  0.00     0.029 A 
ATOM     58  N   UNL A   1      45.946  29.662  29.747  1.00  0.00    -0.354 N 
ATOM     59  N   UNL A   1      41.949  28.903  31.326  1.00  0.00    -0.248 NA
ATOM     60  C   UNL A   1      41.679  30.243  29.432  1.00  0.00     0.031 C 
ATOM     61  C   UNL A   1      46.718  27.871  30.711  1.00  0.00     0.029 A 
ATOM     62  C   UNL A   1      45.611  28.718  30.681  1.00  0.00     0.049 A 
ATOM     63  H   UNL A   1      45.635  30.596  29.731  1.00  0.00     0.167 HD
ATOM     64  C   UNL A   1      43.208  29.324  30.924  1.00  0.00     0.074 A 
ATOM     65  C   UNL A   1      42.967  30.214  29.789  1.00  0.00     0.031 C 
ATOM     66  C   UNL A   1      44.332  28.678  31.353  1.00  0.00     0.037 A 
BRANCH  53  67
ATOM     67  C   UNL A   1      46.487  30.692  26.833  1.00  0.00     0.064 A 
ATOM     68  C   UNL A   1      47.681  31.441  26.798  1.00  0.00     0.173 A 
ATOM     69  C   UNL A   1      45.308  31.431  26.588  1.00  0.00     0.173 A 
ATOM     70  F   UNL A   1      48.865  30.849  27.011  1.00  0.00    -0.203 F 
ATOM     71  C   UNL A   1      47.681  32.831  26.653  1.00  0.00     0.198 A 
ATOM     72  C   UNL A   1      45.317  32.811  26.390  1.00  0.00     0.198 A 
ATOM     73  F   UNL A   1      44.088  30.889  26.634  1.00  0.00    -0.203 F 
ATOM     74  F   UNL A   1      48.829  33.510  26.776  1.00  0.00    -0.200 F 
ATOM     75  C   UNL A   1      46.497  33.516  26.463  1.00  0.00     0.200 A 
ATOM     76  F   UNL A   1      44.154  33.457  26.218  1.00  0.00    -0.200 F 
ATOM     77  F   UNL A   1      46.484  34.853  26.398  1.00  0.00    -0.200 F 
ENDBRANCH  53  67
BRANCH  54  78
ATOM     78  C   UNL A   1      38.674  28.848  29.694  1.00  0.00     0.064 A 
ATOM     79  C   UNL A   1      37.880  29.115  30.823  1.00  0.00     0.173 A 
ATOM     80  C   UNL A   1      38.196  29.342  28.464  1.00  0.00     0.173 A 
ATOM     81  F   UNL A   1      38.284  28.718  32.039  1.00  0.00    -0.203 F 
ATOM     82  C   UNL A   1      36.699  29.861  30.732  1.00  0.00     0.198 A 
ATOM     83  C   UNL A   1      37.016  30.083  28.374  1.00  0.00     0.198 A 
ATOM     84  F   UNL A   1      38.916  29.203  27.342  1.00  0.00    -0.203 F 
ATOM     85  F   UNL A   1      36.006  30.154  31.841  1.00  0.00    -0.200 F 
ATOM     86  C   UNL A   1      36.275  30.356  29.509  1.00  0.00     0.200 A 
ATOM     87  F   UNL A   1      36.638  30.590  27.191  1.00  0.00    -0.200 F 
ATOM     88  F   UNL A   1      35.183  31.128  29.431  1.00  0.00    -0.200 F 
ENDBRANCH  54  78
BRANCH  66  89
ATOM     89  C   UNL A   1      44.184  27.685  32.476  1.00  0.00     0.064 A 
ATOM     90  C   UNL A   1      43.998  28.033  33.825  1.00  0.00     0.173 A 
ATOM     91  C   UNL A   1      44.092  26.327  32.147  1.00  0.00     0.173 A 
ATOM     92  F   UNL A   1      43.975  29.314  34.212  1.00  0.00    -0.203 F 
ATOM     93  C   UNL A   1      43.774  27.062  34.802  1.00  0.00     0.198 A 
ATOM     94  C   UNL A   1      43.832  25.363  33.116  1.00  0.00     0.198 A 
ATOM     95  F   UNL A   1      44.209  25.938  30.867  1.00  0.00    -0.203 F 
ATOM     96  F   UNL A   1      43.615  27.422  36.084  1.00  0.00    -0.200 F 
ATOM     97  C   UNL A   1      43.685  25.728  34.444  1.00  0.00     0.200 A 
ATOM     98  F   UNL A   1      43.698  24.079  32.757  1.00  0.00    -0.200 F 
ATOM     99  F   UNL A   1      43.431  24.797  35.374  1.00  0.00    -0.200 F 
ENDBRANCH  66  89
ENDBRANCH  40  41
ENDBRANCH  32  35
ENDBRANCH  30  31
ENDBRANCH  29  30
ENDBRANCH  28  29
ENDBRANCH  27  28
ENDBRANCH   1  27
TORSDOF 18
ENDMDL
MODEL 3
REMARK VINA RESULT:     -11.4      1.664      2.277
REMARK SMILES Cc1n[nH]c(CN(C)C(=O)N[C@](C)(C(=O)NCCCCCCNC(=O)c2ccc(-c3c4nc(c(-c5c(F)c(F)c(F)c(F)c5F)c5ccc([nH]5)c(-c5c(F)c(F)c(F)c(F)c5F)c5nc(c(-c6c(F)c(F)c(F)c(F)c6F)c6ccc3[nH]6)C=C5)C=C4)cc2)C(F)(F)F)n1
REMARK SMILES IDX 18 1 17 2 16 3 14 4 15 5 12 7 13 8 11 9 9 10 10 11 7 13 8 14
REMARK SMILES IDX 6 15 5 16 1 17 2 18 3 19 93 20 4 21 89 23 90 24 91 25 92 26
REMARK SMILES IDX 19 27 20 28 21 29 22 30 23 31 24 32 25 34 26 35 27 36 88 37
REMARK SMILES IDX 28 38 87 39 29 40 30 41 31 42 81 43 32 44 86 45 80 46 82 47
REMARK SMILES IDX 33 48 85 49 79 50 78 51 34 53 66 54 46 55 65 56 47 57 50 58
REMARK SMILES IDX 64 59 83 60 48 61 49 62 63 64 84 65 51 66 35 67 36 68 44 69
REMARK SMILES IDX 37 70 38 71 42 72 45 73 39 74 40 75 43 76 41 77 67 78 68 79
REMARK SMILES IDX 76 80 69 81 70 82 74 83 77 84 71 85 72 86 75 87 73 88 52 89
REMARK SMILES IDX 53 90 61 91 54 92 55 93 59 94 62 95 56 96 57 97 60 98 58 99
REMARK H PARENT 16 6 11 12 4 22 23 33 82 52 50 63
REMARK Flexibility Score: inf
ROOT
ATOM      1  C   UNL A   1      38.888  22.871  26.504  1.00  0.00     0.021 C 
ENDROOT
BRANCH   1   2
ATOM      2  C   UNL A   1      37.628  23.334  25.776  1.00  0.00     0.116 C 
BRANCH   2   3
ATOM      3  N   UNL A   1      36.411  23.126  26.549  1.00  0.00    -0.354 N 
ATOM      4  C   UNL A   1      35.279  22.400  26.270  1.00  0.00     0.255 C 
ATOM      5  O   UNL A   1      34.386  22.433  27.118  1.00  0.00    -0.272 OA
ATOM      6  H   UNL A   1      36.398  23.583  27.421  1.00  0.00     0.163 HD
BRANCH   4   7
ATOM      7  C   UNL A   1      35.103  21.717  24.892  1.00  0.00     0.213 C 
ATOM      8  C   UNL A   1      36.372  20.879  24.705  1.00  0.00     0.056 C 
BRANCH   7   9
ATOM      9  N   UNL A   1      33.764  21.025  24.953  1.00  0.00    -0.316 N 
ATOM     10  C   UNL A   1      32.448  21.196  25.084  1.00  0.00     0.318 C 
ATOM     11  O   UNL A   1      31.808  20.139  25.158  1.00  0.00    -0.249 OA
ATOM     12  H   UNL A   1      33.929  20.058  24.861  1.00  0.00     0.166 HD
BRANCH  10  13
ATOM     13  N   UNL A   1      31.806  22.389  25.062  1.00  0.00    -0.320 N 
ATOM     14  C   UNL A   1      31.514  23.218  23.916  1.00  0.00     0.149 C 
BRANCH  13  15
ATOM     15  C   UNL A   1      31.451  22.971  26.358  1.00  0.00     0.197 C 
BRANCH  15  16
ATOM     16  C   UNL A   1      31.569  24.459  26.367  1.00  0.00     0.144 A 
ATOM     17  C   UNL A   1      32.938  27.719  26.295  1.00  0.00     0.092 C 
ATOM     18  C   UNL A   1      32.117  26.497  26.385  1.00  0.00     0.147 A 
ATOM     19  N   UNL A   1      30.796  26.548  26.588  1.00  0.00    -0.159 NA
ATOM     20  N   UNL A   1      32.635  25.231  26.258  1.00  0.00    -0.215 NA
ATOM     21  N   UNL A   1      30.467  25.251  26.537  1.00  0.00    -0.262 N 
ATOM     22  H   UNL A   1      29.546  24.910  26.612  1.00  0.00     0.192 HD
ENDBRANCH  15  16
ENDBRANCH  13  15
ENDBRANCH  10  13
ENDBRANCH   7   9
BRANCH   7  23
ATOM     23  C   UNL A   1      35.067  22.827  23.824  1.00  0.00     0.420 C 
ATOM     24  F   UNL A   1      36.251  23.005  23.198  1.00  0.00    -0.168 F 
ATOM     25  F   UNL A   1      34.169  22.504  22.853  1.00  0.00    -0.168 F 
ATOM     26  F   UNL A   1      34.666  24.015  24.332  1.00  0.00    -0.168 F 
ENDBRANCH   7  23
ENDBRANCH   4   7
ENDBRANCH   2   3
ENDBRANCH   1   2
BRANCH   1  27
ATOM     27  C   UNL A   1      39.561  21.628  25.922  1.00  0.00     0.002 C 
BRANCH  27  28
ATOM     28  C   UNL A   1      40.659  20.982  26.779  1.00  0.00     0.002 C 
BRANCH  28  29
ATOM     29  C   UNL A   1      41.387  19.765  26.190  1.00  0.00     0.021 C 
BRANCH  29  30
ATOM     30  C   UNL A   1      42.784  19.541  26.740  1.00  0.00     0.116 C 
BRANCH  30  31
ATOM     31  N   UNL A   1      43.820  19.551  25.702  1.00  0.00    -0.352 N 
ATOM     32  C   UNL A   1      44.269  20.608  24.924  1.00  0.00     0.251 C 
ATOM     33  H   UNL A   1      44.258  18.685  25.534  1.00  0.00     0.163 HD
ATOM     34  O   UNL A   1      44.845  20.417  23.869  1.00  0.00    -0.269 OA
BRANCH  32  35
ATOM     35  C   UNL A   1      44.046  21.982  25.411  1.00  0.00     0.039 A 
ATOM     36  C   UNL A   1      43.086  22.837  24.861  1.00  0.00     0.014 A 
ATOM     37  C   UNL A   1      44.830  22.402  26.476  1.00  0.00     0.014 A 
ATOM     38  C   UNL A   1      42.910  24.095  25.436  1.00  0.00     0.010 A 
ATOM     39  C   UNL A   1      44.455  23.489  27.203  1.00  0.00     0.010 A 
ATOM     40  C   UNL A   1      43.606  24.405  26.614  1.00  0.00    -0.014 A 
BRANCH  40  41
ATOM     41  C   UNL A   1      43.436  25.659  27.327  1.00  0.00     0.031 A 
ATOM     42  C   UNL A   1      44.409  26.700  26.932  1.00  0.00     0.074 A 
ATOM     43  C   UNL A   1      42.335  25.923  28.069  1.00  0.00     0.049 A 
ATOM     44  N   UNL A   1      45.367  27.189  27.642  1.00  0.00    -0.248 NA
ATOM     45  C   UNL A   1      44.427  27.132  25.524  1.00  0.00     0.031 C 
ATOM     46  C   UNL A   1      41.132  25.097  28.254  1.00  0.00     0.029 A 
ATOM     47  N   UNL A   1      42.013  27.056  28.748  1.00  0.00    -0.354 N 
ATOM     48  C   UNL A   1      45.971  28.153  26.845  1.00  0.00     0.074 A 
ATOM     49  C   UNL A   1      45.510  27.910  25.505  1.00  0.00     0.031 C 
ATOM     50  C   UNL A   1      40.143  25.841  28.795  1.00  0.00     0.029 A 
ATOM     51  C   UNL A   1      40.685  27.136  29.155  1.00  0.00     0.049 A 
ATOM     52  H   UNL A   1      42.670  27.765  28.938  1.00  0.00     0.167 HD
ATOM     53  C   UNL A   1      46.559  29.242  27.414  1.00  0.00     0.037 A 
ATOM     54  C   UNL A   1      40.079  28.208  29.725  1.00  0.00     0.037 A 
ATOM     55  C   UNL A   1      46.808  29.007  28.818  1.00  0.00     0.049 A 
ATOM     56  C   UNL A   1      41.156  29.085  30.251  1.00  0.00     0.074 A 
ATOM     57  C   UNL A   1      47.526  28.066  29.533  1.00  0.00     0.029 A 
ATOM     58  N   UNL A   1      45.944  29.573  29.724  1.00  0.00    -0.354 N 
ATOM     59  N   UNL A   1      41.935  28.756  31.244  1.00  0.00    -0.248 NA
ATOM     60  C   UNL A   1      41.676  30.112  29.362  1.00  0.00     0.031 C 
ATOM     61  C   UNL A   1      46.723  27.780  30.680  1.00  0.00     0.029 A 
ATOM     62  C   UNL A   1      45.607  28.615  30.645  1.00  0.00     0.049 A 
ATOM     63  H   UNL A   1      45.623  30.504  29.715  1.00  0.00     0.167 HD
ATOM     64  C   UNL A   1      43.195  29.194  30.863  1.00  0.00     0.074 A 
ATOM     65  C   UNL A   1      42.959  30.093  29.735  1.00  0.00     0.031 C 
ATOM     66  C   UNL A   1      44.320  28.555  31.299  1.00  0.00     0.037 A 
BRANCH  53  67
ATOM     67  C   UNL A   1      46.511  30.639  26.829  1.00  0.00     0.064 A 
ATOM     68  C   UNL A   1      47.699  31.398  26.810  1.00  0.00     0.173 A 
ATOM     69  C   UNL A   1      45.328  31.371  26.583  1.00  0.00     0.173 A 
ATOM     70  F   UNL A   1      48.887  30.813  27.025  1.00  0.00    -0.203 F 
ATOM     71  C   UNL A   1      47.689  32.789  26.679  1.00  0.00     0.198 A 
ATOM     72  C   UNL A   1      45.327  32.754  26.399  1.00  0.00     0.198 A 
ATOM     73  F   UNL A   1      44.111  30.819  26.615  1.00  0.00    -0.203 F 
ATOM     74  F   UNL A   1      48.830  33.476  26.817  1.00  0.00    -0.200 F 
ATOM     75  C   UNL A   1      46.501  33.467  26.487  1.00  0.00     0.200 A 
ATOM     76  F   UNL A   1      44.160  33.392  26.226  1.00  0.00    -0.200 F 
ATOM     77  F   UNL A   1      46.477  34.804  26.437  1.00  0.00    -0.200 F 
ENDBRANCH  53  67
BRANCH  54  78
ATOM     78  C   UNL A   1      38.682  28.684  29.570  1.00  0.00     0.064 A 
ATOM     79  C   UNL A   1      37.877  28.947  30.692  1.00  0.00     0.173 A 
ATOM     80  C   UNL A   1      38.210  29.169  28.335  1.00  0.00     0.173 A 
ATOM     81  F   UNL A   1      38.274  28.558  31.912  1.00  0.00    -0.203 F 
ATOM     82  C   UNL A   1      36.690  29.682  30.589  1.00  0.00     0.198 A 
ATOM     83  C   UNL A   1      37.024  29.899  28.233  1.00  0.00     0.198 A 
ATOM     84  F   UNL A   1      38.940  29.033  27.219  1.00  0.00    -0.203 F 
ATOM     85  F   UNL A   1      35.985  29.972  31.692  1.00  0.00    -0.200 F 
ATOM     86  C   UNL A   1      36.271  30.169  29.362  1.00  0.00     0.200 A 
ATOM     87  F   UNL A   1      36.650  30.399  27.045  1.00  0.00    -0.200 F 
ATOM     88  F   UNL A   1      35.173  30.931  29.272  1.00  0.00    -0.200 F 
ENDBRANCH  54  78
BRANCH  66  89
ATOM     89  C   UNL A   1      44.168  27.549  32.410  1.00  0.00     0.064 A 
ATOM     90  C   UNL A   1      44.067  26.161  32.216  1.00  0.00     0.173 A 
ATOM     91  C   UNL A   1      44.265  28.006  33.731  1.00  0.00     0.173 A 
ATOM     92  F   UNL A   1      44.066  25.632  30.987  1.00  0.00    -0.203 F 
ATOM     93  C   UNL A   1      44.022  25.278  33.296  1.00  0.00     0.198 A 
ATOM     94  C   UNL A   1      44.257  27.122  34.805  1.00  0.00     0.198 A 
ATOM     95  F   UNL A   1      44.415  29.317  33.977  1.00  0.00    -0.203 F 
ATOM     96  F   UNL A   1      43.911  23.958  33.082  1.00  0.00    -0.200 F 
ATOM     97  C   UNL A   1      44.124  25.760  34.589  1.00  0.00     0.200 A 
ATOM     98  F   UNL A   1      44.405  27.590  36.052  1.00  0.00    -0.200 F 
ATOM     99  F   UNL A   1      44.121  24.911  35.627  1.00  0.00    -0.200 F 
ENDBRANCH  66  89
ENDBRANCH  40  41
ENDBRANCH  32  35
ENDBRANCH  30  31
ENDBRANCH  29  30
ENDBRANCH  28  29
ENDBRANCH  27  28
ENDBRANCH   1  27
TORSDOF 18
ENDMDL
