MODEL 1
REMARK VINA RESULT:     -11.5      0.000      0.000
REMARK SMILES COc1cc(N[C@H]2C=C[C@@H](C(=O)NCCCCCCNC(=O)c3ccc(-c4c5nc(c(-c6c(F)c(F)c(F)c(F)c6F)c6ccc([nH]6)c(-c6c(F)c(F)c(F)c(F)c6F)c6nc(c(-c7c(F)c(F)c(F)c(F)c7F)c7ccc4[nH]7)C=C6)C=C5)cc3)C2)c([N+](=O)[O-])cc1F
REMARK SMILES IDX 16 1 15 2 14 3 13 4 11 5 12 6 10 8 7 9 8 10 86 11 9 12 6 13
REMARK SMILES IDX 5 15 3 16 4 17 92 18 91 19 93 20 87 21 2 22 1 23 88 24 89 25
REMARK SMILES IDX 90 26 17 27 18 28 19 29 20 30 21 31 22 33 23 34 24 35 85 36
REMARK SMILES IDX 25 37 84 38 26 39 27 40 28 41 78 42 29 43 83 44 77 45 79 46
REMARK SMILES IDX 30 47 82 48 76 49 75 50 31 52 63 53 43 54 62 55 44 56 47 57
REMARK SMILES IDX 61 58 80 59 45 60 46 61 60 63 81 64 48 65 32 66 33 67 41 68
REMARK SMILES IDX 34 69 35 70 39 71 42 72 36 73 37 74 40 75 38 76 64 77 65 78
REMARK SMILES IDX 73 79 66 80 67 81 71 82 74 83 68 84 69 85 72 86 70 87 49 88
REMARK SMILES IDX 50 89 58 90 51 91 52 92 56 93 59 94 53 95 54 96 57 97 55 98
REMARK H PARENT 13 7 6 14 20 32 79 51 47 62
REMARK Flexibility Score: inf
ROOT
ATOM      1  C   UNL A   1      41.825  21.363  27.281  1.00  0.00     0.002 C 
ENDROOT
BRANCH   1   2
ATOM      2  C   UNL A   1      40.941  21.901  26.149  1.00  0.00     0.021 C 
BRANCH   2   3
ATOM      3  C   UNL A   1      39.448  21.970  26.460  1.00  0.00     0.116 C 
BRANCH   3   4
ATOM      4  N   UNL A   1      38.686  22.722  25.495  1.00  0.00    -0.356 N 
ATOM      5  C   UNL A   1      37.346  22.755  25.268  1.00  0.00     0.227 C 
ATOM      6  O   UNL A   1      36.933  23.711  24.598  1.00  0.00    -0.274 OA
ATOM      7  H   UNL A   1      39.220  23.304  24.907  1.00  0.00     0.163 HD
BRANCH   5   8
ATOM      8  C   UNL A   1      36.339  21.729  25.814  1.00  0.00     0.103 C 
ATOM      9  C   UNL A   1      33.956  21.153  25.532  1.00  0.00     0.103 C 
ATOM     10  C   UNL A   1      34.851  20.195  24.837  1.00  0.00    -0.006 C 
ATOM     11  C   UNL A   1      34.916  22.179  26.173  1.00  0.00     0.046 C 
ATOM     12  C   UNL A   1      36.143  20.527  24.942  1.00  0.00    -0.016 C 
BRANCH   9  13
ATOM     13  N   UNL A   1      32.946  21.794  24.694  1.00  0.00    -0.373 N 
ATOM     14  H   UNL A   1      32.303  21.143  24.330  1.00  0.00     0.161 HD
BRANCH  13  15
ATOM     15  C   UNL A   1      32.666  23.085  24.282  1.00  0.00     0.117 A 
ATOM     16  C   UNL A   1      33.036  25.008  22.784  1.00  0.00     0.157 A 
ATOM     17  C   UNL A   1      33.270  23.677  23.157  1.00  0.00     0.082 A 
ATOM     18  C   UNL A   1      32.167  25.793  23.521  1.00  0.00     0.172 A 
ATOM     19  C   UNL A   1      31.538  25.271  24.638  1.00  0.00     0.131 A 
ATOM     20  F   UNL A   1      31.947  27.070  23.182  1.00  0.00    -0.203 F 
ATOM     21  C   UNL A   1      31.784  23.933  25.012  1.00  0.00     0.295 A 
BRANCH  16  22
ATOM     22  O   UNL A   1      33.587  25.483  21.624  1.00  0.00    -0.494 OA
ATOM     23  C   UNL A   1      32.615  25.612  20.589  1.00  0.00     0.278 C 
ENDBRANCH  16  22
BRANCH  21  24
ATOM     24  N   UNL A   1      31.096  23.462  26.226  1.00  0.00     0.065 N 
ATOM     25  O   UNL A   1      31.231  24.116  27.271  1.00  0.00    -0.258 OA
ATOM     26  O   UNL A   1      30.409  22.434  26.130  1.00  0.00    -0.258 OA
ENDBRANCH  21  24
ENDBRANCH  13  15
ENDBRANCH   9  13
ENDBRANCH   5   8
ENDBRANCH   3   4
ENDBRANCH   2   3
ENDBRANCH   1   2
BRANCH   1  27
ATOM     27  C   UNL A   1      41.938  19.837  27.398  1.00  0.00     0.002 C 
BRANCH  27  28
ATOM     28  C   UNL A   1      42.269  19.077  26.110  1.00  0.00     0.021 C 
BRANCH  28  29
ATOM     29  C   UNL A   1      43.650  18.433  26.035  1.00  0.00     0.116 C 
BRANCH  29  30
ATOM     30  N   UNL A   1      44.239  18.540  24.714  1.00  0.00    -0.352 N 
ATOM     31  C   UNL A   1      44.633  19.651  24.011  1.00  0.00     0.251 C 
ATOM     32  H   UNL A   1      44.378  17.684  24.250  1.00  0.00     0.163 HD
ATOM     33  O   UNL A   1      44.958  19.524  22.828  1.00  0.00    -0.269 OA
BRANCH  31  34
ATOM     34  C   UNL A   1      44.676  21.000  24.628  1.00  0.00     0.039 A 
ATOM     35  C   UNL A   1      44.165  22.081  23.898  1.00  0.00     0.014 A 
ATOM     36  C   UNL A   1      45.298  21.240  25.858  1.00  0.00     0.014 A 
ATOM     37  C   UNL A   1      44.267  23.385  24.396  1.00  0.00     0.010 A 
ATOM     38  C   UNL A   1      45.347  22.534  26.383  1.00  0.00     0.010 A 
ATOM     39  C   UNL A   1      44.860  23.624  25.644  1.00  0.00    -0.014 A 
BRANCH  39  40
ATOM     40  C   UNL A   1      45.049  25.009  26.149  1.00  0.00     0.031 A 
ATOM     41  C   UNL A   1      46.402  25.664  26.057  1.00  0.00     0.074 A 
ATOM     42  C   UNL A   1      44.022  25.680  26.704  1.00  0.00     0.049 A 
ATOM     43  N   UNL A   1      46.786  26.844  26.482  1.00  0.00    -0.248 NA
ATOM     44  C   UNL A   1      47.471  24.879  25.423  1.00  0.00     0.031 C 
ATOM     45  C   UNL A   1      42.666  25.158  26.869  1.00  0.00     0.029 A 
ATOM     46  N   UNL A   1      43.960  26.947  27.231  1.00  0.00    -0.354 N 
ATOM     47  C   UNL A   1      48.139  26.931  26.182  1.00  0.00     0.074 A 
ATOM     48  C   UNL A   1      48.522  25.671  25.583  1.00  0.00     0.031 C 
ATOM     49  C   UNL A   1      41.900  26.106  27.434  1.00  0.00     0.029 A 
ATOM     50  C   UNL A   1      42.716  27.291  27.696  1.00  0.00     0.049 A 
ATOM     51  H   UNL A   1      44.737  27.552  27.271  1.00  0.00     0.167 HD
ATOM     52  C   UNL A   1      48.984  27.974  26.369  1.00  0.00     0.037 A 
ATOM     53  C   UNL A   1      42.279  28.431  28.266  1.00  0.00     0.037 A 
ATOM     54  C   UNL A   1      48.600  29.241  26.934  1.00  0.00     0.049 A 
ATOM     55  C   UNL A   1      43.230  29.581  28.455  1.00  0.00     0.074 A 
ATOM     56  C   UNL A   1      49.378  30.367  27.133  1.00  0.00     0.029 A 
ATOM     57  N   UNL A   1      47.326  29.549  27.384  1.00  0.00    -0.354 N 
ATOM     58  N   UNL A   1      44.501  29.660  28.149  1.00  0.00    -0.248 NA
ATOM     59  C   UNL A   1      42.684  30.802  29.064  1.00  0.00     0.031 C 
ATOM     60  C   UNL A   1      48.582  31.349  27.731  1.00  0.00     0.029 A 
ATOM     61  C   UNL A   1      47.297  30.848  27.866  1.00  0.00     0.049 A 
ATOM     62  H   UNL A   1      46.556  28.937  27.364  1.00  0.00     0.167 HD
ATOM     63  C   UNL A   1      44.903  30.939  28.505  1.00  0.00     0.074 A 
ATOM     64  C   UNL A   1      43.737  31.608  29.044  1.00  0.00     0.031 C 
ATOM     65  C   UNL A   1      46.129  31.506  28.393  1.00  0.00     0.037 A 
BRANCH  52  66
ATOM     66  C   UNL A   1      50.413  27.789  25.947  1.00  0.00     0.064 A 
ATOM     67  C   UNL A   1      51.410  27.526  26.899  1.00  0.00     0.173 A 
ATOM     68  C   UNL A   1      50.801  27.905  24.604  1.00  0.00     0.173 A 
ATOM     69  F   UNL A   1      51.093  27.414  28.198  1.00  0.00    -0.203 F 
ATOM     70  C   UNL A   1      52.742  27.385  26.520  1.00  0.00     0.198 A 
ATOM     71  C   UNL A   1      52.130  27.733  24.226  1.00  0.00     0.198 A 
ATOM     72  F   UNL A   1      49.885  28.144  23.654  1.00  0.00    -0.203 F 
ATOM     73  F   UNL A   1      53.680  27.153  27.449  1.00  0.00    -0.200 F 
ATOM     74  C   UNL A   1      53.100  27.480  25.184  1.00  0.00     0.200 A 
ATOM     75  F   UNL A   1      52.470  27.800  22.931  1.00  0.00    -0.200 F 
ATOM     76  F   UNL A   1      54.379  27.321  24.819  1.00  0.00    -0.200 F 
ENDBRANCH  52  66
BRANCH  53  77
ATOM     77  C   UNL A   1      40.849  28.550  28.646  1.00  0.00     0.064 A 
ATOM     78  C   UNL A   1      39.889  29.030  27.744  1.00  0.00     0.173 A 
ATOM     79  C   UNL A   1      40.426  28.227  29.942  1.00  0.00     0.173 A 
ATOM     80  F   UNL A   1      40.247  29.352  26.492  1.00  0.00    -0.203 F 
ATOM     81  C   UNL A   1      38.563  29.204  28.133  1.00  0.00     0.198 A 
ATOM     82  C   UNL A   1      39.096  28.383  30.324  1.00  0.00     0.198 A 
ATOM     83  F   UNL A   1      41.306  27.744  30.831  1.00  0.00    -0.203 F 
ATOM     84  F   UNL A   1      37.671  29.695  27.262  1.00  0.00    -0.200 F 
ATOM     85  C   UNL A   1      38.167  28.880  29.422  1.00  0.00     0.200 A 
ATOM     86  F   UNL A   1      38.713  28.050  31.564  1.00  0.00    -0.200 F 
ATOM     87  F   UNL A   1      36.892  29.046  29.795  1.00  0.00    -0.200 F 
ENDBRANCH  53  77
BRANCH  65  88
ATOM     88  C   UNL A   1      46.282  32.930  28.838  1.00  0.00     0.064 A 
ATOM     89  C   UNL A   1      46.099  33.981  27.929  1.00  0.00     0.173 A 
ATOM     90  C   UNL A   1      46.686  33.251  30.142  1.00  0.00     0.173 A 
ATOM     91  F   UNL A   1      45.720  33.725  26.667  1.00  0.00    -0.203 F 
ATOM     92  C   UNL A   1      46.329  35.302  28.303  1.00  0.00     0.198 A 
ATOM     93  C   UNL A   1      46.893  34.575  30.520  1.00  0.00     0.198 A 
ATOM     94  F   UNL A   1      46.863  32.281  31.052  1.00  0.00    -0.203 F 
ATOM     95  F   UNL A   1      46.176  36.289  27.408  1.00  0.00    -0.200 F 
ATOM     96  C   UNL A   1      46.722  35.598  29.600  1.00  0.00     0.200 A 
ATOM     97  F   UNL A   1      47.254  34.861  31.779  1.00  0.00    -0.200 F 
ATOM     98  F   UNL A   1      46.937  36.871  29.962  1.00  0.00    -0.200 F 
ENDBRANCH  65  88
ENDBRANCH  39  40
ENDBRANCH  31  34
ENDBRANCH  29  30
ENDBRANCH  28  29
ENDBRANCH  27  28
ENDBRANCH   1  27
TORSDOF 17
ENDMDL
MODEL 2
REMARK VINA RESULT:     -11.3      6.178     10.644
REMARK SMILES COc1cc(N[C@H]2C=C[C@@H](C(=O)NCCCCCCNC(=O)c3ccc(-c4c5nc(c(-c6c(F)c(F)c(F)c(F)c6F)c6ccc([nH]6)c(-c6c(F)c(F)c(F)c(F)c6F)c6nc(c(-c7c(F)c(F)c(F)c(F)c7F)c7ccc4[nH]7)C=C6)C=C5)cc3)C2)c([N+](=O)[O-])cc1F
REMARK SMILES IDX 16 1 15 2 14 3 13 4 11 5 12 6 10 8 7 9 8 10 86 11 9 12 6 13
REMARK SMILES IDX 5 15 3 16 4 17 92 18 91 19 93 20 87 21 2 22 1 23 88 24 89 25
REMARK SMILES IDX 90 26 17 27 18 28 19 29 20 30 21 31 22 33 23 34 24 35 85 36
REMARK SMILES IDX 25 37 84 38 26 39 27 40 28 41 78 42 29 43 83 44 77 45 79 46
REMARK SMILES IDX 30 47 82 48 76 49 75 50 31 52 63 53 43 54 62 55 44 56 47 57
REMARK SMILES IDX 61 58 80 59 45 60 46 61 60 63 81 64 48 65 32 66 33 67 41 68
REMARK SMILES IDX 34 69 35 70 39 71 42 72 36 73 37 74 40 75 38 76 64 77 65 78
REMARK SMILES IDX 73 79 66 80 67 81 71 82 74 83 68 84 69 85 72 86 70 87 49 88
REMARK SMILES IDX 50 89 58 90 51 91 52 92 56 93 59 94 53 95 54 96 57 97 55 98
REMARK H PARENT 13 7 6 14 20 32 79 51 47 62
REMARK Flexibility Score: inf
ROOT
ATOM      1  C   UNL A   1      32.264  29.455  26.880  1.00  0.00     0.002 C 
ENDROOT
BRANCH   1   2
ATOM      2  C   UNL A   1      31.433  28.199  27.166  1.00  0.00     0.021 C 
BRANCH   2   3
ATOM      3  C   UNL A   1      31.788  26.973  26.327  1.00  0.00     0.116 C 
BRANCH   3   4
ATOM      4  N   UNL A   1      31.342  25.727  26.899  1.00  0.00    -0.356 N 
ATOM      5  C   UNL A   1      31.806  24.462  26.716  1.00  0.00     0.227 C 
ATOM      6  O   UNL A   1      31.450  23.628  27.559  1.00  0.00    -0.274 OA
ATOM      7  H   UNL A   1      30.581  25.804  27.518  1.00  0.00     0.163 HD
BRANCH   5   8
ATOM      8  C   UNL A   1      32.754  24.031  25.585  1.00  0.00     0.103 C 
ATOM      9  C   UNL A   1      33.255  24.669  23.255  1.00  0.00     0.103 C 
ATOM     10  C   UNL A   1      34.291  25.148  24.203  1.00  0.00    -0.006 C 
ATOM     11  C   UNL A   1      32.227  23.939  24.146  1.00  0.00     0.046 C 
ATOM     12  C   UNL A   1      34.003  24.851  25.475  1.00  0.00    -0.016 C 
BRANCH   9  13
ATOM     13  N   UNL A   1      32.634  25.700  22.427  1.00  0.00    -0.373 N 
ATOM     14  H   UNL A   1      32.816  25.563  21.469  1.00  0.00     0.161 HD
BRANCH  13  15
ATOM     15  C   UNL A   1      31.854  26.820  22.651  1.00  0.00     0.117 A 
ATOM     16  C   UNL A   1      29.660  27.906  22.952  1.00  0.00     0.157 A 
ATOM     17  C   UNL A   1      30.455  26.762  22.795  1.00  0.00     0.082 A 
ATOM     18  C   UNL A   1      30.247  29.159  22.989  1.00  0.00     0.172 A 
ATOM     19  C   UNL A   1      31.619  29.286  22.856  1.00  0.00     0.131 A 
ATOM     20  F   UNL A   1      29.497  30.260  23.125  1.00  0.00    -0.203 F 
ATOM     21  C   UNL A   1      32.411  28.131  22.690  1.00  0.00     0.295 A 
BRANCH  16  22
ATOM     22  O   UNL A   1      28.318  27.761  23.180  1.00  0.00    -0.494 OA
ATOM     23  C   UNL A   1      28.037  26.617  23.985  1.00  0.00     0.278 C 
ENDBRANCH  16  22
BRANCH  21  24
ATOM     24  N   UNL A   1      33.858  28.354  22.530  1.00  0.00     0.065 N 
ATOM     25  O   UNL A   1      34.381  28.070  21.441  1.00  0.00    -0.258 OA
ATOM     26  O   UNL A   1      34.474  28.823  23.498  1.00  0.00    -0.258 OA
ENDBRANCH  21  24
ENDBRANCH  13  15
ENDBRANCH   9  13
ENDBRANCH   5   8
ENDBRANCH   3   4
ENDBRANCH   2   3
ENDBRANCH   1   2
BRANCH   1  27
ATOM     27  C   UNL A   1      31.571  30.571  26.085  1.00  0.00     0.002 C 
BRANCH  27  28
ATOM     28  C   UNL A   1      31.428  31.922  26.791  1.00  0.00     0.021 C 
BRANCH  28  29
ATOM     29  C   UNL A   1      32.725  32.639  27.158  1.00  0.00     0.116 C 
BRANCH  29  30
ATOM     30  N   UNL A   1      32.501  34.013  27.563  1.00  0.00    -0.352 N 
ATOM     31  C   UNL A   1      33.071  34.738  28.579  1.00  0.00     0.251 C 
ATOM     32  H   UNL A   1      31.839  34.503  27.024  1.00  0.00     0.163 HD
ATOM     33  O   UNL A   1      32.611  35.849  28.851  1.00  0.00    -0.269 OA
BRANCH  31  34
ATOM     34  C   UNL A   1      34.221  34.224  29.365  1.00  0.00     0.039 A 
ATOM     35  C   UNL A   1      35.513  34.429  28.862  1.00  0.00     0.014 A 
ATOM     36  C   UNL A   1      34.053  33.461  30.525  1.00  0.00     0.014 A 
ATOM     37  C   UNL A   1      36.623  33.884  29.516  1.00  0.00     0.010 A 
ATOM     38  C   UNL A   1      35.166  32.967  31.211  1.00  0.00     0.010 A 
ATOM     39  C   UNL A   1      36.460  33.147  30.697  1.00  0.00    -0.014 A 
BRANCH  39  40
ATOM     40  C   UNL A   1      37.621  32.494  31.358  1.00  0.00     0.031 A 
ATOM     41  C   UNL A   1      38.366  31.393  30.651  1.00  0.00     0.074 A 
ATOM     42  C   UNL A   1      38.003  32.868  32.593  1.00  0.00     0.049 A 
ATOM     43  N   UNL A   1      39.372  30.665  31.072  1.00  0.00    -0.248 NA
ATOM     44  C   UNL A   1      37.905  31.050  29.297  1.00  0.00     0.031 C 
ATOM     45  C   UNL A   1      37.359  33.908  33.395  1.00  0.00     0.029 A 
ATOM     46  N   UNL A   1      39.027  32.415  33.390  1.00  0.00    -0.354 N 
ATOM     47  C   UNL A   1      39.648  29.771  30.046  1.00  0.00     0.074 A 
ATOM     48  C   UNL A   1      38.678  30.015  29.001  1.00  0.00     0.031 C 
ATOM     49  C   UNL A   1      38.018  34.031  34.560  1.00  0.00     0.029 A 
ATOM     50  C   UNL A   1      39.112  33.062  34.598  1.00  0.00     0.049 A 
ATOM     51  H   UNL A   1      39.640  31.694  33.120  1.00  0.00     0.167 HD
ATOM     52  C   UNL A   1      40.634  28.845  29.969  1.00  0.00     0.037 A 
ATOM     53  C   UNL A   1      39.975  32.896  35.619  1.00  0.00     0.037 A 
ATOM     54  C   UNL A   1      41.622  28.622  30.992  1.00  0.00     0.049 A 
ATOM     55  C   UNL A   1      41.069  31.869  35.511  1.00  0.00     0.074 A 
ATOM     56  C   UNL A   1      42.678  27.728  30.990  1.00  0.00     0.029 A 
ATOM     57  N   UNL A   1      41.677  29.306  32.196  1.00  0.00    -0.354 N 
ATOM     58  N   UNL A   1      41.333  31.045  34.527  1.00  0.00    -0.248 NA
ATOM     59  C   UNL A   1      41.988  31.753  36.652  1.00  0.00     0.031 C 
ATOM     60  C   UNL A   1      43.357  27.850  32.207  1.00  0.00     0.029 A 
ATOM     61  C   UNL A   1      42.747  28.850  32.949  1.00  0.00     0.049 A 
ATOM     62  H   UNL A   1      41.050  30.011  32.476  1.00  0.00     0.167 HD
ATOM     63  C   UNL A   1      42.457  30.329  34.917  1.00  0.00     0.074 A 
ATOM     64  C   UNL A   1      42.832  30.822  36.226  1.00  0.00     0.031 C 
ATOM     65  C   UNL A   1      43.116  29.353  34.248  1.00  0.00     0.037 A 
BRANCH  52  66
ATOM     66  C   UNL A   1      40.697  28.005  28.727  1.00  0.00     0.064 A 
ATOM     67  C   UNL A   1      39.991  26.795  28.646  1.00  0.00     0.173 A 
ATOM     68  C   UNL A   1      41.483  28.382  27.627  1.00  0.00     0.173 A 
ATOM     69  F   UNL A   1      39.232  26.384  29.673  1.00  0.00    -0.203 F 
ATOM     70  C   UNL A   1      40.070  25.994  27.510  1.00  0.00     0.198 A 
ATOM     71  C   UNL A   1      41.535  27.592  26.481  1.00  0.00     0.198 A 
ATOM     72  F   UNL A   1      42.167  29.535  27.650  1.00  0.00    -0.203 F 
ATOM     73  F   UNL A   1      39.403  24.833  27.463  1.00  0.00    -0.200 F 
ATOM     74  C   UNL A   1      40.835  26.397  26.426  1.00  0.00     0.200 A 
ATOM     75  F   UNL A   1      42.253  27.997  25.424  1.00  0.00    -0.200 F 
ATOM     76  F   UNL A   1      40.890  25.637  25.324  1.00  0.00    -0.200 F 
ENDBRANCH  52  66
BRANCH  53  77
ATOM     77  C   UNL A   1      39.863  33.771  36.812  1.00  0.00     0.064 A 
ATOM     78  C   UNL A   1      39.041  33.429  37.896  1.00  0.00     0.173 A 
ATOM     79  C   UNL A   1      40.543  34.995  36.866  1.00  0.00     0.173 A 
ATOM     80  F   UNL A   1      38.370  32.268  37.889  1.00  0.00    -0.203 F 
ATOM     81  C   UNL A   1      38.887  34.291  38.980  1.00  0.00     0.198 A 
ATOM     82  C   UNL A   1      40.404  35.847  37.960  1.00  0.00     0.198 A 
ATOM     83  F   UNL A   1      41.356  35.353  35.862  1.00  0.00    -0.203 F 
ATOM     84  F   UNL A   1      38.072  33.956  39.988  1.00  0.00    -0.200 F 
ATOM     85  C   UNL A   1      39.569  35.499  39.011  1.00  0.00     0.200 A 
ATOM     86  F   UNL A   1      41.079  37.004  37.995  1.00  0.00    -0.200 F 
ATOM     87  F   UNL A   1      39.422  36.326  40.054  1.00  0.00    -0.200 F 
ENDBRANCH  53  77
BRANCH  65  88
ATOM     88  C   UNL A   1      44.330  28.759  34.898  1.00  0.00     0.064 A 
ATOM     89  C   UNL A   1      44.202  27.688  35.795  1.00  0.00     0.173 A 
ATOM     90  C   UNL A   1      45.608  29.299  34.697  1.00  0.00     0.173 A 
ATOM     91  F   UNL A   1      42.999  27.142  36.028  1.00  0.00    -0.203 F 
ATOM     92  C   UNL A   1      45.307  27.188  36.478  1.00  0.00     0.198 A 
ATOM     93  C   UNL A   1      46.715  28.782  35.364  1.00  0.00     0.198 A 
ATOM     94  F   UNL A   1      45.783  30.317  33.840  1.00  0.00    -0.203 F 
ATOM     95  F   UNL A   1      45.156  26.184  37.353  1.00  0.00    -0.200 F 
ATOM     96  C   UNL A   1      46.563  27.734  36.259  1.00  0.00     0.200 A 
ATOM     97  F   UNL A   1      47.932  29.297  35.137  1.00  0.00    -0.200 F 
ATOM     98  F   UNL A   1      47.628  27.248  36.912  1.00  0.00    -0.200 F 
ENDBRANCH  65  88
ENDBRANCH  39  40
ENDBRANCH  31  34
ENDBRANCH  29  30
ENDBRANCH  28  29
ENDBRANCH  27  28
ENDBRANCH   1  27
TORSDOF 17
ENDMDL
MODEL 3
REMARK VINA RESULT:     -11.3      0.549      7.327
REMARK SMILES COc1cc(N[C@H]2C=C[C@@H](C(=O)NCCCCCCNC(=O)c3ccc(-c4c5nc(c(-c6c(F)c(F)c(F)c(F)c6F)c6ccc([nH]6)c(-c6c(F)c(F)c(F)c(F)c6F)c6nc(c(-c7c(F)c(F)c(F)c(F)c7F)c7ccc4[nH]7)C=C6)C=C5)cc3)C2)c([N+](=O)[O-])cc1F
REMARK SMILES IDX 16 1 15 2 14 3 13 4 11 5 12 6 10 8 7 9 8 10 86 11 9 12 6 13
REMARK SMILES IDX 5 15 3 16 4 17 92 18 91 19 93 20 87 21 2 22 1 23 88 24 89 25
REMARK SMILES IDX 90 26 17 27 18 28 19 29 20 30 21 31 22 33 23 34 24 35 85 36
REMARK SMILES IDX 25 37 84 38 26 39 27 40 28 41 78 42 29 43 83 44 77 45 79 46
REMARK SMILES IDX 30 47 82 48 76 49 75 50 31 52 63 53 43 54 62 55 44 56 47 57
REMARK SMILES IDX 61 58 80 59 45 60 46 61 60 63 81 64 48 65 32 66 33 67 41 68
REMARK SMILES IDX 34 69 35 70 39 71 42 72 36 73 37 74 40 75 38 76 64 77 65 78
REMARK SMILES IDX 73 79 66 80 67 81 71 82 74 83 68 84 69 85 72 86 70 87 49 88
REMARK SMILES IDX 50 89 58 90 51 91 52 92 56 93 59 94 53 95 54 96 57 97 55 98
REMARK H PARENT 13 7 6 14 20 32 79 51 47 62
REMARK Flexibility Score: inf
ROOT
ATOM      1  C   UNL A   1      41.987  21.382  27.129  1.00  0.00     0.002 C 
ENDROOT
BRANCH   1   2
ATOM      2  C   UNL A   1      41.063  22.224  26.240  1.00  0.00     0.021 C 
BRANCH   2   3
ATOM      3  C   UNL A   1      39.601  21.785  26.214  1.00  0.00     0.116 C 
BRANCH   3   4
ATOM      4  N   UNL A   1      38.739  22.676  25.478  1.00  0.00    -0.356 N 
ATOM      5  C   UNL A   1      37.382  22.732  25.416  1.00  0.00     0.227 C 
ATOM      6  O   UNL A   1      36.903  23.779  24.962  1.00  0.00    -0.274 OA
ATOM      7  H   UNL A   1      39.206  23.349  24.933  1.00  0.00     0.163 HD
BRANCH   5   8
ATOM      8  C   UNL A   1      36.436  21.622  25.904  1.00  0.00     0.103 C 
ATOM      9  C   UNL A   1      34.025  21.100  25.855  1.00  0.00     0.103 C 
ATOM     10  C   UNL A   1      34.796  20.284  24.884  1.00  0.00    -0.006 C 
ATOM     11  C   UNL A   1      35.085  21.996  26.530  1.00  0.00     0.046 C 
ATOM     12  C   UNL A   1      36.097  20.595  24.868  1.00  0.00    -0.016 C 
BRANCH   9  13
ATOM     13  N   UNL A   1      32.925  21.878  25.290  1.00  0.00    -0.373 N 
ATOM     14  H   UNL A   1      32.144  21.315  25.082  1.00  0.00     0.161 HD
BRANCH  13  15
ATOM     15  C   UNL A   1      32.704  23.206  24.975  1.00  0.00     0.117 A 
ATOM     16  C   UNL A   1      33.114  25.197  23.579  1.00  0.00     0.157 A 
ATOM     17  C   UNL A   1      33.284  23.834  23.856  1.00  0.00     0.082 A 
ATOM     18  C   UNL A   1      32.334  25.983  24.409  1.00  0.00     0.172 A 
ATOM     19  C   UNL A   1      31.733  25.428  25.525  1.00  0.00     0.131 A 
ATOM     20  F   UNL A   1      32.176  27.290  24.162  1.00  0.00    -0.203 F 
ATOM     21  C   UNL A   1      31.915  24.056  25.803  1.00  0.00     0.295 A 
BRANCH  16  22
ATOM     22  O   UNL A   1      33.632  25.713  22.421  1.00  0.00    -0.494 OA
ATOM     23  C   UNL A   1      32.756  25.516  21.313  1.00  0.00     0.278 C 
ENDBRANCH  16  22
BRANCH  21  24
ATOM     24  N   UNL A   1      31.263  23.549  27.022  1.00  0.00     0.065 N 
ATOM     25  O   UNL A   1      30.036  23.694  27.138  1.00  0.00    -0.258 OA
ATOM     26  O   UNL A   1      31.983  22.994  27.865  1.00  0.00    -0.258 OA
ENDBRANCH  21  24
ENDBRANCH  13  15
ENDBRANCH   9  13
ENDBRANCH   5   8
ENDBRANCH   3   4
ENDBRANCH   2   3
ENDBRANCH   1   2
BRANCH   1  27
ATOM     27  C   UNL A   1      41.659  19.887  27.240  1.00  0.00     0.002 C 
BRANCH  27  28
ATOM     28  C   UNL A   1      42.104  19.003  26.072  1.00  0.00     0.021 C 
BRANCH  28  29
ATOM     29  C   UNL A   1      43.571  18.583  26.057  1.00  0.00     0.116 C 
BRANCH  29  30
ATOM     30  N   UNL A   1      44.146  18.630  24.727  1.00  0.00    -0.352 N 
ATOM     31  C   UNL A   1      44.610  19.700  24.004  1.00  0.00     0.251 C 
ATOM     32  H   UNL A   1      44.215  17.761  24.271  1.00  0.00     0.163 HD
ATOM     33  O   UNL A   1      44.908  19.536  22.819  1.00  0.00    -0.269 OA
BRANCH  31  34
ATOM     34  C   UNL A   1      44.762  21.050  24.603  1.00  0.00     0.039 A 
ATOM     35  C   UNL A   1      44.260  22.151  23.896  1.00  0.00     0.014 A 
ATOM     36  C   UNL A   1      45.472  21.266  25.789  1.00  0.00     0.014 A 
ATOM     37  C   UNL A   1      44.460  23.451  24.373  1.00  0.00     0.010 A 
ATOM     38  C   UNL A   1      45.621  22.560  26.296  1.00  0.00     0.010 A 
ATOM     39  C   UNL A   1      45.143  23.668  25.578  1.00  0.00    -0.014 A 
BRANCH  39  40
ATOM     40  C   UNL A   1      45.434  25.046  26.056  1.00  0.00     0.031 A 
ATOM     41  C   UNL A   1      44.345  25.865  26.697  1.00  0.00     0.074 A 
ATOM     42  C   UNL A   1      46.663  25.574  25.905  1.00  0.00     0.049 A 
ATOM     43  N   UNL A   1      44.382  27.100  27.135  1.00  0.00    -0.248 NA
ATOM     44  C   UNL A   1      43.034  25.216  26.845  1.00  0.00     0.031 C 
ATOM     45  C   UNL A   1      47.802  24.897  25.288  1.00  0.00     0.029 A 
ATOM     46  N   UNL A   1      47.158  26.806  26.262  1.00  0.00    -0.354 N 
ATOM     47  C   UNL A   1      43.100  27.377  27.591  1.00  0.00     0.074 A 
ATOM     48  C   UNL A   1      42.297  26.201  27.335  1.00  0.00     0.031 C 
ATOM     49  C   UNL A   1      48.870  25.711  25.332  1.00  0.00     0.029 A 
ATOM     50  C   UNL A   1      48.484  26.977  25.954  1.00  0.00     0.049 A 
ATOM     51  H   UNL A   1      46.611  27.500  26.697  1.00  0.00     0.167 HD
ATOM     52  C   UNL A   1      42.636  28.501  28.189  1.00  0.00     0.037 A 
ATOM     53  C   UNL A   1      49.299  28.031  26.153  1.00  0.00     0.037 A 
ATOM     54  C   UNL A   1      43.439  29.660  28.475  1.00  0.00     0.049 A 
ATOM     55  C   UNL A   1      48.768  29.266  26.827  1.00  0.00     0.074 A 
ATOM     56  C   UNL A   1      43.066  30.834  29.106  1.00  0.00     0.029 A 
ATOM     57  N   UNL A   1      44.782  29.788  28.154  1.00  0.00    -0.354 N 
ATOM     58  N   UNL A   1      47.560  29.509  27.273  1.00  0.00    -0.248 NA
ATOM     59  C   UNL A   1      49.715  30.372  27.032  1.00  0.00     0.031 C 
ATOM     60  C   UNL A   1      44.175  31.685  29.141  1.00  0.00     0.029 A 
ATOM     61  C   UNL A   1      45.251  31.024  28.569  1.00  0.00     0.049 A 
ATOM     62  H   UNL A   1      45.322  29.103  27.699  1.00  0.00     0.167 HD
ATOM     63  C   UNL A   1      47.605  30.780  27.828  1.00  0.00     0.074 A 
ATOM     64  C   UNL A   1      48.963  31.257  27.672  1.00  0.00     0.031 C 
ATOM     65  C   UNL A   1      46.607  31.486  28.415  1.00  0.00     0.037 A 
BRANCH  52  66
ATOM     66  C   UNL A   1      41.188  28.527  28.583  1.00  0.00     0.064 A 
ATOM     67  C   UNL A   1      40.214  29.009  27.694  1.00  0.00     0.173 A 
ATOM     68  C   UNL A   1      40.767  28.105  29.852  1.00  0.00     0.173 A 
ATOM     69  F   UNL A   1      40.566  29.433  26.471  1.00  0.00    -0.203 F 
ATOM     70  C   UNL A   1      38.873  29.066  28.063  1.00  0.00     0.198 A 
ATOM     71  C   UNL A   1      39.420  28.136  30.207  1.00  0.00     0.198 A 
ATOM     72  F   UNL A   1      41.656  27.625  30.734  1.00  0.00    -0.203 F 
ATOM     73  F   UNL A   1      37.964  29.548  27.205  1.00  0.00    -0.200 F 
ATOM     74  C   UNL A   1      38.476  28.622  29.315  1.00  0.00     0.200 A 
ATOM     75  F   UNL A   1      39.035  27.681  31.407  1.00  0.00    -0.200 F 
ATOM     76  F   UNL A   1      37.182  28.656  29.660  1.00  0.00    -0.200 F 
ENDBRANCH  52  66
BRANCH  53  77
ATOM     77  C   UNL A   1      50.725  27.931  25.751  1.00  0.00     0.064 A 
ATOM     78  C   UNL A   1      51.734  27.677  26.690  1.00  0.00     0.173 A 
ATOM     79  C   UNL A   1      51.106  28.137  24.418  1.00  0.00     0.173 A 
ATOM     80  F   UNL A   1      51.417  27.474  27.978  1.00  0.00    -0.203 F 
ATOM     81  C   UNL A   1      53.076  27.656  26.314  1.00  0.00     0.198 A 
ATOM     82  C   UNL A   1      52.446  28.096  24.040  1.00  0.00     0.198 A 
ATOM     83  F   UNL A   1      50.172  28.362  23.483  1.00  0.00    -0.203 F 
ATOM     84  F   UNL A   1      54.024  27.442  27.236  1.00  0.00    -0.200 F 
ATOM     85  C   UNL A   1      53.430  27.864  24.989  1.00  0.00     0.200 A 
ATOM     86  F   UNL A   1      52.784  28.279  22.757  1.00  0.00    -0.200 F 
ATOM     87  F   UNL A   1      54.719  27.842  24.628  1.00  0.00    -0.200 F 
ENDBRANCH  53  77
BRANCH  65  88
ATOM     88  C   UNL A   1      46.940  32.843  28.958  1.00  0.00     0.064 A 
ATOM     89  C   UNL A   1      47.349  32.993  30.291  1.00  0.00     0.173 A 
ATOM     90  C   UNL A   1      46.777  34.002  28.185  1.00  0.00     0.173 A 
ATOM     91  F   UNL A   1      47.512  31.916  31.074  1.00  0.00    -0.203 F 
ATOM     92  C   UNL A   1      47.571  34.255  30.835  1.00  0.00     0.198 A 
ATOM     93  C   UNL A   1      47.021  35.261  28.726  1.00  0.00     0.198 A 
ATOM     94  F   UNL A   1      46.397  33.908  26.901  1.00  0.00    -0.203 F 
ATOM     95  F   UNL A   1      47.934  34.377  32.120  1.00  0.00    -0.200 F 
ATOM     96  C   UNL A   1      47.409  35.388  30.051  1.00  0.00     0.200 A 
ATOM     97  F   UNL A   1      46.884  36.354  27.962  1.00  0.00    -0.200 F 
ATOM     98  F   UNL A   1      47.629  36.602  30.574  1.00  0.00    -0.200 F 
ENDBRANCH  65  88
ENDBRANCH  39  40
ENDBRANCH  31  34
ENDBRANCH  29  30
ENDBRANCH  28  29
ENDBRANCH  27  28
ENDBRANCH   1  27
TORSDOF 17
ENDMDL
