MODEL 1
REMARK VINA RESULT:     -12.4      0.000      0.000
REMARK SMILES O=C(NCCCCCCNC(=O)[C@H]1C=C[C@H](NC(=O)c2ccc(Br)c([N+](=O)[O-])c2)C1)c1ccc(-c2c3nc(c(-c4c(F)c(F)c(F)c(F)c4F)c4ccc([nH]4)c(-c4c(F)c(F)c(F)c(F)c4F)c4nc(c(-c5c(F)c(F)c(F)c(F)c5F)c5ccc2[nH]5)C=C4)C=C3)cc1
REMARK SMILES IDX 7 1 6 2 5 3 4 4 3 5 1 6 2 7 31 9 32 10 93 11 33 12 92 13
REMARK SMILES IDX 34 14 35 15 36 16 86 17 37 18 91 19 85 20 87 21 38 22 90 23
REMARK SMILES IDX 84 24 83 25 39 27 71 28 51 29 70 30 52 31 55 32 69 33 88 34
REMARK SMILES IDX 53 35 54 36 68 38 89 39 56 40 40 41 41 42 49 43 42 44 43 45
REMARK SMILES IDX 47 46 50 47 44 48 45 49 48 50 46 51 72 52 73 53 81 54 74 55
REMARK SMILES IDX 75 56 79 57 82 58 76 59 77 60 80 61 78 62 57 63 58 64 66 65
REMARK SMILES IDX 59 66 60 67 64 68 67 69 61 70 62 71 65 72 63 73 8 74 9 75
REMARK SMILES IDX 10 76 11 77 12 79 13 80 14 81 30 82 15 83 16 84 17 85 18 86
REMARK SMILES IDX 19 88 20 89 21 90 29 91 22 92 25 93 23 94 24 95 26 96 27 97
REMARK SMILES IDX 28 98
REMARK H PARENT 3 8 87 26 55 37 10 78 17 87
REMARK Flexibility Score: inf
ROOT
ATOM      1  C   UNL A   1      37.761  22.077  25.442  1.00  0.00     0.002 C 
ENDROOT
BRANCH   1   2
ATOM      2  C   UNL A   1      37.491  20.827  24.598  1.00  0.00     0.002 C 
BRANCH   2   3
ATOM      3  C   UNL A   1      38.288  19.586  25.003  1.00  0.00     0.021 C 
BRANCH   3   4
ATOM      4  C   UNL A   1      39.266  19.807  26.151  1.00  0.00     0.116 C 
BRANCH   4   5
ATOM      5  N   UNL A   1      40.427  18.933  26.057  1.00  0.00    -0.352 N 
ATOM      6  O   UNL A   1      42.601  18.409  25.755  1.00  0.00    -0.269 OA
ATOM      7  C   UNL A   1      41.757  19.258  26.035  1.00  0.00     0.251 C 
ATOM      8  H   UNL A   1      40.226  17.971  26.003  1.00  0.00     0.163 HD
BRANCH   7   9
ATOM      9  C   UNL A   1      42.176  20.640  26.337  1.00  0.00     0.039 A 
ATOM     10  C   UNL A   1      42.302  21.580  25.311  1.00  0.00     0.014 A 
ATOM     11  C   UNL A   1      42.432  21.003  27.662  1.00  0.00     0.014 A 
ATOM     12  C   UNL A   1      42.807  22.843  25.589  1.00  0.00     0.010 A 
ATOM     13  C   UNL A   1      42.854  22.302  27.953  1.00  0.00     0.010 A 
ATOM     14  C   UNL A   1      43.064  23.225  26.915  1.00  0.00    -0.014 A 
BRANCH  14  15
ATOM     15  C   UNL A   1      43.472  24.622  27.203  1.00  0.00     0.031 A 
ATOM     16  C   UNL A   1      42.495  25.622  27.747  1.00  0.00     0.074 A 
ATOM     17  C   UNL A   1      44.746  24.980  26.957  1.00  0.00     0.049 A 
ATOM     18  N   UNL A   1      42.680  26.888  28.026  1.00  0.00    -0.248 NA
ATOM     19  C   UNL A   1      41.128  25.144  28.000  1.00  0.00     0.031 C 
ATOM     20  C   UNL A   1      45.776  24.094  26.409  1.00  0.00     0.029 A 
ATOM     21  N   UNL A   1      45.393  26.175  27.130  1.00  0.00    -0.354 N 
ATOM     22  C   UNL A   1      41.453  27.363  28.470  1.00  0.00     0.074 A 
ATOM     23  C   UNL A   1      40.522  26.256  28.394  1.00  0.00     0.031 C 
ATOM     24  C   UNL A   1      46.929  24.767  26.314  1.00  0.00     0.029 A 
ATOM     25  C   UNL A   1      46.705  26.147  26.727  1.00  0.00     0.049 A 
ATOM     26  H   UNL A   1      44.961  26.976  27.507  1.00  0.00     0.167 HD
ATOM     27  C   UNL A   1      41.141  28.608  28.905  1.00  0.00     0.037 A 
ATOM     28  C   UNL A   1      47.621  27.131  26.663  1.00  0.00     0.037 A 
ATOM     29  C   UNL A   1      42.081  29.698  28.978  1.00  0.00     0.049 A 
ATOM     30  C   UNL A   1      47.241  28.509  27.122  1.00  0.00     0.074 A 
ATOM     31  C   UNL A   1      41.879  30.982  29.452  1.00  0.00     0.029 A 
ATOM     32  N   UNL A   1      43.401  29.637  28.550  1.00  0.00    -0.354 N 
ATOM     33  N   UNL A   1      46.093  28.934  27.591  1.00  0.00    -0.248 NA
ATOM     34  C   UNL A   1      48.280  29.542  27.044  1.00  0.00     0.031 C 
ATOM     35  C   UNL A   1      43.053  31.716  29.250  1.00  0.00     0.029 A 
ATOM     36  C   UNL A   1      44.012  30.871  28.714  1.00  0.00     0.049 A 
ATOM     37  H   UNL A   1      43.839  28.835  28.183  1.00  0.00     0.167 HD
ATOM     38  C   UNL A   1      46.275  30.278  27.881  1.00  0.00     0.074 A 
ATOM     39  C   UNL A   1      47.651  30.591  27.552  1.00  0.00     0.031 C 
ATOM     40  C   UNL A   1      45.382  31.170  28.375  1.00  0.00     0.037 A 
BRANCH  27  41
ATOM     41  C   UNL A   1      39.715  28.869  29.305  1.00  0.00     0.064 A 
ATOM     42  C   UNL A   1      39.272  28.714  30.628  1.00  0.00     0.173 A 
ATOM     43  C   UNL A   1      38.782  29.309  28.352  1.00  0.00     0.173 A 
ATOM     44  F   UNL A   1      40.119  28.290  31.578  1.00  0.00    -0.203 F 
ATOM     45  C   UNL A   1      37.944  28.951  30.973  1.00  0.00     0.198 A 
ATOM     46  C   UNL A   1      37.462  29.579  28.709  1.00  0.00     0.198 A 
ATOM     47  F   UNL A   1      39.150  29.486  27.075  1.00  0.00    -0.203 F 
ATOM     48  F   UNL A   1      37.532  28.740  32.231  1.00  0.00    -0.200 F 
ATOM     49  C   UNL A   1      37.042  29.389  30.016  1.00  0.00     0.200 A 
ATOM     50  F   UNL A   1      36.597  30.018  27.784  1.00  0.00    -0.200 F 
ATOM     51  F   UNL A   1      35.765  29.620  30.350  1.00  0.00    -0.200 F 
ENDBRANCH  27  41
BRANCH  28  52
ATOM     52  C   UNL A   1      48.972  26.833  26.125  1.00  0.00     0.064 A 
ATOM     53  C   UNL A   1      49.979  26.303  26.940  1.00  0.00     0.173 A 
ATOM     54  C   UNL A   1      49.269  27.038  24.767  1.00  0.00     0.173 A 
ATOM     55  F   UNL A   1      49.749  26.104  28.245  1.00  0.00    -0.203 F 
ATOM     56  C   UNL A   1      51.237  25.999  26.422  1.00  0.00     0.198 A 
ATOM     57  C   UNL A   1      50.515  26.703  24.244  1.00  0.00     0.198 A 
ATOM     58  F   UNL A   1      48.335  27.534  23.943  1.00  0.00    -0.203 F 
ATOM     59  F   UNL A   1      52.195  25.528  27.231  1.00  0.00    -0.200 F 
ATOM     60  C   UNL A   1      51.500  26.191  25.074  1.00  0.00     0.200 A 
ATOM     61  F   UNL A   1      50.757  26.869  22.936  1.00  0.00    -0.200 F 
ATOM     62  F   UNL A   1      52.704  25.884  24.573  1.00  0.00    -0.200 F 
ENDBRANCH  28  52
BRANCH  40  63
ATOM     63  C   UNL A   1      45.873  32.569  28.617  1.00  0.00     0.064 A 
ATOM     64  C   UNL A   1      45.768  33.568  27.637  1.00  0.00     0.173 A 
ATOM     65  C   UNL A   1      46.421  32.924  29.860  1.00  0.00     0.173 A 
ATOM     66  F   UNL A   1      45.269  33.277  26.426  1.00  0.00    -0.203 F 
ATOM     67  C   UNL A   1      46.213  34.864  27.886  1.00  0.00     0.198 A 
ATOM     68  C   UNL A   1      46.834  34.227  30.116  1.00  0.00     0.198 A 
ATOM     69  F   UNL A   1      46.541  32.007  30.832  1.00  0.00    -0.203 F 
ATOM     70  F   UNL A   1      46.147  35.790  26.920  1.00  0.00    -0.200 F 
ATOM     71  C   UNL A   1      46.737  35.194  29.128  1.00  0.00     0.200 A 
ATOM     72  F   UNL A   1      47.325  34.548  31.321  1.00  0.00    -0.200 F 
ATOM     73  F   UNL A   1      47.154  36.445  29.369  1.00  0.00    -0.200 F 
ENDBRANCH  40  63
ENDBRANCH  14  15
ENDBRANCH   7   9
ENDBRANCH   4   5
ENDBRANCH   3   4
ENDBRANCH   2   3
ENDBRANCH   1   2
BRANCH   1  74
ATOM     74  C   UNL A   1      36.795  23.236  25.200  1.00  0.00     0.021 C 
BRANCH  74  75
ATOM     75  C   UNL A   1      35.819  23.482  26.343  1.00  0.00     0.116 C 
BRANCH  75  76
ATOM     76  N   UNL A   1      35.044  22.292  26.653  1.00  0.00    -0.356 N 
ATOM     77  C   UNL A   1      34.116  21.622  25.904  1.00  0.00     0.227 C 
ATOM     78  H   UNL A   1      35.212  21.907  27.543  1.00  0.00     0.163 HD
ATOM     79  O   UNL A   1      33.539  20.658  26.404  1.00  0.00    -0.274 OA
BRANCH  77  80
ATOM     80  C   UNL A   1      33.871  22.070  24.470  1.00  0.00     0.103 C 
ATOM     81  C   UNL A   1      33.056  21.075  23.696  1.00  0.00    -0.016 C 
ATOM     82  C   UNL A   1      33.049  23.355  24.347  1.00  0.00     0.047 C 
ATOM     83  C   UNL A   1      32.183  21.691  22.887  1.00  0.00    -0.006 C 
ATOM     84  C   UNL A   1      32.214  23.167  23.076  1.00  0.00     0.106 C 
BRANCH  84  85
ATOM     85  N   UNL A   1      32.680  23.880  21.893  1.00  0.00    -0.346 N 
ATOM     86  C   UNL A   1      32.660  25.175  21.453  1.00  0.00     0.251 C 
ATOM     87  H   UNL A   1      33.117  23.278  21.249  1.00  0.00     0.164 HD
ATOM     88  O   UNL A   1      32.918  25.417  20.276  1.00  0.00    -0.269 OA
BRANCH  86  89
ATOM     89  C   UNL A   1      32.323  26.318  22.317  1.00  0.00     0.046 A 
ATOM     90  C   UNL A   1      33.198  26.746  23.317  1.00  0.00     0.015 A 
ATOM     91  C   UNL A   1      31.169  27.059  22.038  1.00  0.00     0.100 A 
ATOM     92  C   UNL A   1      32.871  27.852  24.108  1.00  0.00     0.024 A 
ATOM     93  C   UNL A   1      30.855  28.186  22.822  1.00  0.00     0.284 A 
ATOM     94  C   UNL A   1      31.696  28.580  23.873  1.00  0.00     0.095 A 
ATOM     95  Br  UNL A   1      31.400  30.070  25.014  1.00  0.00    -0.043 Br
BRANCH  93  96
ATOM     96  N   UNL A   1      29.612  28.886  22.514  1.00  0.00     0.063 N 
ATOM     97  O   UNL A   1      29.646  29.717  21.597  1.00  0.00    -0.258 OA
ATOM     98  O   UNL A   1      28.589  28.556  23.125  1.00  0.00    -0.258 OA
ENDBRANCH  93  96
ENDBRANCH  86  89
ENDBRANCH  84  85
ENDBRANCH  77  80
ENDBRANCH  75  76
ENDBRANCH  74  75
ENDBRANCH   1  74
TORSDOF 16
ENDMDL
MODEL 2
REMARK VINA RESULT:     -12.3      5.590     11.185
REMARK SMILES O=C(NCCCCCCNC(=O)[C@H]1C=C[C@H](NC(=O)c2ccc(Br)c([N+](=O)[O-])c2)C1)c1ccc(-c2c3nc(c(-c4c(F)c(F)c(F)c(F)c4F)c4ccc([nH]4)c(-c4c(F)c(F)c(F)c(F)c4F)c4nc(c(-c5c(F)c(F)c(F)c(F)c5F)c5ccc2[nH]5)C=C4)C=C3)cc1
REMARK SMILES IDX 7 1 6 2 5 3 4 4 3 5 1 6 2 7 31 9 32 10 93 11 33 12 92 13
REMARK SMILES IDX 34 14 35 15 36 16 86 17 37 18 91 19 85 20 87 21 38 22 90 23
REMARK SMILES IDX 84 24 83 25 39 27 71 28 51 29 70 30 52 31 55 32 69 33 88 34
REMARK SMILES IDX 53 35 54 36 68 38 89 39 56 40 40 41 41 42 49 43 42 44 43 45
REMARK SMILES IDX 47 46 50 47 44 48 45 49 48 50 46 51 72 52 73 53 81 54 74 55
REMARK SMILES IDX 75 56 79 57 82 58 76 59 77 60 80 61 78 62 57 63 58 64 66 65
REMARK SMILES IDX 59 66 60 67 64 68 67 69 61 70 62 71 65 72 63 73 8 74 9 75
REMARK SMILES IDX 10 76 11 77 12 79 13 80 14 81 30 82 15 83 16 84 17 85 18 86
REMARK SMILES IDX 19 88 20 89 21 90 29 91 22 92 25 93 23 94 24 95 26 96 27 97
REMARK SMILES IDX 28 98
REMARK H PARENT 3 8 87 26 55 37 10 78 17 87
REMARK Flexibility Score: inf
ROOT
ATOM      1  C   UNL A   1      32.959  30.444  27.054  1.00  0.00     0.002 C 
ENDROOT
BRANCH   1   2
ATOM      2  C   UNL A   1      31.559  31.001  26.783  1.00  0.00     0.002 C 
BRANCH   2   3
ATOM      3  C   UNL A   1      31.459  32.528  26.770  1.00  0.00     0.021 C 
BRANCH   3   4
ATOM      4  C   UNL A   1      32.745  33.249  27.154  1.00  0.00     0.116 C 
BRANCH   4   5
ATOM      5  N   UNL A   1      32.483  34.536  27.784  1.00  0.00    -0.352 N 
ATOM      6  O   UNL A   1      32.551  36.089  29.420  1.00  0.00    -0.269 OA
ATOM      7  C   UNL A   1      33.028  35.073  28.920  1.00  0.00     0.251 C 
ATOM      8  H   UNL A   1      31.819  35.102  27.326  1.00  0.00     0.163 HD
BRANCH   7   9
ATOM      9  C   UNL A   1      34.188  34.415  29.553  1.00  0.00     0.039 A 
ATOM     10  C   UNL A   1      34.016  33.616  30.686  1.00  0.00     0.014 A 
ATOM     11  C   UNL A   1      35.459  34.589  28.999  1.00  0.00     0.014 A 
ATOM     12  C   UNL A   1      35.125  33.097  31.341  1.00  0.00     0.010 A 
ATOM     13  C   UNL A   1      36.565  33.992  29.607  1.00  0.00     0.010 A 
ATOM     14  C   UNL A   1      36.407  33.259  30.794  1.00  0.00    -0.014 A 
BRANCH  14  15
ATOM     15  C   UNL A   1      37.561  32.580  31.436  1.00  0.00     0.031 A 
ATOM     16  C   UNL A   1      38.260  31.434  30.767  1.00  0.00     0.074 A 
ATOM     17  C   UNL A   1      37.966  33.013  32.644  1.00  0.00     0.049 A 
ATOM     18  N   UNL A   1      39.264  30.714  31.202  1.00  0.00    -0.248 NA
ATOM     19  C   UNL A   1      37.763  31.035  29.443  1.00  0.00     0.031 C 
ATOM     20  C   UNL A   1      37.346  34.107  33.395  1.00  0.00     0.029 A 
ATOM     21  N   UNL A   1      38.987  32.591  33.454  1.00  0.00    -0.354 N 
ATOM     22  C   UNL A   1      39.507  29.766  30.217  1.00  0.00     0.074 A 
ATOM     23  C   UNL A   1      38.525  29.984  29.174  1.00  0.00     0.031 C 
ATOM     24  C   UNL A   1      38.013  34.286  34.542  1.00  0.00     0.029 A 
ATOM     25  C   UNL A   1      39.061  33.277  34.640  1.00  0.00     0.049 A 
ATOM     26  H   UNL A   1      39.608  31.867  33.210  1.00  0.00     0.167 HD
ATOM     27  C   UNL A   1      40.467  28.810  30.188  1.00  0.00     0.037 A 
ATOM     28  C   UNL A   1      39.861  33.096  35.707  1.00  0.00     0.037 A 
ATOM     29  C   UNL A   1      41.439  28.609  31.233  1.00  0.00     0.049 A 
ATOM     30  C   UNL A   1      40.895  32.009  35.664  1.00  0.00     0.074 A 
ATOM     31  C   UNL A   1      42.484  27.703  31.277  1.00  0.00     0.029 A 
ATOM     32  N   UNL A   1      41.476  29.317  32.427  1.00  0.00    -0.354 N 
ATOM     33  N   UNL A   1      41.152  31.154  34.704  1.00  0.00    -0.248 NA
ATOM     34  C   UNL A   1      41.750  31.862  36.847  1.00  0.00     0.031 C 
ATOM     35  C   UNL A   1      43.111  27.817  32.523  1.00  0.00     0.029 A 
ATOM     36  C   UNL A   1      42.503  28.841  33.230  1.00  0.00     0.049 A 
ATOM     37  H   UNL A   1      40.864  30.049  32.669  1.00  0.00     0.167 HD
ATOM     38  C   UNL A   1      42.208  30.379  35.159  1.00  0.00     0.074 A 
ATOM     39  C   UNL A   1      42.556  30.879  36.473  1.00  0.00     0.031 C 
ATOM     40  C   UNL A   1      42.833  29.346  34.541  1.00  0.00     0.037 A 
BRANCH  27  41
ATOM     41  C   UNL A   1      40.492  27.883  29.004  1.00  0.00     0.064 A 
ATOM     42  C   UNL A   1      39.730  26.706  28.964  1.00  0.00     0.173 A 
ATOM     43  C   UNL A   1      41.273  28.194  27.878  1.00  0.00     0.173 A 
ATOM     44  F   UNL A   1      38.971  26.356  30.013  1.00  0.00    -0.203 F 
ATOM     45  C   UNL A   1      39.777  25.857  27.860  1.00  0.00     0.198 A 
ATOM     46  C   UNL A   1      41.290  27.359  26.763  1.00  0.00     0.198 A 
ATOM     47  F   UNL A   1      42.014  29.311  27.856  1.00  0.00    -0.203 F 
ATOM     48  F   UNL A   1      39.084  24.709  27.869  1.00  0.00    -0.200 F 
ATOM     49  C   UNL A   1      40.552  26.187  26.759  1.00  0.00     0.200 A 
ATOM     50  F   UNL A   1      42.027  27.690  25.693  1.00  0.00    -0.200 F 
ATOM     51  F   UNL A   1      40.594  25.370  25.697  1.00  0.00    -0.200 F 
ENDBRANCH  27  41
BRANCH  28  52
ATOM     52  C   UNL A   1      39.686  33.960  36.902  1.00  0.00     0.064 A 
ATOM     53  C   UNL A   1      38.903  33.550  37.988  1.00  0.00     0.173 A 
ATOM     54  C   UNL A   1      40.336  35.202  36.996  1.00  0.00     0.173 A 
ATOM     55  F   UNL A   1      38.251  32.380  37.938  1.00  0.00    -0.203 F 
ATOM     56  C   UNL A   1      38.766  34.353  39.118  1.00  0.00     0.198 A 
ATOM     57  C   UNL A   1      40.226  35.988  38.139  1.00  0.00     0.198 A 
ATOM     58  F   UNL A   1      41.106  35.635  35.986  1.00  0.00    -0.203 F 
ATOM     59  F   UNL A   1      37.982  33.955  40.128  1.00  0.00    -0.200 F 
ATOM     60  C   UNL A   1      39.435  35.566  39.197  1.00  0.00     0.200 A 
ATOM     61  F   UNL A   1      40.891  37.148  38.219  1.00  0.00    -0.200 F 
ATOM     62  F   UNL A   1      39.315  36.330  40.290  1.00  0.00    -0.200 F 
ENDBRANCH  28  52
BRANCH  40  63
ATOM     63  C   UNL A   1      43.977  28.702  35.270  1.00  0.00     0.064 A 
ATOM     64  C   UNL A   1      43.777  27.646  36.173  1.00  0.00     0.173 A 
ATOM     65  C   UNL A   1      45.295  29.122  35.033  1.00  0.00     0.173 A 
ATOM     66  F   UNL A   1      42.536  27.220  36.450  1.00  0.00    -0.203 F 
ATOM     67  C   UNL A   1      44.854  27.051  36.827  1.00  0.00     0.198 A 
ATOM     68  C   UNL A   1      46.370  28.502  35.662  1.00  0.00     0.198 A 
ATOM     69  F   UNL A   1      45.542  30.124  34.176  1.00  0.00    -0.203 F 
ATOM     70  F   UNL A   1      44.635  26.077  37.721  1.00  0.00    -0.200 F 
ATOM     71  C   UNL A   1      46.149  27.473  36.564  1.00  0.00     0.200 A 
ATOM     72  F   UNL A   1      47.621  28.901  35.396  1.00  0.00    -0.200 F 
ATOM     73  F   UNL A   1      47.183  26.890  37.186  1.00  0.00    -0.200 F 
ENDBRANCH  40  63
ENDBRANCH  14  15
ENDBRANCH   7   9
ENDBRANCH   4   5
ENDBRANCH   3   4
ENDBRANCH   2   3
ENDBRANCH   1   2
BRANCH   1  74
ATOM     74  C   UNL A   1      33.134  28.961  26.729  1.00  0.00     0.021 C 
BRANCH  74  75
ATOM     75  C   UNL A   1      34.041  28.688  25.536  1.00  0.00     0.116 C 
BRANCH  75  76
ATOM     76  N   UNL A   1      33.417  29.083  24.284  1.00  0.00    -0.356 N 
ATOM     77  C   UNL A   1      32.234  28.685  23.724  1.00  0.00     0.227 C 
ATOM     78  H   UNL A   1      33.925  29.740  23.756  1.00  0.00     0.163 HD
ATOM     79  O   UNL A   1      31.934  29.118  22.612  1.00  0.00    -0.274 OA
BRANCH  77  80
ATOM     80  C   UNL A   1      31.321  27.761  24.517  1.00  0.00     0.103 C 
ATOM     81  C   UNL A   1      29.908  27.788  24.012  1.00  0.00    -0.016 C 
ATOM     82  C   UNL A   1      31.692  26.280  24.420  1.00  0.00     0.047 C 
ATOM     83  C   UNL A   1      29.363  26.565  24.039  1.00  0.00    -0.006 C 
ATOM     84  C   UNL A   1      30.352  25.537  24.463  1.00  0.00     0.106 C 
BRANCH  84  85
ATOM     85  N   UNL A   1      30.008  24.909  25.733  1.00  0.00    -0.346 N 
ATOM     86  C   UNL A   1      30.409  23.797  26.421  1.00  0.00     0.251 C 
ATOM     87  H   UNL A   1      29.314  25.412  26.215  1.00  0.00     0.164 HD
ATOM     88  O   UNL A   1      29.736  23.399  27.369  1.00  0.00    -0.269 OA
BRANCH  86  89
ATOM     89  C   UNL A   1      31.612  23.022  26.077  1.00  0.00     0.046 A 
ATOM     90  C   UNL A   1      32.883  23.468  26.442  1.00  0.00     0.015 A 
ATOM     91  C   UNL A   1      31.458  21.759  25.491  1.00  0.00     0.100 A 
ATOM     92  C   UNL A   1      34.011  22.702  26.129  1.00  0.00     0.024 A 
ATOM     93  C   UNL A   1      32.595  20.981  25.200  1.00  0.00     0.284 A 
ATOM     94  C   UNL A   1      33.880  21.455  25.502  1.00  0.00     0.095 A 
ATOM     95  Br  UNL A   1      35.500  20.521  25.163  1.00  0.00    -0.043 Br
BRANCH  93  96
ATOM     96  N   UNL A   1      32.371  19.696  24.544  1.00  0.00     0.063 N 
ATOM     97  O   UNL A   1      32.310  19.698  23.308  1.00  0.00    -0.258 OA
ATOM     98  O   UNL A   1      32.336  18.680  25.248  1.00  0.00    -0.258 OA
ENDBRANCH  93  96
ENDBRANCH  86  89
ENDBRANCH  84  85
ENDBRANCH  77  80
ENDBRANCH  75  76
ENDBRANCH  74  75
ENDBRANCH   1  74
TORSDOF 16
ENDMDL
MODEL 3
REMARK VINA RESULT:     -12.3      5.346      9.847
REMARK SMILES O=C(NCCCCCCNC(=O)[C@H]1C=C[C@H](NC(=O)c2ccc(Br)c([N+](=O)[O-])c2)C1)c1ccc(-c2c3nc(c(-c4c(F)c(F)c(F)c(F)c4F)c4ccc([nH]4)c(-c4c(F)c(F)c(F)c(F)c4F)c4nc(c(-c5c(F)c(F)c(F)c(F)c5F)c5ccc2[nH]5)C=C4)C=C3)cc1
REMARK SMILES IDX 7 1 6 2 5 3 4 4 3 5 1 6 2 7 31 9 32 10 93 11 33 12 92 13
REMARK SMILES IDX 34 14 35 15 36 16 86 17 37 18 91 19 85 20 87 21 38 22 90 23
REMARK SMILES IDX 84 24 83 25 39 27 71 28 51 29 70 30 52 31 55 32 69 33 88 34
REMARK SMILES IDX 53 35 54 36 68 38 89 39 56 40 40 41 41 42 49 43 42 44 43 45
REMARK SMILES IDX 47 46 50 47 44 48 45 49 48 50 46 51 72 52 73 53 81 54 74 55
REMARK SMILES IDX 75 56 79 57 82 58 76 59 77 60 80 61 78 62 57 63 58 64 66 65
REMARK SMILES IDX 59 66 60 67 64 68 67 69 61 70 62 71 65 72 63 73 8 74 9 75
REMARK SMILES IDX 10 76 11 77 12 79 13 80 14 81 30 82 15 83 16 84 17 85 18 86
REMARK SMILES IDX 19 88 20 89 21 90 29 91 22 92 25 93 23 94 24 95 26 96 27 97
REMARK SMILES IDX 28 98
REMARK H PARENT 3 8 87 26 55 37 10 78 17 87
REMARK Flexibility Score: inf
ROOT
ATOM      1  C   UNL A   1      32.885  30.243  27.081  1.00  0.00     0.002 C 
ENDROOT
BRANCH   1   2
ATOM      2  C   UNL A   1      31.534  30.813  26.642  1.00  0.00     0.002 C 
BRANCH   2   3
ATOM      3  C   UNL A   1      31.399  32.333  26.765  1.00  0.00     0.021 C 
BRANCH   3   4
ATOM      4  C   UNL A   1      32.709  33.064  27.032  1.00  0.00     0.116 C 
BRANCH   4   5
ATOM      5  N   UNL A   1      32.493  34.364  27.652  1.00  0.00    -0.352 N 
ATOM      6  O   UNL A   1      32.629  35.931  29.271  1.00  0.00    -0.269 OA
ATOM      7  C   UNL A   1      33.070  34.897  28.774  1.00  0.00     0.251 C 
ATOM      8  H   UNL A   1      31.838  34.943  27.198  1.00  0.00     0.163 HD
BRANCH   7   9
ATOM      9  C   UNL A   1      34.220  34.214  29.397  1.00  0.00     0.039 A 
ATOM     10  C   UNL A   1      35.525  34.553  29.033  1.00  0.00     0.014 A 
ATOM     11  C   UNL A   1      33.990  33.234  30.367  1.00  0.00     0.014 A 
ATOM     12  C   UNL A   1      36.595  33.827  29.538  1.00  0.00     0.010 A 
ATOM     13  C   UNL A   1      35.073  32.565  30.942  1.00  0.00     0.010 A 
ATOM     14  C   UNL A   1      36.382  32.843  30.516  1.00  0.00    -0.014 A 
BRANCH  14  15
ATOM     15  C   UNL A   1      37.550  32.175  31.142  1.00  0.00     0.031 A 
ATOM     16  C   UNL A   1      38.033  32.569  32.506  1.00  0.00     0.074 A 
ATOM     17  C   UNL A   1      38.178  31.205  30.452  1.00  0.00     0.049 A 
ATOM     18  N   UNL A   1      39.054  32.108  33.184  1.00  0.00    -0.248 NA
ATOM     19  C   UNL A   1      37.282  33.627  33.196  1.00  0.00     0.031 C 
ATOM     20  C   UNL A   1      37.804  30.755  29.109  1.00  0.00     0.029 A 
ATOM     21  N   UNL A   1      39.257  30.425  30.776  1.00  0.00    -0.354 N 
ATOM     22  C   UNL A   1      39.080  32.829  34.371  1.00  0.00     0.074 A 
ATOM     23  C   UNL A   1      37.990  33.781  34.307  1.00  0.00     0.031 C 
ATOM     24  C   UNL A   1      38.623  29.764  28.734  1.00  0.00     0.029 A 
ATOM     25  C   UNL A   1      39.620  29.556  29.778  1.00  0.00     0.049 A 
ATOM     26  H   UNL A   1      39.725  30.481  31.640  1.00  0.00     0.167 HD
ATOM     27  C   UNL A   1      39.933  32.698  35.416  1.00  0.00     0.037 A 
ATOM     28  C   UNL A   1      40.660  28.707  29.694  1.00  0.00     0.037 A 
ATOM     29  C   UNL A   1      41.011  31.742  35.465  1.00  0.00     0.049 A 
ATOM     30  C   UNL A   1      41.610  28.604  30.851  1.00  0.00     0.074 A 
ATOM     31  C   UNL A   1      41.899  31.495  36.497  1.00  0.00     0.029 A 
ATOM     32  N   UNL A   1      41.358  30.885  34.429  1.00  0.00    -0.354 N 
ATOM     33  N   UNL A   1      41.594  29.252  31.991  1.00  0.00    -0.248 NA
ATOM     34  C   UNL A   1      42.720  27.655  30.714  1.00  0.00     0.031 C 
ATOM     35  C   UNL A   1      42.822  30.538  36.062  1.00  0.00     0.029 A 
ATOM     36  C   UNL A   1      42.469  30.135  34.784  1.00  0.00     0.049 A 
ATOM     37  H   UNL A   1      40.884  30.819  33.568  1.00  0.00     0.167 HD
ATOM     38  C   UNL A   1      42.677  28.778  32.714  1.00  0.00     0.074 A 
ATOM     39  C   UNL A   1      43.319  27.773  31.890  1.00  0.00     0.031 C 
ATOM     40  C   UNL A   1      43.101  29.142  33.949  1.00  0.00     0.037 A 
BRANCH  27  41
ATOM     41  C   UNL A   1      39.759  33.635  36.579  1.00  0.00     0.064 A 
ATOM     42  C   UNL A   1      40.407  34.878  36.637  1.00  0.00     0.173 A 
ATOM     43  C   UNL A   1      38.906  33.294  37.641  1.00  0.00     0.173 A 
ATOM     44  F   UNL A   1      41.239  35.254  35.653  1.00  0.00    -0.203 F 
ATOM     45  C   UNL A   1      40.239  35.726  37.730  1.00  0.00     0.198 A 
ATOM     46  C   UNL A   1      38.713  34.160  38.716  1.00  0.00     0.198 A 
ATOM     47  F   UNL A   1      38.252  32.124  37.635  1.00  0.00    -0.203 F 
ATOM     48  F   UNL A   1      40.914  36.883  37.789  1.00  0.00    -0.200 F 
ATOM     49  C   UNL A   1      39.388  35.369  38.764  1.00  0.00     0.200 A 
ATOM     50  F   UNL A   1      37.877  33.819  39.706  1.00  0.00    -0.200 F 
ATOM     51  F   UNL A   1      39.225  36.187  39.813  1.00  0.00    -0.200 F 
ENDBRANCH  27  41
BRANCH  28  52
ATOM     52  C   UNL A   1      40.852  27.912  28.454  1.00  0.00     0.064 A 
ATOM     53  C   UNL A   1      41.624  28.397  27.391  1.00  0.00     0.173 A 
ATOM     54  C   UNL A   1      40.296  26.629  28.327  1.00  0.00     0.173 A 
ATOM     55  F   UNL A   1      42.162  29.623  27.460  1.00  0.00    -0.203 F 
ATOM     56  C   UNL A   1      41.823  27.634  26.242  1.00  0.00     0.198 A 
ATOM     57  C   UNL A   1      40.524  25.854  27.193  1.00  0.00     0.198 A 
ATOM     58  F   UNL A   1      39.558  26.115  29.322  1.00  0.00    -0.203 F 
ATOM     59  F   UNL A   1      42.534  28.136  25.224  1.00  0.00    -0.200 F 
ATOM     60  C   UNL A   1      41.281  26.361  26.148  1.00  0.00     0.200 A 
ATOM     61  F   UNL A   1      40.017  24.616  27.117  1.00  0.00    -0.200 F 
ATOM     62  F   UNL A   1      41.487  25.622  25.050  1.00  0.00    -0.200 F 
ENDBRANCH  28  52
BRANCH  40  63
ATOM     63  C   UNL A   1      44.304  28.430  34.499  1.00  0.00     0.064 A 
ATOM     64  C   UNL A   1      45.601  28.946  34.349  1.00  0.00     0.173 A 
ATOM     65  C   UNL A   1      44.154  27.235  35.219  1.00  0.00     0.173 A 
ATOM     66  F   UNL A   1      45.802  30.076  33.653  1.00  0.00    -0.203 F 
ATOM     67  C   UNL A   1      46.702  28.280  34.881  1.00  0.00     0.198 A 
ATOM     68  C   UNL A   1      45.253  26.590  35.777  1.00  0.00     0.198 A 
ATOM     69  F   UNL A   1      42.935  26.700  35.395  1.00  0.00    -0.203 F 
ATOM     70  F   UNL A   1      47.935  28.766  34.683  1.00  0.00    -0.200 F 
ATOM     71  C   UNL A   1      46.526  27.108  35.602  1.00  0.00     0.200 A 
ATOM     72  F   UNL A   1      45.079  25.466  36.486  1.00  0.00    -0.200 F 
ATOM     73  F   UNL A   1      47.587  26.475  36.122  1.00  0.00    -0.200 F 
ENDBRANCH  40  63
ENDBRANCH  14  15
ENDBRANCH   7   9
ENDBRANCH   4   5
ENDBRANCH   3   4
ENDBRANCH   2   3
ENDBRANCH   1   2
BRANCH   1  74
ATOM     74  C   UNL A   1      33.128  28.788  26.681  1.00  0.00     0.021 C 
BRANCH  74  75
ATOM     75  C   UNL A   1      34.044  28.619  25.476  1.00  0.00     0.116 C 
BRANCH  75  76
ATOM     76  N   UNL A   1      33.392  29.025  24.243  1.00  0.00    -0.356 N 
ATOM     77  C   UNL A   1      32.202  28.624  23.700  1.00  0.00     0.227 C 
ATOM     78  H   UNL A   1      33.883  29.695  23.715  1.00  0.00     0.163 HD
ATOM     79  O   UNL A   1      31.876  29.070  22.601  1.00  0.00    -0.274 OA
BRANCH  77  80
ATOM     80  C   UNL A   1      31.314  27.679  24.497  1.00  0.00     0.103 C 
ATOM     81  C   UNL A   1      29.900  27.669  23.994  1.00  0.00    -0.016 C 
ATOM     82  C   UNL A   1      31.722  26.208  24.402  1.00  0.00     0.047 C 
ATOM     83  C   UNL A   1      29.386  26.432  24.025  1.00  0.00    -0.006 C 
ATOM     84  C   UNL A   1      30.402  25.431  24.448  1.00  0.00     0.106 C 
BRANCH  84  85
ATOM     85  N   UNL A   1      30.077  24.797  25.720  1.00  0.00    -0.346 N 
ATOM     86  C   UNL A   1      30.494  23.686  26.402  1.00  0.00     0.251 C 
ATOM     87  H   UNL A   1      29.382  25.292  26.211  1.00  0.00     0.164 HD
ATOM     88  O   UNL A   1      29.834  23.280  27.355  1.00  0.00    -0.269 OA
BRANCH  86  89
ATOM     89  C   UNL A   1      31.700  22.923  26.044  1.00  0.00     0.046 A 
ATOM     90  C   UNL A   1      32.974  23.410  26.343  1.00  0.00     0.015 A 
ATOM     91  C   UNL A   1      31.553  21.635  25.515  1.00  0.00     0.100 A 
ATOM     92  C   UNL A   1      34.107  22.655  26.019  1.00  0.00     0.024 A 
ATOM     93  C   UNL A   1      32.695  20.870  25.213  1.00  0.00     0.284 A 
ATOM     94  C   UNL A   1      33.980  21.382  25.447  1.00  0.00     0.095 A 
ATOM     95  Br  UNL A   1      35.607  20.469  25.085  1.00  0.00    -0.043 Br
BRANCH  93  96
ATOM     96  N   UNL A   1      32.477  19.555  24.617  1.00  0.00     0.063 N 
ATOM     97  O   UNL A   1      32.145  18.639  25.380  1.00  0.00    -0.258 OA
ATOM     98  O   UNL A   1      32.557  19.451  23.387  1.00  0.00    -0.258 OA
ENDBRANCH  93  96
ENDBRANCH  86  89
ENDBRANCH  84  85
ENDBRANCH  77  80
ENDBRANCH  75  76
ENDBRANCH  74  75
ENDBRANCH   1  74
TORSDOF 16
ENDMDL
