MODEL 1
REMARK VINA RESULT:     -12.7      0.000      0.000
REMARK SMILES O=C(NCCCCCCNC(=O)[C@@H]1C=C[C@@H](Nc2ccc3ccccc3n2)C1)c1ccc(-c2c3nc(c(-c4c(F)c(F)c(F)c(F)c4F)c4ccc([nH]4)c(-c4c(F)c(F)c(F)c(F)c4F)c4nc(c(-c5c(F)c(F)c(F)c(F)c5F)c5ccc2[nH]5)C=C4)C=C3)cc1
REMARK SMILES IDX 6 1 5 2 4 3 3 4 1 5 2 6 29 8 30 9 91 10 31 11 90 12 32 13
REMARK SMILES IDX 33 14 34 15 84 16 35 17 89 18 83 19 85 20 36 21 88 22 82 23
REMARK SMILES IDX 81 24 37 26 69 27 49 28 68 29 50 30 53 31 67 32 86 33 51 34
REMARK SMILES IDX 52 35 66 37 87 38 54 39 38 40 39 41 47 42 40 43 41 44 45 45
REMARK SMILES IDX 48 46 42 47 43 48 46 49 44 50 70 51 71 52 79 53 72 54 73 55
REMARK SMILES IDX 77 56 80 57 74 58 75 59 78 60 76 61 55 62 56 63 64 64 57 65
REMARK SMILES IDX 58 66 62 67 65 68 59 69 60 70 63 71 61 72 7 73 8 74 9 75
REMARK SMILES IDX 10 76 11 77 12 79 13 80 14 81 28 82 15 83 16 84 17 85 18 87
REMARK SMILES IDX 19 88 27 89 20 90 26 91 21 92 25 93 22 94 24 95 23 96
REMARK H PARENT 3 7 85 25 53 36 10 78 17 86
REMARK Flexibility Score: inf
ROOT
ATOM      1  C   UNL A   1      31.558  30.679  26.276  1.00  0.00     0.002 C 
ENDROOT
BRANCH   1   2
ATOM      2  C   UNL A   1      31.425  32.179  26.536  1.00  0.00     0.021 C 
BRANCH   2   3
ATOM      3  C   UNL A   1      32.580  32.839  27.278  1.00  0.00     0.116 C 
BRANCH   3   4
ATOM      4  N   UNL A   1      32.307  34.203  27.695  1.00  0.00    -0.352 N 
ATOM      5  O   UNL A   1      32.532  36.100  28.895  1.00  0.00    -0.269 OA
ATOM      6  C   UNL A   1      32.960  34.987  28.619  1.00  0.00     0.251 C 
ATOM      7  H   UNL A   1      31.540  34.631  27.250  1.00  0.00     0.163 HD
BRANCH   6   8
ATOM      8  C   UNL A   1      34.161  34.469  29.318  1.00  0.00     0.039 A 
ATOM      9  C   UNL A   1      35.443  34.660  28.799  1.00  0.00     0.014 A 
ATOM     10  C   UNL A   1      33.991  33.767  30.515  1.00  0.00     0.014 A 
ATOM     11  C   UNL A   1      36.526  34.006  29.378  1.00  0.00     0.010 A 
ATOM     12  C   UNL A   1      35.096  33.184  31.145  1.00  0.00     0.010 A 
ATOM     13  C   UNL A   1      36.367  33.256  30.555  1.00  0.00    -0.014 A 
BRANCH  13  14
ATOM     14  C   UNL A   1      37.544  32.570  31.150  1.00  0.00     0.031 A 
ATOM     15  C   UNL A   1      38.017  32.905  32.539  1.00  0.00     0.074 A 
ATOM     16  C   UNL A   1      38.165  31.606  30.444  1.00  0.00     0.049 A 
ATOM     17  N   UNL A   1      38.994  32.369  33.231  1.00  0.00    -0.248 NA
ATOM     18  C   UNL A   1      37.312  33.986  33.243  1.00  0.00     0.031 C 
ATOM     19  C   UNL A   1      37.811  31.202  29.082  1.00  0.00     0.029 A 
ATOM     20  N   UNL A   1      39.206  30.777  30.777  1.00  0.00    -0.354 N 
ATOM     21  C   UNL A   1      39.036  33.062  34.434  1.00  0.00     0.074 A 
ATOM     22  C   UNL A   1      38.002  34.074  34.372  1.00  0.00     0.031 C 
ATOM     23  C   UNL A   1      38.583  30.168  28.716  1.00  0.00     0.029 A 
ATOM     24  C   UNL A   1      39.520  29.870  29.795  1.00  0.00     0.049 A 
ATOM     25  H   UNL A   1      39.681  30.826  31.638  1.00  0.00     0.167 HD
ATOM     26  C   UNL A   1      39.856  32.868  35.496  1.00  0.00     0.037 A 
ATOM     27  C   UNL A   1      40.460  28.908  29.763  1.00  0.00     0.037 A 
ATOM     28  C   UNL A   1      40.865  31.841  35.568  1.00  0.00     0.049 A 
ATOM     29  C   UNL A   1      41.350  28.711  30.956  1.00  0.00     0.074 A 
ATOM     30  C   UNL A   1      41.712  31.536  36.619  1.00  0.00     0.029 A 
ATOM     31  N   UNL A   1      41.164  30.953  34.545  1.00  0.00    -0.354 N 
ATOM     32  N   UNL A   1      41.348  29.344  32.104  1.00  0.00    -0.248 NA
ATOM     33  C   UNL A   1      42.373  27.662  30.850  1.00  0.00     0.031 C 
ATOM     34  C   UNL A   1      42.552  30.491  36.218  1.00  0.00     0.029 A 
ATOM     35  C   UNL A   1      42.195  30.112  34.934  1.00  0.00     0.049 A 
ATOM     36  H   UNL A   1      40.711  30.925  33.672  1.00  0.00     0.167 HD
ATOM     37  C   UNL A   1      42.348  28.756  32.865  1.00  0.00     0.074 A 
ATOM     38  C   UNL A   1      42.925  27.703  32.054  1.00  0.00     0.031 C 
ATOM     39  C   UNL A   1      42.752  29.062  34.121  1.00  0.00     0.037 A 
BRANCH  26  40
ATOM     40  C   UNL A   1      39.710  33.794  36.668  1.00  0.00     0.064 A 
ATOM     41  C   UNL A   1      40.334  35.051  36.701  1.00  0.00     0.173 A 
ATOM     42  C   UNL A   1      38.893  33.440  37.754  1.00  0.00     0.173 A 
ATOM     43  F   UNL A   1      41.132  35.434  35.693  1.00  0.00    -0.203 F 
ATOM     44  C   UNL A   1      40.167  35.907  37.788  1.00  0.00     0.198 A 
ATOM     45  C   UNL A   1      38.707  34.309  38.826  1.00  0.00     0.198 A 
ATOM     46  F   UNL A   1      38.266  32.255  37.769  1.00  0.00    -0.203 F 
ATOM     47  F   UNL A   1      40.807  37.084  37.815  1.00  0.00    -0.200 F 
ATOM     48  C   UNL A   1      39.349  35.538  38.846  1.00  0.00     0.200 A 
ATOM     49  F   UNL A   1      37.906  33.958  39.841  1.00  0.00    -0.200 F 
ATOM     50  F   UNL A   1      39.184  36.367  39.886  1.00  0.00    -0.200 F 
ENDBRANCH  26  40
BRANCH  27  51
ATOM     51  C   UNL A   1      40.586  28.041  28.563  1.00  0.00     0.064 A 
ATOM     52  C   UNL A   1      39.920  26.810  28.493  1.00  0.00     0.173 A 
ATOM     53  C   UNL A   1      41.365  28.429  27.463  1.00  0.00     0.173 A 
ATOM     54  F   UNL A   1      39.179  26.390  29.528  1.00  0.00    -0.203 F 
ATOM     55  C   UNL A   1      40.039  25.992  27.371  1.00  0.00     0.198 A 
ATOM     56  C   UNL A   1      41.460  27.623  26.330  1.00  0.00     0.198 A 
ATOM     57  F   UNL A   1      42.017  29.600  27.481  1.00  0.00    -0.203 F 
ATOM     58  F   UNL A   1      39.424  24.803  27.345  1.00  0.00    -0.200 F 
ATOM     59  C   UNL A   1      40.803  26.403  26.289  1.00  0.00     0.200 A 
ATOM     60  F   UNL A   1      42.185  28.030  25.281  1.00  0.00    -0.200 F 
ATOM     61  F   UNL A   1      40.911  25.619  25.208  1.00  0.00    -0.200 F 
ENDBRANCH  27  51
BRANCH  39  62
ATOM     62  C   UNL A   1      43.841  28.216  34.713  1.00  0.00     0.064 A 
ATOM     63  C   UNL A   1      45.191  28.594  34.638  1.00  0.00     0.173 A 
ATOM     64  C   UNL A   1      43.529  27.022  35.378  1.00  0.00     0.173 A 
ATOM     65  F   UNL A   1      45.542  29.720  33.997  1.00  0.00    -0.203 F 
ATOM     66  C   UNL A   1      46.189  27.790  35.181  1.00  0.00     0.198 A 
ATOM     67  C   UNL A   1      44.527  26.235  35.944  1.00  0.00     0.198 A 
ATOM     68  F   UNL A   1      42.254  26.620  35.482  1.00  0.00    -0.203 F 
ATOM     69  F   UNL A   1      47.475  28.143  35.050  1.00  0.00    -0.200 F 
ATOM     70  C   UNL A   1      45.856  26.614  35.838  1.00  0.00     0.200 A 
ATOM     71  F   UNL A   1      44.203  25.105  36.588  1.00  0.00    -0.200 F 
ATOM     72  F   UNL A   1      46.819  25.842  36.360  1.00  0.00    -0.200 F 
ENDBRANCH  39  62
ENDBRANCH  13  14
ENDBRANCH   6   8
ENDBRANCH   3   4
ENDBRANCH   2   3
ENDBRANCH   1   2
BRANCH   1  73
ATOM     73  C   UNL A   1      32.953  30.070  26.436  1.00  0.00     0.002 C 
BRANCH  73  74
ATOM     74  C   UNL A   1      33.033  28.648  27.001  1.00  0.00     0.021 C 
BRANCH  74  75
ATOM     75  C   UNL A   1      31.707  27.931  27.221  1.00  0.00     0.116 C 
BRANCH  75  76
ATOM     76  N   UNL A   1      31.242  27.186  26.069  1.00  0.00    -0.356 N 
ATOM     77  C   UNL A   1      31.714  25.995  25.580  1.00  0.00     0.227 C 
ATOM     78  H   UNL A   1      30.491  27.586  25.574  1.00  0.00     0.163 HD
ATOM     79  O   UNL A   1      31.104  25.473  24.647  1.00  0.00    -0.274 OA
BRANCH  77  80
ATOM     80  C   UNL A   1      33.013  25.420  26.161  1.00  0.00     0.103 C 
ATOM     81  C   UNL A   1      34.227  25.698  25.323  1.00  0.00    -0.016 C 
ATOM     82  C   UNL A   1      33.016  23.887  26.257  1.00  0.00     0.046 C 
ATOM     83  C   UNL A   1      34.787  24.580  24.848  1.00  0.00    -0.006 C 
ATOM     84  C   UNL A   1      34.021  23.361  25.226  1.00  0.00     0.104 C 
BRANCH  84  85
ATOM     85  N   UNL A   1      34.894  22.410  25.862  1.00  0.00    -0.364 N 
ATOM     86  H   UNL A   1      35.465  22.676  26.618  1.00  0.00     0.162 HD
BRANCH  85  87
ATOM     87  C   UNL A   1      34.910  21.118  25.383  1.00  0.00     0.127 A 
ATOM     88  C   UNL A   1      36.123  20.485  25.156  1.00  0.00     0.047 A 
ATOM     89  N   UNL A   1      33.736  20.480  25.221  1.00  0.00    -0.231 NA
ATOM     90  C   UNL A   1      36.131  19.157  24.739  1.00  0.00     0.014 A 
ATOM     91  C   UNL A   1      33.733  19.212  24.771  1.00  0.00     0.073 A 
ATOM     92  C   UNL A   1      34.919  18.495  24.524  1.00  0.00     0.000 A 
ATOM     93  C   UNL A   1      32.521  18.580  24.532  1.00  0.00     0.029 A 
ATOM     94  C   UNL A   1      34.863  17.166  24.070  1.00  0.00     0.010 A 
ATOM     95  C   UNL A   1      32.458  17.265  24.063  1.00  0.00     0.002 A 
ATOM     96  C   UNL A   1      33.631  16.555  23.836  1.00  0.00     0.001 A 
ENDBRANCH  85  87
ENDBRANCH  84  85
ENDBRANCH  77  80
ENDBRANCH  75  76
ENDBRANCH  74  75
ENDBRANCH  73  74
ENDBRANCH   1  73
TORSDOF 15
ENDMDL
MODEL 2
REMARK VINA RESULT:     -12.6      2.466      3.741
REMARK SMILES O=C(NCCCCCCNC(=O)[C@@H]1C=C[C@@H](Nc2ccc3ccccc3n2)C1)c1ccc(-c2c3nc(c(-c4c(F)c(F)c(F)c(F)c4F)c4ccc([nH]4)c(-c4c(F)c(F)c(F)c(F)c4F)c4nc(c(-c5c(F)c(F)c(F)c(F)c5F)c5ccc2[nH]5)C=C4)C=C3)cc1
REMARK SMILES IDX 6 1 5 2 4 3 3 4 1 5 2 6 29 8 30 9 91 10 31 11 90 12 32 13
REMARK SMILES IDX 33 14 34 15 84 16 35 17 89 18 83 19 85 20 36 21 88 22 82 23
REMARK SMILES IDX 81 24 37 26 69 27 49 28 68 29 50 30 53 31 67 32 86 33 51 34
REMARK SMILES IDX 52 35 66 37 87 38 54 39 38 40 39 41 47 42 40 43 41 44 45 45
REMARK SMILES IDX 48 46 42 47 43 48 46 49 44 50 70 51 71 52 79 53 72 54 73 55
REMARK SMILES IDX 77 56 80 57 74 58 75 59 78 60 76 61 55 62 56 63 64 64 57 65
REMARK SMILES IDX 58 66 62 67 65 68 59 69 60 70 63 71 61 72 7 73 8 74 9 75
REMARK SMILES IDX 10 76 11 77 12 79 13 80 14 81 28 82 15 83 16 84 17 85 18 87
REMARK SMILES IDX 19 88 27 89 20 90 26 91 21 92 25 93 22 94 24 95 23 96
REMARK H PARENT 3 7 85 25 53 36 10 78 17 86
REMARK Flexibility Score: inf
ROOT
ATOM      1  C   UNL A   1      31.075  28.602  24.078  1.00  0.00     0.002 C 
ENDROOT
BRANCH   1   2
ATOM      2  C   UNL A   1      32.580  28.865  24.086  1.00  0.00     0.021 C 
BRANCH   2   3
ATOM      3  C   UNL A   1      33.197  29.214  25.434  1.00  0.00     0.116 C 
BRANCH   3   4
ATOM      4  N   UNL A   1      32.670  30.433  26.023  1.00  0.00    -0.352 N 
ATOM      5  O   UNL A   1      32.571  32.194  27.428  1.00  0.00    -0.269 OA
ATOM      6  C   UNL A   1      33.206  31.238  27.002  1.00  0.00     0.251 C 
ATOM      7  H   UNL A   1      31.800  30.727  25.668  1.00  0.00     0.163 HD
BRANCH   6   8
ATOM      8  C   UNL A   1      34.535  30.924  27.579  1.00  0.00     0.039 A 
ATOM      9  C   UNL A   1      34.871  29.627  27.968  1.00  0.00     0.014 A 
ATOM     10  C   UNL A   1      35.459  31.962  27.741  1.00  0.00     0.014 A 
ATOM     11  C   UNL A   1      36.049  29.400  28.673  1.00  0.00     0.010 A 
ATOM     12  C   UNL A   1      36.683  31.714  28.371  1.00  0.00     0.010 A 
ATOM     13  C   UNL A   1      36.968  30.441  28.888  1.00  0.00    -0.014 A 
BRANCH  13  14
ATOM     14  C   UNL A   1      38.219  30.167  29.644  1.00  0.00     0.031 A 
ATOM     15  C   UNL A   1      38.387  30.636  31.064  1.00  0.00     0.074 A 
ATOM     16  C   UNL A   1      39.195  29.452  29.054  1.00  0.00     0.049 A 
ATOM     17  N   UNL A   1      39.390  30.441  31.886  1.00  0.00    -0.248 NA
ATOM     18  C   UNL A   1      37.295  31.436  31.637  1.00  0.00     0.031 C 
ATOM     19  C   UNL A   1      39.158  28.954  27.678  1.00  0.00     0.029 A 
ATOM     20  N   UNL A   1      40.396  28.998  29.539  1.00  0.00    -0.354 N 
ATOM     21  C   UNL A   1      39.062  31.112  33.057  1.00  0.00     0.074 A 
ATOM     22  C   UNL A   1      37.777  31.740  32.835  1.00  0.00     0.031 C 
ATOM     23  C   UNL A   1      40.256  28.220  27.445  1.00  0.00     0.029 A 
ATOM     24  C   UNL A   1      41.100  28.238  28.637  1.00  0.00     0.049 A 
ATOM     25  H   UNL A   1      40.721  29.197  30.446  1.00  0.00     0.167 HD
ATOM     26  C   UNL A   1      39.764  31.190  34.214  1.00  0.00     0.037 A 
ATOM     27  C   UNL A   1      42.292  27.626  28.753  1.00  0.00     0.037 A 
ATOM     28  C   UNL A   1      41.029  30.539  34.445  1.00  0.00     0.049 A 
ATOM     29  C   UNL A   1      43.044  27.725  30.049  1.00  0.00     0.074 A 
ATOM     30  C   UNL A   1      41.793  30.522  35.598  1.00  0.00     0.029 A 
ATOM     31  N   UNL A   1      41.717  29.792  33.500  1.00  0.00    -0.354 N 
ATOM     32  N   UNL A   1      42.701  28.324  31.162  1.00  0.00    -0.248 NA
ATOM     33  C   UNL A   1      44.352  27.057  30.105  1.00  0.00     0.031 C 
ATOM     34  C   UNL A   1      42.963  29.799  35.339  1.00  0.00     0.029 A 
ATOM     35  C   UNL A   1      42.905  29.325  34.039  1.00  0.00     0.049 A 
ATOM     36  H   UNL A   1      41.408  29.621  32.581  1.00  0.00     0.167 HD
ATOM     37  C   UNL A   1      43.734  28.087  32.057  1.00  0.00     0.074 A 
ATOM     38  C   UNL A   1      44.710  27.273  31.362  1.00  0.00     0.031 C 
ATOM     39  C   UNL A   1      43.862  28.507  33.339  1.00  0.00     0.037 A 
BRANCH  26  40
ATOM     40  C   UNL A   1      39.189  32.022  35.324  1.00  0.00     0.064 A 
ATOM     41  C   UNL A   1      38.422  31.455  36.353  1.00  0.00     0.173 A 
ATOM     42  C   UNL A   1      39.450  33.400  35.384  1.00  0.00     0.173 A 
ATOM     43  F   UNL A   1      38.135  30.145  36.338  1.00  0.00    -0.203 F 
ATOM     44  C   UNL A   1      37.917  32.241  37.387  1.00  0.00     0.198 A 
ATOM     45  C   UNL A   1      38.966  34.178  36.433  1.00  0.00     0.198 A 
ATOM     46  F   UNL A   1      40.185  33.991  34.431  1.00  0.00    -0.203 F 
ATOM     47  F   UNL A   1      37.153  31.685  38.337  1.00  0.00    -0.200 F 
ATOM     48  C   UNL A   1      38.195  33.600  37.430  1.00  0.00     0.200 A 
ATOM     49  F   UNL A   1      39.247  35.487  36.481  1.00  0.00    -0.200 F 
ATOM     50  F   UNL A   1      37.715  34.352  38.430  1.00  0.00    -0.200 F 
ENDBRANCH  26  40
BRANCH  27  51
ATOM     51  C   UNL A   1      42.833  26.845  27.612  1.00  0.00     0.064 A 
ATOM     52  C   UNL A   1      43.615  27.460  26.626  1.00  0.00     0.173 A 
ATOM     53  C   UNL A   1      42.589  25.468  27.490  1.00  0.00     0.173 A 
ATOM     54  F   UNL A   1      43.860  28.777  26.691  1.00  0.00    -0.203 F 
ATOM     55  C   UNL A   1      44.122  26.732  25.552  1.00  0.00     0.198 A 
ATOM     56  C   UNL A   1      43.120  24.735  26.431  1.00  0.00     0.198 A 
ATOM     57  F   UNL A   1      41.850  24.833  28.412  1.00  0.00    -0.203 F 
ATOM     58  F   UNL A   1      44.834  27.352  24.602  1.00  0.00    -0.200 F 
ATOM     59  C   UNL A   1      43.880  25.369  25.460  1.00  0.00     0.200 A 
ATOM     60  F   UNL A   1      42.897  23.417  26.354  1.00  0.00    -0.200 F 
ATOM     61  F   UNL A   1      44.373  24.668  24.431  1.00  0.00    -0.200 F 
ENDBRANCH  27  51
BRANCH  39  62
ATOM     62  C   UNL A   1      45.082  28.053  34.087  1.00  0.00     0.064 A 
ATOM     63  C   UNL A   1      46.257  28.820  34.115  1.00  0.00     0.173 A 
ATOM     64  C   UNL A   1      45.068  26.845  34.799  1.00  0.00     0.173 A 
ATOM     65  F   UNL A   1      46.325  29.976  33.435  1.00  0.00    -0.203 F 
ATOM     66  C   UNL A   1      47.383  28.377  34.802  1.00  0.00     0.198 A 
ATOM     67  C   UNL A   1      46.186  26.420  35.509  1.00  0.00     0.198 A 
ATOM     68  F   UNL A   1      43.967  26.079  34.809  1.00  0.00    -0.203 F 
ATOM     69  F   UNL A   1      48.512  29.099  34.771  1.00  0.00    -0.200 F 
ATOM     70  C   UNL A   1      47.345  27.180  35.503  1.00  0.00     0.200 A 
ATOM     71  F   UNL A   1      46.145  25.268  36.194  1.00  0.00    -0.200 F 
ATOM     72  F   UNL A   1      48.431  26.756  36.165  1.00  0.00    -0.200 F 
ENDBRANCH  39  62
ENDBRANCH  13  14
ENDBRANCH   6   8
ENDBRANCH   3   4
ENDBRANCH   2   3
ENDBRANCH   1   2
BRANCH   1  73
ATOM     73  C   UNL A   1      30.620  27.200  23.665  1.00  0.00     0.002 C 
BRANCH  73  74
ATOM     74  C   UNL A   1      29.914  26.354  24.729  1.00  0.00     0.021 C 
BRANCH  74  75
ATOM     75  C   UNL A   1      30.563  26.318  26.106  1.00  0.00     0.116 C 
BRANCH  75  76
ATOM     76  N   UNL A   1      30.823  24.982  26.602  1.00  0.00    -0.356 N 
ATOM     77  C   UNL A   1      31.956  24.225  26.450  1.00  0.00     0.227 C 
ATOM     78  H   UNL A   1      30.093  24.565  27.113  1.00  0.00     0.163 HD
ATOM     79  O   UNL A   1      32.014  23.149  27.045  1.00  0.00    -0.274 OA
BRANCH  77  80
ATOM     80  C   UNL A   1      33.049  24.714  25.489  1.00  0.00     0.103 C 
ATOM     81  C   UNL A   1      33.009  24.057  24.140  1.00  0.00    -0.016 C 
ATOM     82  C   UNL A   1      34.473  24.402  25.971  1.00  0.00     0.046 C 
ATOM     83  C   UNL A   1      34.110  23.340  23.888  1.00  0.00    -0.006 C 
ATOM     84  C   UNL A   1      35.054  23.334  25.038  1.00  0.00     0.104 C 
BRANCH  84  85
ATOM     85  N   UNL A   1      36.361  23.750  24.602  1.00  0.00    -0.364 N 
ATOM     86  H   UNL A   1      36.470  24.331  23.815  1.00  0.00     0.162 HD
BRANCH  85  87
ATOM     87  C   UNL A   1      37.456  23.313  25.316  1.00  0.00     0.127 A 
ATOM     88  C   UNL A   1      38.052  24.156  26.243  1.00  0.00     0.047 A 
ATOM     89  N   UNL A   1      37.870  22.044  25.143  1.00  0.00    -0.231 NA
ATOM     90  C   UNL A   1      39.114  23.683  27.010  1.00  0.00     0.014 A 
ATOM     91  C   UNL A   1      38.926  21.595  25.844  1.00  0.00     0.073 A 
ATOM     92  C   UNL A   1      39.581  22.382  26.810  1.00  0.00     0.000 A 
ATOM     93  C   UNL A   1      39.399  20.312  25.611  1.00  0.00     0.029 A 
ATOM     94  C   UNL A   1      40.672  21.861  27.529  1.00  0.00     0.010 A 
ATOM     95  C   UNL A   1      40.493  19.793  26.310  1.00  0.00     0.002 A 
ATOM     96  C   UNL A   1      41.128  20.568  27.274  1.00  0.00     0.001 A 
ENDBRANCH  85  87
ENDBRANCH  84  85
ENDBRANCH  77  80
ENDBRANCH  75  76
ENDBRANCH  74  75
ENDBRANCH  73  74
ENDBRANCH   1  73
TORSDOF 15
ENDMDL
MODEL 3
REMARK VINA RESULT:     -12.5      1.231      2.066
REMARK SMILES O=C(NCCCCCCNC(=O)[C@@H]1C=C[C@@H](Nc2ccc3ccccc3n2)C1)c1ccc(-c2c3nc(c(-c4c(F)c(F)c(F)c(F)c4F)c4ccc([nH]4)c(-c4c(F)c(F)c(F)c(F)c4F)c4nc(c(-c5c(F)c(F)c(F)c(F)c5F)c5ccc2[nH]5)C=C4)C=C3)cc1
REMARK SMILES IDX 6 1 5 2 4 3 3 4 1 5 2 6 29 8 30 9 91 10 31 11 90 12 32 13
REMARK SMILES IDX 33 14 34 15 84 16 35 17 89 18 83 19 85 20 36 21 88 22 82 23
REMARK SMILES IDX 81 24 37 26 69 27 49 28 68 29 50 30 53 31 67 32 86 33 51 34
REMARK SMILES IDX 52 35 66 37 87 38 54 39 38 40 39 41 47 42 40 43 41 44 45 45
REMARK SMILES IDX 48 46 42 47 43 48 46 49 44 50 70 51 71 52 79 53 72 54 73 55
REMARK SMILES IDX 77 56 80 57 74 58 75 59 78 60 76 61 55 62 56 63 64 64 57 65
REMARK SMILES IDX 58 66 62 67 65 68 59 69 60 70 63 71 61 72 7 73 8 74 9 75
REMARK SMILES IDX 10 76 11 77 12 79 13 80 14 81 28 82 15 83 16 84 17 85 18 87
REMARK SMILES IDX 19 88 27 89 20 90 26 91 21 92 25 93 22 94 24 95 23 96
REMARK H PARENT 3 7 85 25 53 36 10 78 17 86
REMARK Flexibility Score: inf
ROOT
ATOM      1  C   UNL A   1      32.160  29.946  25.601  1.00  0.00     0.002 C 
ENDROOT
BRANCH   1   2
ATOM      2  C   UNL A   1      31.756  31.165  26.430  1.00  0.00     0.021 C 
BRANCH   2   3
ATOM      3  C   UNL A   1      32.865  31.832  27.233  1.00  0.00     0.116 C 
BRANCH   3   4
ATOM      4  N   UNL A   1      32.609  33.227  27.543  1.00  0.00    -0.352 N 
ATOM      5  O   UNL A   1      32.862  35.211  28.585  1.00  0.00    -0.269 OA
ATOM      6  C   UNL A   1      33.278  34.075  28.395  1.00  0.00     0.251 C 
ATOM      7  H   UNL A   1      31.841  33.626  27.071  1.00  0.00     0.163 HD
BRANCH   6   8
ATOM      8  C   UNL A   1      34.480  33.603  29.123  1.00  0.00     0.039 A 
ATOM      9  C   UNL A   1      35.767  33.920  28.683  1.00  0.00     0.014 A 
ATOM     10  C   UNL A   1      34.308  32.815  30.266  1.00  0.00     0.014 A 
ATOM     11  C   UNL A   1      36.868  33.310  29.277  1.00  0.00     0.010 A 
ATOM     12  C   UNL A   1      35.423  32.276  30.916  1.00  0.00     0.010 A 
ATOM     13  C   UNL A   1      36.711  32.477  30.397  1.00  0.00    -0.014 A 
BRANCH  13  14
ATOM     14  C   UNL A   1      37.908  31.843  31.010  1.00  0.00     0.031 A 
ATOM     15  C   UNL A   1      38.319  32.164  32.421  1.00  0.00     0.074 A 
ATOM     16  C   UNL A   1      38.603  30.936  30.298  1.00  0.00     0.049 A 
ATOM     17  N   UNL A   1      39.305  31.664  33.129  1.00  0.00    -0.248 NA
ATOM     18  C   UNL A   1      37.533  33.183  33.132  1.00  0.00     0.031 C 
ATOM     19  C   UNL A   1      38.314  30.552  28.916  1.00  0.00     0.029 A 
ATOM     20  N   UNL A   1      39.680  30.158  30.641  1.00  0.00    -0.354 N 
ATOM     21  C   UNL A   1      39.271  32.324  34.351  1.00  0.00     0.074 A 
ATOM     22  C   UNL A   1      38.183  33.276  34.285  1.00  0.00     0.031 C 
ATOM     23  C   UNL A   1      39.154  29.574  28.546  1.00  0.00     0.029 A 
ATOM     24  C   UNL A   1      40.075  29.299  29.645  1.00  0.00     0.049 A 
ATOM     25  H   UNL A   1      40.126  30.210  31.517  1.00  0.00     0.167 HD
ATOM     26  C   UNL A   1      40.069  32.146  35.432  1.00  0.00     0.037 A 
ATOM     27  C   UNL A   1      41.069  28.393  29.617  1.00  0.00     0.037 A 
ATOM     28  C   UNL A   1      41.132  31.177  35.509  1.00  0.00     0.049 A 
ATOM     29  C   UNL A   1      41.933  28.212  30.831  1.00  0.00     0.074 A 
ATOM     30  C   UNL A   1      41.965  30.890  36.577  1.00  0.00     0.029 A 
ATOM     31  N   UNL A   1      41.512  30.337  34.472  1.00  0.00    -0.354 N 
ATOM     32  N   UNL A   1      41.861  28.811  31.995  1.00  0.00    -0.248 NA
ATOM     33  C   UNL A   1      43.018  27.227  30.729  1.00  0.00     0.031 C 
ATOM     34  C   UNL A   1      42.874  29.906  36.174  1.00  0.00     0.029 A 
ATOM     35  C   UNL A   1      42.578  29.544  34.870  1.00  0.00     0.049 A 
ATOM     36  H   UNL A   1      41.088  30.308  33.584  1.00  0.00     0.167 HD
ATOM     37  C   UNL A   1      42.870  28.259  32.770  1.00  0.00     0.074 A 
ATOM     38  C   UNL A   1      43.531  27.265  31.950  1.00  0.00     0.031 C 
ATOM     39  C   UNL A   1      43.218  28.551  34.047  1.00  0.00     0.037 A 
BRANCH  26  40
ATOM     40  C   UNL A   1      39.835  33.029  36.624  1.00  0.00     0.064 A 
ATOM     41  C   UNL A   1      40.550  34.221  36.813  1.00  0.00     0.173 A 
ATOM     42  C   UNL A   1      38.846  32.702  37.565  1.00  0.00     0.173 A 
ATOM     43  F   UNL A   1      41.513  34.576  35.949  1.00  0.00    -0.203 F 
ATOM     44  C   UNL A   1      40.302  35.040  37.914  1.00  0.00     0.198 A 
ATOM     45  C   UNL A   1      38.582  33.535  38.649  1.00  0.00     0.198 A 
ATOM     46  F   UNL A   1      38.127  31.579  37.427  1.00  0.00    -0.203 F 
ATOM     47  F   UNL A   1      41.027  36.152  38.095  1.00  0.00    -0.200 F 
ATOM     48  C   UNL A   1      39.315  34.699  38.827  1.00  0.00     0.200 A 
ATOM     49  F   UNL A   1      37.618  33.213  39.523  1.00  0.00    -0.200 F 
ATOM     50  F   UNL A   1      39.072  35.493  39.880  1.00  0.00    -0.200 F 
ENDBRANCH  26  40
BRANCH  27  51
ATOM     51  C   UNL A   1      41.281  27.569  28.399  1.00  0.00     0.064 A 
ATOM     52  C   UNL A   1      42.187  27.971  27.409  1.00  0.00     0.173 A 
ATOM     53  C   UNL A   1      40.591  26.363  28.205  1.00  0.00     0.173 A 
ATOM     54  F   UNL A   1      42.856  29.125  27.541  1.00  0.00    -0.203 F 
ATOM     55  C   UNL A   1      42.386  27.203  26.263  1.00  0.00     0.198 A 
ATOM     56  C   UNL A   1      40.812  25.582  27.073  1.00  0.00     0.198 A 
ATOM     57  F   UNL A   1      39.717  25.934  29.127  1.00  0.00    -0.203 F 
ATOM     58  F   UNL A   1      43.229  27.629  25.313  1.00  0.00    -0.200 F 
ATOM     59  C   UNL A   1      41.704  26.007  26.100  1.00  0.00     0.200 A 
ATOM     60  F   UNL A   1      40.163  24.420  26.927  1.00  0.00    -0.200 F 
ATOM     61  F   UNL A   1      41.901  25.266  25.001  1.00  0.00    -0.200 F 
ENDBRANCH  27  51
BRANCH  39  62
ATOM     62  C   UNL A   1      44.337  27.752  34.649  1.00  0.00     0.064 A 
ATOM     63  C   UNL A   1      44.096  26.563  35.355  1.00  0.00     0.173 A 
ATOM     64  C   UNL A   1      45.667  28.172  34.502  1.00  0.00     0.173 A 
ATOM     65  F   UNL A   1      42.839  26.129  35.536  1.00  0.00    -0.203 F 
ATOM     66  C   UNL A   1      45.145  25.842  35.918  1.00  0.00     0.198 A 
ATOM     67  C   UNL A   1      46.715  27.433  35.042  1.00  0.00     0.198 A 
ATOM     68  F   UNL A   1      45.950  29.298  33.831  1.00  0.00    -0.203 F 
ATOM     69  F   UNL A   1      44.888  24.739  36.634  1.00  0.00    -0.200 F 
ATOM     70  C   UNL A   1      46.453  26.275  35.757  1.00  0.00     0.200 A 
ATOM     71  F   UNL A   1      47.979  27.847  34.877  1.00  0.00    -0.200 F 
ATOM     72  F   UNL A   1      47.461  25.579  36.300  1.00  0.00    -0.200 F 
ENDBRANCH  39  62
ENDBRANCH  13  14
ENDBRANCH   6   8
ENDBRANCH   3   4
ENDBRANCH   2   3
ENDBRANCH   1   2
BRANCH   1  73
ATOM     73  C   UNL A   1      31.028  29.134  24.968  1.00  0.00     0.002 C 
BRANCH  73  74
ATOM     74  C   UNL A   1      30.830  29.272  23.456  1.00  0.00     0.021 C 
BRANCH  74  75
ATOM     75  C   UNL A   1      30.669  27.975  22.673  1.00  0.00     0.116 C 
BRANCH  75  76
ATOM     76  N   UNL A   1      31.875  27.537  22.002  1.00  0.00    -0.356 N 
ATOM     77  C   UNL A   1      32.739  26.539  22.372  1.00  0.00     0.227 C 
ATOM     78  H   UNL A   1      32.104  28.019  21.174  1.00  0.00     0.163 HD
ATOM     79  O   UNL A   1      33.653  26.252  21.599  1.00  0.00    -0.274 OA
BRANCH  77  80
ATOM     80  C   UNL A   1      32.572  25.891  23.754  1.00  0.00     0.103 C 
ATOM     81  C   UNL A   1      33.634  26.284  24.739  1.00  0.00    -0.016 C 
ATOM     82  C   UNL A   1      32.686  24.360  23.731  1.00  0.00     0.046 C 
ATOM     83  C   UNL A   1      34.376  25.242  25.133  1.00  0.00    -0.006 C 
ATOM     84  C   UNL A   1      33.991  23.982  24.441  1.00  0.00     0.104 C 
BRANCH  84  85
ATOM     85  N   UNL A   1      33.718  22.954  25.411  1.00  0.00    -0.364 N 
ATOM     86  H   UNL A   1      33.270  23.167  26.261  1.00  0.00     0.162 HD
BRANCH  85  87
ATOM     87  C   UNL A   1      34.101  21.663  25.117  1.00  0.00     0.127 A 
ATOM     88  C   UNL A   1      35.436  21.300  25.232  1.00  0.00     0.047 A 
ATOM     89  N   UNL A   1      33.149  20.767  24.797  1.00  0.00    -0.231 NA
ATOM     90  C   UNL A   1      35.805  19.978  25.001  1.00  0.00     0.014 A 
ATOM     91  C   UNL A   1      33.502  19.499  24.525  1.00  0.00     0.073 A 
ATOM     92  C   UNL A   1      34.832  19.047  24.626  1.00  0.00     0.000 A 
ATOM     93  C   UNL A   1      32.530  18.595  24.122  1.00  0.00     0.029 A 
ATOM     94  C   UNL A   1      35.149  17.706  24.346  1.00  0.00     0.010 A 
ATOM     95  C   UNL A   1      32.841  17.265  23.825  1.00  0.00     0.002 A 
ATOM     96  C   UNL A   1      34.152  16.819  23.942  1.00  0.00     0.001 A 
ENDBRANCH  85  87
ENDBRANCH  84  85
ENDBRANCH  77  80
ENDBRANCH  75  76
ENDBRANCH  74  75
ENDBRANCH  73  74
ENDBRANCH   1  73
TORSDOF 15
ENDMDL
