MODEL 1
REMARK VINA RESULT:     -10.6      0.000      0.000
REMARK SMILES O=C(CCC(=O)[C@H]1CSCCO1)NCCCCCCNC(=O)c1ccc(-c2c3nc(c(-c4c(F)c(F)c(F)c(F)c4F)c4ccc([nH]4)c(-c4c(F)c(F)c(F)c(F)c4F)c4nc(c(-c5c(F)c(F)c(F)c(F)c5F)c5ccc2[nH]5)C=C4)C=C3)cc1
REMARK SMILES IDX 16 1 15 2 14 3 13 4 1 5 2 6 3 8 4 9 5 10 6 11 7 12 8 13
REMARK SMILES IDX 12 14 9 15 11 16 10 17 17 18 18 19 19 20 20 21 21 22 22 24
REMARK SMILES IDX 23 25 24 26 85 27 25 28 84 29 26 30 27 31 28 32 78 33 29 34
REMARK SMILES IDX 83 35 77 36 79 37 30 38 82 39 76 40 75 41 31 43 63 44 43 45
REMARK SMILES IDX 62 46 44 47 47 48 61 49 80 50 45 51 46 52 60 54 81 55 48 56
REMARK SMILES IDX 32 57 33 58 41 59 34 60 35 61 39 62 42 63 36 64 37 65 40 66
REMARK SMILES IDX 38 67 64 68 65 69 73 70 66 71 67 72 71 73 74 74 68 75 69 76
REMARK SMILES IDX 72 77 70 78 49 79 50 80 58 81 51 82 52 83 56 84 59 85 53 86
REMARK SMILES IDX 54 87 57 88 55 89
REMARK H PARENT 13 7 20 23 79 42 47 53
REMARK Flexibility Score: inf
ROOT
ATOM      1  C   UNL A   1      34.421  32.146  29.030  1.00  0.00     0.002 C 
ENDROOT
BRANCH   1   2
ATOM      2  C   UNL A   1      34.466  31.536  27.619  1.00  0.00     0.021 C 
BRANCH   2   3
ATOM      3  C   UNL A   1      33.337  30.589  27.192  1.00  0.00     0.116 C 
BRANCH   3   4
ATOM      4  N   UNL A   1      33.761  29.476  26.363  1.00  0.00    -0.356 N 
ATOM      5  O   UNL A   1      32.142  29.794  24.766  1.00  0.00    -0.275 OA
ATOM      6  C   UNL A   1      33.139  29.194  25.161  1.00  0.00     0.220 C 
ATOM      7  H   UNL A   1      34.507  28.907  26.664  1.00  0.00     0.163 HD
BRANCH   6   8
ATOM      8  C   UNL A   1      33.793  28.071  24.360  1.00  0.00     0.108 C 
BRANCH   8   9
ATOM      9  C   UNL A   1      33.165  27.894  22.974  1.00  0.00     0.088 C 
BRANCH   9  10
ATOM     10  C   UNL A   1      33.440  26.519  22.364  1.00  0.00     0.162 C 
ATOM     11  O   UNL A   1      33.581  26.389  21.146  1.00  0.00    -0.297 OA
BRANCH  10  12
ATOM     12  C   UNL A   1      33.554  25.317  23.301  1.00  0.00     0.194 C 
ATOM     13  C   UNL A   1      32.157  24.806  23.663  1.00  0.00     0.109 C 
ATOM     14  O   UNL A   1      34.344  24.403  22.553  1.00  0.00    -0.369 OA
ATOM     15  S   UNL A   1      32.185  23.194  24.516  1.00  0.00    -0.156 SA
ATOM     16  C   UNL A   1      34.511  23.130  23.147  1.00  0.00     0.172 C 
ATOM     17  C   UNL A   1      33.229  22.343  23.310  1.00  0.00     0.098 C 
ENDBRANCH  10  12
ENDBRANCH   9  10
ENDBRANCH   8   9
ENDBRANCH   6   8
ENDBRANCH   3   4
ENDBRANCH   2   3
ENDBRANCH   1   2
BRANCH   1  18
ATOM     18  C   UNL A   1      34.591  33.657  29.211  1.00  0.00     0.002 C 
BRANCH  18  19
ATOM     19  C   UNL A   1      33.353  34.526  29.074  1.00  0.00     0.021 C 
BRANCH  19  20
ATOM     20  C   UNL A   1      33.560  35.942  29.577  1.00  0.00     0.116 C 
BRANCH  20  21
ATOM     21  N   UNL A   1      32.584  36.325  30.595  1.00  0.00    -0.352 N 
ATOM     22  C   UNL A   1      32.509  35.960  31.920  1.00  0.00     0.251 C 
ATOM     23  H   UNL A   1      31.876  36.936  30.287  1.00  0.00     0.163 HD
ATOM     24  O   UNL A   1      31.538  36.251  32.599  1.00  0.00    -0.269 OA
BRANCH  22  25
ATOM     25  C   UNL A   1      33.619  35.178  32.500  1.00  0.00     0.039 A 
ATOM     26  C   UNL A   1      33.398  33.860  32.904  1.00  0.00     0.014 A 
ATOM     27  C   UNL A   1      34.893  35.739  32.568  1.00  0.00     0.014 A 
ATOM     28  C   UNL A   1      34.484  33.073  33.294  1.00  0.00     0.010 A 
ATOM     29  C   UNL A   1      35.980  34.923  32.833  1.00  0.00     0.010 A 
ATOM     30  C   UNL A   1      35.788  33.586  33.214  1.00  0.00    -0.014 A 
BRANCH  30  31
ATOM     31  C   UNL A   1      36.985  32.785  33.565  1.00  0.00     0.031 A 
ATOM     32  C   UNL A   1      37.686  33.067  34.866  1.00  0.00     0.074 A 
ATOM     33  C   UNL A   1      37.507  31.915  32.679  1.00  0.00     0.049 A 
ATOM     34  N   UNL A   1      38.858  32.663  35.283  1.00  0.00    -0.248 NA
ATOM     35  C   UNL A   1      37.002  33.979  35.801  1.00  0.00     0.031 C 
ATOM     36  C   UNL A   1      36.952  31.603  31.359  1.00  0.00     0.029 A 
ATOM     37  N   UNL A   1      38.642  31.147  32.748  1.00  0.00    -0.354 N 
ATOM     38  C   UNL A   1      39.071  33.318  36.489  1.00  0.00     0.074 A 
ATOM     39  C   UNL A   1      37.935  34.181  36.716  1.00  0.00     0.031 C 
ATOM     40  C   UNL A   1      37.735  30.694  30.754  1.00  0.00     0.029 A 
ATOM     41  C   UNL A   1      38.869  30.392  31.622  1.00  0.00     0.049 A 
ATOM     42  H   UNL A   1      39.239  31.137  33.531  1.00  0.00     0.167 HD
ATOM     43  C   UNL A   1      40.111  33.188  37.345  1.00  0.00     0.037 A 
ATOM     44  C   UNL A   1      39.886  29.561  31.326  1.00  0.00     0.037 A 
ATOM     45  C   UNL A   1      41.184  32.253  37.157  1.00  0.00     0.049 A 
ATOM     46  C   UNL A   1      40.991  29.377  32.334  1.00  0.00     0.074 A 
ATOM     47  C   UNL A   1      42.231  31.959  38.012  1.00  0.00     0.029 A 
ATOM     48  N   UNL A   1      41.330  31.440  36.044  1.00  0.00    -0.354 N 
ATOM     49  N   UNL A   1      41.150  29.952  33.501  1.00  0.00    -0.248 NA
ATOM     50  C   UNL A   1      42.055  28.424  31.986  1.00  0.00     0.031 C 
ATOM     51  C   UNL A   1      43.026  30.985  37.404  1.00  0.00     0.029 A 
ATOM     52  C   UNL A   1      42.453  30.647  36.187  1.00  0.00     0.049 A 
ATOM     53  H   UNL A   1      40.725  31.430  35.267  1.00  0.00     0.167 HD
ATOM     54  C   UNL A   1      42.305  29.405  34.042  1.00  0.00     0.074 A 
ATOM     55  C   UNL A   1      42.805  28.446  33.079  1.00  0.00     0.031 C 
ATOM     56  C   UNL A   1      42.902  29.672  35.229  1.00  0.00     0.037 A 
BRANCH  43  57
ATOM     57  C   UNL A   1      40.124  34.052  38.570  1.00  0.00     0.064 A 
ATOM     58  C   UNL A   1      40.788  35.286  38.596  1.00  0.00     0.173 A 
ATOM     59  C   UNL A   1      39.421  33.659  39.720  1.00  0.00     0.173 A 
ATOM     60  F   UNL A   1      41.487  35.699  37.528  1.00  0.00    -0.203 F 
ATOM     61  C   UNL A   1      40.769  36.086  39.735  1.00  0.00     0.198 A 
ATOM     62  C   UNL A   1      39.380  34.476  40.847  1.00  0.00     0.198 A 
ATOM     63  F   UNL A   1      38.768  32.488  39.747  1.00  0.00    -0.203 F 
ATOM     64  F   UNL A   1      41.450  37.241  39.751  1.00  0.00    -0.200 F 
ATOM     65  C   UNL A   1      40.058  35.685  40.856  1.00  0.00     0.200 A 
ATOM     66  F   UNL A   1      38.683  34.091  41.925  1.00  0.00    -0.200 F 
ATOM     67  F   UNL A   1      40.031  36.462  41.947  1.00  0.00    -0.200 F 
ENDBRANCH  43  57
BRANCH  44  68
ATOM     68  C   UNL A   1      39.902  28.814  30.041  1.00  0.00     0.064 A 
ATOM     69  C   UNL A   1      39.361  27.523  29.958  1.00  0.00     0.173 A 
ATOM     70  C   UNL A   1      40.482  29.353  28.884  1.00  0.00     0.173 A 
ATOM     71  F   UNL A   1      38.812  26.957  31.043  1.00  0.00    -0.203 F 
ATOM     72  C   UNL A   1      39.427  26.787  28.776  1.00  0.00     0.198 A 
ATOM     73  C   UNL A   1      40.522  28.626  27.695  1.00  0.00     0.198 A 
ATOM     74  F   UNL A   1      41.007  30.587  28.906  1.00  0.00    -0.203 F 
ATOM     75  F   UNL A   1      38.953  25.534  28.743  1.00  0.00    -0.200 F 
ATOM     76  C   UNL A   1      40.006  27.340  27.645  1.00  0.00     0.200 A 
ATOM     77  F   UNL A   1      41.072  29.169  26.599  1.00  0.00    -0.200 F 
ATOM     78  F   UNL A   1      40.077  26.629  26.511  1.00  0.00    -0.200 F 
ENDBRANCH  44  68
BRANCH  56  79
ATOM     79  C   UNL A   1      44.122  28.878  35.581  1.00  0.00     0.064 A 
ATOM     80  C   UNL A   1      45.409  29.321  35.250  1.00  0.00     0.173 A 
ATOM     81  C   UNL A   1      44.000  27.691  36.320  1.00  0.00     0.173 A 
ATOM     82  F   UNL A   1      45.573  30.444  34.533  1.00  0.00    -0.203 F 
ATOM     83  C   UNL A   1      46.533  28.597  35.635  1.00  0.00     0.198 A 
ATOM     84  C   UNL A   1      45.127  26.984  36.726  1.00  0.00     0.198 A 
ATOM     85  F   UNL A   1      42.788  27.232  36.666  1.00  0.00    -0.203 F 
ATOM     86  F   UNL A   1      47.754  29.020  35.281  1.00  0.00    -0.200 F 
ATOM     87  C   UNL A   1      46.392  27.435  36.380  1.00  0.00     0.200 A 
ATOM     88  F   UNL A   1      44.989  25.869  37.457  1.00  0.00    -0.200 F 
ATOM     89  F   UNL A   1      47.476  26.746  36.761  1.00  0.00    -0.200 F 
ENDBRANCH  56  79
ENDBRANCH  30  31
ENDBRANCH  22  25
ENDBRANCH  20  21
ENDBRANCH  19  20
ENDBRANCH  18  19
ENDBRANCH   1  18
TORSDOF 16
ENDMDL
MODEL 2
REMARK VINA RESULT:     -10.5      1.249      2.167
REMARK SMILES O=C(CCC(=O)[C@H]1CSCCO1)NCCCCCCNC(=O)c1ccc(-c2c3nc(c(-c4c(F)c(F)c(F)c(F)c4F)c4ccc([nH]4)c(-c4c(F)c(F)c(F)c(F)c4F)c4nc(c(-c5c(F)c(F)c(F)c(F)c5F)c5ccc2[nH]5)C=C4)C=C3)cc1
REMARK SMILES IDX 16 1 15 2 14 3 13 4 1 5 2 6 3 8 4 9 5 10 6 11 7 12 8 13
REMARK SMILES IDX 12 14 9 15 11 16 10 17 17 18 18 19 19 20 20 21 21 22 22 24
REMARK SMILES IDX 23 25 24 26 85 27 25 28 84 29 26 30 27 31 28 32 78 33 29 34
REMARK SMILES IDX 83 35 77 36 79 37 30 38 82 39 76 40 75 41 31 43 63 44 43 45
REMARK SMILES IDX 62 46 44 47 47 48 61 49 80 50 45 51 46 52 60 54 81 55 48 56
REMARK SMILES IDX 32 57 33 58 41 59 34 60 35 61 39 62 42 63 36 64 37 65 40 66
REMARK SMILES IDX 38 67 64 68 65 69 73 70 66 71 67 72 71 73 74 74 68 75 69 76
REMARK SMILES IDX 72 77 70 78 49 79 50 80 58 81 51 82 52 83 56 84 59 85 53 86
REMARK SMILES IDX 54 87 57 88 55 89
REMARK H PARENT 13 7 20 23 79 42 47 53
REMARK Flexibility Score: inf
ROOT
ATOM      1  C   UNL A   1      35.304  32.836  28.327  1.00  0.00     0.002 C 
ENDROOT
BRANCH   1   2
ATOM      2  C   UNL A   1      34.970  31.448  27.752  1.00  0.00     0.021 C 
BRANCH   2   3
ATOM      3  C   UNL A   1      33.538  31.176  27.274  1.00  0.00     0.116 C 
BRANCH   3   4
ATOM      4  N   UNL A   1      33.012  29.876  27.646  1.00  0.00    -0.356 N 
ATOM      5  O   UNL A   1      31.482  29.789  25.935  1.00  0.00    -0.275 OA
ATOM      6  C   UNL A   1      32.033  29.253  26.894  1.00  0.00     0.220 C 
ATOM      7  H   UNL A   1      33.358  29.429  28.452  1.00  0.00     0.163 HD
BRANCH   6   8
ATOM      8  C   UNL A   1      31.688  27.839  27.354  1.00  0.00     0.108 C 
BRANCH   8   9
ATOM      9  C   UNL A   1      32.223  26.763  26.403  1.00  0.00     0.088 C 
BRANCH   9  10
ATOM     10  C   UNL A   1      31.132  25.823  25.889  1.00  0.00     0.162 C 
ATOM     11  O   UNL A   1      30.054  26.271  25.491  1.00  0.00    -0.297 OA
BRANCH  10  12
ATOM     12  C   UNL A   1      31.418  24.323  25.862  1.00  0.00     0.194 C 
ATOM     13  C   UNL A   1      32.619  24.040  24.956  1.00  0.00     0.109 C 
ATOM     14  O   UNL A   1      31.625  24.012  27.233  1.00  0.00    -0.369 OA
ATOM     15  S   UNL A   1      33.236  22.329  25.101  1.00  0.00    -0.156 SA
ATOM     16  C   UNL A   1      32.033  22.683  27.491  1.00  0.00     0.172 C 
ATOM     17  C   UNL A   1      33.378  22.316  26.904  1.00  0.00     0.098 C 
ENDBRANCH  10  12
ENDBRANCH   9  10
ENDBRANCH   8   9
ENDBRANCH   6   8
ENDBRANCH   3   4
ENDBRANCH   2   3
ENDBRANCH   1   2
BRANCH   1  18
ATOM     18  C   UNL A   1      34.435  33.427  29.441  1.00  0.00     0.002 C 
BRANCH  18  19
ATOM     19  C   UNL A   1      33.357  34.420  29.040  1.00  0.00     0.021 C 
BRANCH  19  20
ATOM     20  C   UNL A   1      33.625  35.825  29.544  1.00  0.00     0.116 C 
BRANCH  20  21
ATOM     21  N   UNL A   1      32.660  36.254  30.553  1.00  0.00    -0.352 N 
ATOM     22  C   UNL A   1      32.590  35.939  31.892  1.00  0.00     0.251 C 
ATOM     23  H   UNL A   1      31.954  36.859  30.228  1.00  0.00     0.163 HD
ATOM     24  O   UNL A   1      31.626  36.263  32.566  1.00  0.00    -0.269 OA
BRANCH  22  25
ATOM     25  C   UNL A   1      33.698  35.170  32.493  1.00  0.00     0.039 A 
ATOM     26  C   UNL A   1      33.475  33.860  32.924  1.00  0.00     0.014 A 
ATOM     27  C   UNL A   1      34.972  35.731  32.554  1.00  0.00     0.014 A 
ATOM     28  C   UNL A   1      34.559  33.081  33.336  1.00  0.00     0.010 A 
ATOM     29  C   UNL A   1      36.057  34.922  32.841  1.00  0.00     0.010 A 
ATOM     30  C   UNL A   1      35.863  33.593  33.250  1.00  0.00    -0.014 A 
BRANCH  30  31
ATOM     31  C   UNL A   1      37.059  32.799  33.623  1.00  0.00     0.031 A 
ATOM     32  C   UNL A   1      37.745  33.098  34.928  1.00  0.00     0.074 A 
ATOM     33  C   UNL A   1      37.592  31.920  32.753  1.00  0.00     0.049 A 
ATOM     34  N   UNL A   1      38.914  32.703  35.362  1.00  0.00    -0.248 NA
ATOM     35  C   UNL A   1      37.049  34.019  35.844  1.00  0.00     0.031 C 
ATOM     36  C   UNL A   1      37.052  31.591  31.431  1.00  0.00     0.029 A 
ATOM     37  N   UNL A   1      38.729  31.157  32.843  1.00  0.00    -0.354 N 
ATOM     38  C   UNL A   1      39.112  33.373  36.562  1.00  0.00     0.074 A 
ATOM     39  C   UNL A   1      37.972  34.236  36.767  1.00  0.00     0.031 C 
ATOM     40  C   UNL A   1      37.844  30.677  30.846  1.00  0.00     0.029 A 
ATOM     41  C   UNL A   1      38.969  30.389  31.729  1.00  0.00     0.049 A 
ATOM     42  H   UNL A   1      39.317  31.157  33.633  1.00  0.00     0.167 HD
ATOM     43  C   UNL A   1      40.143  33.256  37.430  1.00  0.00     0.037 A 
ATOM     44  C   UNL A   1      39.992  29.557  31.454  1.00  0.00     0.037 A 
ATOM     45  C   UNL A   1      41.221  32.321  37.265  1.00  0.00     0.049 A 
ATOM     46  C   UNL A   1      41.087  29.388  32.475  1.00  0.00     0.074 A 
ATOM     47  C   UNL A   1      42.260  32.041  38.135  1.00  0.00     0.029 A 
ATOM     48  N   UNL A   1      41.381  31.496  36.163  1.00  0.00    -0.354 N 
ATOM     49  N   UNL A   1      41.232  29.977  33.637  1.00  0.00    -0.248 NA
ATOM     50  C   UNL A   1      42.157  28.434  32.150  1.00  0.00     0.031 C 
ATOM     51  C   UNL A   1      43.064  31.062  37.547  1.00  0.00     0.029 A 
ATOM     52  C   UNL A   1      42.505  30.708  36.328  1.00  0.00     0.049 A 
ATOM     53  H   UNL A   1      40.785  31.475  35.380  1.00  0.00     0.167 HD
ATOM     54  C   UNL A   1      42.382  29.440  34.197  1.00  0.00     0.074 A 
ATOM     55  C   UNL A   1      42.895  28.472  33.251  1.00  0.00     0.031 C 
ATOM     56  C   UNL A   1      42.967  29.723  35.386  1.00  0.00     0.037 A 
BRANCH  43  57
ATOM     57  C   UNL A   1      40.141  34.134  38.645  1.00  0.00     0.064 A 
ATOM     58  C   UNL A   1      40.724  35.410  38.636  1.00  0.00     0.173 A 
ATOM     59  C   UNL A   1      39.505  33.712  39.823  1.00  0.00     0.173 A 
ATOM     60  F   UNL A   1      41.357  35.854  37.540  1.00  0.00    -0.203 F 
ATOM     61  C   UNL A   1      40.691  36.221  39.766  1.00  0.00     0.198 A 
ATOM     62  C   UNL A   1      39.449  34.538  40.942  1.00  0.00     0.198 A 
ATOM     63  F   UNL A   1      38.931  32.501  39.885  1.00  0.00    -0.203 F 
ATOM     64  F   UNL A   1      41.294  37.418  39.747  1.00  0.00    -0.200 F 
ATOM     65  C   UNL A   1      40.046  35.789  40.916  1.00  0.00     0.200 A 
ATOM     66  F   UNL A   1      38.815  34.122  42.048  1.00  0.00    -0.200 F 
ATOM     67  F   UNL A   1      40.005  36.576  41.998  1.00  0.00    -0.200 F 
ENDBRANCH  43  57
BRANCH  44  68
ATOM     68  C   UNL A   1      40.024  28.795  30.178  1.00  0.00     0.064 A 
ATOM     69  C   UNL A   1      40.627  29.339  29.035  1.00  0.00     0.173 A 
ATOM     70  C   UNL A   1      39.431  27.529  30.062  1.00  0.00     0.173 A 
ATOM     71  F   UNL A   1      41.191  30.555  29.090  1.00  0.00    -0.203 F 
ATOM     72  C   UNL A   1      40.607  28.662  27.816  1.00  0.00     0.198 A 
ATOM     73  C   UNL A   1      39.437  26.841  28.849  1.00  0.00     0.198 A 
ATOM     74  F   UNL A   1      38.849  26.960  31.127  1.00  0.00    -0.203 F 
ATOM     75  F   UNL A   1      41.139  29.233  26.728  1.00  0.00    -0.200 F 
ATOM     76  C   UNL A   1      40.014  27.414  27.725  1.00  0.00     0.200 A 
ATOM     77  F   UNL A   1      38.873  25.628  28.768  1.00  0.00    -0.200 F 
ATOM     78  F   UNL A   1      39.988  26.766  26.552  1.00  0.00    -0.200 F 
ENDBRANCH  44  68
BRANCH  56  79
ATOM     79  C   UNL A   1      44.185  28.936  35.761  1.00  0.00     0.064 A 
ATOM     80  C   UNL A   1      44.092  27.729  36.466  1.00  0.00     0.173 A 
ATOM     81  C   UNL A   1      45.455  29.367  35.348  1.00  0.00     0.173 A 
ATOM     82  F   UNL A   1      42.900  27.285  36.892  1.00  0.00    -0.203 F 
ATOM     83  C   UNL A   1      45.231  26.984  36.756  1.00  0.00     0.198 A 
ATOM     84  C   UNL A   1      46.588  28.607  35.617  1.00  0.00     0.198 A 
ATOM     85  F   UNL A   1      45.590  30.513  34.664  1.00  0.00    -0.203 F 
ATOM     86  F   UNL A   1      45.126  25.849  37.459  1.00  0.00    -0.200 F 
ATOM     87  C   UNL A   1      46.477  27.419  36.324  1.00  0.00     0.200 A 
ATOM     88  F   UNL A   1      47.788  29.021  35.187  1.00  0.00    -0.200 F 
ATOM     89  F   UNL A   1      47.571  26.694  36.593  1.00  0.00    -0.200 F 
ENDBRANCH  56  79
ENDBRANCH  30  31
ENDBRANCH  22  25
ENDBRANCH  20  21
ENDBRANCH  19  20
ENDBRANCH  18  19
ENDBRANCH   1  18
TORSDOF 16
ENDMDL
MODEL 3
REMARK VINA RESULT:     -10.4      7.122     12.841
REMARK SMILES O=C(CCC(=O)[C@H]1CSCCO1)NCCCCCCNC(=O)c1ccc(-c2c3nc(c(-c4c(F)c(F)c(F)c(F)c4F)c4ccc([nH]4)c(-c4c(F)c(F)c(F)c(F)c4F)c4nc(c(-c5c(F)c(F)c(F)c(F)c5F)c5ccc2[nH]5)C=C4)C=C3)cc1
REMARK SMILES IDX 16 1 15 2 14 3 13 4 1 5 2 6 3 8 4 9 5 10 6 11 7 12 8 13
REMARK SMILES IDX 12 14 9 15 11 16 10 17 17 18 18 19 19 20 20 21 21 22 22 24
REMARK SMILES IDX 23 25 24 26 85 27 25 28 84 29 26 30 27 31 28 32 78 33 29 34
REMARK SMILES IDX 83 35 77 36 79 37 30 38 82 39 76 40 75 41 31 43 63 44 43 45
REMARK SMILES IDX 62 46 44 47 47 48 61 49 80 50 45 51 46 52 60 54 81 55 48 56
REMARK SMILES IDX 32 57 33 58 41 59 34 60 35 61 39 62 42 63 36 64 37 65 40 66
REMARK SMILES IDX 38 67 64 68 65 69 73 70 66 71 67 72 71 73 74 74 68 75 69 76
REMARK SMILES IDX 72 77 70 78 49 79 50 80 58 81 51 82 52 83 56 84 59 85 53 86
REMARK SMILES IDX 54 87 57 88 55 89
REMARK H PARENT 13 7 20 23 79 42 47 53
REMARK Flexibility Score: inf
ROOT
ATOM      1  C   UNL A   1      41.069  22.092  26.542  1.00  0.00     0.002 C 
ENDROOT
BRANCH   1   2
ATOM      2  C   UNL A   1      39.647  22.565  26.892  1.00  0.00     0.021 C 
BRANCH   2   3
ATOM      3  C   UNL A   1      38.502  22.223  25.931  1.00  0.00     0.116 C 
BRANCH   3   4
ATOM      4  N   UNL A   1      37.271  22.951  26.171  1.00  0.00    -0.356 N 
ATOM      5  O   UNL A   1      35.897  21.180  25.671  1.00  0.00    -0.275 OA
ATOM      6  C   UNL A   1      36.037  22.335  26.065  1.00  0.00     0.220 C 
ATOM      7  H   UNL A   1      37.314  23.904  26.415  1.00  0.00     0.163 HD
BRANCH   6   8
ATOM      8  C   UNL A   1      34.857  23.211  26.476  1.00  0.00     0.108 C 
BRANCH   8   9
ATOM      9  C   UNL A   1      33.669  22.395  26.994  1.00  0.00     0.088 C 
BRANCH   9  10
ATOM     10  C   UNL A   1      32.359  23.184  27.005  1.00  0.00     0.162 C 
ATOM     11  O   UNL A   1      31.438  22.861  27.759  1.00  0.00    -0.297 OA
BRANCH  10  12
ATOM     12  C   UNL A   1      32.229  24.390  26.077  1.00  0.00     0.194 C 
ATOM     13  C   UNL A   1      31.630  23.953  24.738  1.00  0.00     0.109 C 
ATOM     14  O   UNL A   1      31.417  25.284  26.826  1.00  0.00    -0.369 OA
ATOM     15  S   UNL A   1      31.143  25.358  23.681  1.00  0.00    -0.156 SA
ATOM     16  C   UNL A   1      31.032  26.460  26.142  1.00  0.00     0.172 C 
ATOM     17  C   UNL A   1      30.160  26.222  24.929  1.00  0.00     0.098 C 
ENDBRANCH  10  12
ENDBRANCH   9  10
ENDBRANCH   8   9
ENDBRANCH   6   8
ENDBRANCH   3   4
ENDBRANCH   2   3
ENDBRANCH   1   2
BRANCH   1  18
ATOM     18  C   UNL A   1      41.870  21.273  27.558  1.00  0.00     0.002 C 
BRANCH  18  19
ATOM     19  C   UNL A   1      42.335  19.890  27.136  1.00  0.00     0.021 C 
BRANCH  19  20
ATOM     20  C   UNL A   1      42.180  19.639  25.648  1.00  0.00     0.116 C 
BRANCH  20  21
ATOM     21  N   UNL A   1      43.329  18.942  25.073  1.00  0.00    -0.352 N 
ATOM     22  C   UNL A   1      44.527  19.449  24.622  1.00  0.00     0.251 C 
ATOM     23  H   UNL A   1      43.231  17.965  24.997  1.00  0.00     0.163 HD
ATOM     24  O   UNL A   1      45.324  18.743  24.027  1.00  0.00    -0.269 OA
BRANCH  22  25
ATOM     25  C   UNL A   1      44.817  20.879  24.848  1.00  0.00     0.039 A 
ATOM     26  C   UNL A   1      44.374  21.827  23.923  1.00  0.00     0.014 A 
ATOM     27  C   UNL A   1      45.463  21.274  26.018  1.00  0.00     0.014 A 
ATOM     28  C   UNL A   1      44.502  23.186  24.222  1.00  0.00     0.010 A 
ATOM     29  C   UNL A   1      45.475  22.613  26.367  1.00  0.00     0.010 A 
ATOM     30  C   UNL A   1      45.009  23.586  25.468  1.00  0.00    -0.014 A 
BRANCH  30  31
ATOM     31  C   UNL A   1      45.124  25.010  25.865  1.00  0.00     0.031 A 
ATOM     32  C   UNL A   1      46.470  25.677  25.780  1.00  0.00     0.074 A 
ATOM     33  C   UNL A   1      44.072  25.651  26.410  1.00  0.00     0.049 A 
ATOM     34  N   UNL A   1      46.861  26.823  26.273  1.00  0.00    -0.248 NA
ATOM     35  C   UNL A   1      47.539  24.921  25.104  1.00  0.00     0.031 C 
ATOM     36  C   UNL A   1      42.733  25.089  26.601  1.00  0.00     0.029 A 
ATOM     37  N   UNL A   1      43.974  26.919  26.928  1.00  0.00    -0.354 N 
ATOM     38  C   UNL A   1      48.224  26.893  26.018  1.00  0.00     0.074 A 
ATOM     39  C   UNL A   1      48.606  25.657  25.374  1.00  0.00     0.031 C 
ATOM     40  C   UNL A   1      41.943  26.014  27.172  1.00  0.00     0.029 A 
ATOM     41  C   UNL A   1      42.729  27.217  27.428  1.00  0.00     0.049 A 
ATOM     42  H   UNL A   1      44.725  27.556  26.939  1.00  0.00     0.167 HD
ATOM     43  C   UNL A   1      49.077  27.911  26.276  1.00  0.00     0.037 A 
ATOM     44  C   UNL A   1      42.284  28.334  28.034  1.00  0.00     0.037 A 
ATOM     45  C   UNL A   1      48.668  29.173  26.825  1.00  0.00     0.049 A 
ATOM     46  C   UNL A   1      43.238  29.482  28.235  1.00  0.00     0.074 A 
ATOM     47  C   UNL A   1      49.426  30.313  27.025  1.00  0.00     0.029 A 
ATOM     48  N   UNL A   1      47.378  29.467  27.236  1.00  0.00    -0.354 N 
ATOM     49  N   UNL A   1      44.511  29.562  27.932  1.00  0.00    -0.248 NA
ATOM     50  C   UNL A   1      42.693  30.697  28.858  1.00  0.00     0.031 C 
ATOM     51  C   UNL A   1      48.598  31.290  27.582  1.00  0.00     0.029 A 
ATOM     52  C   UNL A   1      47.318  30.771  27.694  1.00  0.00     0.049 A 
ATOM     53  H   UNL A   1      46.618  28.842  27.207  1.00  0.00     0.167 HD
ATOM     54  C   UNL A   1      44.908  30.843  28.289  1.00  0.00     0.074 A 
ATOM     55  C   UNL A   1      43.741  31.509  28.827  1.00  0.00     0.031 C 
ATOM     56  C   UNL A   1      46.130  31.419  28.185  1.00  0.00     0.037 A 
BRANCH  43  57
ATOM     57  C   UNL A   1      50.525  27.715  25.941  1.00  0.00     0.064 A 
ATOM     58  C   UNL A   1      51.462  27.328  26.910  1.00  0.00     0.173 A 
ATOM     59  C   UNL A   1      50.974  27.872  24.620  1.00  0.00     0.173 A 
ATOM     60  F   UNL A   1      51.087  27.180  28.190  1.00  0.00    -0.203 F 
ATOM     61  C   UNL A   1      52.798  27.127  26.576  1.00  0.00     0.198 A 
ATOM     62  C   UNL A   1      52.305  27.642  24.284  1.00  0.00     0.198 A 
ATOM     63  F   UNL A   1      50.119  28.241  23.655  1.00  0.00    -0.203 F 
ATOM     64  F   UNL A   1      53.683  26.802  27.529  1.00  0.00    -0.200 F 
ATOM     65  C   UNL A   1      53.217  27.276  25.262  1.00  0.00     0.200 A 
ATOM     66  F   UNL A   1      52.706  27.775  23.012  1.00  0.00    -0.200 F 
ATOM     67  F   UNL A   1      54.501  27.070  24.941  1.00  0.00    -0.200 F 
ENDBRANCH  43  57
BRANCH  44  68
ATOM     68  C   UNL A   1      40.866  28.444  28.467  1.00  0.00     0.064 A 
ATOM     69  C   UNL A   1      39.896  28.983  27.610  1.00  0.00     0.173 A 
ATOM     70  C   UNL A   1      40.455  28.046  29.747  1.00  0.00     0.173 A 
ATOM     71  F   UNL A   1      40.244  29.396  26.382  1.00  0.00    -0.203 F 
ATOM     72  C   UNL A   1      38.577  29.152  28.027  1.00  0.00     0.198 A 
ATOM     73  C   UNL A   1      39.128  28.189  30.153  1.00  0.00     0.198 A 
ATOM     74  F   UNL A   1      41.340  27.515  30.604  1.00  0.00    -0.203 F 
ATOM     75  F   UNL A   1      37.686  29.724  27.207  1.00  0.00    -0.200 F 
ATOM     76  C   UNL A   1      38.194  28.752  29.297  1.00  0.00     0.200 A 
ATOM     77  F   UNL A   1      38.759  27.789  31.378  1.00  0.00    -0.200 F 
ATOM     78  F   UNL A   1      36.927  28.921  29.701  1.00  0.00    -0.200 F 
ENDBRANCH  44  68
BRANCH  56  79
ATOM     79  C   UNL A   1      46.256  32.852  28.600  1.00  0.00     0.064 A 
ATOM     80  C   UNL A   1      46.621  33.210  29.905  1.00  0.00     0.173 A 
ATOM     81  C   UNL A   1      46.073  33.876  27.658  1.00  0.00     0.173 A 
ATOM     82  F   UNL A   1      46.793  32.265  30.841  1.00  0.00    -0.203 F 
ATOM     83  C   UNL A   1      46.787  34.546  30.257  1.00  0.00     0.198 A 
ATOM     84  C   UNL A   1      46.265  35.209  28.007  1.00  0.00     0.198 A 
ATOM     85  F   UNL A   1      45.731  33.579  26.396  1.00  0.00    -0.203 F 
ATOM     86  F   UNL A   1      47.104  34.870  31.517  1.00  0.00    -0.200 F 
ATOM     87  C   UNL A   1      46.617  35.543  29.306  1.00  0.00     0.200 A 
ATOM     88  F   UNL A   1      46.115  36.169  27.085  1.00  0.00    -0.200 F 
ATOM     89  F   UNL A   1      46.791  36.828  29.644  1.00  0.00    -0.200 F 
ENDBRANCH  56  79
ENDBRANCH  30  31
ENDBRANCH  22  25
ENDBRANCH  20  21
ENDBRANCH  19  20
ENDBRANCH  18  19
ENDBRANCH   1  18
TORSDOF 16
ENDMDL
