MODEL 1
REMARK VINA RESULT:     -12.4      0.000      0.000
REMARK SMILES C[C@@H]1[C@H](C(=O)NCCCCCCNC(=O)c2ccc(-c3c4nc(c(-c5c(F)c(F)c(F)c(F)c5F)c5ccc([nH]5)c(-c5c(F)c(F)c(F)c(F)c5F)c5nc(c(-c6c(F)c(F)c(F)c(F)c6F)c6ccc3[nH]6)C=C5)C=C4)cc2)CC[N@@H+]1Cc1cnn(-c2ccccc2)c1
REMARK SMILES IDX 9 1 8 2 7 3 6 4 4 5 5 6 3 8 1 9 2 10 81 11 79 12 80 13 82 15
REMARK SMILES IDX 83 16 84 17 93 18 85 19 86 20 87 21 88 22 92 23 89 24 91 25
REMARK SMILES IDX 90 26 10 27 11 28 12 29 13 30 14 31 15 33 16 34 17 35 78 36
REMARK SMILES IDX 18 37 77 38 19 39 20 40 21 41 71 42 22 43 76 44 70 45 72 46
REMARK SMILES IDX 23 47 75 48 69 49 68 50 24 52 56 53 36 54 55 55 37 56 40 57
REMARK SMILES IDX 54 58 73 59 38 60 39 61 53 63 74 64 41 65 25 66 26 67 34 68
REMARK SMILES IDX 27 69 28 70 32 71 35 72 29 73 30 74 33 75 31 76 57 77 58 78
REMARK SMILES IDX 66 79 59 80 60 81 64 82 67 83 61 84 62 85 65 86 63 87 42 88
REMARK SMILES IDX 43 89 51 90 44 91 45 92 49 93 52 94 46 95 47 96 50 97 48 98
REMARK H PARENT 6 7 81 14 13 32 72 51 40 62
REMARK Flexibility Score: inf
ROOT
ATOM      1  C   UNL A   1      31.374  28.863  22.841  1.00  0.00     0.002 C 
ENDROOT
BRANCH   1   2
ATOM      2  C   UNL A   1      30.284  27.797  22.670  1.00  0.00     0.021 C 
BRANCH   2   3
ATOM      3  C   UNL A   1      29.851  27.050  23.939  1.00  0.00     0.116 C 
BRANCH   3   4
ATOM      4  N   UNL A   1      29.929  25.611  23.769  1.00  0.00    -0.356 N 
ATOM      5  C   UNL A   1      30.918  24.707  23.971  1.00  0.00     0.229 C 
ATOM      6  O   UNL A   1      30.653  23.539  23.654  1.00  0.00    -0.275 OA
ATOM      7  H   UNL A   1      29.093  25.209  23.441  1.00  0.00     0.163 HD
BRANCH   5   8
ATOM      8  C   UNL A   1      32.292  25.016  24.548  1.00  0.00     0.142 C 
ATOM      9  C   UNL A   1      31.607  23.892  26.810  1.00  0.00     0.076 C 
ATOM     10  C   UNL A   1      32.586  24.765  26.040  1.00  0.00     0.193 C 
ATOM     11  N   UNL A   1      34.016  24.429  26.090  1.00  0.00    -0.328 N 
ATOM     12  C   UNL A   1      33.506  24.494  23.793  1.00  0.00     0.081 C 
ATOM     13  C   UNL A   1      34.629  24.700  24.797  1.00  0.00     0.263 C 
ATOM     14  H   UNL A   1      34.373  25.070  26.798  1.00  0.00     0.348 HD
BRANCH  11  15
ATOM     15  C   UNL A   1      34.542  23.328  26.876  1.00  0.00     0.302 C 
BRANCH  15  16
ATOM     16  C   UNL A   1      34.829  22.099  26.085  1.00  0.00     0.045 A 
ATOM     17  C   UNL A   1      36.080  21.600  25.665  1.00  0.00     0.145 A 
ATOM     18  C   UNL A   1      33.944  21.122  25.671  1.00  0.00     0.124 A 
ATOM     19  N   UNL A   1      35.990  20.452  25.001  1.00  0.00    -0.176 NA
ATOM     20  N   UNL A   1      34.670  20.152  25.018  1.00  0.00    -0.240 N 
BRANCH  20  21
ATOM     21  C   UNL A   1      34.200  18.956  24.424  1.00  0.00     0.065 A 
ATOM     22  C   UNL A   1      32.967  18.977  23.754  1.00  0.00     0.028 A 
ATOM     23  C   UNL A   1      34.952  17.775  24.478  1.00  0.00     0.028 A 
ATOM     24  C   UNL A   1      32.508  17.842  23.102  1.00  0.00     0.002 A 
ATOM     25  C   UNL A   1      34.483  16.639  23.826  1.00  0.00     0.002 A 
ATOM     26  C   UNL A   1      33.277  16.688  23.126  1.00  0.00     0.000 A 
ENDBRANCH  20  21
ENDBRANCH  15  16
ENDBRANCH  11  15
ENDBRANCH   5   8
ENDBRANCH   3   4
ENDBRANCH   2   3
ENDBRANCH   1   2
BRANCH   1  27
ATOM     27  C   UNL A   1      32.692  28.399  23.469  1.00  0.00     0.002 C 
BRANCH  27  28
ATOM     28  C   UNL A   1      33.283  29.288  24.572  1.00  0.00     0.021 C 
BRANCH  28  29
ATOM     29  C   UNL A   1      32.454  29.448  25.853  1.00  0.00     0.116 C 
BRANCH  29  30
ATOM     30  N   UNL A   1      32.208  30.833  26.220  1.00  0.00    -0.352 N 
ATOM     31  C   UNL A   1      32.940  31.662  27.040  1.00  0.00     0.251 C 
ATOM     32  H   UNL A   1      31.400  31.236  25.826  1.00  0.00     0.163 HD
ATOM     33  O   UNL A   1      32.535  32.790  27.300  1.00  0.00    -0.269 OA
BRANCH  31  34
ATOM     34  C   UNL A   1      34.217  31.206  27.640  1.00  0.00     0.039 A 
ATOM     35  C   UNL A   1      35.268  32.117  27.783  1.00  0.00     0.014 A 
ATOM     36  C   UNL A   1      34.416  29.875  28.000  1.00  0.00     0.014 A 
ATOM     37  C   UNL A   1      36.486  31.711  28.353  1.00  0.00     0.010 A 
ATOM     38  C   UNL A   1      35.626  29.487  28.605  1.00  0.00     0.010 A 
ATOM     39  C   UNL A   1      36.676  30.400  28.826  1.00  0.00    -0.014 A 
BRANCH  39  40
ATOM     40  C   UNL A   1      37.930  30.018  29.579  1.00  0.00     0.031 A 
ATOM     41  C   UNL A   1      38.193  30.495  30.994  1.00  0.00     0.074 A 
ATOM     42  C   UNL A   1      38.896  29.272  28.991  1.00  0.00     0.049 A 
ATOM     43  N   UNL A   1      39.217  30.246  31.780  1.00  0.00    -0.248 NA
ATOM     44  C   UNL A   1      37.206  31.405  31.589  1.00  0.00     0.031 C 
ATOM     45  C   UNL A   1      38.893  28.808  27.603  1.00  0.00     0.029 A 
ATOM     46  N   UNL A   1      40.077  28.761  29.495  1.00  0.00    -0.354 N 
ATOM     47  C   UNL A   1      39.007  30.985  32.938  1.00  0.00     0.074 A 
ATOM     48  C   UNL A   1      37.802  31.756  32.720  1.00  0.00     0.031 C 
ATOM     49  C   UNL A   1      39.972  28.037  27.386  1.00  0.00     0.029 A 
ATOM     50  C   UNL A   1      40.771  27.970  28.606  1.00  0.00     0.049 A 
ATOM     51  H   UNL A   1      40.394  28.947  30.409  1.00  0.00     0.167 HD
ATOM     52  C   UNL A   1      39.710  30.998  34.099  1.00  0.00     0.037 A 
ATOM     53  C   UNL A   1      41.909  27.256  28.748  1.00  0.00     0.037 A 
ATOM     54  C   UNL A   1      40.872  30.195  34.377  1.00  0.00     0.049 A 
ATOM     55  C   UNL A   1      42.647  27.242  30.063  1.00  0.00     0.074 A 
ATOM     56  C   UNL A   1      41.568  30.073  35.570  1.00  0.00     0.029 A 
ATOM     57  N   UNL A   1      41.509  29.377  33.461  1.00  0.00    -0.354 N 
ATOM     58  N   UNL A   1      42.355  27.849  31.185  1.00  0.00    -0.248 NA
ATOM     59  C   UNL A   1      43.875  26.430  30.129  1.00  0.00     0.031 C 
ATOM     60  C   UNL A   1      42.650  29.210  35.365  1.00  0.00     0.029 A 
ATOM     61  C   UNL A   1      42.601  28.760  34.058  1.00  0.00     0.049 A 
ATOM     62  H   UNL A   1      41.231  29.251  32.525  1.00  0.00     0.167 HD
ATOM     63  C   UNL A   1      43.336  27.466  32.093  1.00  0.00     0.074 A 
ATOM     64  C   UNL A   1      44.225  26.562  31.400  1.00  0.00     0.031 C 
ATOM     65  C   UNL A   1      43.481  27.840  33.387  1.00  0.00     0.037 A 
BRANCH  52  66
ATOM     66  C   UNL A   1      39.207  31.891  35.199  1.00  0.00     0.064 A 
ATOM     67  C   UNL A   1      39.486  33.267  35.208  1.00  0.00     0.173 A 
ATOM     68  C   UNL A   1      38.405  31.379  36.229  1.00  0.00     0.173 A 
ATOM     69  F   UNL A   1      40.250  33.805  34.245  1.00  0.00    -0.203 F 
ATOM     70  C   UNL A   1      39.022  34.087  36.230  1.00  0.00     0.198 A 
ATOM     71  C   UNL A   1      37.911  32.210  37.233  1.00  0.00     0.198 A 
ATOM     72  F   UNL A   1      38.091  30.075  36.260  1.00  0.00    -0.203 F 
ATOM     73  F   UNL A   1      39.355  35.385  36.249  1.00  0.00    -0.200 F 
ATOM     74  C   UNL A   1      38.230  33.559  37.239  1.00  0.00     0.200 A 
ATOM     75  F   UNL A   1      37.130  31.704  38.197  1.00  0.00    -0.200 F 
ATOM     76  F   UNL A   1      37.780  34.351  38.221  1.00  0.00    -0.200 F 
ENDBRANCH  52  66
BRANCH  53  77
ATOM     77  C   UNL A   1      42.421  26.430  27.618  1.00  0.00     0.064 A 
ATOM     78  C   UNL A   1      41.967  25.115  27.431  1.00  0.00     0.173 A 
ATOM     79  C   UNL A   1      43.408  26.908  26.747  1.00  0.00     0.173 A 
ATOM     80  F   UNL A   1      41.045  24.601  28.259  1.00  0.00    -0.203 F 
ATOM     81  C   UNL A   1      42.505  24.300  26.436  1.00  0.00     0.198 A 
ATOM     82  C   UNL A   1      43.925  26.102  25.734  1.00  0.00     0.198 A 
ATOM     83  F   UNL A   1      43.877  28.157  26.885  1.00  0.00    -0.203 F 
ATOM     84  F   UNL A   1      42.097  23.030  26.321  1.00  0.00    -0.200 F 
ATOM     85  C   UNL A   1      43.481  24.797  25.586  1.00  0.00     0.200 A 
ATOM     86  F   UNL A   1      44.862  26.586  24.908  1.00  0.00    -0.200 F 
ATOM     87  F   UNL A   1      44.004  24.011  24.635  1.00  0.00    -0.200 F 
ENDBRANCH  53  77
BRANCH  65  88
ATOM     88  C   UNL A   1      44.617  27.244  34.171  1.00  0.00     0.064 A 
ATOM     89  C   UNL A   1      44.485  26.028  34.857  1.00  0.00     0.173 A 
ATOM     90  C   UNL A   1      45.871  27.876  34.196  1.00  0.00     0.173 A 
ATOM     91  F   UNL A   1      43.306  25.390  34.877  1.00  0.00    -0.203 F 
ATOM     92  C   UNL A   1      45.559  25.478  35.556  1.00  0.00     0.198 A 
ATOM     93  C   UNL A   1      46.950  27.308  34.871  1.00  0.00     0.198 A 
ATOM     94  F   UNL A   1      46.056  29.038  33.553  1.00  0.00    -0.203 F 
ATOM     95  F   UNL A   1      45.396  24.336  36.238  1.00  0.00    -0.200 F 
ATOM     96  C   UNL A   1      46.791  26.113  35.555  1.00  0.00     0.200 A 
ATOM     97  F   UNL A   1      48.143  27.918  34.858  1.00  0.00    -0.200 F 
ATOM     98  F   UNL A   1      47.824  25.576  36.219  1.00  0.00    -0.200 F 
ENDBRANCH  65  88
ENDBRANCH  39  40
ENDBRANCH  31  34
ENDBRANCH  29  30
ENDBRANCH  28  29
ENDBRANCH  27  28
ENDBRANCH   1  27
TORSDOF 16
ENDMDL
MODEL 2
REMARK VINA RESULT:     -12.4      1.666      2.719
REMARK SMILES C[C@@H]1[C@H](C(=O)NCCCCCCNC(=O)c2ccc(-c3c4nc(c(-c5c(F)c(F)c(F)c(F)c5F)c5ccc([nH]5)c(-c5c(F)c(F)c(F)c(F)c5F)c5nc(c(-c6c(F)c(F)c(F)c(F)c6F)c6ccc3[nH]6)C=C5)C=C4)cc2)CC[N@@H+]1Cc1cnn(-c2ccccc2)c1
REMARK SMILES IDX 9 1 8 2 7 3 6 4 4 5 5 6 3 8 1 9 2 10 81 11 79 12 80 13 82 15
REMARK SMILES IDX 83 16 84 17 93 18 85 19 86 20 87 21 88 22 92 23 89 24 91 25
REMARK SMILES IDX 90 26 10 27 11 28 12 29 13 30 14 31 15 33 16 34 17 35 78 36
REMARK SMILES IDX 18 37 77 38 19 39 20 40 21 41 71 42 22 43 76 44 70 45 72 46
REMARK SMILES IDX 23 47 75 48 69 49 68 50 24 52 56 53 36 54 55 55 37 56 40 57
REMARK SMILES IDX 54 58 73 59 38 60 39 61 53 63 74 64 41 65 25 66 26 67 34 68
REMARK SMILES IDX 27 69 28 70 32 71 35 72 29 73 30 74 33 75 31 76 57 77 58 78
REMARK SMILES IDX 66 79 59 80 60 81 64 82 67 83 61 84 62 85 65 86 63 87 42 88
REMARK SMILES IDX 43 89 51 90 44 91 45 92 49 93 52 94 46 95 47 96 50 97 48 98
REMARK H PARENT 6 7 81 14 13 32 72 51 40 62
REMARK Flexibility Score: inf
ROOT
ATOM      1  C   UNL A   1      31.552  29.517  25.081  1.00  0.00     0.002 C 
ENDROOT
BRANCH   1   2
ATOM      2  C   UNL A   1      32.920  29.215  24.454  1.00  0.00     0.021 C 
BRANCH   2   3
ATOM      3  C   UNL A   1      32.913  28.722  23.001  1.00  0.00     0.116 C 
BRANCH   3   4
ATOM      4  N   UNL A   1      32.082  27.544  22.836  1.00  0.00    -0.356 N 
ATOM      5  C   UNL A   1      32.300  26.222  23.036  1.00  0.00     0.229 C 
ATOM      6  O   UNL A   1      31.367  25.469  22.725  1.00  0.00    -0.275 OA
ATOM      7  H   UNL A   1      31.175  27.746  22.512  1.00  0.00     0.163 HD
BRANCH   5   8
ATOM      8  C   UNL A   1      33.574  25.613  23.606  1.00  0.00     0.142 C 
ATOM      9  C   UNL A   1      32.638  25.903  26.033  1.00  0.00     0.076 C 
ATOM     10  C   UNL A   1      33.825  25.612  25.126  1.00  0.00     0.193 C 
ATOM     11  N   UNL A   1      34.618  24.400  25.375  1.00  0.00    -0.328 N 
ATOM     12  C   UNL A   1      33.969  24.227  23.120  1.00  0.00     0.081 C 
ATOM     13  C   UNL A   1      35.054  23.831  24.108  1.00  0.00     0.263 C 
ATOM     14  H   UNL A   1      35.415  24.757  25.901  1.00  0.00     0.348 HD
BRANCH  11  15
ATOM     15  C   UNL A   1      34.348  23.491  26.474  1.00  0.00     0.302 C 
BRANCH  15  16
ATOM     16  C   UNL A   1      33.695  22.216  26.062  1.00  0.00     0.045 A 
ATOM     17  C   UNL A   1      32.363  22.010  25.649  1.00  0.00     0.145 A 
ATOM     18  C   UNL A   1      34.274  20.973  25.897  1.00  0.00     0.124 A 
ATOM     19  N   UNL A   1      32.109  20.749  25.313  1.00  0.00    -0.176 NA
ATOM     20  N   UNL A   1      33.295  20.113  25.455  1.00  0.00    -0.240 N 
BRANCH  20  21
ATOM     21  C   UNL A   1      33.412  18.737  25.142  1.00  0.00     0.065 A 
ATOM     22  C   UNL A   1      32.528  17.832  25.749  1.00  0.00     0.028 A 
ATOM     23  C   UNL A   1      34.371  18.279  24.230  1.00  0.00     0.028 A 
ATOM     24  C   UNL A   1      32.568  16.487  25.416  1.00  0.00     0.002 A 
ATOM     25  C   UNL A   1      34.410  16.927  23.904  1.00  0.00     0.002 A 
ATOM     26  C   UNL A   1      33.494  16.047  24.481  1.00  0.00     0.000 A 
ENDBRANCH  20  21
ENDBRANCH  15  16
ENDBRANCH  11  15
ENDBRANCH   5   8
ENDBRANCH   3   4
ENDBRANCH   2   3
ENDBRANCH   1   2
BRANCH   1  27
ATOM     27  C   UNL A   1      31.564  30.184  26.460  1.00  0.00     0.002 C 
BRANCH  27  28
ATOM     28  C   UNL A   1      31.415  31.712  26.490  1.00  0.00     0.021 C 
BRANCH  28  29
ATOM     29  C   UNL A   1      32.660  32.524  26.872  1.00  0.00     0.116 C 
BRANCH  29  30
ATOM     30  N   UNL A   1      32.355  33.830  27.431  1.00  0.00    -0.352 N 
ATOM     31  C   UNL A   1      32.978  34.510  28.454  1.00  0.00     0.251 C 
ATOM     32  H   UNL A   1      31.593  34.298  27.018  1.00  0.00     0.163 HD
ATOM     33  O   UNL A   1      32.530  35.581  28.847  1.00  0.00    -0.269 OA
BRANCH  31  34
ATOM     34  C   UNL A   1      34.184  33.953  29.114  1.00  0.00     0.039 A 
ATOM     35  C   UNL A   1      34.030  33.010  30.133  1.00  0.00     0.014 A 
ATOM     36  C   UNL A   1      35.462  34.402  28.788  1.00  0.00     0.014 A 
ATOM     37  C   UNL A   1      35.157  32.465  30.772  1.00  0.00     0.010 A 
ATOM     38  C   UNL A   1      36.586  33.822  29.405  1.00  0.00     0.010 A 
ATOM     39  C   UNL A   1      36.464  32.818  30.386  1.00  0.00    -0.014 A 
BRANCH  39  40
ATOM     40  C   UNL A   1      37.665  32.108  30.968  1.00  0.00     0.031 A 
ATOM     41  C   UNL A   1      38.164  32.394  32.371  1.00  0.00     0.074 A 
ATOM     42  C   UNL A   1      38.375  31.221  30.231  1.00  0.00     0.049 A 
ATOM     43  N   UNL A   1      39.175  31.860  33.019  1.00  0.00    -0.248 NA
ATOM     44  C   UNL A   1      37.471  33.444  33.129  1.00  0.00     0.031 C 
ATOM     45  C   UNL A   1      38.134  30.889  28.825  1.00  0.00     0.029 A 
ATOM     46  N   UNL A   1      39.452  30.423  30.566  1.00  0.00    -0.354 N 
ATOM     47  C   UNL A   1      39.250  32.526  34.237  1.00  0.00     0.074 A 
ATOM     48  C   UNL A   1      38.236  33.559  34.204  1.00  0.00     0.031 C 
ATOM     49  C   UNL A   1      38.984  29.922  28.441  1.00  0.00     0.029 A 
ATOM     50  C   UNL A   1      39.860  29.578  29.558  1.00  0.00     0.049 A 
ATOM     51  H   UNL A   1      39.890  30.457  31.448  1.00  0.00     0.167 HD
ATOM     52  C   UNL A   1      40.046  32.286  35.310  1.00  0.00     0.037 A 
ATOM     53  C   UNL A   1      40.814  28.623  29.526  1.00  0.00     0.037 A 
ATOM     54  C   UNL A   1      41.017  31.228  35.406  1.00  0.00     0.049 A 
ATOM     55  C   UNL A   1      41.653  28.336  30.746  1.00  0.00     0.074 A 
ATOM     56  C   UNL A   1      41.779  30.856  36.503  1.00  0.00     0.029 A 
ATOM     57  N   UNL A   1      41.361  30.371  34.376  1.00  0.00    -0.354 N 
ATOM     58  N   UNL A   1      41.615  28.894  31.929  1.00  0.00    -0.248 NA
ATOM     59  C   UNL A   1      42.665  27.271  30.623  1.00  0.00     0.031 C 
ATOM     60  C   UNL A   1      42.611  29.797  36.125  1.00  0.00     0.029 A 
ATOM     61  C   UNL A   1      42.336  29.482  34.807  1.00  0.00     0.049 A 
ATOM     62  H   UNL A   1      40.972  30.389  33.471  1.00  0.00     0.167 HD
ATOM     63  C   UNL A   1      42.566  28.230  32.696  1.00  0.00     0.074 A 
ATOM     64  C   UNL A   1      43.156  27.215  31.853  1.00  0.00     0.031 C 
ATOM     65  C   UNL A   1      42.916  28.452  33.986  1.00  0.00     0.037 A 
BRANCH  52  66
ATOM     66  C   UNL A   1      39.866  33.171  36.512  1.00  0.00     0.064 A 
ATOM     67  C   UNL A   1      38.896  32.890  37.488  1.00  0.00     0.173 A 
ATOM     68  C   UNL A   1      40.696  34.284  36.715  1.00  0.00     0.173 A 
ATOM     69  F   UNL A   1      38.077  31.838  37.340  1.00  0.00    -0.203 F 
ATOM     70  C   UNL A   1      38.733  33.715  38.596  1.00  0.00     0.198 A 
ATOM     71  C   UNL A   1      40.553  35.088  37.845  1.00  0.00     0.198 A 
ATOM     72  F   UNL A   1      41.652  34.588  35.825  1.00  0.00    -0.203 F 
ATOM     73  F   UNL A   1      37.759  33.460  39.480  1.00  0.00    -0.200 F 
ATOM     74  C   UNL A   1      39.565  34.810  38.776  1.00  0.00     0.200 A 
ATOM     75  F   UNL A   1      41.370  36.134  38.029  1.00  0.00    -0.200 F 
ATOM     76  F   UNL A   1      39.409  35.601  39.846  1.00  0.00    -0.200 F 
ENDBRANCH  52  66
BRANCH  53  77
ATOM     77  C   UNL A   1      41.015  27.804  28.298  1.00  0.00     0.064 A 
ATOM     78  C   UNL A   1      40.383  26.558  28.158  1.00  0.00     0.173 A 
ATOM     79  C   UNL A   1      41.880  28.213  27.275  1.00  0.00     0.173 A 
ATOM     80  F   UNL A   1      39.570  26.108  29.125  1.00  0.00    -0.203 F 
ATOM     81  C   UNL A   1      40.634  25.741  27.057  1.00  0.00     0.198 A 
ATOM     82  C   UNL A   1      42.108  27.407  26.160  1.00  0.00     0.198 A 
ATOM     83  F   UNL A   1      42.511  29.394  27.361  1.00  0.00    -0.203 F 
ATOM     84  F   UNL A   1      40.065  24.531  26.980  1.00  0.00    -0.200 F 
ATOM     85  C   UNL A   1      41.494  26.169  26.057  1.00  0.00     0.200 A 
ATOM     86  F   UNL A   1      42.933  27.827  25.191  1.00  0.00    -0.200 F 
ATOM     87  F   UNL A   1      41.742  25.380  25.003  1.00  0.00    -0.200 F 
ENDBRANCH  53  77
BRANCH  65  88
ATOM     88  C   UNL A   1      43.958  27.557  34.598  1.00  0.00     0.064 A 
ATOM     89  C   UNL A   1      45.306  27.935  34.673  1.00  0.00     0.173 A 
ATOM     90  C   UNL A   1      43.593  26.324  35.162  1.00  0.00     0.173 A 
ATOM     91  F   UNL A   1      45.713  29.096  34.139  1.00  0.00    -0.203 F 
ATOM     92  C   UNL A   1      46.253  27.103  35.270  1.00  0.00     0.198 A 
ATOM     93  C   UNL A   1      44.536  25.508  35.783  1.00  0.00     0.198 A 
ATOM     94  F   UNL A   1      42.316  25.915  35.123  1.00  0.00    -0.203 F 
ATOM     95  F   UNL A   1      47.543  27.467  35.291  1.00  0.00    -0.200 F 
ATOM     96  C   UNL A   1      45.866  25.896  35.831  1.00  0.00     0.200 A 
ATOM     97  F   UNL A   1      44.157  24.348  36.336  1.00  0.00    -0.200 F 
ATOM     98  F   UNL A   1      46.776  25.103  36.412  1.00  0.00    -0.200 F 
ENDBRANCH  65  88
ENDBRANCH  39  40
ENDBRANCH  31  34
ENDBRANCH  29  30
ENDBRANCH  28  29
ENDBRANCH  27  28
ENDBRANCH   1  27
TORSDOF 16
ENDMDL
MODEL 3
REMARK VINA RESULT:     -12.3      1.727      2.593
REMARK SMILES C[C@@H]1[C@H](C(=O)NCCCCCCNC(=O)c2ccc(-c3c4nc(c(-c5c(F)c(F)c(F)c(F)c5F)c5ccc([nH]5)c(-c5c(F)c(F)c(F)c(F)c5F)c5nc(c(-c6c(F)c(F)c(F)c(F)c6F)c6ccc3[nH]6)C=C5)C=C4)cc2)CC[N@@H+]1Cc1cnn(-c2ccccc2)c1
REMARK SMILES IDX 9 1 8 2 7 3 6 4 4 5 5 6 3 8 1 9 2 10 81 11 79 12 80 13 82 15
REMARK SMILES IDX 83 16 84 17 93 18 85 19 86 20 87 21 88 22 92 23 89 24 91 25
REMARK SMILES IDX 90 26 10 27 11 28 12 29 13 30 14 31 15 33 16 34 17 35 78 36
REMARK SMILES IDX 18 37 77 38 19 39 20 40 21 41 71 42 22 43 76 44 70 45 72 46
REMARK SMILES IDX 23 47 75 48 69 49 68 50 24 52 56 53 36 54 55 55 37 56 40 57
REMARK SMILES IDX 54 58 73 59 38 60 39 61 53 63 74 64 41 65 25 66 26 67 34 68
REMARK SMILES IDX 27 69 28 70 32 71 35 72 29 73 30 74 33 75 31 76 57 77 58 78
REMARK SMILES IDX 66 79 59 80 60 81 64 82 67 83 61 84 62 85 65 86 63 87 42 88
REMARK SMILES IDX 43 89 51 90 44 91 45 92 49 93 52 94 46 95 47 96 50 97 48 98
REMARK H PARENT 6 7 81 14 13 32 72 51 40 62
REMARK Flexibility Score: inf
ROOT
ATOM      1  C   UNL A   1      31.637  29.582  25.028  1.00  0.00     0.002 C 
ENDROOT
BRANCH   1   2
ATOM      2  C   UNL A   1      33.019  29.255  24.448  1.00  0.00     0.021 C 
BRANCH   2   3
ATOM      3  C   UNL A   1      33.057  28.799  22.983  1.00  0.00     0.116 C 
BRANCH   3   4
ATOM      4  N   UNL A   1      32.216  27.638  22.759  1.00  0.00    -0.356 N 
ATOM      5  C   UNL A   1      32.402  26.309  22.946  1.00  0.00     0.229 C 
ATOM      6  O   UNL A   1      31.472  25.578  22.578  1.00  0.00    -0.275 OA
ATOM      7  H   UNL A   1      31.328  27.861  22.397  1.00  0.00     0.163 HD
BRANCH   5   8
ATOM      8  C   UNL A   1      33.637  25.669  23.564  1.00  0.00     0.142 C 
ATOM      9  C   UNL A   1      32.650  26.050  25.958  1.00  0.00     0.076 C 
ATOM     10  C   UNL A   1      33.848  25.695  25.090  1.00  0.00     0.193 C 
ATOM     11  N   UNL A   1      34.590  24.461  25.388  1.00  0.00    -0.328 N 
ATOM     12  C   UNL A   1      33.994  24.258  23.120  1.00  0.00     0.081 C 
ATOM     13  C   UNL A   1      35.038  23.847  24.146  1.00  0.00     0.263 C 
ATOM     14  H   UNL A   1      35.385  24.803  25.927  1.00  0.00     0.348 HD
BRANCH  11  15
ATOM     15  C   UNL A   1      34.259  23.589  26.499  1.00  0.00     0.302 C 
BRANCH  15  16
ATOM     16  C   UNL A   1      33.624  22.303  26.094  1.00  0.00     0.045 A 
ATOM     17  C   UNL A   1      32.288  22.070  25.709  1.00  0.00     0.145 A 
ATOM     18  C   UNL A   1      34.226  21.073  25.910  1.00  0.00     0.124 A 
ATOM     19  N   UNL A   1      32.053  20.806  25.372  1.00  0.00    -0.176 NA
ATOM     20  N   UNL A   1      33.256  20.195  25.484  1.00  0.00    -0.240 N 
BRANCH  20  21
ATOM     21  C   UNL A   1      33.395  18.824  25.161  1.00  0.00     0.065 A 
ATOM     22  C   UNL A   1      32.532  17.899  25.768  1.00  0.00     0.028 A 
ATOM     23  C   UNL A   1      34.357  18.389  24.240  1.00  0.00     0.028 A 
ATOM     24  C   UNL A   1      32.594  16.557  25.425  1.00  0.00     0.002 A 
ATOM     25  C   UNL A   1      34.417  17.040  23.904  1.00  0.00     0.002 A 
ATOM     26  C   UNL A   1      33.522  16.140  24.481  1.00  0.00     0.000 A 
ENDBRANCH  20  21
ENDBRANCH  15  16
ENDBRANCH  11  15
ENDBRANCH   5   8
ENDBRANCH   3   4
ENDBRANCH   2   3
ENDBRANCH   1   2
BRANCH   1  27
ATOM     27  C   UNL A   1      31.612  30.201  26.429  1.00  0.00     0.002 C 
BRANCH  27  28
ATOM     28  C   UNL A   1      31.435  31.724  26.507  1.00  0.00     0.021 C 
BRANCH  28  29
ATOM     29  C   UNL A   1      32.674  32.550  26.876  1.00  0.00     0.116 C 
BRANCH  29  30
ATOM     30  N   UNL A   1      32.362  33.863  27.413  1.00  0.00    -0.352 N 
ATOM     31  C   UNL A   1      32.977  34.560  28.429  1.00  0.00     0.251 C 
ATOM     32  H   UNL A   1      31.601  34.322  26.988  1.00  0.00     0.163 HD
ATOM     33  O   UNL A   1      32.524  35.636  28.803  1.00  0.00    -0.269 OA
BRANCH  31  34
ATOM     34  C   UNL A   1      34.181  34.019  29.104  1.00  0.00     0.039 A 
ATOM     35  C   UNL A   1      34.023  33.166  30.200  1.00  0.00     0.014 A 
ATOM     36  C   UNL A   1      35.464  34.395  28.714  1.00  0.00     0.014 A 
ATOM     37  C   UNL A   1      35.147  32.636  30.855  1.00  0.00     0.010 A 
ATOM     38  C   UNL A   1      36.584  33.829  29.350  1.00  0.00     0.010 A 
ATOM     39  C   UNL A   1      36.454  32.912  30.413  1.00  0.00    -0.014 A 
BRANCH  39  40
ATOM     40  C   UNL A   1      37.646  32.211  31.024  1.00  0.00     0.031 A 
ATOM     41  C   UNL A   1      38.134  32.530  32.423  1.00  0.00     0.074 A 
ATOM     42  C   UNL A   1      38.358  31.302  30.315  1.00  0.00     0.049 A 
ATOM     43  N   UNL A   1      39.137  32.007  33.094  1.00  0.00    -0.248 NA
ATOM     44  C   UNL A   1      37.440  33.602  33.148  1.00  0.00     0.031 C 
ATOM     45  C   UNL A   1      38.128  30.936  28.916  1.00  0.00     0.029 A 
ATOM     46  N   UNL A   1      39.428  30.507  30.680  1.00  0.00    -0.354 N 
ATOM     47  C   UNL A   1      39.204  32.703  34.295  1.00  0.00     0.074 A 
ATOM     48  C   UNL A   1      38.196  33.740  34.227  1.00  0.00     0.031 C 
ATOM     49  C   UNL A   1      38.976  29.955  28.565  1.00  0.00     0.029 A 
ATOM     50  C   UNL A   1      39.840  29.635  29.697  1.00  0.00     0.049 A 
ATOM     51  H   UNL A   1      39.858  30.561  31.565  1.00  0.00     0.167 HD
ATOM     52  C   UNL A   1      39.989  32.486  35.381  1.00  0.00     0.037 A 
ATOM     53  C   UNL A   1      40.789  28.674  29.698  1.00  0.00     0.037 A 
ATOM     54  C   UNL A   1      40.954  31.425  35.513  1.00  0.00     0.049 A 
ATOM     55  C   UNL A   1      41.616  28.414  30.933  1.00  0.00     0.074 A 
ATOM     56  C   UNL A   1      41.703  31.077  36.626  1.00  0.00     0.029 A 
ATOM     57  N   UNL A   1      41.302  30.541  34.507  1.00  0.00    -0.354 N 
ATOM     58  N   UNL A   1      41.570  29.002  32.101  1.00  0.00    -0.248 NA
ATOM     59  C   UNL A   1      42.623  27.341  30.846  1.00  0.00     0.031 C 
ATOM     60  C   UNL A   1      42.534  30.005  36.282  1.00  0.00     0.029 A 
ATOM     61  C   UNL A   1      42.269  29.658  34.969  1.00  0.00     0.049 A 
ATOM     62  H   UNL A   1      40.922  30.538  33.599  1.00  0.00     0.167 HD
ATOM     63  C   UNL A   1      42.511  28.352  32.893  1.00  0.00     0.074 A 
ATOM     64  C   UNL A   1      43.103  27.314  32.081  1.00  0.00     0.031 C 
ATOM     65  C   UNL A   1      42.851  28.605  34.180  1.00  0.00     0.037 A 
BRANCH  52  66
ATOM     66  C   UNL A   1      39.804  33.402  36.559  1.00  0.00     0.064 A 
ATOM     67  C   UNL A   1      40.523  34.602  36.672  1.00  0.00     0.173 A 
ATOM     68  C   UNL A   1      38.871  33.101  37.563  1.00  0.00     0.173 A 
ATOM     69  F   UNL A   1      41.428  34.935  35.739  1.00  0.00    -0.203 F 
ATOM     70  C   UNL A   1      40.351  35.443  37.766  1.00  0.00     0.198 A 
ATOM     71  C   UNL A   1      38.674  33.964  38.640  1.00  0.00     0.198 A 
ATOM     72  F   UNL A   1      38.142  31.977  37.497  1.00  0.00    -0.203 F 
ATOM     73  F   UNL A   1      41.095  36.552  37.880  1.00  0.00    -0.200 F 
ATOM     74  C   UNL A   1      39.423  35.126  38.746  1.00  0.00     0.200 A 
ATOM     75  F   UNL A   1      37.764  33.667  39.577  1.00  0.00    -0.200 F 
ATOM     76  F   UNL A   1      39.254  35.939  39.798  1.00  0.00    -0.200 F 
ENDBRANCH  52  66
BRANCH  53  77
ATOM     77  C   UNL A   1      40.997  27.824  28.493  1.00  0.00     0.064 A 
ATOM     78  C   UNL A   1      41.916  28.200  27.501  1.00  0.00     0.173 A 
ATOM     79  C   UNL A   1      40.245  26.661  28.276  1.00  0.00     0.173 A 
ATOM     80  F   UNL A   1      42.636  29.322  27.648  1.00  0.00    -0.203 F 
ATOM     81  C   UNL A   1      42.053  27.463  26.326  1.00  0.00     0.198 A 
ATOM     82  C   UNL A   1      40.404  25.908  27.113  1.00  0.00     0.198 A 
ATOM     83  F   UNL A   1      39.352  26.259  29.191  1.00  0.00    -0.203 F 
ATOM     84  F   UNL A   1      42.894  27.880  25.371  1.00  0.00    -0.200 F 
ATOM     85  C   UNL A   1      41.299  26.315  26.136  1.00  0.00     0.200 A 
ATOM     86  F   UNL A   1      39.680  24.795  26.935  1.00  0.00    -0.200 F 
ATOM     87  F   UNL A   1      41.425  25.611  25.002  1.00  0.00    -0.200 F 
ENDBRANCH  53  77
BRANCH  65  88
ATOM     88  C   UNL A   1      43.881  27.721  34.824  1.00  0.00     0.064 A 
ATOM     89  C   UNL A   1      43.530  26.531  35.479  1.00  0.00     0.173 A 
ATOM     90  C   UNL A   1      45.245  28.044  34.744  1.00  0.00     0.173 A 
ATOM     91  F   UNL A   1      42.241  26.181  35.597  1.00  0.00    -0.203 F 
ATOM     92  C   UNL A   1      44.504  25.710  36.047  1.00  0.00     0.198 A 
ATOM     93  C   UNL A   1      46.218  27.207  35.287  1.00  0.00     0.198 A 
ATOM     94  F   UNL A   1      45.639  29.167  34.125  1.00  0.00    -0.203 F 
ATOM     95  F   UNL A   1      44.140  24.599  36.704  1.00  0.00    -0.200 F 
ATOM     96  C   UNL A   1      45.846  26.043  35.943  1.00  0.00     0.200 A 
ATOM     97  F   UNL A   1      47.514  27.525  35.174  1.00  0.00    -0.200 F 
ATOM     98  F   UNL A   1      46.779  25.247  36.481  1.00  0.00    -0.200 F 
ENDBRANCH  65  88
ENDBRANCH  39  40
ENDBRANCH  31  34
ENDBRANCH  29  30
ENDBRANCH  28  29
ENDBRANCH  27  28
ENDBRANCH   1  27
TORSDOF 16
ENDMDL
