MODEL 1
REMARK VINA RESULT:     -12.5      0.000      0.000
REMARK SMILES O=C(NCCCCCCNC(=O)C1(C[C@@H]2COc3ccccc32)CC[NH2+]CC1)c1ccc(-c2c3nc(c(-c4c(F)c(F)c(F)c(F)c4F)c4ccc([nH]4)c(-c4c(F)c(F)c(F)c(F)c4F)c4nc(c(-c5c(F)c(F)c(F)c(F)c5F)c5ccc2[nH]5)C=C4)C=C3)cc1
REMARK SMILES IDX 6 1 5 2 4 3 3 4 1 5 2 6 29 8 30 9 91 10 31 11 90 12 32 13
REMARK SMILES IDX 33 14 34 15 84 16 35 17 89 18 83 19 85 20 36 21 88 22 82 23
REMARK SMILES IDX 81 24 37 26 69 27 49 28 68 29 50 30 53 31 67 32 86 33 51 34
REMARK SMILES IDX 52 35 66 37 87 38 54 39 38 40 39 41 47 42 40 43 41 44 45 45
REMARK SMILES IDX 48 46 42 47 43 48 46 49 44 50 70 51 71 52 79 53 72 54 73 55
REMARK SMILES IDX 77 56 80 57 74 58 75 59 78 60 76 61 55 62 56 63 64 64 57 65
REMARK SMILES IDX 58 66 62 67 65 68 59 69 60 70 63 71 61 72 7 73 8 74 9 75
REMARK SMILES IDX 10 76 11 77 12 79 13 80 24 81 28 82 25 83 27 84 26 85 14 88
REMARK SMILES IDX 15 89 16 90 23 91 17 92 18 93 22 94 19 95 21 96 20 97
REMARK H PARENT 3 7 85 25 53 36 10 78 26 86 26 87
REMARK Flexibility Score: inf
ROOT
ATOM      1  C   UNL A   1      34.584  33.770  28.725  1.00  0.00     0.002 C 
ENDROOT
BRANCH   1   2
ATOM      2  C   UNL A   1      33.281  34.527  28.977  1.00  0.00     0.021 C 
BRANCH   2   3
ATOM      3  C   UNL A   1      33.483  35.941  29.503  1.00  0.00     0.116 C 
BRANCH   3   4
ATOM      4  N   UNL A   1      32.571  36.235  30.596  1.00  0.00    -0.352 N 
ATOM      5  O   UNL A   1      31.634  35.805  32.617  1.00  0.00    -0.269 OA
ATOM      6  C   UNL A   1      32.587  35.699  31.865  1.00  0.00     0.251 C 
ATOM      7  H   UNL A   1      31.862  36.892  30.410  1.00  0.00     0.163 HD
BRANCH   6   8
ATOM      8  C   UNL A   1      33.804  34.975  32.288  1.00  0.00     0.039 A 
ATOM      9  C   UNL A   1      35.026  35.653  32.309  1.00  0.00     0.014 A 
ATOM     10  C   UNL A   1      33.734  33.619  32.607  1.00  0.00     0.014 A 
ATOM     11  C   UNL A   1      36.197  34.942  32.519  1.00  0.00     0.010 A 
ATOM     12  C   UNL A   1      34.906  32.929  32.923  1.00  0.00     0.010 A 
ATOM     13  C   UNL A   1      36.149  33.581  32.866  1.00  0.00    -0.014 A 
BRANCH  13  14
ATOM     14  C   UNL A   1      37.408  32.904  33.263  1.00  0.00     0.031 A 
ATOM     15  C   UNL A   1      38.085  33.196  34.571  1.00  0.00     0.074 A 
ATOM     16  C   UNL A   1      37.917  31.980  32.423  1.00  0.00     0.049 A 
ATOM     17  N   UNL A   1      39.182  32.675  35.062  1.00  0.00    -0.248 NA
ATOM     18  C   UNL A   1      37.461  34.206  35.437  1.00  0.00     0.031 C 
ATOM     19  C   UNL A   1      37.349  31.630  31.118  1.00  0.00     0.029 A 
ATOM     20  N   UNL A   1      39.005  31.156  32.539  1.00  0.00    -0.354 N 
ATOM     21  C   UNL A   1      39.382  33.294  36.290  1.00  0.00     0.074 A 
ATOM     22  C   UNL A   1      38.316  34.259  36.451  1.00  0.00     0.031 C 
ATOM     23  C   UNL A   1      38.060  30.631  30.580  1.00  0.00     0.029 A 
ATOM     24  C   UNL A   1      39.180  30.327  31.459  1.00  0.00     0.049 A 
ATOM     25  H   UNL A   1      39.603  31.158  33.322  1.00  0.00     0.167 HD
ATOM     26  C   UNL A   1      40.361  33.063  37.199  1.00  0.00     0.037 A 
ATOM     27  C   UNL A   1      40.152  29.438  31.190  1.00  0.00     0.037 A 
ATOM     28  C   UNL A   1      41.424  32.103  37.021  1.00  0.00     0.049 A 
ATOM     29  C   UNL A   1      41.247  29.241  32.198  1.00  0.00     0.074 A 
ATOM     30  C   UNL A   1      42.462  31.793  37.882  1.00  0.00     0.029 A 
ATOM     31  N   UNL A   1      41.585  31.299  35.901  1.00  0.00    -0.354 N 
ATOM     32  N   UNL A   1      41.408  29.813  33.366  1.00  0.00    -0.248 NA
ATOM     33  C   UNL A   1      42.295  28.273  31.850  1.00  0.00     0.031 C 
ATOM     34  C   UNL A   1      43.278  30.840  37.263  1.00  0.00     0.029 A 
ATOM     35  C   UNL A   1      42.716  30.508  36.042  1.00  0.00     0.049 A 
ATOM     36  H   UNL A   1      40.985  31.292  35.120  1.00  0.00     0.167 HD
ATOM     37  C   UNL A   1      42.563  29.261  33.901  1.00  0.00     0.074 A 
ATOM     38  C   UNL A   1      43.042  28.285  32.943  1.00  0.00     0.031 C 
ATOM     39  C   UNL A   1      43.175  29.540  35.078  1.00  0.00     0.037 A 
BRANCH  26  40
ATOM     40  C   UNL A   1      40.340  33.866  38.470  1.00  0.00     0.064 A 
ATOM     41  C   UNL A   1      39.607  33.447  39.592  1.00  0.00     0.173 A 
ATOM     42  C   UNL A   1      41.107  35.035  38.591  1.00  0.00     0.173 A 
ATOM     43  F   UNL A   1      38.849  32.341  39.529  1.00  0.00    -0.203 F 
ATOM     44  C   UNL A   1      39.625  34.179  40.776  1.00  0.00     0.198 A 
ATOM     45  C   UNL A   1      41.148  35.748  39.788  1.00  0.00     0.198 A 
ATOM     46  F   UNL A   1      41.834  35.478  37.555  1.00  0.00    -0.203 F 
ATOM     47  F   UNL A   1      38.884  33.781  41.819  1.00  0.00    -0.200 F 
ATOM     48  C   UNL A   1      40.403  35.323  40.877  1.00  0.00     0.200 A 
ATOM     49  F   UNL A   1      41.911  36.844  39.888  1.00  0.00    -0.200 F 
ATOM     50  F   UNL A   1      40.428  36.019  42.022  1.00  0.00    -0.200 F 
ENDBRANCH  26  40
BRANCH  27  51
ATOM     51  C   UNL A   1      40.142  28.694  29.903  1.00  0.00     0.064 A 
ATOM     52  C   UNL A   1      39.539  27.435  29.795  1.00  0.00     0.173 A 
ATOM     53  C   UNL A   1      40.751  29.225  28.755  1.00  0.00     0.173 A 
ATOM     54  F   UNL A   1      38.956  26.877  30.867  1.00  0.00    -0.203 F 
ATOM     55  C   UNL A   1      39.572  26.721  28.599  1.00  0.00     0.198 A 
ATOM     56  C   UNL A   1      40.748  28.529  27.549  1.00  0.00     0.198 A 
ATOM     57  F   UNL A   1      41.335  30.432  28.800  1.00  0.00    -0.203 F 
ATOM     58  F   UNL A   1      39.042  25.492  28.540  1.00  0.00    -0.200 F 
ATOM     59  C   UNL A   1      40.172  27.271  27.476  1.00  0.00     0.200 A 
ATOM     60  F   UNL A   1      41.309  29.076  26.462  1.00  0.00    -0.200 F 
ATOM     61  F   UNL A   1      40.203  26.585  26.325  1.00  0.00    -0.200 F 
ENDBRANCH  27  51
BRANCH  39  62
ATOM     62  C   UNL A   1      44.409  28.748  35.404  1.00  0.00     0.064 A 
ATOM     63  C   UNL A   1      44.346  27.537  36.112  1.00  0.00     0.173 A 
ATOM     64  C   UNL A   1      45.673  29.206  35.001  1.00  0.00     0.173 A 
ATOM     65  F   UNL A   1      43.165  27.064  36.536  1.00  0.00    -0.203 F 
ATOM     66  C   UNL A   1      45.504  26.837  36.437  1.00  0.00     0.198 A 
ATOM     67  C   UNL A   1      46.825  28.484  35.295  1.00  0.00     0.198 A 
ATOM     68  F   UNL A   1      45.789  30.355  34.318  1.00  0.00    -0.203 F 
ATOM     69  F   UNL A   1      45.424  25.719  37.171  1.00  0.00    -0.200 F 
ATOM     70  C   UNL A   1      46.741  27.307  36.023  1.00  0.00     0.200 A 
ATOM     71  F   UNL A   1      48.018  28.933  34.882  1.00  0.00    -0.200 F 
ATOM     72  F   UNL A   1      47.855  26.631  36.336  1.00  0.00    -0.200 F 
ENDBRANCH  39  62
ENDBRANCH  13  14
ENDBRANCH   6   8
ENDBRANCH   3   4
ENDBRANCH   2   3
ENDBRANCH   1   2
BRANCH   1  73
ATOM     73  C   UNL A   1      34.462  32.250  28.842  1.00  0.00     0.002 C 
BRANCH  73  74
ATOM     74  C   UNL A   1      33.786  31.582  27.630  1.00  0.00     0.021 C 
BRANCH  74  75
ATOM     75  C   UNL A   1      34.140  30.098  27.445  1.00  0.00     0.116 C 
BRANCH  75  76
ATOM     76  N   UNL A   1      33.082  29.184  27.878  1.00  0.00    -0.356 N 
ATOM     77  C   UNL A   1      32.121  28.407  27.307  1.00  0.00     0.226 C 
ATOM     78  H   UNL A   1      33.058  29.110  28.860  1.00  0.00     0.163 HD
ATOM     79  O   UNL A   1      31.388  27.830  28.119  1.00  0.00    -0.274 OA
BRANCH  77  80
ATOM     80  C   UNL A   1      31.942  28.168  25.787  1.00  0.00     0.061 C 
ATOM     81  C   UNL A   1      30.949  27.008  25.461  1.00  0.00     0.078 C 
ATOM     82  C   UNL A   1      33.338  27.746  25.247  1.00  0.00     0.078 C 
ATOM     83  C   UNL A   1      31.427  25.603  25.789  1.00  0.00     0.261 C 
ATOM     84  C   UNL A   1      33.714  26.305  25.640  1.00  0.00     0.261 C 
ATOM     85  N   UNL A   1      32.719  25.346  25.165  1.00  0.00    -0.346 N 
ATOM     86  H   UNL A   1      32.626  25.431  24.152  1.00  0.00     0.346 HD
ATOM     87  H   UNL A   1      33.024  24.404  25.410  1.00  0.00     0.346 HD
BRANCH  80  88
ATOM     88  C   UNL A   1      31.394  29.413  25.046  1.00  0.00     0.029 C 
BRANCH  88  89
ATOM     89  C   UNL A   1      30.368  29.201  23.908  1.00  0.00     0.062 C 
ATOM     90  C   UNL A   1      30.838  28.723  22.513  1.00  0.00     0.238 C 
ATOM     91  C   UNL A   1      29.612  30.387  23.406  1.00  0.00     0.001 A 
ATOM     92  O   UNL A   1      29.752  28.956  21.593  1.00  0.00    -0.493 OA
ATOM     93  C   UNL A   1      29.269  30.146  22.076  1.00  0.00     0.122 A 
ATOM     94  C   UNL A   1      29.237  31.567  24.017  1.00  0.00     0.008 A 
ATOM     95  C   UNL A   1      28.574  31.046  21.307  1.00  0.00     0.047 A 
ATOM     96  C   UNL A   1      28.564  32.517  23.242  1.00  0.00     0.001 A 
ATOM     97  C   UNL A   1      28.238  32.260  21.898  1.00  0.00     0.004 A 
ENDBRANCH  88  89
ENDBRANCH  80  88
ENDBRANCH  77  80
ENDBRANCH  75  76
ENDBRANCH  74  75
ENDBRANCH  73  74
ENDBRANCH   1  73
TORSDOF 15
ENDMDL
MODEL 2
REMARK VINA RESULT:     -12.4      0.394      7.338
REMARK SMILES O=C(NCCCCCCNC(=O)C1(C[C@@H]2COc3ccccc32)CC[NH2+]CC1)c1ccc(-c2c3nc(c(-c4c(F)c(F)c(F)c(F)c4F)c4ccc([nH]4)c(-c4c(F)c(F)c(F)c(F)c4F)c4nc(c(-c5c(F)c(F)c(F)c(F)c5F)c5ccc2[nH]5)C=C4)C=C3)cc1
REMARK SMILES IDX 6 1 5 2 4 3 3 4 1 5 2 6 29 8 30 9 91 10 31 11 90 12 32 13
REMARK SMILES IDX 33 14 34 15 84 16 35 17 89 18 83 19 85 20 36 21 88 22 82 23
REMARK SMILES IDX 81 24 37 26 69 27 49 28 68 29 50 30 53 31 67 32 86 33 51 34
REMARK SMILES IDX 52 35 66 37 87 38 54 39 38 40 39 41 47 42 40 43 41 44 45 45
REMARK SMILES IDX 48 46 42 47 43 48 46 49 44 50 70 51 71 52 79 53 72 54 73 55
REMARK SMILES IDX 77 56 80 57 74 58 75 59 78 60 76 61 55 62 56 63 64 64 57 65
REMARK SMILES IDX 58 66 62 67 65 68 59 69 60 70 63 71 61 72 7 73 8 74 9 75
REMARK SMILES IDX 10 76 11 77 12 79 13 80 24 81 28 82 25 83 27 84 26 85 14 88
REMARK SMILES IDX 15 89 16 90 23 91 17 92 18 93 22 94 19 95 21 96 20 97
REMARK H PARENT 3 7 85 25 53 36 10 78 26 86 26 87
REMARK Flexibility Score: inf
ROOT
ATOM      1  C   UNL A   1      34.078  33.692  28.855  1.00  0.00     0.002 C 
ENDROOT
BRANCH   1   2
ATOM      2  C   UNL A   1      33.033  34.806  28.817  1.00  0.00     0.021 C 
BRANCH   2   3
ATOM      3  C   UNL A   1      33.456  36.072  29.548  1.00  0.00     0.116 C 
BRANCH   3   4
ATOM      4  N   UNL A   1      32.536  36.393  30.627  1.00  0.00    -0.352 N 
ATOM      5  O   UNL A   1      31.554  35.991  32.632  1.00  0.00    -0.269 OA
ATOM      6  C   UNL A   1      32.515  35.856  31.895  1.00  0.00     0.251 C 
ATOM      7  H   UNL A   1      31.850  37.072  30.430  1.00  0.00     0.163 HD
BRANCH   6   8
ATOM      8  C   UNL A   1      33.703  35.095  32.337  1.00  0.00     0.039 A 
ATOM      9  C   UNL A   1      34.956  35.713  32.310  1.00  0.00     0.014 A 
ATOM     10  C   UNL A   1      33.572  33.761  32.721  1.00  0.00     0.014 A 
ATOM     11  C   UNL A   1      36.095  34.956  32.539  1.00  0.00     0.010 A 
ATOM     12  C   UNL A   1      34.715  33.030  33.056  1.00  0.00     0.010 A 
ATOM     13  C   UNL A   1      35.986  33.618  32.951  1.00  0.00    -0.014 A 
BRANCH  13  14
ATOM     14  C   UNL A   1      37.218  32.899  33.364  1.00  0.00     0.031 A 
ATOM     15  C   UNL A   1      37.876  31.884  32.476  1.00  0.00     0.074 A 
ATOM     16  C   UNL A   1      37.757  33.211  34.560  1.00  0.00     0.049 A 
ATOM     17  N   UNL A   1      38.962  31.184  32.692  1.00  0.00    -0.248 NA
ATOM     18  C   UNL A   1      37.234  31.608  31.182  1.00  0.00     0.031 C 
ATOM     19  C   UNL A   1      37.190  34.172  35.511  1.00  0.00     0.029 A 
ATOM     20  N   UNL A   1      38.902  32.778  35.174  1.00  0.00    -0.354 N 
ATOM     21  C   UNL A   1      39.133  30.385  31.569  1.00  0.00     0.074 A 
ATOM     22  C   UNL A   1      38.016  30.656  30.689  1.00  0.00     0.031 C 
ATOM     23  C   UNL A   1      38.012  34.292  36.561  1.00  0.00     0.029 A 
ATOM     24  C   UNL A   1      39.119  33.361  36.398  1.00  0.00     0.049 A 
ATOM     25  H   UNL A   1      39.510  32.114  34.776  1.00  0.00     0.167 HD
ATOM     26  C   UNL A   1      40.139  29.518  31.298  1.00  0.00     0.037 A 
ATOM     27  C   UNL A   1      40.087  33.149  37.306  1.00  0.00     0.037 A 
ATOM     28  C   UNL A   1      41.243  29.251  32.188  1.00  0.00     0.049 A 
ATOM     29  C   UNL A   1      41.160  32.146  36.994  1.00  0.00     0.074 A 
ATOM     30  C   UNL A   1      42.312  28.392  32.006  1.00  0.00     0.029 A 
ATOM     31  N   UNL A   1      41.415  29.841  33.433  1.00  0.00    -0.354 N 
ATOM     32  N   UNL A   1      41.324  31.419  35.917  1.00  0.00    -0.248 NA
ATOM     33  C   UNL A   1      42.184  31.937  38.025  1.00  0.00     0.031 C 
ATOM     34  C   UNL A   1      43.103  28.423  33.159  1.00  0.00     0.029 A 
ATOM     35  C   UNL A   1      42.563  29.349  34.037  1.00  0.00     0.049 A 
ATOM     36  H   UNL A   1      40.811  30.509  33.830  1.00  0.00     0.167 HD
ATOM     37  C   UNL A   1      42.479  30.680  36.130  1.00  0.00     0.074 A 
ATOM     38  C   UNL A   1      42.991  31.074  37.427  1.00  0.00     0.031 C 
ATOM     39  C   UNL A   1      43.060  29.755  35.327  1.00  0.00     0.037 A 
BRANCH  26  40
ATOM     40  C   UNL A   1      40.095  28.782  29.987  1.00  0.00     0.064 A 
ATOM     41  C   UNL A   1      40.712  29.294  28.835  1.00  0.00     0.173 A 
ATOM     42  C   UNL A   1      39.481  27.522  29.893  1.00  0.00     0.173 A 
ATOM     43  F   UNL A   1      41.306  30.498  28.865  1.00  0.00    -0.203 F 
ATOM     44  C   UNL A   1      40.698  28.586  27.636  1.00  0.00     0.198 A 
ATOM     45  C   UNL A   1      39.496  26.802  28.701  1.00  0.00     0.198 A 
ATOM     46  F   UNL A   1      38.883  26.980  30.964  1.00  0.00    -0.203 F 
ATOM     47  F   UNL A   1      41.258  29.115  26.540  1.00  0.00    -0.200 F 
ATOM     48  C   UNL A   1      40.098  27.337  27.572  1.00  0.00     0.200 A 
ATOM     49  F   UNL A   1      38.929  25.589  28.645  1.00  0.00    -0.200 F 
ATOM     50  F   UNL A   1      40.096  26.651  26.420  1.00  0.00    -0.200 F 
ENDBRANCH  26  40
BRANCH  27  51
ATOM     51  C   UNL A   1      40.065  33.880  38.600  1.00  0.00     0.064 A 
ATOM     52  C   UNL A   1      39.303  33.421  39.682  1.00  0.00     0.173 A 
ATOM     53  C   UNL A   1      40.798  35.064  38.776  1.00  0.00     0.173 A 
ATOM     54  F   UNL A   1      38.573  32.302  39.561  1.00  0.00    -0.203 F 
ATOM     55  C   UNL A   1      39.249  34.134  40.878  1.00  0.00     0.198 A 
ATOM     56  C   UNL A   1      40.775  35.755  39.985  1.00  0.00     0.198 A 
ATOM     57  F   UNL A   1      41.552  35.544  37.775  1.00  0.00    -0.203 F 
ATOM     58  F   UNL A   1      38.463  33.705  41.876  1.00  0.00    -0.200 F 
ATOM     59  C   UNL A   1      39.990  35.297  41.030  1.00  0.00     0.200 A 
ATOM     60  F   UNL A   1      41.510  36.865  40.133  1.00  0.00    -0.200 F 
ATOM     61  F   UNL A   1      39.938  35.982  42.181  1.00  0.00    -0.200 F 
ENDBRANCH  27  51
BRANCH  39  62
ATOM     62  C   UNL A   1      44.337  29.138  35.820  1.00  0.00     0.064 A 
ATOM     63  C   UNL A   1      45.592  29.690  35.516  1.00  0.00     0.173 A 
ATOM     64  C   UNL A   1      44.305  27.978  36.609  1.00  0.00     0.173 A 
ATOM     65  F   UNL A   1      45.678  30.787  34.750  1.00  0.00    -0.203 F 
ATOM     66  C   UNL A   1      46.765  29.082  35.951  1.00  0.00     0.198 A 
ATOM     67  C   UNL A   1      45.480  27.394  37.074  1.00  0.00     0.198 A 
ATOM     68  F   UNL A   1      43.133  27.412  36.933  1.00  0.00    -0.203 F 
ATOM     69  F   UNL A   1      47.953  29.589  35.592  1.00  0.00    -0.200 F 
ATOM     70  C   UNL A   1      46.709  27.939  36.734  1.00  0.00     0.200 A 
ATOM     71  F   UNL A   1      45.423  26.298  37.843  1.00  0.00    -0.200 F 
ATOM     72  F   UNL A   1      47.840  27.355  37.153  1.00  0.00    -0.200 F 
ENDBRANCH  39  62
ENDBRANCH  13  14
ENDBRANCH   6   8
ENDBRANCH   3   4
ENDBRANCH   2   3
ENDBRANCH   1   2
BRANCH   1  73
ATOM     73  C   UNL A   1      33.716  32.461  28.023  1.00  0.00     0.002 C 
BRANCH  73  74
ATOM     74  C   UNL A   1      34.697  31.286  28.186  1.00  0.00     0.021 C 
BRANCH  74  75
ATOM     75  C   UNL A   1      34.375  30.065  27.308  1.00  0.00     0.116 C 
BRANCH  75  76
ATOM     76  N   UNL A   1      33.289  29.235  27.832  1.00  0.00    -0.356 N 
ATOM     77  C   UNL A   1      32.261  28.489  27.342  1.00  0.00     0.226 C 
ATOM     78  H   UNL A   1      33.305  29.211  28.816  1.00  0.00     0.163 HD
ATOM     79  O   UNL A   1      31.535  27.995  28.213  1.00  0.00    -0.274 OA
BRANCH  77  80
ATOM     80  C   UNL A   1      32.001  28.187  25.845  1.00  0.00     0.061 C 
ATOM     81  C   UNL A   1      30.967  27.038  25.621  1.00  0.00     0.078 C 
ATOM     82  C   UNL A   1      33.359  27.709  25.256  1.00  0.00     0.078 C 
ATOM     83  C   UNL A   1      31.432  25.639  25.987  1.00  0.00     0.261 C 
ATOM     84  C   UNL A   1      33.722  26.278  25.694  1.00  0.00     0.261 C 
ATOM     85  N   UNL A   1      32.684  25.324  25.313  1.00  0.00    -0.346 N 
ATOM     86  H   UNL A   1      32.542  25.366  24.303  1.00  0.00     0.346 HD
ATOM     87  H   UNL A   1      32.980  24.386  25.585  1.00  0.00     0.346 HD
BRANCH  80  88
ATOM     88  C   UNL A   1      31.443  29.412  25.077  1.00  0.00     0.029 C 
BRANCH  88  89
ATOM     89  C   UNL A   1      30.414  29.167  23.948  1.00  0.00     0.062 C 
ATOM     90  C   UNL A   1      30.886  28.696  22.552  1.00  0.00     0.238 C 
ATOM     91  C   UNL A   1      29.624  30.331  23.447  1.00  0.00     0.001 A 
ATOM     92  O   UNL A   1      29.787  28.895  21.639  1.00  0.00    -0.493 OA
ATOM     93  C   UNL A   1      29.277  30.075  22.120  1.00  0.00     0.122 A 
ATOM     94  C   UNL A   1      29.222  31.503  24.055  1.00  0.00     0.008 A 
ATOM     95  C   UNL A   1      28.553  30.952  21.353  1.00  0.00     0.047 A 
ATOM     96  C   UNL A   1      28.518  32.431  23.281  1.00  0.00     0.001 A 
ATOM     97  C   UNL A   1      28.189  32.160  21.941  1.00  0.00     0.004 A 
ENDBRANCH  88  89
ENDBRANCH  80  88
ENDBRANCH  77  80
ENDBRANCH  75  76
ENDBRANCH  74  75
ENDBRANCH  73  74
ENDBRANCH   1  73
TORSDOF 15
ENDMDL
MODEL 3
REMARK VINA RESULT:     -12.3      2.103      4.123
REMARK SMILES O=C(NCCCCCCNC(=O)C1(C[C@@H]2COc3ccccc32)CC[NH2+]CC1)c1ccc(-c2c3nc(c(-c4c(F)c(F)c(F)c(F)c4F)c4ccc([nH]4)c(-c4c(F)c(F)c(F)c(F)c4F)c4nc(c(-c5c(F)c(F)c(F)c(F)c5F)c5ccc2[nH]5)C=C4)C=C3)cc1
REMARK SMILES IDX 6 1 5 2 4 3 3 4 1 5 2 6 29 8 30 9 91 10 31 11 90 12 32 13
REMARK SMILES IDX 33 14 34 15 84 16 35 17 89 18 83 19 85 20 36 21 88 22 82 23
REMARK SMILES IDX 81 24 37 26 69 27 49 28 68 29 50 30 53 31 67 32 86 33 51 34
REMARK SMILES IDX 52 35 66 37 87 38 54 39 38 40 39 41 47 42 40 43 41 44 45 45
REMARK SMILES IDX 48 46 42 47 43 48 46 49 44 50 70 51 71 52 79 53 72 54 73 55
REMARK SMILES IDX 77 56 80 57 74 58 75 59 78 60 76 61 55 62 56 63 64 64 57 65
REMARK SMILES IDX 58 66 62 67 65 68 59 69 60 70 63 71 61 72 7 73 8 74 9 75
REMARK SMILES IDX 10 76 11 77 12 79 13 80 24 81 28 82 25 83 27 84 26 85 14 88
REMARK SMILES IDX 15 89 16 90 23 91 17 92 18 93 22 94 19 95 21 96 20 97
REMARK H PARENT 3 7 85 25 53 36 10 78 26 86 26 87
REMARK Flexibility Score: inf
ROOT
ATOM      1  C   UNL A   1      31.559  30.754  26.213  1.00  0.00     0.002 C 
ENDROOT
BRANCH   1   2
ATOM      2  C   UNL A   1      31.404  32.211  26.648  1.00  0.00     0.021 C 
BRANCH   2   3
ATOM      3  C   UNL A   1      32.693  32.841  27.157  1.00  0.00     0.116 C 
BRANCH   3   4
ATOM      4  N   UNL A   1      32.486  34.224  27.553  1.00  0.00    -0.352 N 
ATOM      5  O   UNL A   1      32.612  35.945  29.026  1.00  0.00    -0.269 OA
ATOM      6  C   UNL A   1      33.048  34.879  28.626  1.00  0.00     0.251 C 
ATOM      7  H   UNL A   1      31.875  34.754  26.991  1.00  0.00     0.163 HD
BRANCH   6   8
ATOM      8  C   UNL A   1      34.202  34.240  29.292  1.00  0.00     0.039 A 
ATOM      9  C   UNL A   1      35.495  34.565  28.873  1.00  0.00     0.014 A 
ATOM     10  C   UNL A   1      33.992  33.284  30.286  1.00  0.00     0.014 A 
ATOM     11  C   UNL A   1      36.572  33.837  29.355  1.00  0.00     0.010 A 
ATOM     12  C   UNL A   1      35.090  32.627  30.847  1.00  0.00     0.010 A 
ATOM     13  C   UNL A   1      36.387  32.887  30.374  1.00  0.00    -0.014 A 
BRANCH  13  14
ATOM     14  C   UNL A   1      37.585  32.264  30.990  1.00  0.00     0.031 A 
ATOM     15  C   UNL A   1      38.071  32.663  32.353  1.00  0.00     0.074 A 
ATOM     16  C   UNL A   1      38.214  31.293  30.299  1.00  0.00     0.049 A 
ATOM     17  N   UNL A   1      39.094  32.201  33.029  1.00  0.00    -0.248 NA
ATOM     18  C   UNL A   1      37.324  33.722  33.048  1.00  0.00     0.031 C 
ATOM     19  C   UNL A   1      37.836  30.837  28.958  1.00  0.00     0.029 A 
ATOM     20  N   UNL A   1      39.283  30.500  30.625  1.00  0.00    -0.354 N 
ATOM     21  C   UNL A   1      39.116  32.910  34.223  1.00  0.00     0.074 A 
ATOM     22  C   UNL A   1      38.029  33.864  34.163  1.00  0.00     0.031 C 
ATOM     23  C   UNL A   1      38.624  29.816  28.598  1.00  0.00     0.029 A 
ATOM     24  C   UNL A   1      39.614  29.598  29.644  1.00  0.00     0.049 A 
ATOM     25  H   UNL A   1      39.766  30.570  31.480  1.00  0.00     0.167 HD
ATOM     26  C   UNL A   1      39.961  32.764  35.273  1.00  0.00     0.037 A 
ATOM     27  C   UNL A   1      40.621  28.711  29.578  1.00  0.00     0.037 A 
ATOM     28  C   UNL A   1      41.047  31.814  35.315  1.00  0.00     0.049 A 
ATOM     29  C   UNL A   1      41.567  28.608  30.739  1.00  0.00     0.074 A 
ATOM     30  C   UNL A   1      41.957  31.588  36.331  1.00  0.00     0.029 A 
ATOM     31  N   UNL A   1      41.369  30.935  34.290  1.00  0.00    -0.354 N 
ATOM     32  N   UNL A   1      41.560  29.266  31.873  1.00  0.00    -0.248 NA
ATOM     33  C   UNL A   1      42.661  27.638  30.612  1.00  0.00     0.031 C 
ATOM     34  C   UNL A   1      42.860  30.608  35.904  1.00  0.00     0.029 A 
ATOM     35  C   UNL A   1      42.476  30.178  34.644  1.00  0.00     0.049 A 
ATOM     36  H   UNL A   1      40.883  30.860  33.437  1.00  0.00     0.167 HD
ATOM     37  C   UNL A   1      42.633  28.776  32.602  1.00  0.00     0.074 A 
ATOM     38  C   UNL A   1      43.249  27.743  31.794  1.00  0.00     0.031 C 
ATOM     39  C   UNL A   1      43.073  29.151  33.828  1.00  0.00     0.037 A 
BRANCH  26  40
ATOM     40  C   UNL A   1      39.757  33.657  36.465  1.00  0.00     0.064 A 
ATOM     41  C   UNL A   1      40.347  34.928  36.542  1.00  0.00     0.173 A 
ATOM     42  C   UNL A   1      38.914  33.265  37.518  1.00  0.00     0.173 A 
ATOM     43  F   UNL A   1      41.169  35.351  35.568  1.00  0.00    -0.203 F 
ATOM     44  C   UNL A   1      40.121  35.762  37.634  1.00  0.00     0.198 A 
ATOM     45  C   UNL A   1      38.665  34.114  38.594  1.00  0.00     0.198 A 
ATOM     46  F   UNL A   1      38.317  32.064  37.495  1.00  0.00    -0.203 F 
ATOM     47  F   UNL A   1      40.729  36.953  37.703  1.00  0.00    -0.200 F 
ATOM     48  C   UNL A   1      39.272  35.358  38.654  1.00  0.00     0.200 A 
ATOM     49  F   UNL A   1      37.833  33.728  39.572  1.00  0.00    -0.200 F 
ATOM     50  F   UNL A   1      39.046  36.167  39.699  1.00  0.00    -0.200 F 
ENDBRANCH  26  40
BRANCH  27  51
ATOM     51  C   UNL A   1      40.797  27.876  28.361  1.00  0.00     0.064 A 
ATOM     52  C   UNL A   1      40.215  26.606  28.261  1.00  0.00     0.173 A 
ATOM     53  C   UNL A   1      41.565  28.328  27.277  1.00  0.00     0.173 A 
ATOM     54  F   UNL A   1      39.484  26.121  29.275  1.00  0.00    -0.203 F 
ATOM     55  C   UNL A   1      40.421  25.807  27.137  1.00  0.00     0.198 A 
ATOM     56  C   UNL A   1      41.736  27.546  26.138  1.00  0.00     0.198 A 
ATOM     57  F   UNL A   1      42.136  29.541  27.317  1.00  0.00    -0.203 F 
ATOM     58  F   UNL A   1      39.904  24.572  27.092  1.00  0.00    -0.200 F 
ATOM     59  C   UNL A   1      41.176  26.281  26.074  1.00  0.00     0.200 A 
ATOM     60  F   UNL A   1      42.448  28.019  25.105  1.00  0.00    -0.200 F 
ATOM     61  F   UNL A   1      41.373  25.513  24.994  1.00  0.00    -0.200 F 
ENDBRANCH  27  51
BRANCH  39  62
ATOM     62  C   UNL A   1      44.257  28.409  34.380  1.00  0.00     0.064 A 
ATOM     63  C   UNL A   1      45.572  28.859  34.181  1.00  0.00     0.173 A 
ATOM     64  C   UNL A   1      44.073  27.231  35.120  1.00  0.00     0.173 A 
ATOM     65  F   UNL A   1      45.803  29.970  33.465  1.00  0.00    -0.203 F 
ATOM     66  C   UNL A   1      46.657  28.138  34.668  1.00  0.00     0.198 A 
ATOM     67  C   UNL A   1      45.159  26.532  35.638  1.00  0.00     0.198 A 
ATOM     68  F   UNL A   1      42.837  26.759  35.344  1.00  0.00    -0.203 F 
ATOM     69  F   UNL A   1      47.905  28.551  34.408  1.00  0.00    -0.200 F 
ATOM     70  C   UNL A   1      46.450  26.979  35.401  1.00  0.00     0.200 A 
ATOM     71  F   UNL A   1      44.956  25.421  36.358  1.00  0.00    -0.200 F 
ATOM     72  F   UNL A   1      47.496  26.286  35.871  1.00  0.00    -0.200 F 
ENDBRANCH  39  62
ENDBRANCH  13  14
ENDBRANCH   6   8
ENDBRANCH   3   4
ENDBRANCH   2   3
ENDBRANCH   1   2
BRANCH   1  73
ATOM     73  C   UNL A   1      32.548  29.948  27.056  1.00  0.00     0.002 C 
BRANCH  73  74
ATOM     74  C   UNL A   1      33.625  29.220  26.230  1.00  0.00     0.021 C 
BRANCH  74  75
ATOM     75  C   UNL A   1      33.606  27.689  26.372  1.00  0.00     0.116 C 
BRANCH  75  76
ATOM     76  N   UNL A   1      32.280  27.143  26.666  1.00  0.00    -0.356 N 
ATOM     77  C   UNL A   1      31.300  26.462  26.013  1.00  0.00     0.226 C 
ATOM     78  H   UNL A   1      32.024  27.320  27.601  1.00  0.00     0.163 HD
ATOM     79  O   UNL A   1      30.283  26.263  26.689  1.00  0.00    -0.274 OA
BRANCH  77  80
ATOM     80  C   UNL A   1      31.402  25.897  24.573  1.00  0.00     0.061 C 
ATOM     81  C   UNL A   1      32.203  26.825  23.606  1.00  0.00     0.078 C 
ATOM     82  C   UNL A   1      29.946  25.814  24.035  1.00  0.00     0.078 C 
ATOM     83  C   UNL A   1      31.528  28.130  23.217  1.00  0.00     0.261 C 
ATOM     84  C   UNL A   1      29.369  27.196  23.673  1.00  0.00     0.261 C 
ATOM     85  N   UNL A   1      30.198  27.876  22.680  1.00  0.00    -0.346 N 
ATOM     86  H   UNL A   1      30.277  27.289  21.849  1.00  0.00     0.346 HD
ATOM     87  H   UNL A   1      29.762  28.767  22.440  1.00  0.00     0.346 HD
BRANCH  80  88
ATOM     88  C   UNL A   1      32.112  24.520  24.521  1.00  0.00     0.029 C 
BRANCH  88  89
ATOM     89  C   UNL A   1      33.373  24.375  23.637  1.00  0.00     0.062 C 
ATOM     90  C   UNL A   1      33.471  23.230  22.600  1.00  0.00     0.238 C 
ATOM     91  C   UNL A   1      34.674  24.075  24.306  1.00  0.00     0.001 A 
ATOM     92  O   UNL A   1      34.853  23.135  22.199  1.00  0.00    -0.493 OA
ATOM     93  C   UNL A   1      35.476  23.388  23.395  1.00  0.00     0.122 A 
ATOM     94  C   UNL A   1      35.148  24.360  25.571  1.00  0.00     0.008 A 
ATOM     95  C   UNL A   1      36.742  22.949  23.693  1.00  0.00     0.047 A 
ATOM     96  C   UNL A   1      36.420  23.888  25.912  1.00  0.00     0.001 A 
ATOM     97  C   UNL A   1      37.208  23.186  24.983  1.00  0.00     0.004 A 
ENDBRANCH  88  89
ENDBRANCH  80  88
ENDBRANCH  77  80
ENDBRANCH  75  76
ENDBRANCH  74  75
ENDBRANCH  73  74
ENDBRANCH   1  73
TORSDOF 15
ENDMDL
