MODEL 1
REMARK VINA RESULT:     -11.6      0.000      0.000
REMARK SMILES CCC(CC)(NC(=O)c1ccc(C)s1)C(=O)NCCCCCCNC(=O)c1ccc(-c2c3nc(c(-c4c(F)c(F)c(F)c(F)c4F)c4ccc([nH]4)c(-c4c(F)c(F)c(F)c(F)c4F)c4nc(c(-c5c(F)c(F)c(F)c(F)c5F)c5ccc2[nH]5)C=C4)C=C3)cc1
REMARK SMILES IDX 20 1 19 2 18 3 17 4 15 5 16 6 3 8 2 9 1 10 4 11 5 12 6 13
REMARK SMILES IDX 7 14 8 16 9 17 10 18 14 19 11 20 12 21 13 22 21 23 22 24
REMARK SMILES IDX 23 25 24 26 25 27 26 29 27 30 28 31 89 32 29 33 88 34 30 35
REMARK SMILES IDX 31 36 32 37 82 38 33 39 87 40 81 41 83 42 34 43 86 44 80 45
REMARK SMILES IDX 79 46 35 48 67 49 47 50 66 51 48 52 51 53 65 54 84 55 49 56
REMARK SMILES IDX 50 57 64 59 85 60 52 61 36 62 37 63 45 64 38 65 39 66 43 67
REMARK SMILES IDX 46 68 40 69 41 70 44 71 42 72 68 73 69 74 77 75 70 76 71 77
REMARK SMILES IDX 75 78 78 79 72 80 73 81 76 82 74 83 53 84 54 85 62 86 55 87
REMARK SMILES IDX 56 88 60 89 63 90 57 91 58 92 61 93 59 94
REMARK H PARENT 17 7 6 15 24 28 83 47 51 58
REMARK Flexibility Score: inf
ROOT
ATOM      1  C   UNL A   1      31.771  29.064  26.145  1.00  0.00     0.002 C 
ENDROOT
BRANCH   1   2
ATOM      2  C   UNL A   1      31.525  27.670  26.720  1.00  0.00     0.021 C 
BRANCH   2   3
ATOM      3  C   UNL A   1      30.733  26.728  25.819  1.00  0.00     0.116 C 
BRANCH   3   4
ATOM      4  N   UNL A   1      30.335  25.475  26.443  1.00  0.00    -0.354 N 
ATOM      5  C   UNL A   1      30.862  24.216  26.452  1.00  0.00     0.245 C 
ATOM      6  O   UNL A   1      30.345  23.429  27.252  1.00  0.00    -0.272 OA
ATOM      7  H   UNL A   1      29.509  25.551  26.973  1.00  0.00     0.163 HD
BRANCH   5   8
ATOM      8  C   UNL A   1      32.125  23.821  25.625  1.00  0.00     0.118 C 
BRANCH   8   9
ATOM      9  C   UNL A   1      33.460  24.369  26.220  1.00  0.00     0.035 C 
ATOM     10  C   UNL A   1      34.192  25.467  25.457  1.00  0.00     0.007 C 
ENDBRANCH   8   9
BRANCH   8  11
ATOM     11  C   UNL A   1      31.890  24.427  24.197  1.00  0.00     0.035 C 
ATOM     12  C   UNL A   1      30.724  23.864  23.393  1.00  0.00     0.007 C 
ENDBRANCH   8  11
BRANCH   8  13
ATOM     13  N   UNL A   1      32.274  22.344  25.543  1.00  0.00    -0.337 N 
ATOM     14  C   UNL A   1      33.091  21.520  24.794  1.00  0.00     0.262 C 
ATOM     15  H   UNL A   1      31.665  21.855  26.144  1.00  0.00     0.164 HD
ATOM     16  O   UNL A   1      32.593  20.415  24.555  1.00  0.00    -0.268 OA
BRANCH  14  17
ATOM     17  C   UNL A   1      34.472  21.849  24.461  1.00  0.00     0.092 A 
ATOM     18  C   UNL A   1      35.084  22.600  23.477  1.00  0.00     0.026 A 
ATOM     19  S   UNL A   1      35.686  21.158  25.491  1.00  0.00    -0.135 S 
ATOM     20  C   UNL A   1      36.479  22.816  23.727  1.00  0.00     0.016 A 
ATOM     21  C   UNL A   1      36.908  22.173  24.866  1.00  0.00     0.002 A 
ATOM     22  C   UNL A   1      38.225  22.285  25.557  1.00  0.00     0.056 C 
ENDBRANCH  14  17
ENDBRANCH   8  13
ENDBRANCH   5   8
ENDBRANCH   3   4
ENDBRANCH   2   3
ENDBRANCH   1   2
BRANCH   1  23
ATOM     23  C   UNL A   1      32.612  30.010  26.994  1.00  0.00     0.002 C 
BRANCH  23  24
ATOM     24  C   UNL A   1      32.129  31.454  27.008  1.00  0.00     0.021 C 
BRANCH  24  25
ATOM     25  C   UNL A   1      33.182  32.472  27.425  1.00  0.00     0.116 C 
BRANCH  25  26
ATOM     26  N   UNL A   1      32.641  33.810  27.622  1.00  0.00    -0.352 N 
ATOM     27  C   UNL A   1      33.053  34.756  28.536  1.00  0.00     0.251 C 
ATOM     28  H   UNL A   1      31.893  34.068  27.037  1.00  0.00     0.163 HD
ATOM     29  O   UNL A   1      32.464  35.815  28.680  1.00  0.00    -0.269 OA
BRANCH  27  30
ATOM     30  C   UNL A   1      34.222  34.427  29.374  1.00  0.00     0.039 A 
ATOM     31  C   UNL A   1      34.020  33.808  30.609  1.00  0.00     0.014 A 
ATOM     32  C   UNL A   1      35.509  34.598  28.856  1.00  0.00     0.014 A 
ATOM     33  C   UNL A   1      35.115  33.281  31.295  1.00  0.00     0.010 A 
ATOM     34  C   UNL A   1      36.586  34.010  29.506  1.00  0.00     0.010 A 
ATOM     35  C   UNL A   1      36.398  33.338  30.725  1.00  0.00    -0.014 A 
BRANCH  35  36
ATOM     36  C   UNL A   1      37.567  32.700  31.382  1.00  0.00     0.031 A 
ATOM     37  C   UNL A   1      38.254  31.546  30.709  1.00  0.00     0.074 A 
ATOM     38  C   UNL A   1      37.943  33.092  32.615  1.00  0.00     0.049 A 
ATOM     39  N   UNL A   1      39.208  30.774  31.161  1.00  0.00    -0.248 NA
ATOM     40  C   UNL A   1      37.778  31.190  29.363  1.00  0.00     0.031 C 
ATOM     41  C   UNL A   1      37.318  34.161  33.397  1.00  0.00     0.029 A 
ATOM     42  N   UNL A   1      38.937  32.621  33.438  1.00  0.00    -0.354 N 
ATOM     43  C   UNL A   1      39.417  29.821  30.173  1.00  0.00     0.074 A 
ATOM     44  C   UNL A   1      38.470  30.087  29.115  1.00  0.00     0.031 C 
ATOM     45  C   UNL A   1      37.953  34.276  34.575  1.00  0.00     0.029 A 
ATOM     46  C   UNL A   1      39.008  33.268  34.648  1.00  0.00     0.049 A 
ATOM     47  H   UNL A   1      39.542  31.887  33.185  1.00  0.00     0.167 HD
ATOM     48  C   UNL A   1      40.333  28.826  30.145  1.00  0.00     0.037 A 
ATOM     49  C   UNL A   1      39.828  33.065  35.697  1.00  0.00     0.037 A 
ATOM     50  C   UNL A   1      41.320  28.607  31.167  1.00  0.00     0.049 A 
ATOM     51  C   UNL A   1      40.867  31.980  35.616  1.00  0.00     0.074 A 
ATOM     52  C   UNL A   1      42.357  27.691  31.182  1.00  0.00     0.029 A 
ATOM     53  N   UNL A   1      41.394  29.319  32.353  1.00  0.00    -0.354 N 
ATOM     54  N   UNL A   1      41.111  31.139  34.639  1.00  0.00    -0.248 NA
ATOM     55  C   UNL A   1      41.749  31.816  36.781  1.00  0.00     0.031 C 
ATOM     56  C   UNL A   1      43.041  27.828  32.393  1.00  0.00     0.029 A 
ATOM     57  C   UNL A   1      42.453  28.854  33.115  1.00  0.00     0.049 A 
ATOM     58  H   UNL A   1      40.786  30.048  32.616  1.00  0.00     0.167 HD
ATOM     59  C   UNL A   1      42.193  30.375  35.056  1.00  0.00     0.074 A 
ATOM     60  C   UNL A   1      42.564  30.854  36.371  1.00  0.00     0.031 C 
ATOM     61  C   UNL A   1      42.822  29.366  34.408  1.00  0.00     0.037 A 
BRANCH  48  62
ATOM     62  C   UNL A   1      40.325  27.904  28.963  1.00  0.00     0.064 A 
ATOM     63  C   UNL A   1      41.062  28.188  27.804  1.00  0.00     0.173 A 
ATOM     64  C   UNL A   1      39.608  26.699  29.011  1.00  0.00     0.173 A 
ATOM     65  F   UNL A   1      41.751  29.334  27.707  1.00  0.00    -0.203 F 
ATOM     66  C   UNL A   1      41.066  27.307  26.727  1.00  0.00     0.198 A 
ATOM     67  C   UNL A   1      39.636  25.807  27.942  1.00  0.00     0.198 A 
ATOM     68  F   UNL A   1      38.891  26.380  30.098  1.00  0.00    -0.203 F 
ATOM     69  F   UNL A   1      41.747  27.614  25.614  1.00  0.00    -0.200 F 
ATOM     70  C   UNL A   1      40.361  26.114  26.799  1.00  0.00     0.200 A 
ATOM     71  F   UNL A   1      38.963  24.651  28.017  1.00  0.00    -0.200 F 
ATOM     72  F   UNL A   1      40.376  25.262  25.766  1.00  0.00    -0.200 F 
ENDBRANCH  48  62
BRANCH  49  73
ATOM     73  C   UNL A   1      39.728  33.921  36.908  1.00  0.00     0.064 A 
ATOM     74  C   UNL A   1      38.943  33.528  38.001  1.00  0.00     0.173 A 
ATOM     75  C   UNL A   1      40.380  35.160  36.986  1.00  0.00     0.173 A 
ATOM     76  F   UNL A   1      38.282  32.362  37.962  1.00  0.00    -0.203 F 
ATOM     77  C   UNL A   1      38.789  34.353  39.113  1.00  0.00     0.198 A 
ATOM     78  C   UNL A   1      40.247  35.973  38.111  1.00  0.00     0.198 A 
ATOM     79  F   UNL A   1      41.147  35.582  35.970  1.00  0.00    -0.203 F 
ATOM     80  F   UNL A   1      37.989  33.975  40.119  1.00  0.00    -0.200 F 
ATOM     81  C   UNL A   1      39.444  35.574  39.168  1.00  0.00     0.200 A 
ATOM     82  F   UNL A   1      40.889  37.148  38.165  1.00  0.00    -0.200 F 
ATOM     83  F   UNL A   1      39.291  36.370  40.234  1.00  0.00    -0.200 F 
ENDBRANCH  49  73
BRANCH  61  84
ATOM     84  C   UNL A   1      44.007  28.744  35.084  1.00  0.00     0.064 A 
ATOM     85  C   UNL A   1      43.876  27.609  35.896  1.00  0.00     0.173 A 
ATOM     86  C   UNL A   1      45.294  29.257  34.866  1.00  0.00     0.173 A 
ATOM     87  F   UNL A   1      42.663  27.093  36.145  1.00  0.00    -0.203 F 
ATOM     88  C   UNL A   1      44.993  27.019  36.480  1.00  0.00     0.198 A 
ATOM     89  C   UNL A   1      46.411  28.649  35.431  1.00  0.00     0.198 A 
ATOM     90  F   UNL A   1      45.469  30.338  34.091  1.00  0.00    -0.203 F 
ATOM     91  F   UNL A   1      44.843  25.955  37.282  1.00  0.00    -0.200 F 
ATOM     92  C   UNL A   1      46.259  27.533  36.241  1.00  0.00     0.200 A 
ATOM     93  F   UNL A   1      47.634  29.140  35.190  1.00  0.00    -0.200 F 
ATOM     94  F   UNL A   1      47.333  26.956  36.794  1.00  0.00    -0.200 F 
ENDBRANCH  61  84
ENDBRANCH  35  36
ENDBRANCH  27  30
ENDBRANCH  25  26
ENDBRANCH  24  25
ENDBRANCH  23  24
ENDBRANCH   1  23
TORSDOF 17
ENDMDL
MODEL 2
REMARK VINA RESULT:     -11.5      1.622      7.859
REMARK SMILES CCC(CC)(NC(=O)c1ccc(C)s1)C(=O)NCCCCCCNC(=O)c1ccc(-c2c3nc(c(-c4c(F)c(F)c(F)c(F)c4F)c4ccc([nH]4)c(-c4c(F)c(F)c(F)c(F)c4F)c4nc(c(-c5c(F)c(F)c(F)c(F)c5F)c5ccc2[nH]5)C=C4)C=C3)cc1
REMARK SMILES IDX 20 1 19 2 18 3 17 4 15 5 16 6 3 8 2 9 1 10 4 11 5 12 6 13
REMARK SMILES IDX 7 14 8 16 9 17 10 18 14 19 11 20 12 21 13 22 21 23 22 24
REMARK SMILES IDX 23 25 24 26 25 27 26 29 27 30 28 31 89 32 29 33 88 34 30 35
REMARK SMILES IDX 31 36 32 37 82 38 33 39 87 40 81 41 83 42 34 43 86 44 80 45
REMARK SMILES IDX 79 46 35 48 67 49 47 50 66 51 48 52 51 53 65 54 84 55 49 56
REMARK SMILES IDX 50 57 64 59 85 60 52 61 36 62 37 63 45 64 38 65 39 66 43 67
REMARK SMILES IDX 46 68 40 69 41 70 44 71 42 72 68 73 69 74 77 75 70 76 71 77
REMARK SMILES IDX 75 78 78 79 72 80 73 81 76 82 74 83 53 84 54 85 62 86 55 87
REMARK SMILES IDX 56 88 60 89 63 90 57 91 58 92 61 93 59 94
REMARK H PARENT 17 7 6 15 24 28 83 47 51 58
REMARK Flexibility Score: inf
ROOT
ATOM      1  C   UNL A   1      32.585  29.608  27.325  1.00  0.00     0.002 C 
ENDROOT
BRANCH   1   2
ATOM      2  C   UNL A   1      33.914  28.906  27.051  1.00  0.00     0.021 C 
BRANCH   2   3
ATOM      3  C   UNL A   1      33.813  27.620  26.238  1.00  0.00     0.116 C 
BRANCH   3   4
ATOM      4  N   UNL A   1      32.571  26.881  26.414  1.00  0.00    -0.354 N 
ATOM      5  C   UNL A   1      32.137  25.654  26.002  1.00  0.00     0.245 C 
ATOM      6  O   UNL A   1      31.071  25.274  26.499  1.00  0.00    -0.272 OA
ATOM      7  H   UNL A   1      31.901  27.370  26.942  1.00  0.00     0.163 HD
BRANCH   5   8
ATOM      8  C   UNL A   1      32.986  24.719  25.086  1.00  0.00     0.118 C 
BRANCH   8   9
ATOM      9  C   UNL A   1      32.163  23.557  24.444  1.00  0.00     0.035 C 
ATOM     10  C   UNL A   1      32.371  22.145  24.979  1.00  0.00     0.007 C 
ENDBRANCH   8   9
BRANCH   8  11
ATOM     11  C   UNL A   1      34.102  24.129  26.017  1.00  0.00     0.035 C 
ATOM     12  C   UNL A   1      35.535  24.192  25.501  1.00  0.00     0.007 C 
ENDBRANCH   8  11
BRANCH   8  13
ATOM     13  N   UNL A   1      33.596  25.476  23.962  1.00  0.00    -0.337 N 
ATOM     14  C   UNL A   1      33.064  26.117  22.860  1.00  0.00     0.262 C 
ATOM     15  H   UNL A   1      34.578  25.531  24.014  1.00  0.00     0.164 HD
ATOM     16  O   UNL A   1      33.827  26.144  21.888  1.00  0.00    -0.268 OA
BRANCH  14  17
ATOM     17  C   UNL A   1      31.800  26.843  22.886  1.00  0.00     0.092 A 
ATOM     18  C   UNL A   1      30.468  26.477  22.937  1.00  0.00     0.026 A 
ATOM     19  S   UNL A   1      31.916  28.573  22.829  1.00  0.00    -0.135 S 
ATOM     20  C   UNL A   1      29.596  27.585  23.192  1.00  0.00     0.016 A 
ATOM     21  C   UNL A   1      30.279  28.777  23.271  1.00  0.00     0.002 A 
ATOM     22  C   UNL A   1      29.770  30.115  23.689  1.00  0.00     0.056 C 
ENDBRANCH  14  17
ENDBRANCH   8  13
ENDBRANCH   5   8
ENDBRANCH   3   4
ENDBRANCH   2   3
ENDBRANCH   1   2
BRANCH   1  23
ATOM     23  C   UNL A   1      32.128  30.627  26.288  1.00  0.00     0.002 C 
BRANCH  23  24
ATOM     24  C   UNL A   1      31.699  31.970  26.861  1.00  0.00     0.021 C 
BRANCH  24  25
ATOM     25  C   UNL A   1      32.831  32.802  27.447  1.00  0.00     0.116 C 
BRANCH  25  26
ATOM     26  N   UNL A   1      32.454  34.186  27.703  1.00  0.00    -0.352 N 
ATOM     27  C   UNL A   1      32.994  35.045  28.637  1.00  0.00     0.251 C 
ATOM     28  H   UNL A   1      31.729  34.550  27.146  1.00  0.00     0.163 HD
ATOM     29  O   UNL A   1      32.536  36.159  28.831  1.00  0.00    -0.269 OA
BRANCH  27  30
ATOM     30  C   UNL A   1      34.135  34.552  29.432  1.00  0.00     0.039 A 
ATOM     31  C   UNL A   1      33.889  33.906  30.645  1.00  0.00     0.014 A 
ATOM     32  C   UNL A   1      35.423  34.602  28.891  1.00  0.00     0.014 A 
ATOM     33  C   UNL A   1      34.931  33.231  31.282  1.00  0.00     0.010 A 
ATOM     34  C   UNL A   1      36.440  33.872  29.490  1.00  0.00     0.010 A 
ATOM     35  C   UNL A   1      36.202  33.171  30.685  1.00  0.00    -0.014 A 
BRANCH  35  36
ATOM     36  C   UNL A   1      37.305  32.381  31.287  1.00  0.00     0.031 A 
ATOM     37  C   UNL A   1      37.803  32.734  32.660  1.00  0.00     0.074 A 
ATOM     38  C   UNL A   1      37.916  31.419  30.567  1.00  0.00     0.049 A 
ATOM     39  N   UNL A   1      38.827  32.255  33.317  1.00  0.00    -0.248 NA
ATOM     40  C   UNL A   1      37.073  33.795  33.373  1.00  0.00     0.031 C 
ATOM     41  C   UNL A   1      37.563  31.023  29.203  1.00  0.00     0.029 A 
ATOM     42  N   UNL A   1      38.980  30.608  30.881  1.00  0.00    -0.354 N 
ATOM     43  C   UNL A   1      38.886  32.981  34.498  1.00  0.00     0.074 A 
ATOM     44  C   UNL A   1      37.820  33.956  34.455  1.00  0.00     0.031 C 
ATOM     45  C   UNL A   1      38.381  30.035  28.804  1.00  0.00     0.029 A 
ATOM     46  C   UNL A   1      39.338  29.750  29.869  1.00  0.00     0.049 A 
ATOM     47  H   UNL A   1      39.442  30.640  31.749  1.00  0.00     0.167 HD
ATOM     48  C   UNL A   1      39.743  32.833  35.536  1.00  0.00     0.037 A 
ATOM     49  C   UNL A   1      40.331  28.841  29.811  1.00  0.00     0.037 A 
ATOM     50  C   UNL A   1      40.758  31.817  35.606  1.00  0.00     0.049 A 
ATOM     51  C   UNL A   1      41.238  28.668  30.999  1.00  0.00     0.074 A 
ATOM     52  C   UNL A   1      41.606  31.518  36.657  1.00  0.00     0.029 A 
ATOM     53  N   UNL A   1      41.054  30.930  34.584  1.00  0.00    -0.354 N 
ATOM     54  N   UNL A   1      41.229  29.303  32.146  1.00  0.00    -0.248 NA
ATOM     55  C   UNL A   1      42.290  27.647  30.888  1.00  0.00     0.031 C 
ATOM     56  C   UNL A   1      42.439  30.468  36.259  1.00  0.00     0.029 A 
ATOM     57  C   UNL A   1      42.083  30.090  34.974  1.00  0.00     0.049 A 
ATOM     58  H   UNL A   1      40.600  30.899  33.710  1.00  0.00     0.167 HD
ATOM     59  C   UNL A   1      42.246  28.737  32.903  1.00  0.00     0.074 A 
ATOM     60  C   UNL A   1      42.848  27.702  32.089  1.00  0.00     0.031 C 
ATOM     61  C   UNL A   1      42.647  29.047  34.158  1.00  0.00     0.037 A 
BRANCH  48  62
ATOM     62  C   UNL A   1      39.611  33.780  36.690  1.00  0.00     0.064 A 
ATOM     63  C   UNL A   1      40.232  35.037  36.684  1.00  0.00     0.173 A 
ATOM     64  C   UNL A   1      38.815  33.442  37.794  1.00  0.00     0.173 A 
ATOM     65  F   UNL A   1      41.014  35.398  35.656  1.00  0.00    -0.203 F 
ATOM     66  C   UNL A   1      40.076  35.916  37.752  1.00  0.00     0.198 A 
ATOM     67  C   UNL A   1      38.640  34.335  38.849  1.00  0.00     0.198 A 
ATOM     68  F   UNL A   1      38.197  32.253  37.846  1.00  0.00    -0.203 F 
ATOM     69  F   UNL A   1      40.709  37.097  37.743  1.00  0.00    -0.200 F 
ATOM     70  C   UNL A   1      39.274  35.568  38.829  1.00  0.00     0.200 A 
ATOM     71  F   UNL A   1      37.856  34.002  39.884  1.00  0.00    -0.200 F 
ATOM     72  F   UNL A   1      39.116  36.420  39.850  1.00  0.00    -0.200 F 
ENDBRANCH  48  62
BRANCH  49  73
ATOM     73  C   UNL A   1      40.510  27.999  28.599  1.00  0.00     0.064 A 
ATOM     74  C   UNL A   1      41.276  28.455  27.516  1.00  0.00     0.173 A 
ATOM     75  C   UNL A   1      39.894  26.746  28.478  1.00  0.00     0.173 A 
ATOM     76  F   UNL A   1      41.866  29.658  27.576  1.00  0.00    -0.203 F 
ATOM     77  C   UNL A   1      41.397  27.704  26.350  1.00  0.00     0.198 A 
ATOM     78  C   UNL A   1      40.036  25.982  27.321  1.00  0.00     0.198 A 
ATOM     79  F   UNL A   1      39.153  26.261  29.486  1.00  0.00    -0.203 F 
ATOM     80  F   UNL A   1      42.091  28.188  25.311  1.00  0.00    -0.200 F 
ATOM     81  C   UNL A   1      40.779  26.466  26.254  1.00  0.00     0.200 A 
ATOM     82  F   UNL A   1      39.445  24.782  27.236  1.00  0.00    -0.200 F 
ATOM     83  F   UNL A   1      40.888  25.746  25.130  1.00  0.00    -0.200 F 
ENDBRANCH  49  73
BRANCH  61  84
ATOM     84  C   UNL A   1      43.753  28.228  34.752  1.00  0.00     0.064 A 
ATOM     85  C   UNL A   1      45.091  28.638  34.677  1.00  0.00     0.173 A 
ATOM     86  C   UNL A   1      43.461  27.050  35.456  1.00  0.00     0.173 A 
ATOM     87  F   UNL A   1      45.419  29.749  34.001  1.00  0.00    -0.203 F 
ATOM     88  C   UNL A   1      46.101  27.888  35.272  1.00  0.00     0.198 A 
ATOM     89  C   UNL A   1      44.470  26.317  36.072  1.00  0.00     0.198 A 
ATOM     90  F   UNL A   1      42.194  26.622  35.561  1.00  0.00    -0.203 F 
ATOM     91  F   UNL A   1      47.378  28.279  35.158  1.00  0.00    -0.200 F 
ATOM     92  C   UNL A   1      45.789  26.734  35.976  1.00  0.00     0.200 A 
ATOM     93  F   UNL A   1      44.167  25.208  36.761  1.00  0.00    -0.200 F 
ATOM     94  F   UNL A   1      46.762  26.020  36.558  1.00  0.00    -0.200 F 
ENDBRANCH  61  84
ENDBRANCH  35  36
ENDBRANCH  27  30
ENDBRANCH  25  26
ENDBRANCH  24  25
ENDBRANCH  23  24
ENDBRANCH   1  23
TORSDOF 17
ENDMDL
MODEL 3
REMARK VINA RESULT:     -11.3      2.104      7.834
REMARK SMILES CCC(CC)(NC(=O)c1ccc(C)s1)C(=O)NCCCCCCNC(=O)c1ccc(-c2c3nc(c(-c4c(F)c(F)c(F)c(F)c4F)c4ccc([nH]4)c(-c4c(F)c(F)c(F)c(F)c4F)c4nc(c(-c5c(F)c(F)c(F)c(F)c5F)c5ccc2[nH]5)C=C4)C=C3)cc1
REMARK SMILES IDX 20 1 19 2 18 3 17 4 15 5 16 6 3 8 2 9 1 10 4 11 5 12 6 13
REMARK SMILES IDX 7 14 8 16 9 17 10 18 14 19 11 20 12 21 13 22 21 23 22 24
REMARK SMILES IDX 23 25 24 26 25 27 26 29 27 30 28 31 89 32 29 33 88 34 30 35
REMARK SMILES IDX 31 36 32 37 82 38 33 39 87 40 81 41 83 42 34 43 86 44 80 45
REMARK SMILES IDX 79 46 35 48 67 49 47 50 66 51 48 52 51 53 65 54 84 55 49 56
REMARK SMILES IDX 50 57 64 59 85 60 52 61 36 62 37 63 45 64 38 65 39 66 43 67
REMARK SMILES IDX 46 68 40 69 41 70 44 71 42 72 68 73 69 74 77 75 70 76 71 77
REMARK SMILES IDX 75 78 78 79 72 80 73 81 76 82 74 83 53 84 54 85 62 86 55 87
REMARK SMILES IDX 56 88 60 89 63 90 57 91 58 92 61 93 59 94
REMARK H PARENT 17 7 6 15 24 28 83 47 51 58
REMARK Flexibility Score: inf
ROOT
ATOM      1  C   UNL A   1      34.984  32.023  27.899  1.00  0.00     0.002 C 
ENDROOT
BRANCH   1   2
ATOM      2  C   UNL A   1      35.150  30.512  28.049  1.00  0.00     0.021 C 
BRANCH   2   3
ATOM      3  C   UNL A   1      34.313  29.669  27.093  1.00  0.00     0.116 C 
BRANCH   3   4
ATOM      4  N   UNL A   1      33.034  29.226  27.627  1.00  0.00    -0.354 N 
ATOM      5  C   UNL A   1      32.015  28.468  27.127  1.00  0.00     0.245 C 
ATOM      6  O   UNL A   1      31.147  28.140  27.944  1.00  0.00    -0.272 OA
ATOM      7  H   UNL A   1      32.868  29.539  28.545  1.00  0.00     0.163 HD
BRANCH   5   8
ATOM      8  C   UNL A   1      32.004  27.919  25.667  1.00  0.00     0.118 C 
BRANCH   8   9
ATOM      9  C   UNL A   1      33.167  26.922  25.364  1.00  0.00     0.035 C 
ATOM     10  C   UNL A   1      33.204  25.604  26.130  1.00  0.00     0.007 C 
ENDBRANCH   8   9
BRANCH   8  11
ATOM     11  C   UNL A   1      32.137  29.185  24.749  1.00  0.00     0.035 C 
ATOM     12  C   UNL A   1      33.224  29.151  23.681  1.00  0.00     0.007 C 
ENDBRANCH   8  11
BRANCH   8  13
ATOM     13  N   UNL A   1      30.739  27.196  25.373  1.00  0.00    -0.337 N 
ATOM     14  C   UNL A   1      30.208  26.660  24.216  1.00  0.00     0.262 C 
ATOM     15  H   UNL A   1      30.164  27.076  26.163  1.00  0.00     0.164 HD
ATOM     16  O   UNL A   1      28.972  26.646  24.200  1.00  0.00    -0.268 OA
BRANCH  14  17
ATOM     17  C   UNL A   1      31.015  26.016  23.186  1.00  0.00     0.092 A 
ATOM     18  C   UNL A   1      31.651  26.446  22.038  1.00  0.00     0.026 A 
ATOM     19  S   UNL A   1      31.265  24.310  23.374  1.00  0.00    -0.135 S 
ATOM     20  C   UNL A   1      32.532  25.459  21.487  1.00  0.00     0.016 A 
ATOM     21  C   UNL A   1      32.500  24.279  22.196  1.00  0.00     0.002 A 
ATOM     22  C   UNL A   1      33.382  23.085  22.056  1.00  0.00     0.056 C 
ENDBRANCH  14  17
ENDBRANCH   8  13
ENDBRANCH   5   8
ENDBRANCH   3   4
ENDBRANCH   2   3
ENDBRANCH   1   2
BRANCH   1  23
ATOM     23  C   UNL A   1      34.353  32.757  29.076  1.00  0.00     0.002 C 
BRANCH  23  24
ATOM     24  C   UNL A   1      33.414  33.892  28.691  1.00  0.00     0.021 C 
BRANCH  24  25
ATOM     25  C   UNL A   1      33.821  35.260  29.220  1.00  0.00     0.116 C 
BRANCH  25  26
ATOM     26  N   UNL A   1      32.819  35.860  30.092  1.00  0.00    -0.352 N 
ATOM     27  C   UNL A   1      32.758  35.798  31.467  1.00  0.00     0.251 C 
ATOM     28  H   UNL A   1      32.101  36.366  29.647  1.00  0.00     0.163 HD
ATOM     29  O   UNL A   1      31.818  36.260  32.094  1.00  0.00    -0.269 OA
BRANCH  27  30
ATOM     30  C   UNL A   1      33.862  35.113  32.166  1.00  0.00     0.039 A 
ATOM     31  C   UNL A   1      33.656  33.823  32.659  1.00  0.00     0.014 A 
ATOM     32  C   UNL A   1      35.131  35.699  32.187  1.00  0.00     0.014 A 
ATOM     33  C   UNL A   1      34.751  33.081  33.103  1.00  0.00     0.010 A 
ATOM     34  C   UNL A   1      36.226  34.933  32.563  1.00  0.00     0.010 A 
ATOM     35  C   UNL A   1      36.049  33.614  33.015  1.00  0.00    -0.014 A 
BRANCH  35  36
ATOM     36  C   UNL A   1      37.242  32.815  33.387  1.00  0.00     0.031 A 
ATOM     37  C   UNL A   1      37.953  33.106  34.679  1.00  0.00     0.074 A 
ATOM     38  C   UNL A   1      37.738  31.904  32.527  1.00  0.00     0.049 A 
ATOM     39  N   UNL A   1      39.075  32.612  35.135  1.00  0.00    -0.248 NA
ATOM     40  C   UNL A   1      37.338  34.113  35.557  1.00  0.00     0.031 C 
ATOM     41  C   UNL A   1      37.172  31.573  31.218  1.00  0.00     0.029 A 
ATOM     42  N   UNL A   1      38.847  31.098  32.620  1.00  0.00    -0.354 N 
ATOM     43  C   UNL A   1      39.318  33.277  36.329  1.00  0.00     0.074 A 
ATOM     44  C   UNL A   1      38.249  34.232  36.512  1.00  0.00     0.031 C 
ATOM     45  C   UNL A   1      37.925  30.623  30.639  1.00  0.00     0.029 A 
ATOM     46  C   UNL A   1      39.046  30.301  31.518  1.00  0.00     0.049 A 
ATOM     47  H   UNL A   1      39.444  31.093  33.402  1.00  0.00     0.167 HD
ATOM     48  C   UNL A   1      40.333  33.091  37.204  1.00  0.00     0.037 A 
ATOM     49  C   UNL A   1      40.025  29.415  31.251  1.00  0.00     0.037 A 
ATOM     50  C   UNL A   1      41.356  32.092  37.054  1.00  0.00     0.049 A 
ATOM     51  C   UNL A   1      41.114  29.197  32.265  1.00  0.00     0.074 A 
ATOM     52  C   UNL A   1      42.368  31.755  37.936  1.00  0.00     0.029 A 
ATOM     53  N   UNL A   1      41.492  31.265  35.950  1.00  0.00    -0.354 N 
ATOM     54  N   UNL A   1      41.286  29.772  33.431  1.00  0.00    -0.248 NA
ATOM     55  C   UNL A   1      42.146  28.204  31.930  1.00  0.00     0.031 C 
ATOM     56  C   UNL A   1      43.135  30.743  37.352  1.00  0.00     0.029 A 
ATOM     57  C   UNL A   1      42.580  30.426  36.123  1.00  0.00     0.049 A 
ATOM     58  H   UNL A   1      40.902  31.272  35.161  1.00  0.00     0.167 HD
ATOM     59  C   UNL A   1      42.418  29.186  33.982  1.00  0.00     0.074 A 
ATOM     60  C   UNL A   1      42.891  28.207  33.026  1.00  0.00     0.031 C 
ATOM     61  C   UNL A   1      43.014  29.438  35.171  1.00  0.00     0.037 A 
BRANCH  48  62
ATOM     62  C   UNL A   1      40.381  33.974  38.414  1.00  0.00     0.064 A 
ATOM     63  C   UNL A   1      39.715  33.633  39.600  1.00  0.00     0.173 A 
ATOM     64  C   UNL A   1      41.143  35.151  38.400  1.00  0.00     0.173 A 
ATOM     65  F   UNL A   1      38.964  32.524  39.657  1.00  0.00    -0.203 F 
ATOM     66  C   UNL A   1      39.794  34.450  40.724  1.00  0.00     0.198 A 
ATOM     67  C   UNL A   1      41.242  35.953  39.535  1.00  0.00     0.198 A 
ATOM     68  F   UNL A   1      41.802  35.519  37.291  1.00  0.00    -0.203 F 
ATOM     69  F   UNL A   1      39.120  34.126  41.835  1.00  0.00    -0.200 F 
ATOM     70  C   UNL A   1      40.564  35.604  40.694  1.00  0.00     0.200 A 
ATOM     71  F   UNL A   1      41.994  37.062  39.507  1.00  0.00    -0.200 F 
ATOM     72  F   UNL A   1      40.648  36.384  41.780  1.00  0.00    -0.200 F 
ENDBRANCH  48  62
BRANCH  49  73
ATOM     73  C   UNL A   1      40.013  28.641  29.981  1.00  0.00     0.064 A 
ATOM     74  C   UNL A   1      39.402  27.381  29.916  1.00  0.00     0.173 A 
ATOM     75  C   UNL A   1      40.641  29.122  28.823  1.00  0.00     0.173 A 
ATOM     76  F   UNL A   1      38.809  26.870  31.005  1.00  0.00    -0.203 F 
ATOM     77  C   UNL A   1      39.443  26.618  28.751  1.00  0.00     0.198 A 
ATOM     78  C   UNL A   1      40.659  28.370  27.650  1.00  0.00     0.198 A 
ATOM     79  F   UNL A   1      41.237  30.323  28.831  1.00  0.00    -0.203 F 
ATOM     80  F   UNL A   1      38.897  25.395  28.734  1.00  0.00    -0.200 F 
ATOM     81  C   UNL A   1      40.069  27.114  27.618  1.00  0.00     0.200 A 
ATOM     82  F   UNL A   1      41.256  28.857  26.554  1.00  0.00    -0.200 F 
ATOM     83  F   UNL A   1      40.115  26.379  26.499  1.00  0.00    -0.200 F 
ENDBRANCH  49  73
BRANCH  61  84
ATOM     84  C   UNL A   1      44.211  28.611  35.533  1.00  0.00     0.064 A 
ATOM     85  C   UNL A   1      44.083  27.401  36.227  1.00  0.00     0.173 A 
ATOM     86  C   UNL A   1      45.493  29.007  35.124  1.00  0.00     0.173 A 
ATOM     87  F   UNL A   1      42.878  26.990  36.651  1.00  0.00    -0.203 F 
ATOM     88  C   UNL A   1      45.200  26.623  36.516  1.00  0.00     0.198 A 
ATOM     89  C   UNL A   1      46.605  28.215  35.392  1.00  0.00     0.198 A 
ATOM     90  F   UNL A   1      45.664  30.154  34.450  1.00  0.00    -0.203 F 
ATOM     91  F   UNL A   1      45.061  25.487  37.212  1.00  0.00    -0.200 F 
ATOM     92  C   UNL A   1      46.458  27.025  36.091  1.00  0.00     0.200 A 
ATOM     93  F   UNL A   1      47.818  28.599  34.971  1.00  0.00    -0.200 F 
ATOM     94  F   UNL A   1      47.531  26.269  36.359  1.00  0.00    -0.200 F 
ENDBRANCH  61  84
ENDBRANCH  35  36
ENDBRANCH  27  30
ENDBRANCH  25  26
ENDBRANCH  24  25
ENDBRANCH  23  24
ENDBRANCH   1  23
TORSDOF 17
ENDMDL
