MODEL 1
REMARK VINA RESULT:     -10.2      0.000      0.000
REMARK SMILES COCC[N@H+](C)[C@H](C)[C@@H](C)C(=O)NCCCCCCNC(=O)c1ccc(-c2c3nc(c(-c4c(F)c(F)c(F)c(F)c4F)c4ccc([nH]4)c(-c4c(F)c(F)c(F)c(F)c4F)c4nc(c(-c5c(F)c(F)c(F)c(F)c5F)c5ccc2[nH]5)C=C4)C=C3)cc1
REMARK SMILES IDX 15 1 14 2 13 3 11 4 12 5 9 7 10 8 7 9 8 10 5 11 6 12 4 14
REMARK SMILES IDX 3 15 2 16 1 17 16 18 17 19 18 20 19 21 20 22 21 23 22 25
REMARK SMILES IDX 23 26 24 27 85 28 25 29 84 30 26 31 27 32 28 33 78 34 29 35
REMARK SMILES IDX 83 36 77 37 79 38 30 39 82 40 76 41 75 42 31 44 63 45 43 46
REMARK SMILES IDX 62 47 44 48 47 49 61 50 80 51 45 52 46 53 60 55 81 56 48 57
REMARK SMILES IDX 32 58 33 59 41 60 34 61 35 62 39 63 42 64 36 65 37 66 40 67
REMARK SMILES IDX 38 68 64 69 65 70 73 71 66 72 67 73 71 74 74 75 68 76 69 77
REMARK SMILES IDX 72 78 70 79 49 80 50 81 58 82 51 83 52 84 56 85 59 86 53 87
REMARK SMILES IDX 54 88 57 89 55 90
REMARK H PARENT 13 6 5 13 20 24 79 43 47 54
REMARK Flexibility Score: inf
ROOT
ATOM      1  C   UNL A   1      32.658  28.509  27.137  1.00  0.00     0.021 C 
ENDROOT
BRANCH   1   2
ATOM      2  C   UNL A   1      31.403  27.915  26.500  1.00  0.00     0.116 C 
BRANCH   2   3
ATOM      3  N   UNL A   1      31.163  26.534  26.876  1.00  0.00    -0.356 N 
ATOM      4  C   UNL A   1      31.374  25.360  26.223  1.00  0.00     0.228 C 
ATOM      5  O   UNL A   1      31.220  24.325  26.881  1.00  0.00    -0.275 OA
ATOM      6  H   UNL A   1      30.773  26.427  27.773  1.00  0.00     0.163 HD
BRANCH   4   7
ATOM      7  C   UNL A   1      31.780  25.279  24.758  1.00  0.00     0.133 C 
ATOM      8  C   UNL A   1      30.653  24.630  23.941  1.00  0.00     0.024 C 
BRANCH   7   9
ATOM      9  C   UNL A   1      33.204  24.681  24.547  1.00  0.00     0.193 C 
ATOM     10  C   UNL A   1      34.290  25.564  25.197  1.00  0.00     0.076 C 
BRANCH   9  11
ATOM     11  N   UNL A   1      33.454  23.289  25.012  1.00  0.00    -0.333 N 
ATOM     12  C   UNL A   1      33.536  22.302  23.932  1.00  0.00     0.333 C 
ATOM     13  H   UNL A   1      32.610  23.131  25.560  1.00  0.00     0.348 HD
BRANCH  11  14
ATOM     14  C   UNL A   1      34.594  23.086  25.933  1.00  0.00     0.291 C 
BRANCH  14  15
ATOM     15  C   UNL A   1      35.262  21.703  25.918  1.00  0.00     0.221 C 
BRANCH  15  16
ATOM     16  O   UNL A   1      36.681  21.708  25.781  1.00  0.00    -0.379 OA
ATOM     17  C   UNL A   1      37.165  20.624  25.000  1.00  0.00     0.195 C 
ENDBRANCH  15  16
ENDBRANCH  14  15
ENDBRANCH  11  14
ENDBRANCH   9  11
ENDBRANCH   7   9
ENDBRANCH   4   7
ENDBRANCH   2   3
ENDBRANCH   1   2
BRANCH   1  18
ATOM     18  C   UNL A   1      32.817  30.023  27.003  1.00  0.00     0.002 C 
BRANCH  18  19
ATOM     19  C   UNL A   1      31.656  30.707  26.288  1.00  0.00     0.002 C 
BRANCH  19  20
ATOM     20  C   UNL A   1      31.457  32.176  26.668  1.00  0.00     0.021 C 
BRANCH  20  21
ATOM     21  C   UNL A   1      32.673  32.839  27.308  1.00  0.00     0.116 C 
BRANCH  21  22
ATOM     22  N   UNL A   1      32.425  34.234  27.625  1.00  0.00    -0.352 N 
ATOM     23  C   UNL A   1      32.978  34.983  28.634  1.00  0.00     0.251 C 
ATOM     24  H   UNL A   1      31.781  34.700  27.045  1.00  0.00     0.163 HD
ATOM     25  O   UNL A   1      32.525  36.081  28.927  1.00  0.00    -0.269 OA
BRANCH  23  26
ATOM     26  C   UNL A   1      34.126  34.428  29.378  1.00  0.00     0.039 A 
ATOM     27  C   UNL A   1      33.893  33.753  30.576  1.00  0.00     0.014 A 
ATOM     28  C   UNL A   1      35.423  34.552  28.869  1.00  0.00     0.014 A 
ATOM     29  C   UNL A   1      34.963  33.160  31.248  1.00  0.00     0.010 A 
ATOM     30  C   UNL A   1      36.475  33.898  29.501  1.00  0.00     0.010 A 
ATOM     31  C   UNL A   1      36.257  33.205  30.702  1.00  0.00    -0.014 A 
BRANCH  31  32
ATOM     32  C   UNL A   1      37.398  32.545  31.386  1.00  0.00     0.031 A 
ATOM     33  C   UNL A   1      38.111  31.401  30.723  1.00  0.00     0.074 A 
ATOM     34  C   UNL A   1      37.760  32.946  32.620  1.00  0.00     0.049 A 
ATOM     35  N   UNL A   1      39.097  30.666  31.174  1.00  0.00    -0.248 NA
ATOM     36  C   UNL A   1      37.638  31.013  29.385  1.00  0.00     0.031 C 
ATOM     37  C   UNL A   1      37.118  34.018  33.382  1.00  0.00     0.029 A 
ATOM     38  N   UNL A   1      38.753  32.495  33.453  1.00  0.00    -0.354 N 
ATOM     39  C   UNL A   1      39.354  29.729  30.181  1.00  0.00     0.074 A 
ATOM     40  C   UNL A   1      38.380  29.945  29.133  1.00  0.00     0.031 C 
ATOM     41  C   UNL A   1      37.749  34.159  34.559  1.00  0.00     0.029 A 
ATOM     42  C   UNL A   1      38.813  33.162  34.651  1.00  0.00     0.049 A 
ATOM     43  H   UNL A   1      39.365  31.761  33.214  1.00  0.00     0.167 HD
ATOM     44  C   UNL A   1      40.330  28.791  30.136  1.00  0.00     0.037 A 
ATOM     45  C   UNL A   1      39.628  32.985  35.708  1.00  0.00     0.037 A 
ATOM     46  C   UNL A   1      41.304  28.590  31.176  1.00  0.00     0.049 A 
ATOM     47  C   UNL A   1      40.688  31.916  35.644  1.00  0.00     0.074 A 
ATOM     48  C   UNL A   1      42.363  27.700  31.206  1.00  0.00     0.029 A 
ATOM     49  N   UNL A   1      41.335  29.287  32.375  1.00  0.00    -0.354 N 
ATOM     50  N   UNL A   1      40.965  31.082  34.672  1.00  0.00    -0.248 NA
ATOM     51  C   UNL A   1      41.551  31.770  36.823  1.00  0.00     0.031 C 
ATOM     52  C   UNL A   1      42.999  27.819  32.445  1.00  0.00     0.029 A 
ATOM     53  C   UNL A   1      42.377  28.827  33.164  1.00  0.00     0.049 A 
ATOM     54  H   UNL A   1      40.707  30.003  32.628  1.00  0.00     0.167 HD
ATOM     55  C   UNL A   1      42.053  30.335  35.107  1.00  0.00     0.074 A 
ATOM     56  C   UNL A   1      42.394  30.828  36.425  1.00  0.00     0.031 C 
ATOM     57  C   UNL A   1      42.709  29.333  34.472  1.00  0.00     0.037 A 
BRANCH  44  58
ATOM     58  C   UNL A   1      40.388  27.908  28.921  1.00  0.00     0.064 A 
ATOM     59  C   UNL A   1      39.653  26.715  28.840  1.00  0.00     0.173 A 
ATOM     60  C   UNL A   1      41.164  28.275  27.811  1.00  0.00     0.173 A 
ATOM     61  F   UNL A   1      38.904  26.311  29.876  1.00  0.00    -0.203 F 
ATOM     62  C   UNL A   1      39.720  25.907  27.707  1.00  0.00     0.198 A 
ATOM     63  C   UNL A   1      41.202  27.482  26.667  1.00  0.00     0.198 A 
ATOM     64  F   UNL A   1      41.883  29.408  27.832  1.00  0.00    -0.203 F 
ATOM     65  F   UNL A   1      39.053  24.745  27.676  1.00  0.00    -0.200 F 
ATOM     66  C   UNL A   1      40.487  26.294  26.620  1.00  0.00     0.200 A 
ATOM     67  F   UNL A   1      41.931  27.866  25.611  1.00  0.00    -0.200 F 
ATOM     68  F   UNL A   1      40.544  25.520  25.528  1.00  0.00    -0.200 F 
ENDBRANCH  44  58
BRANCH  45  69
ATOM     69  C   UNL A   1      39.492  33.851  36.909  1.00  0.00     0.064 A 
ATOM     70  C   UNL A   1      38.734  33.437  38.014  1.00  0.00     0.173 A 
ATOM     71  C   UNL A   1      40.106  35.111  36.976  1.00  0.00     0.173 A 
ATOM     72  F   UNL A   1      38.112  32.250  37.992  1.00  0.00    -0.203 F 
ATOM     73  C   UNL A   1      38.574  34.260  39.127  1.00  0.00     0.198 A 
ATOM     74  C   UNL A   1      39.971  35.920  38.102  1.00  0.00     0.198 A 
ATOM     75  F   UNL A   1      40.848  35.552  35.949  1.00  0.00    -0.203 F 
ATOM     76  F   UNL A   1      37.800  33.862  40.146  1.00  0.00    -0.200 F 
ATOM     77  C   UNL A   1      39.197  35.498  39.172  1.00  0.00     0.200 A 
ATOM     78  F   UNL A   1      40.590  37.107  38.148  1.00  0.00    -0.200 F 
ATOM     79  F   UNL A   1      39.045  36.289  40.243  1.00  0.00    -0.200 F 
ENDBRANCH  45  69
BRANCH  57  80
ATOM     80  C   UNL A   1      43.891  28.728  35.175  1.00  0.00     0.064 A 
ATOM     81  C   UNL A   1      43.757  27.620  36.026  1.00  0.00     0.173 A 
ATOM     82  C   UNL A   1      45.180  29.241  34.963  1.00  0.00     0.173 A 
ATOM     83  F   UNL A   1      42.547  27.101  36.274  1.00  0.00    -0.203 F 
ATOM     84  C   UNL A   1      44.868  27.068  36.660  1.00  0.00     0.198 A 
ATOM     85  C   UNL A   1      46.291  28.664  35.571  1.00  0.00     0.198 A 
ATOM     86  F   UNL A   1      45.364  30.295  34.153  1.00  0.00    -0.203 F 
ATOM     87  F   UNL A   1      44.710  26.045  37.510  1.00  0.00    -0.200 F 
ATOM     88  C   UNL A   1      46.133  27.585  36.425  1.00  0.00     0.200 A 
ATOM     89  F   UNL A   1      47.515  29.154  35.329  1.00  0.00    -0.200 F 
ATOM     90  F   UNL A   1      47.201  27.045  37.030  1.00  0.00    -0.200 F 
ENDBRANCH  57  80
ENDBRANCH  31  32
ENDBRANCH  23  26
ENDBRANCH  21  22
ENDBRANCH  20  21
ENDBRANCH  19  20
ENDBRANCH  18  19
ENDBRANCH   1  18
TORSDOF 18
ENDMDL
MODEL 2
REMARK VINA RESULT:     -10.2      1.650      3.370
REMARK SMILES COCC[N@H+](C)[C@H](C)[C@@H](C)C(=O)NCCCCCCNC(=O)c1ccc(-c2c3nc(c(-c4c(F)c(F)c(F)c(F)c4F)c4ccc([nH]4)c(-c4c(F)c(F)c(F)c(F)c4F)c4nc(c(-c5c(F)c(F)c(F)c(F)c5F)c5ccc2[nH]5)C=C4)C=C3)cc1
REMARK SMILES IDX 15 1 14 2 13 3 11 4 12 5 9 7 10 8 7 9 8 10 5 11 6 12 4 14
REMARK SMILES IDX 3 15 2 16 1 17 16 18 17 19 18 20 19 21 20 22 21 23 22 25
REMARK SMILES IDX 23 26 24 27 85 28 25 29 84 30 26 31 27 32 28 33 78 34 29 35
REMARK SMILES IDX 83 36 77 37 79 38 30 39 82 40 76 41 75 42 31 44 63 45 43 46
REMARK SMILES IDX 62 47 44 48 47 49 61 50 80 51 45 52 46 53 60 55 81 56 48 57
REMARK SMILES IDX 32 58 33 59 41 60 34 61 35 62 39 63 42 64 36 65 37 66 40 67
REMARK SMILES IDX 38 68 64 69 65 70 73 71 66 72 67 73 71 74 74 75 68 76 69 77
REMARK SMILES IDX 72 78 70 79 49 80 50 81 58 82 51 83 52 84 56 85 59 86 53 87
REMARK SMILES IDX 54 88 57 89 55 90
REMARK H PARENT 13 6 5 13 20 24 79 43 47 54
REMARK Flexibility Score: inf
ROOT
ATOM      1  C   UNL A   1      33.654  29.229  26.764  1.00  0.00     0.021 C 
ENDROOT
BRANCH   1   2
ATOM      2  C   UNL A   1      33.701  28.549  25.397  1.00  0.00     0.116 C 
BRANCH   2   3
ATOM      3  N   UNL A   1      33.602  27.103  25.468  1.00  0.00    -0.356 N 
ATOM      4  C   UNL A   1      32.542  26.255  25.391  1.00  0.00     0.228 C 
ATOM      5  O   UNL A   1      32.802  25.049  25.318  1.00  0.00    -0.275 OA
ATOM      6  H   UNL A   1      34.467  26.650  25.595  1.00  0.00     0.163 HD
BRANCH   4   7
ATOM      7  C   UNL A   1      31.094  26.725  25.393  1.00  0.00     0.133 C 
ATOM      8  C   UNL A   1      30.258  25.830  26.320  1.00  0.00     0.024 C 
BRANCH   7   9
ATOM      9  C   UNL A   1      30.518  26.946  23.961  1.00  0.00     0.193 C 
ATOM     10  C   UNL A   1      29.082  26.399  23.838  1.00  0.00     0.076 C 
BRANCH   9  11
ATOM     11  N   UNL A   1      30.492  28.334  23.424  1.00  0.00    -0.333 N 
ATOM     12  C   UNL A   1      31.585  28.640  22.497  1.00  0.00     0.333 C 
ATOM     13  H   UNL A   1      30.615  28.861  24.288  1.00  0.00     0.348 HD
BRANCH  11  14
ATOM     14  C   UNL A   1      29.218  28.798  22.832  1.00  0.00     0.291 C 
BRANCH  14  15
ATOM     15  C   UNL A   1      29.146  30.272  22.405  1.00  0.00     0.221 C 
BRANCH  15  16
ATOM     16  O   UNL A   1      28.836  30.499  21.032  1.00  0.00    -0.379 OA
ATOM     17  C   UNL A   1      28.115  31.705  20.820  1.00  0.00     0.195 C 
ENDBRANCH  15  16
ENDBRANCH  14  15
ENDBRANCH  11  14
ENDBRANCH   9  11
ENDBRANCH   7   9
ENDBRANCH   4   7
ENDBRANCH   2   3
ENDBRANCH   1   2
BRANCH   1  18
ATOM     18  C   UNL A   1      32.293  29.780  27.185  1.00  0.00     0.002 C 
BRANCH  18  19
ATOM     19  C   UNL A   1      31.668  30.730  26.169  1.00  0.00     0.002 C 
BRANCH  19  20
ATOM     20  C   UNL A   1      31.420  32.145  26.696  1.00  0.00     0.021 C 
BRANCH  20  21
ATOM     21  C   UNL A   1      32.643  32.819  27.312  1.00  0.00     0.116 C 
BRANCH  21  22
ATOM     22  N   UNL A   1      32.399  34.220  27.605  1.00  0.00    -0.352 N 
ATOM     23  C   UNL A   1      32.967  34.988  28.591  1.00  0.00     0.251 C 
ATOM     24  H   UNL A   1      31.747  34.675  27.026  1.00  0.00     0.163 HD
ATOM     25  O   UNL A   1      32.518  36.091  28.870  1.00  0.00    -0.269 OA
BRANCH  23  26
ATOM     26  C   UNL A   1      34.125  34.447  29.330  1.00  0.00     0.039 A 
ATOM     27  C   UNL A   1      33.914  33.827  30.560  1.00  0.00     0.014 A 
ATOM     28  C   UNL A   1      35.411  34.530  28.783  1.00  0.00     0.014 A 
ATOM     29  C   UNL A   1      34.992  33.247  31.230  1.00  0.00     0.010 A 
ATOM     30  C   UNL A   1      36.470  33.887  29.416  1.00  0.00     0.010 A 
ATOM     31  C   UNL A   1      36.273  33.249  30.650  1.00  0.00    -0.014 A 
BRANCH  31  32
ATOM     32  C   UNL A   1      37.421  32.602  31.333  1.00  0.00     0.031 A 
ATOM     33  C   UNL A   1      38.140  31.460  30.672  1.00  0.00     0.074 A 
ATOM     34  C   UNL A   1      37.785  33.012  32.563  1.00  0.00     0.049 A 
ATOM     35  N   UNL A   1      39.133  30.734  31.122  1.00  0.00    -0.248 NA
ATOM     36  C   UNL A   1      37.665  31.061  29.338  1.00  0.00     0.031 C 
ATOM     37  C   UNL A   1      37.138  34.082  33.323  1.00  0.00     0.029 A 
ATOM     38  N   UNL A   1      38.785  32.572  33.394  1.00  0.00    -0.354 N 
ATOM     39  C   UNL A   1      39.393  29.794  30.134  1.00  0.00     0.074 A 
ATOM     40  C   UNL A   1      38.414  29.998  29.088  1.00  0.00     0.031 C 
ATOM     41  C   UNL A   1      37.774  34.234  34.496  1.00  0.00     0.029 A 
ATOM     42  C   UNL A   1      38.845  33.246  34.588  1.00  0.00     0.049 A 
ATOM     43  H   UNL A   1      39.402  31.842  33.156  1.00  0.00     0.167 HD
ATOM     44  C   UNL A   1      40.376  28.863  30.089  1.00  0.00     0.037 A 
ATOM     45  C   UNL A   1      39.666  33.080  35.643  1.00  0.00     0.037 A 
ATOM     46  C   UNL A   1      41.356  28.675  31.126  1.00  0.00     0.049 A 
ATOM     47  C   UNL A   1      40.733  32.019  35.579  1.00  0.00     0.074 A 
ATOM     48  C   UNL A   1      42.422  27.794  31.155  1.00  0.00     0.029 A 
ATOM     49  N   UNL A   1      41.386  29.378  32.321  1.00  0.00    -0.354 N 
ATOM     50  N   UNL A   1      41.012  31.182  34.610  1.00  0.00    -0.248 NA
ATOM     51  C   UNL A   1      41.603  31.885  36.756  1.00  0.00     0.031 C 
ATOM     52  C   UNL A   1      43.062  27.923  32.391  1.00  0.00     0.029 A 
ATOM     53  C   UNL A   1      42.436  28.930  33.108  1.00  0.00     0.049 A 
ATOM     54  H   UNL A   1      40.754  30.091  32.573  1.00  0.00     0.167 HD
ATOM     55  C   UNL A   1      42.108  30.446  35.045  1.00  0.00     0.074 A 
ATOM     56  C   UNL A   1      42.451  30.947  36.359  1.00  0.00     0.031 C 
ATOM     57  C   UNL A   1      42.769  29.445  34.412  1.00  0.00     0.037 A 
BRANCH  44  58
ATOM     58  C   UNL A   1      40.436  27.975  28.878  1.00  0.00     0.064 A 
ATOM     59  C   UNL A   1      41.191  28.321  27.747  1.00  0.00     0.173 A 
ATOM     60  C   UNL A   1      39.757  26.747  28.861  1.00  0.00     0.173 A 
ATOM     61  F   UNL A   1      41.851  29.487  27.705  1.00  0.00    -0.203 F 
ATOM     62  C   UNL A   1      41.235  27.487  26.632  1.00  0.00     0.198 A 
ATOM     63  C   UNL A   1      39.831  25.900  27.758  1.00  0.00     0.198 A 
ATOM     64  F   UNL A   1      39.024  26.364  29.918  1.00  0.00    -0.203 F 
ATOM     65  F   UNL A   1      41.917  27.865  25.542  1.00  0.00    -0.200 F 
ATOM     66  C   UNL A   1      40.563  26.275  26.641  1.00  0.00     0.200 A 
ATOM     67  F   UNL A   1      39.193  24.722  27.775  1.00  0.00    -0.200 F 
ATOM     68  F   UNL A   1      40.612  25.471  25.570  1.00  0.00    -0.200 F 
ENDBRANCH  44  58
BRANCH  45  69
ATOM     69  C   UNL A   1      39.528  33.951  36.841  1.00  0.00     0.064 A 
ATOM     70  C   UNL A   1      40.152  35.206  36.895  1.00  0.00     0.173 A 
ATOM     71  C   UNL A   1      38.783  33.544  37.957  1.00  0.00     0.173 A 
ATOM     72  F   UNL A   1      40.891  35.631  35.861  1.00  0.00    -0.203 F 
ATOM     73  C   UNL A   1      40.055  36.009  38.030  1.00  0.00     0.198 A 
ATOM     74  C   UNL A   1      38.661  34.362  39.079  1.00  0.00     0.198 A 
ATOM     75  F   UNL A   1      38.161  32.356  37.955  1.00  0.00    -0.203 F 
ATOM     76  F   UNL A   1      40.705  37.180  38.075  1.00  0.00    -0.200 F 
ATOM     77  C   UNL A   1      39.306  35.589  39.118  1.00  0.00     0.200 A 
ATOM     78  F   UNL A   1      37.921  33.960  40.121  1.00  0.00    -0.200 F 
ATOM     79  F   UNL A   1      39.211  36.363  40.208  1.00  0.00    -0.200 F 
ENDBRANCH  45  69
BRANCH  57  80
ATOM     80  C   UNL A   1      43.959  28.853  35.114  1.00  0.00     0.064 A 
ATOM     81  C   UNL A   1      43.838  27.744  35.965  1.00  0.00     0.173 A 
ATOM     82  C   UNL A   1      45.242  29.379  34.898  1.00  0.00     0.173 A 
ATOM     83  F   UNL A   1      42.633  27.213  36.216  1.00  0.00    -0.203 F 
ATOM     84  C   UNL A   1      44.956  27.204  36.597  1.00  0.00     0.198 A 
ATOM     85  C   UNL A   1      46.360  28.813  35.504  1.00  0.00     0.198 A 
ATOM     86  F   UNL A   1      45.414  30.434  34.087  1.00  0.00    -0.203 F 
ATOM     87  F   UNL A   1      44.809  26.179  37.448  1.00  0.00    -0.200 F 
ATOM     88  C   UNL A   1      46.215  27.733  36.360  1.00  0.00     0.200 A 
ATOM     89  F   UNL A   1      47.579  29.316  35.260  1.00  0.00    -0.200 F 
ATOM     90  F   UNL A   1      47.289  27.205  36.962  1.00  0.00    -0.200 F 
ENDBRANCH  57  80
ENDBRANCH  31  32
ENDBRANCH  23  26
ENDBRANCH  21  22
ENDBRANCH  20  21
ENDBRANCH  19  20
ENDBRANCH  18  19
ENDBRANCH   1  18
TORSDOF 18
ENDMDL
MODEL 3
REMARK VINA RESULT:     -10.1      1.690      3.243
REMARK SMILES COCC[N@H+](C)[C@H](C)[C@@H](C)C(=O)NCCCCCCNC(=O)c1ccc(-c2c3nc(c(-c4c(F)c(F)c(F)c(F)c4F)c4ccc([nH]4)c(-c4c(F)c(F)c(F)c(F)c4F)c4nc(c(-c5c(F)c(F)c(F)c(F)c5F)c5ccc2[nH]5)C=C4)C=C3)cc1
REMARK SMILES IDX 15 1 14 2 13 3 11 4 12 5 9 7 10 8 7 9 8 10 5 11 6 12 4 14
REMARK SMILES IDX 3 15 2 16 1 17 16 18 17 19 18 20 19 21 20 22 21 23 22 25
REMARK SMILES IDX 23 26 24 27 85 28 25 29 84 30 26 31 27 32 28 33 78 34 29 35
REMARK SMILES IDX 83 36 77 37 79 38 30 39 82 40 76 41 75 42 31 44 63 45 43 46
REMARK SMILES IDX 62 47 44 48 47 49 61 50 80 51 45 52 46 53 60 55 81 56 48 57
REMARK SMILES IDX 32 58 33 59 41 60 34 61 35 62 39 63 42 64 36 65 37 66 40 67
REMARK SMILES IDX 38 68 64 69 65 70 73 71 66 72 67 73 71 74 74 75 68 76 69 77
REMARK SMILES IDX 72 78 70 79 49 80 50 81 58 82 51 83 52 84 56 85 59 86 53 87
REMARK SMILES IDX 54 88 57 89 55 90
REMARK H PARENT 13 6 5 13 20 24 79 43 47 54
REMARK Flexibility Score: inf
ROOT
ATOM      1  C   UNL A   1      33.762  29.198  26.679  1.00  0.00     0.021 C 
ENDROOT
BRANCH   1   2
ATOM      2  C   UNL A   1      33.756  28.594  25.276  1.00  0.00     0.116 C 
BRANCH   2   3
ATOM      3  N   UNL A   1      33.581  27.153  25.269  1.00  0.00    -0.356 N 
ATOM      4  C   UNL A   1      32.476  26.368  25.165  1.00  0.00     0.228 C 
ATOM      5  O   UNL A   1      32.669  25.156  25.020  1.00  0.00    -0.275 OA
ATOM      6  H   UNL A   1      34.422  26.649  25.357  1.00  0.00     0.163 HD
BRANCH   4   7
ATOM      7  C   UNL A   1      31.055  26.913  25.218  1.00  0.00     0.133 C 
ATOM      8  C   UNL A   1      30.152  25.935  25.984  1.00  0.00     0.024 C 
BRANCH   7   9
ATOM      9  C   UNL A   1      30.525  27.382  23.829  1.00  0.00     0.193 C 
ATOM     10  C   UNL A   1      29.064  26.943  23.603  1.00  0.00     0.076 C 
BRANCH   9  11
ATOM     11  N   UNL A   1      30.586  28.835  23.511  1.00  0.00    -0.333 N 
ATOM     12  C   UNL A   1      31.394  29.158  22.332  1.00  0.00     0.333 C 
ATOM     13  H   UNL A   1      31.048  29.181  24.351  1.00  0.00     0.348 HD
BRANCH  11  14
ATOM     14  C   UNL A   1      29.296  29.554  23.419  1.00  0.00     0.291 C 
BRANCH  14  15
ATOM     15  C   UNL A   1      29.170  30.617  22.317  1.00  0.00     0.221 C 
BRANCH  15  16
ATOM     16  O   UNL A   1      28.052  30.469  21.446  1.00  0.00    -0.379 OA
ATOM     17  C   UNL A   1      27.962  31.507  20.480  1.00  0.00     0.195 C 
ENDBRANCH  15  16
ENDBRANCH  14  15
ENDBRANCH  11  14
ENDBRANCH   9  11
ENDBRANCH   7   9
ENDBRANCH   4   7
ENDBRANCH   2   3
ENDBRANCH   1   2
BRANCH   1  18
ATOM     18  C   UNL A   1      32.418  29.721  27.183  1.00  0.00     0.002 C 
BRANCH  18  19
ATOM     19  C   UNL A   1      31.730  30.687  26.223  1.00  0.00     0.002 C 
BRANCH  19  20
ATOM     20  C   UNL A   1      31.480  32.081  26.801  1.00  0.00     0.021 C 
BRANCH  20  21
ATOM     21  C   UNL A   1      32.738  32.823  27.244  1.00  0.00     0.116 C 
BRANCH  21  22
ATOM     22  N   UNL A   1      32.461  34.208  27.578  1.00  0.00    -0.352 N 
ATOM     23  C   UNL A   1      32.999  34.957  28.594  1.00  0.00     0.251 C 
ATOM     24  H   UNL A   1      31.806  34.668  27.004  1.00  0.00     0.163 HD
ATOM     25  O   UNL A   1      32.523  36.041  28.902  1.00  0.00    -0.269 OA
BRANCH  23  26
ATOM     26  C   UNL A   1      34.160  34.418  29.331  1.00  0.00     0.039 A 
ATOM     27  C   UNL A   1      33.946  33.749  30.536  1.00  0.00     0.014 A 
ATOM     28  C   UNL A   1      35.451  34.550  28.807  1.00  0.00     0.014 A 
ATOM     29  C   UNL A   1      35.027  33.171  31.201  1.00  0.00     0.010 A 
ATOM     30  C   UNL A   1      36.515  33.910  29.433  1.00  0.00     0.010 A 
ATOM     31  C   UNL A   1      36.316  33.224  30.641  1.00  0.00    -0.014 A 
BRANCH  31  32
ATOM     32  C   UNL A   1      37.470  32.580  31.318  1.00  0.00     0.031 A 
ATOM     33  C   UNL A   1      38.204  31.456  30.643  1.00  0.00     0.074 A 
ATOM     34  C   UNL A   1      37.825  32.976  32.555  1.00  0.00     0.049 A 
ATOM     35  N   UNL A   1      39.204  30.736  31.086  1.00  0.00    -0.248 NA
ATOM     36  C   UNL A   1      37.737  31.072  29.301  1.00  0.00     0.031 C 
ATOM     37  C   UNL A   1      37.163  34.027  33.328  1.00  0.00     0.029 A 
ATOM     38  N   UNL A   1      38.828  32.535  33.383  1.00  0.00    -0.354 N 
ATOM     39  C   UNL A   1      39.478  29.814  30.084  1.00  0.00     0.074 A 
ATOM     40  C   UNL A   1      38.500  30.021  29.038  1.00  0.00     0.031 C 
ATOM     41  C   UNL A   1      37.793  34.169  34.505  1.00  0.00     0.029 A 
ATOM     42  C   UNL A   1      38.875  33.192  34.587  1.00  0.00     0.049 A 
ATOM     43  H   UNL A   1      39.453  31.816  33.136  1.00  0.00     0.167 HD
ATOM     44  C   UNL A   1      40.472  28.895  30.029  1.00  0.00     0.037 A 
ATOM     45  C   UNL A   1      39.695  33.021  35.642  1.00  0.00     0.037 A 
ATOM     46  C   UNL A   1      41.451  28.703  31.066  1.00  0.00     0.049 A 
ATOM     47  C   UNL A   1      40.775  31.973  35.567  1.00  0.00     0.074 A 
ATOM     48  C   UNL A   1      42.527  27.833  31.086  1.00  0.00     0.029 A 
ATOM     49  N   UNL A   1      41.469  29.389  32.272  1.00  0.00    -0.354 N 
ATOM     50  N   UNL A   1      41.067  31.154  34.586  1.00  0.00    -0.248 NA
ATOM     51  C   UNL A   1      41.642  31.832  36.744  1.00  0.00     0.031 C 
ATOM     52  C   UNL A   1      43.162  27.952  32.326  1.00  0.00     0.029 A 
ATOM     53  C   UNL A   1      42.521  28.941  33.055  1.00  0.00     0.049 A 
ATOM     54  H   UNL A   1      40.828  30.090  32.533  1.00  0.00     0.167 HD
ATOM     55  C   UNL A   1      42.169  30.424  35.013  1.00  0.00     0.074 A 
ATOM     56  C   UNL A   1      42.502  30.910  36.336  1.00  0.00     0.031 C 
ATOM     57  C   UNL A   1      42.844  29.441  34.368  1.00  0.00     0.037 A 
BRANCH  44  58
ATOM     58  C   UNL A   1      40.546  28.025  28.805  1.00  0.00     0.064 A 
ATOM     59  C   UNL A   1      39.859  26.804  28.726  1.00  0.00     0.173 A 
ATOM     60  C   UNL A   1      41.289  28.432  27.687  1.00  0.00     0.173 A 
ATOM     61  F   UNL A   1      39.143  26.361  29.770  1.00  0.00    -0.203 F 
ATOM     62  C   UNL A   1      39.940  26.009  27.585  1.00  0.00     0.198 A 
ATOM     63  C   UNL A   1      41.340  27.651  26.535  1.00  0.00     0.198 A 
ATOM     64  F   UNL A   1      41.962  29.593  27.707  1.00  0.00    -0.203 F 
ATOM     65  F   UNL A   1      39.320  24.821  27.554  1.00  0.00    -0.200 F 
ATOM     66  C   UNL A   1      40.673  26.436  26.489  1.00  0.00     0.200 A 
ATOM     67  F   UNL A   1      42.036  28.073  25.471  1.00  0.00    -0.200 F 
ATOM     68  F   UNL A   1      40.743  25.673  25.389  1.00  0.00    -0.200 F 
ENDBRANCH  44  58
BRANCH  45  69
ATOM     69  C   UNL A   1      39.544  33.872  36.852  1.00  0.00     0.064 A 
ATOM     70  C   UNL A   1      38.792  33.434  37.952  1.00  0.00     0.173 A 
ATOM     71  C   UNL A   1      40.135  35.141  36.931  1.00  0.00     0.173 A 
ATOM     72  F   UNL A   1      38.191  32.236  37.917  1.00  0.00    -0.203 F 
ATOM     73  C   UNL A   1      38.618  34.243  39.073  1.00  0.00     0.198 A 
ATOM     74  C   UNL A   1      39.985  35.936  38.065  1.00  0.00     0.198 A 
ATOM     75  F   UNL A   1      40.869  35.606  35.909  1.00  0.00    -0.203 F 
ATOM     76  F   UNL A   1      37.850  33.821  40.087  1.00  0.00    -0.200 F 
ATOM     77  C   UNL A   1      39.219  35.491  39.131  1.00  0.00     0.200 A 
ATOM     78  F   UNL A   1      40.583  37.134  38.124  1.00  0.00    -0.200 F 
ATOM     79  F   UNL A   1      39.052  36.268  40.209  1.00  0.00    -0.200 F 
ENDBRANCH  45  69
BRANCH  57  80
ATOM     80  C   UNL A   1      44.038  28.852  35.065  1.00  0.00     0.064 A 
ATOM     81  C   UNL A   1      45.307  29.446  34.988  1.00  0.00     0.173 A 
ATOM     82  C   UNL A   1      43.900  27.699  35.853  1.00  0.00     0.173 A 
ATOM     83  F   UNL A   1      45.496  30.540  34.236  1.00  0.00    -0.203 F 
ATOM     84  C   UNL A   1      46.398  28.889  35.651  1.00  0.00     0.198 A 
ATOM     85  C   UNL A   1      44.986  27.167  36.543  1.00  0.00     0.198 A 
ATOM     86  F   UNL A   1      42.708  27.096  35.968  1.00  0.00    -0.203 F 
ATOM     87  F   UNL A   1      47.612  29.443  35.518  1.00  0.00    -0.200 F 
ATOM     88  C   UNL A   1      46.235  27.757  36.433  1.00  0.00     0.200 A 
ATOM     89  F   UNL A   1      44.823  26.082  37.313  1.00  0.00    -0.200 F 
ATOM     90  F   UNL A   1      47.286  27.229  37.078  1.00  0.00    -0.200 F 
ENDBRANCH  57  80
ENDBRANCH  31  32
ENDBRANCH  23  26
ENDBRANCH  21  22
ENDBRANCH  20  21
ENDBRANCH  19  20
ENDBRANCH  18  19
ENDBRANCH   1  18
TORSDOF 18
ENDMDL
