MODEL 1
REMARK VINA RESULT:     -10.9      0.000      0.000
REMARK SMILES CC(C)[C@H]([NH2+]Cc1ccncc1)C(=O)NCCCCCCNC(=O)c1ccc(-c2c3nc(c(-c4c(F)c(F)c(F)c(F)c4F)c4ccc([nH]4)c(-c4c(F)c(F)c(F)c(F)c4F)c4nc(c(-c5c(F)c(F)c(F)c(F)c5F)c5ccc2[nH]5)C=C4)C=C3)cc1
REMARK SMILES IDX 18 1 17 2 16 3 15 4 13 5 14 6 4 8 2 9 1 10 3 11 5 12 6 15
REMARK SMILES IDX 7 16 8 17 12 18 9 19 11 20 10 21 19 22 20 23 21 24 22 25
REMARK SMILES IDX 23 26 24 28 25 29 26 30 87 31 27 32 86 33 28 34 29 35 30 36
REMARK SMILES IDX 80 37 31 38 85 39 79 40 81 41 32 42 84 43 78 44 77 45 33 47
REMARK SMILES IDX 65 48 45 49 64 50 46 51 49 52 63 53 82 54 47 55 48 56 62 58
REMARK SMILES IDX 83 59 50 60 34 61 35 62 43 63 36 64 37 65 41 66 44 67 38 68
REMARK SMILES IDX 39 69 42 70 40 71 66 72 67 73 75 74 68 75 69 76 73 77 76 78
REMARK SMILES IDX 70 79 71 80 74 81 72 82 51 83 52 84 60 85 53 86 54 87 58 88
REMARK SMILES IDX 61 89 55 90 56 91 59 92 57 93
REMARK H PARENT 15 7 5 13 5 14 22 27 81 46 49 57
REMARK Flexibility Score: inf
ROOT
ATOM      1  C   UNL A   1      32.165  29.865  27.080  1.00  0.00     0.002 C 
ENDROOT
BRANCH   1   2
ATOM      2  C   UNL A   1      33.644  29.664  26.730  1.00  0.00     0.021 C 
BRANCH   2   3
ATOM      3  C   UNL A   1      33.952  28.345  26.027  1.00  0.00     0.116 C 
BRANCH   3   4
ATOM      4  N   UNL A   1      34.156  28.504  24.600  1.00  0.00    -0.351 N 
ATOM      5  C   UNL A   1      33.279  28.634  23.557  1.00  0.00     0.278 C 
ATOM      6  O   UNL A   1      33.756  28.973  22.469  1.00  0.00    -0.268 OA
ATOM      7  H   UNL A   1      35.103  28.523  24.330  1.00  0.00     0.163 HD
BRANCH   5   8
ATOM      8  C   UNL A   1      31.749  28.399  23.712  1.00  0.00     0.275 C 
BRANCH   8   9
ATOM      9  C   UNL A   1      31.349  26.890  23.635  1.00  0.00     0.051 C 
ATOM     10  C   UNL A   1      32.323  25.947  22.930  1.00  0.00     0.014 C 
ATOM     11  C   UNL A   1      31.077  26.341  25.046  1.00  0.00     0.014 C 
ENDBRANCH   8   9
BRANCH   8  12
ATOM     12  N   UNL A   1      31.027  29.399  22.907  1.00  0.00    -0.332 N 
ATOM     13  H   UNL A   1      31.272  29.241  21.929  1.00  0.00     0.347 HD
ATOM     14  H   UNL A   1      31.316  30.299  23.286  1.00  0.00     0.347 HD
BRANCH  12  15
ATOM     15  C   UNL A   1      29.581  29.404  22.996  1.00  0.00     0.298 C 
BRANCH  15  16
ATOM     16  C   UNL A   1      29.042  30.733  22.521  1.00  0.00     0.009 A 
ATOM     17  C   UNL A   1      28.508  30.888  21.240  1.00  0.00     0.029 A 
ATOM     18  C   UNL A   1      29.033  31.836  23.382  1.00  0.00     0.029 A 
ATOM     19  C   UNL A   1      28.010  32.130  20.875  1.00  0.00     0.111 A 
ATOM     20  C   UNL A   1      28.508  33.035  22.927  1.00  0.00     0.111 A 
ATOM     21  N   UNL A   1      28.000  33.207  21.690  1.00  0.00    -0.265 NA
ENDBRANCH  15  16
ENDBRANCH  12  15
ENDBRANCH   8  12
ENDBRANCH   5   8
ENDBRANCH   3   4
ENDBRANCH   2   3
ENDBRANCH   1   2
BRANCH   1  22
ATOM     22  C   UNL A   1      31.400  30.847  26.183  1.00  0.00     0.002 C 
BRANCH  22  23
ATOM     23  C   UNL A   1      31.309  32.288  26.694  1.00  0.00     0.021 C 
BRANCH  23  24
ATOM     24  C   UNL A   1      32.647  32.964  26.978  1.00  0.00     0.116 C 
BRANCH  24  25
ATOM     25  N   UNL A   1      32.494  34.235  27.663  1.00  0.00    -0.352 N 
ATOM     26  C   UNL A   1      33.151  34.724  28.762  1.00  0.00     0.251 C 
ATOM     27  H   UNL A   1      31.815  34.836  27.280  1.00  0.00     0.163 HD
ATOM     28  O   UNL A   1      32.773  35.767  29.286  1.00  0.00    -0.269 OA
BRANCH  26  29
ATOM     29  C   UNL A   1      34.300  33.991  29.338  1.00  0.00     0.039 A 
ATOM     30  C   UNL A   1      35.591  34.409  29.003  1.00  0.00     0.014 A 
ATOM     31  C   UNL A   1      34.119  32.883  30.171  1.00  0.00     0.014 A 
ATOM     32  C   UNL A   1      36.699  33.749  29.540  1.00  0.00     0.010 A 
ATOM     33  C   UNL A   1      35.223  32.267  30.758  1.00  0.00     0.010 A 
ATOM     34  C   UNL A   1      36.523  32.689  30.443  1.00  0.00    -0.014 A 
BRANCH  34  35
ATOM     35  C   UNL A   1      37.694  32.015  31.060  1.00  0.00     0.031 A 
ATOM     36  C   UNL A   1      38.154  32.400  32.438  1.00  0.00     0.074 A 
ATOM     37  C   UNL A   1      38.370  31.085  30.358  1.00  0.00     0.049 A 
ATOM     38  N   UNL A   1      39.174  31.951  33.126  1.00  0.00    -0.248 NA
ATOM     39  C   UNL A   1      37.385  33.450  33.124  1.00  0.00     0.031 C 
ATOM     40  C   UNL A   1      38.051  30.660  28.994  1.00  0.00     0.029 A 
ATOM     41  N   UNL A   1      39.469  30.334  30.691  1.00  0.00    -0.354 N 
ATOM     42  C   UNL A   1      39.174  32.668  34.315  1.00  0.00     0.074 A 
ATOM     43  C   UNL A   1      38.085  33.617  34.236  1.00  0.00     0.031 C 
ATOM     44  C   UNL A   1      38.922  29.710  28.615  1.00  0.00     0.029 A 
ATOM     45  C   UNL A   1      39.877  29.481  29.695  1.00  0.00     0.049 A 
ATOM     46  H   UNL A   1      39.924  30.402  31.562  1.00  0.00     0.167 HD
ATOM     47  C   UNL A   1      39.994  32.531  35.384  1.00  0.00     0.037 A 
ATOM     48  C   UNL A   1      40.906  28.614  29.657  1.00  0.00     0.037 A 
ATOM     49  C   UNL A   1      41.058  31.565  35.472  1.00  0.00     0.049 A 
ATOM     50  C   UNL A   1      41.794  28.473  30.864  1.00  0.00     0.074 A 
ATOM     51  C   UNL A   1      41.901  31.304  36.539  1.00  0.00     0.029 A 
ATOM     52  N   UNL A   1      41.426  30.701  34.451  1.00  0.00    -0.354 N 
ATOM     53  N   UNL A   1      41.737  29.105  32.010  1.00  0.00    -0.248 NA
ATOM     54  C   UNL A   1      42.881  27.489  30.773  1.00  0.00     0.031 C 
ATOM     55  C   UNL A   1      42.807  30.312  36.148  1.00  0.00     0.029 A 
ATOM     56  C   UNL A   1      42.496  29.920  34.855  1.00  0.00     0.049 A 
ATOM     57  H   UNL A   1      40.990  30.650  33.570  1.00  0.00     0.167 HD
ATOM     58  C   UNL A   1      42.761  28.579  32.786  1.00  0.00     0.074 A 
ATOM     59  C   UNL A   1      43.412  27.563  31.985  1.00  0.00     0.031 C 
ATOM     60  C   UNL A   1      43.130  28.910  34.048  1.00  0.00     0.037 A 
BRANCH  47  61
ATOM     61  C   UNL A   1      39.770  33.445  36.555  1.00  0.00     0.064 A 
ATOM     62  C   UNL A   1      40.427  34.680  36.658  1.00  0.00     0.173 A 
ATOM     63  C   UNL A   1      38.855  33.103  37.561  1.00  0.00     0.173 A 
ATOM     64  F   UNL A   1      41.321  35.050  35.729  1.00  0.00    -0.203 F 
ATOM     65  C   UNL A   1      40.196  35.527  37.739  1.00  0.00     0.198 A 
ATOM     66  C   UNL A   1      38.603  33.965  38.625  1.00  0.00     0.198 A 
ATOM     67  F   UNL A   1      38.195  31.936  37.506  1.00  0.00    -0.203 F 
ATOM     68  F   UNL A   1      40.868  36.682  37.841  1.00  0.00    -0.200 F 
ATOM     69  C   UNL A   1      39.278  35.173  38.718  1.00  0.00     0.200 A 
ATOM     70  F   UNL A   1      37.706  33.627  39.563  1.00  0.00    -0.200 F 
ATOM     71  F   UNL A   1      39.049  35.993  39.752  1.00  0.00    -0.200 F 
ENDBRANCH  47  61
BRANCH  48  72
ATOM     72  C   UNL A   1      41.137  27.791  28.441  1.00  0.00     0.064 A 
ATOM     73  C   UNL A   1      42.008  28.225  27.432  1.00  0.00     0.173 A 
ATOM     74  C   UNL A   1      40.488  26.562  28.259  1.00  0.00     0.173 A 
ATOM     75  F   UNL A   1      42.634  29.405  27.552  1.00  0.00    -0.203 F 
ATOM     76  C   UNL A   1      42.204  27.471  26.277  1.00  0.00     0.198 A 
ATOM     77  C   UNL A   1      40.708  25.794  27.117  1.00  0.00     0.198 A 
ATOM     78  F   UNL A   1      39.649  26.098  29.198  1.00  0.00    -0.203 F 
ATOM     79  F   UNL A   1      43.007  27.932  25.309  1.00  0.00    -0.200 F 
ATOM     80  C   UNL A   1      41.559  26.254  26.123  1.00  0.00     0.200 A 
ATOM     81  F   UNL A   1      40.094  24.612  26.978  1.00  0.00    -0.200 F 
ATOM     82  F   UNL A   1      41.751  25.527  25.014  1.00  0.00    -0.200 F 
ENDBRANCH  48  72
BRANCH  60  83
ATOM     83  C   UNL A   1      44.270  28.143  34.651  1.00  0.00     0.064 A 
ATOM     84  C   UNL A   1      45.593  28.602  34.565  1.00  0.00     0.173 A 
ATOM     85  C   UNL A   1      44.033  26.951  35.352  1.00  0.00     0.173 A 
ATOM     86  F   UNL A   1      45.873  29.728  33.893  1.00  0.00    -0.203 F 
ATOM     87  C   UNL A   1      46.639  27.880  35.133  1.00  0.00     0.198 A 
ATOM     88  C   UNL A   1      45.077  26.247  35.945  1.00  0.00     0.198 A 
ATOM     89  F   UNL A   1      42.784  26.472  35.469  1.00  0.00    -0.203 F 
ATOM     90  F   UNL A   1      47.901  28.311  34.995  1.00  0.00    -0.200 F 
ATOM     91  C   UNL A   1      46.380  26.708  35.828  1.00  0.00     0.200 A 
ATOM     92  F   UNL A   1      44.823  25.121  36.626  1.00  0.00    -0.200 F 
ATOM     93  F   UNL A   1      47.387  26.016  36.378  1.00  0.00    -0.200 F 
ENDBRANCH  60  83
ENDBRANCH  34  35
ENDBRANCH  26  29
ENDBRANCH  24  25
ENDBRANCH  23  24
ENDBRANCH  22  23
ENDBRANCH   1  22
TORSDOF 17
ENDMDL
MODEL 2
REMARK VINA RESULT:     -10.9      0.712      7.521
REMARK SMILES CC(C)[C@H]([NH2+]Cc1ccncc1)C(=O)NCCCCCCNC(=O)c1ccc(-c2c3nc(c(-c4c(F)c(F)c(F)c(F)c4F)c4ccc([nH]4)c(-c4c(F)c(F)c(F)c(F)c4F)c4nc(c(-c5c(F)c(F)c(F)c(F)c5F)c5ccc2[nH]5)C=C4)C=C3)cc1
REMARK SMILES IDX 18 1 17 2 16 3 15 4 13 5 14 6 4 8 2 9 1 10 3 11 5 12 6 15
REMARK SMILES IDX 7 16 8 17 12 18 9 19 11 20 10 21 19 22 20 23 21 24 22 25
REMARK SMILES IDX 23 26 24 28 25 29 26 30 87 31 27 32 86 33 28 34 29 35 30 36
REMARK SMILES IDX 80 37 31 38 85 39 79 40 81 41 32 42 84 43 78 44 77 45 33 47
REMARK SMILES IDX 65 48 45 49 64 50 46 51 49 52 63 53 82 54 47 55 48 56 62 58
REMARK SMILES IDX 83 59 50 60 34 61 35 62 43 63 36 64 37 65 41 66 44 67 38 68
REMARK SMILES IDX 39 69 42 70 40 71 66 72 67 73 75 74 68 75 69 76 73 77 76 78
REMARK SMILES IDX 70 79 71 80 74 81 72 82 51 83 52 84 60 85 53 86 54 87 58 88
REMARK SMILES IDX 61 89 55 90 56 91 59 92 57 93
REMARK H PARENT 15 7 5 13 5 14 22 27 81 46 49 57
REMARK Flexibility Score: inf
ROOT
ATOM      1  C   UNL A   1      32.163  29.607  27.179  1.00  0.00     0.002 C 
ENDROOT
BRANCH   1   2
ATOM      2  C   UNL A   1      33.542  29.040  26.821  1.00  0.00     0.021 C 
BRANCH   2   3
ATOM      3  C   UNL A   1      33.507  27.847  25.870  1.00  0.00     0.116 C 
BRANCH   3   4
ATOM      4  N   UNL A   1      33.975  28.177  24.538  1.00  0.00    -0.351 N 
ATOM      5  C   UNL A   1      33.310  28.392  23.360  1.00  0.00     0.278 C 
ATOM      6  O   UNL A   1      33.969  28.872  22.432  1.00  0.00    -0.268 OA
ATOM      7  H   UNL A   1      34.953  28.264  24.467  1.00  0.00     0.163 HD
BRANCH   5   8
ATOM      8  C   UNL A   1      31.797  28.081  23.180  1.00  0.00     0.275 C 
BRANCH   8   9
ATOM      9  C   UNL A   1      31.532  26.736  22.429  1.00  0.00     0.051 C 
ATOM     10  C   UNL A   1      32.752  25.974  21.916  1.00  0.00     0.014 C 
ATOM     11  C   UNL A   1      30.705  25.789  23.314  1.00  0.00     0.014 C 
ENDBRANCH   8   9
BRANCH   8  12
ATOM     12  N   UNL A   1      31.101  29.311  22.764  1.00  0.00    -0.332 N 
ATOM     13  H   UNL A   1      31.039  29.299  21.746  1.00  0.00     0.347 HD
ATOM     14  H   UNL A   1      31.656  30.071  23.155  1.00  0.00     0.347 HD
BRANCH  12  15
ATOM     15  C   UNL A   1      29.764  29.523  23.279  1.00  0.00     0.298 C 
BRANCH  15  16
ATOM     16  C   UNL A   1      29.168  30.767  22.664  1.00  0.00     0.009 A 
ATOM     17  C   UNL A   1      28.774  30.803  21.325  1.00  0.00     0.029 A 
ATOM     18  C   UNL A   1      28.962  31.909  23.447  1.00  0.00     0.029 A 
ATOM     19  C   UNL A   1      28.214  31.971  20.829  1.00  0.00     0.111 A 
ATOM     20  C   UNL A   1      28.390  33.027  22.862  1.00  0.00     0.111 A 
ATOM     21  N   UNL A   1      28.014  33.084  21.568  1.00  0.00    -0.265 NA
ENDBRANCH  15  16
ENDBRANCH  12  15
ENDBRANCH   8  12
ENDBRANCH   5   8
ENDBRANCH   3   4
ENDBRANCH   2   3
ENDBRANCH   1   2
BRANCH   1  22
ATOM     22  C   UNL A   1      31.619  30.677  26.224  1.00  0.00     0.002 C 
BRANCH  22  23
ATOM     23  C   UNL A   1      31.412  32.069  26.827  1.00  0.00     0.021 C 
BRANCH  23  24
ATOM     24  C   UNL A   1      32.689  32.862  27.091  1.00  0.00     0.116 C 
BRANCH  24  25
ATOM     25  N   UNL A   1      32.423  34.185  27.625  1.00  0.00    -0.352 N 
ATOM     26  C   UNL A   1      32.997  34.836  28.686  1.00  0.00     0.251 C 
ATOM     27  H   UNL A   1      31.722  34.692  27.153  1.00  0.00     0.163 HD
ATOM     28  O   UNL A   1      32.528  35.900  29.077  1.00  0.00    -0.269 OA
BRANCH  26  29
ATOM     29  C   UNL A   1      34.166  34.253  29.381  1.00  0.00     0.039 A 
ATOM     30  C   UNL A   1      33.944  33.500  30.538  1.00  0.00     0.014 A 
ATOM     31  C   UNL A   1      35.470  34.468  28.927  1.00  0.00     0.014 A 
ATOM     32  C   UNL A   1      35.024  32.923  31.211  1.00  0.00     0.010 A 
ATOM     33  C   UNL A   1      36.540  33.838  29.560  1.00  0.00     0.010 A 
ATOM     34  C   UNL A   1      36.328  33.065  30.712  1.00  0.00    -0.014 A 
BRANCH  34  35
ATOM     35  C   UNL A   1      37.476  32.412  31.390  1.00  0.00     0.031 A 
ATOM     36  C   UNL A   1      38.194  31.265  30.736  1.00  0.00     0.074 A 
ATOM     37  C   UNL A   1      37.842  32.824  32.620  1.00  0.00     0.049 A 
ATOM     38  N   UNL A   1      39.192  30.547  31.186  1.00  0.00    -0.248 NA
ATOM     39  C   UNL A   1      37.711  30.852  29.409  1.00  0.00     0.031 C 
ATOM     40  C   UNL A   1      37.192  33.892  33.380  1.00  0.00     0.029 A 
ATOM     41  N   UNL A   1      38.845  32.388  33.449  1.00  0.00    -0.354 N 
ATOM     42  C   UNL A   1      39.446  29.595  30.209  1.00  0.00     0.074 A 
ATOM     43  C   UNL A   1      38.467  29.792  29.163  1.00  0.00     0.031 C 
ATOM     44  C   UNL A   1      37.826  34.043  34.555  1.00  0.00     0.029 A 
ATOM     45  C   UNL A   1      38.904  33.064  34.643  1.00  0.00     0.049 A 
ATOM     46  H   UNL A   1      39.463  31.660  33.211  1.00  0.00     0.167 HD
ATOM     47  C   UNL A   1      40.422  28.656  30.178  1.00  0.00     0.037 A 
ATOM     48  C   UNL A   1      39.735  32.910  35.692  1.00  0.00     0.037 A 
ATOM     49  C   UNL A   1      41.414  28.481  31.206  1.00  0.00     0.049 A 
ATOM     50  C   UNL A   1      40.818  31.867  35.624  1.00  0.00     0.074 A 
ATOM     51  C   UNL A   1      42.483  27.603  31.235  1.00  0.00     0.029 A 
ATOM     52  N   UNL A   1      41.457  29.201  32.391  1.00  0.00    -0.354 N 
ATOM     53  N   UNL A   1      41.093  31.022  34.662  1.00  0.00    -0.248 NA
ATOM     54  C   UNL A   1      41.712  31.766  36.786  1.00  0.00     0.031 C 
ATOM     55  C   UNL A   1      43.147  27.760  32.456  1.00  0.00     0.029 A 
ATOM     56  C   UNL A   1      42.522  28.772  33.167  1.00  0.00     0.049 A 
ATOM     57  H   UNL A   1      40.824  29.912  32.644  1.00  0.00     0.167 HD
ATOM     58  C   UNL A   1      42.206  30.308  35.088  1.00  0.00     0.074 A 
ATOM     59  C   UNL A   1      42.564  30.832  36.389  1.00  0.00     0.031 C 
ATOM     60  C   UNL A   1      42.868  29.308  34.458  1.00  0.00     0.037 A 
BRANCH  47  61
ATOM     61  C   UNL A   1      40.472  27.744  28.985  1.00  0.00     0.064 A 
ATOM     62  C   UNL A   1      41.307  28.012  27.890  1.00  0.00     0.173 A 
ATOM     63  C   UNL A   1      39.712  26.566  28.957  1.00  0.00     0.173 A 
ATOM     64  F   UNL A   1      42.046  29.131  27.861  1.00  0.00    -0.203 F 
ATOM     65  C   UNL A   1      41.358  27.148  26.799  1.00  0.00     0.198 A 
ATOM     66  C   UNL A   1      39.787  25.689  27.878  1.00  0.00     0.198 A 
ATOM     67  F   UNL A   1      38.902  26.259  29.982  1.00  0.00    -0.203 F 
ATOM     68  F   UNL A   1      42.128  27.447  25.744  1.00  0.00    -0.200 F 
ATOM     69  C   UNL A   1      40.604  25.983  26.797  1.00  0.00     0.200 A 
ATOM     70  F   UNL A   1      39.068  24.557  27.884  1.00  0.00    -0.200 F 
ATOM     71  F   UNL A   1      40.662  25.148  25.751  1.00  0.00    -0.200 F 
ENDBRANCH  47  61
BRANCH  48  72
ATOM     72  C   UNL A   1      39.591  33.783  36.886  1.00  0.00     0.064 A 
ATOM     73  C   UNL A   1      38.813  33.382  37.981  1.00  0.00     0.173 A 
ATOM     74  C   UNL A   1      40.220  35.034  36.954  1.00  0.00     0.173 A 
ATOM     75  F   UNL A   1      38.175  32.203  37.953  1.00  0.00    -0.203 F 
ATOM     76  C   UNL A   1      38.651  34.210  39.090  1.00  0.00     0.198 A 
ATOM     77  C   UNL A   1      40.081  35.849  38.076  1.00  0.00     0.198 A 
ATOM     78  F   UNL A   1      40.981  35.461  35.935  1.00  0.00    -0.203 F 
ATOM     79  F   UNL A   1      37.865  33.822  40.103  1.00  0.00    -0.200 F 
ATOM     80  C   UNL A   1      39.289  35.439  39.140  1.00  0.00     0.200 A 
ATOM     81  F   UNL A   1      40.711  37.030  38.127  1.00  0.00    -0.200 F 
ATOM     82  F   UNL A   1      39.137  36.234  40.208  1.00  0.00    -0.200 F 
ENDBRANCH  48  72
BRANCH  60  83
ATOM     83  C   UNL A   1      44.068  28.736  35.155  1.00  0.00     0.064 A 
ATOM     84  C   UNL A   1      43.971  27.606  35.980  1.00  0.00     0.173 A 
ATOM     85  C   UNL A   1      45.336  29.306  34.970  1.00  0.00     0.173 A 
ATOM     86  F   UNL A   1      42.777  27.033  36.201  1.00  0.00    -0.203 F 
ATOM     87  C   UNL A   1      45.094  27.085  36.617  1.00  0.00     0.198 A 
ATOM     88  C   UNL A   1      46.462  28.766  35.584  1.00  0.00     0.198 A 
ATOM     89  F   UNL A   1      45.485  30.385  34.185  1.00  0.00    -0.203 F 
ATOM     90  F   UNL A   1      44.969  26.036  37.441  1.00  0.00    -0.200 F 
ATOM     91  C   UNL A   1      46.339  27.662  36.413  1.00  0.00     0.200 A 
ATOM     92  F   UNL A   1      47.666  29.317  35.376  1.00  0.00    -0.200 F 
ATOM     93  F   UNL A   1      47.420  27.157  37.023  1.00  0.00    -0.200 F 
ENDBRANCH  60  83
ENDBRANCH  34  35
ENDBRANCH  26  29
ENDBRANCH  24  25
ENDBRANCH  23  24
ENDBRANCH  22  23
ENDBRANCH   1  22
TORSDOF 17
ENDMDL
MODEL 3
REMARK VINA RESULT:     -10.8      6.339     11.795
REMARK SMILES CC(C)[C@H]([NH2+]Cc1ccncc1)C(=O)NCCCCCCNC(=O)c1ccc(-c2c3nc(c(-c4c(F)c(F)c(F)c(F)c4F)c4ccc([nH]4)c(-c4c(F)c(F)c(F)c(F)c4F)c4nc(c(-c5c(F)c(F)c(F)c(F)c5F)c5ccc2[nH]5)C=C4)C=C3)cc1
REMARK SMILES IDX 18 1 17 2 16 3 15 4 13 5 14 6 4 8 2 9 1 10 3 11 5 12 6 15
REMARK SMILES IDX 7 16 8 17 12 18 9 19 11 20 10 21 19 22 20 23 21 24 22 25
REMARK SMILES IDX 23 26 24 28 25 29 26 30 87 31 27 32 86 33 28 34 29 35 30 36
REMARK SMILES IDX 80 37 31 38 85 39 79 40 81 41 32 42 84 43 78 44 77 45 33 47
REMARK SMILES IDX 65 48 45 49 64 50 46 51 49 52 63 53 82 54 47 55 48 56 62 58
REMARK SMILES IDX 83 59 50 60 34 61 35 62 43 63 36 64 37 65 41 66 44 67 38 68
REMARK SMILES IDX 39 69 42 70 40 71 66 72 67 73 75 74 68 75 69 76 73 77 76 78
REMARK SMILES IDX 70 79 71 80 74 81 72 82 51 83 52 84 60 85 53 86 54 87 58 88
REMARK SMILES IDX 61 89 55 90 56 91 59 92 57 93
REMARK H PARENT 15 7 5 13 5 14 22 27 81 46 49 57
REMARK Flexibility Score: inf
ROOT
ATOM      1  C   UNL A   1      37.108  21.869  24.782  1.00  0.00     0.002 C 
ENDROOT
BRANCH   1   2
ATOM      2  C   UNL A   1      35.941  22.607  24.117  1.00  0.00     0.021 C 
BRANCH   2   3
ATOM      3  C   UNL A   1      35.249  23.629  25.012  1.00  0.00     0.116 C 
BRANCH   3   4
ATOM      4  N   UNL A   1      34.876  23.083  26.303  1.00  0.00    -0.351 N 
ATOM      5  C   UNL A   1      34.064  22.039  26.656  1.00  0.00     0.278 C 
ATOM      6  O   UNL A   1      34.111  21.674  27.836  1.00  0.00    -0.268 OA
ATOM      7  H   UNL A   1      35.283  23.550  27.068  1.00  0.00     0.163 HD
BRANCH   5   8
ATOM      8  C   UNL A   1      33.137  21.313  25.639  1.00  0.00     0.275 C 
BRANCH   8   9
ATOM      9  C   UNL A   1      31.773  22.044  25.421  1.00  0.00     0.051 C 
ATOM     10  C   UNL A   1      31.313  23.001  26.519  1.00  0.00     0.014 C 
ATOM     11  C   UNL A   1      31.788  22.808  24.087  1.00  0.00     0.014 C 
ENDBRANCH   8   9
BRANCH   8  12
ATOM     12  N   UNL A   1      33.167  19.866  25.913  1.00  0.00    -0.332 N 
ATOM     13  H   UNL A   1      32.631  19.704  26.766  1.00  0.00     0.347 HD
ATOM     14  H   UNL A   1      34.157  19.631  25.972  1.00  0.00     0.347 HD
BRANCH  12  15
ATOM     15  C   UNL A   1      32.636  18.987  24.892  1.00  0.00     0.298 C 
BRANCH  15  16
ATOM     16  C   UNL A   1      33.244  17.611  25.031  1.00  0.00     0.009 A 
ATOM     17  C   UNL A   1      32.478  16.512  25.426  1.00  0.00     0.029 A 
ATOM     18  C   UNL A   1      34.594  17.405  24.727  1.00  0.00     0.029 A 
ATOM     19  C   UNL A   1      33.094  15.272  25.514  1.00  0.00     0.111 A 
ATOM     20  C   UNL A   1      35.117  16.127  24.839  1.00  0.00     0.111 A 
ATOM     21  N   UNL A   1      34.398  15.056  25.230  1.00  0.00    -0.265 NA
ENDBRANCH  15  16
ENDBRANCH  12  15
ENDBRANCH   8  12
ENDBRANCH   5   8
ENDBRANCH   3   4
ENDBRANCH   2   3
ENDBRANCH   1   2
BRANCH   1  22
ATOM     22  C   UNL A   1      36.916  20.359  24.971  1.00  0.00     0.002 C 
BRANCH  22  23
ATOM     23  C   UNL A   1      38.193  19.515  24.956  1.00  0.00     0.021 C 
BRANCH  23  24
ATOM     24  C   UNL A   1      39.256  19.921  25.973  1.00  0.00     0.116 C 
BRANCH  24  25
ATOM     25  N   UNL A   1      40.410  19.041  25.954  1.00  0.00    -0.352 N 
ATOM     26  C   UNL A   1      41.743  19.339  26.075  1.00  0.00     0.251 C 
ATOM     27  H   UNL A   1      40.205  18.085  25.835  1.00  0.00     0.163 HD
ATOM     28  O   UNL A   1      42.584  18.468  25.881  1.00  0.00    -0.269 OA
BRANCH  26  29
ATOM     29  C   UNL A   1      42.178  20.712  26.414  1.00  0.00     0.039 A 
ATOM     30  C   UNL A   1      42.316  21.641  25.378  1.00  0.00     0.014 A 
ATOM     31  C   UNL A   1      42.482  21.081  27.728  1.00  0.00     0.014 A 
ATOM     32  C   UNL A   1      42.711  22.950  25.665  1.00  0.00     0.010 A 
ATOM     33  C   UNL A   1      42.811  22.403  28.021  1.00  0.00     0.010 A 
ATOM     34  C   UNL A   1      42.935  23.349  26.992  1.00  0.00    -0.014 A 
BRANCH  34  35
ATOM     35  C   UNL A   1      43.303  24.751  27.312  1.00  0.00     0.031 A 
ATOM     36  C   UNL A   1      44.706  25.240  27.085  1.00  0.00     0.074 A 
ATOM     37  C   UNL A   1      42.381  25.572  27.851  1.00  0.00     0.049 A 
ATOM     38  N   UNL A   1      45.224  26.417  27.335  1.00  0.00    -0.248 NA
ATOM     39  C   UNL A   1      45.663  24.272  26.527  1.00  0.00     0.031 C 
ATOM     40  C   UNL A   1      41.001  25.201  28.166  1.00  0.00     0.029 A 
ATOM     41  N   UNL A   1      42.468  26.886  28.237  1.00  0.00    -0.354 N 
ATOM     42  C   UNL A   1      46.562  26.326  26.979  1.00  0.00     0.074 A 
ATOM     43  C   UNL A   1      46.791  24.966  26.542  1.00  0.00     0.031 C 
ATOM     44  C   UNL A   1      40.364  26.267  28.676  1.00  0.00     0.029 A 
ATOM     45  C   UNL A   1      41.298  27.387  28.754  1.00  0.00     0.049 A 
ATOM     46  H   UNL A   1      43.291  27.420  28.153  1.00  0.00     0.167 HD
ATOM     47  C   UNL A   1      47.508  27.295  26.994  1.00  0.00     0.037 A 
ATOM     48  C   UNL A   1      41.012  28.610  29.238  1.00  0.00     0.037 A 
ATOM     49  C   UNL A   1      47.271  28.655  27.401  1.00  0.00     0.049 A 
ATOM     50  C   UNL A   1      42.079  29.672  29.231  1.00  0.00     0.074 A 
ATOM     51  C   UNL A   1      48.148  29.726  27.389  1.00  0.00     0.029 A 
ATOM     52  N   UNL A   1      46.066  29.131  27.896  1.00  0.00    -0.354 N 
ATOM     53  N   UNL A   1      43.321  29.592  28.821  1.00  0.00    -0.248 NA
ATOM     54  C   UNL A   1      41.698  30.995  29.743  1.00  0.00     0.031 C 
ATOM     55  C   UNL A   1      47.486  30.840  27.917  1.00  0.00     0.029 A 
ATOM     56  C   UNL A   1      46.182  30.475  28.212  1.00  0.00     0.049 A 
ATOM     57  H   UNL A   1      45.248  28.594  28.007  1.00  0.00     0.167 HD
ATOM     58  C   UNL A   1      43.863  30.858  29.001  1.00  0.00     0.074 A 
ATOM     59  C   UNL A   1      42.807  31.691  29.540  1.00  0.00     0.031 C 
ATOM     60  C   UNL A   1      45.121  31.291  28.743  1.00  0.00     0.037 A 
BRANCH  47  61
ATOM     61  C   UNL A   1      48.894  26.922  26.548  1.00  0.00     0.064 A 
ATOM     62  C   UNL A   1      49.849  26.432  27.452  1.00  0.00     0.173 A 
ATOM     63  C   UNL A   1      49.256  27.011  25.196  1.00  0.00     0.173 A 
ATOM     64  F   UNL A   1      49.557  26.338  28.758  1.00  0.00    -0.203 F 
ATOM     65  C   UNL A   1      51.123  26.072  27.023  1.00  0.00     0.198 A 
ATOM     66  C   UNL A   1      50.522  26.622  24.766  1.00  0.00     0.198 A 
ATOM     67  F   UNL A   1      48.378  27.466  24.290  1.00  0.00    -0.203 F 
ATOM     68  F   UNL A   1      52.034  25.649  27.911  1.00  0.00    -0.200 F 
ATOM     69  C   UNL A   1      51.457  26.159  25.679  1.00  0.00     0.200 A 
ATOM     70  F   UNL A   1      50.837  26.695  23.464  1.00  0.00    -0.200 F 
ATOM     71  F   UNL A   1      52.680  25.802  25.266  1.00  0.00    -0.200 F 
ENDBRANCH  47  61
BRANCH  48  72
ATOM     72  C   UNL A   1      39.647  28.906  29.746  1.00  0.00     0.064 A 
ATOM     73  C   UNL A   1      39.304  28.648  31.080  1.00  0.00     0.173 A 
ATOM     74  C   UNL A   1      38.658  29.443  28.910  1.00  0.00     0.173 A 
ATOM     75  F   UNL A   1      40.210  28.115  31.913  1.00  0.00    -0.203 F 
ATOM     76  C   UNL A   1      38.017  28.895  31.553  1.00  0.00     0.198 A 
ATOM     77  C   UNL A   1      37.380  29.717  29.391  1.00  0.00     0.198 A 
ATOM     78  F   UNL A   1      38.937  29.714  27.626  1.00  0.00    -0.203 F 
ATOM     79  F   UNL A   1      37.703  28.597  32.821  1.00  0.00    -0.200 F 
ATOM     80  C   UNL A   1      37.058  29.435  30.711  1.00  0.00     0.200 A 
ATOM     81  F   UNL A   1      36.460  30.252  28.578  1.00  0.00    -0.200 F 
ATOM     82  F   UNL A   1      35.821  29.677  31.167  1.00  0.00    -0.200 F 
ENDBRANCH  48  72
BRANCH  60  83
ATOM     83  C   UNL A   1      45.417  32.738  29.013  1.00  0.00     0.064 A 
ATOM     84  C   UNL A   1      45.940  33.165  30.242  1.00  0.00     0.173 A 
ATOM     85  C   UNL A   1      45.204  33.703  28.018  1.00  0.00     0.173 A 
ATOM     86  F   UNL A   1      46.147  32.282  31.231  1.00  0.00    -0.203 F 
ATOM     87  C   UNL A   1      46.212  34.510  30.475  1.00  0.00     0.198 A 
ATOM     88  C   UNL A   1      45.505  35.043  28.243  1.00  0.00     0.198 A 
ATOM     89  F   UNL A   1      44.711  33.345  26.822  1.00  0.00    -0.203 F 
ATOM     90  F   UNL A   1      46.664  34.903  31.674  1.00  0.00    -0.200 F 
ATOM     91  C   UNL A   1      46.001  35.447  29.474  1.00  0.00     0.200 A 
ATOM     92  F   UNL A   1      45.312  35.945  27.271  1.00  0.00    -0.200 F 
ATOM     93  F   UNL A   1      46.267  36.741  29.698  1.00  0.00    -0.200 F 
ENDBRANCH  60  83
ENDBRANCH  34  35
ENDBRANCH  26  29
ENDBRANCH  24  25
ENDBRANCH  23  24
ENDBRANCH  22  23
ENDBRANCH   1  22
TORSDOF 17
ENDMDL
