MODEL 1
REMARK VINA RESULT:     -12.4      0.000      0.000
REMARK SMILES CC[C@@H](C(=O)NCCCCCCNC(=O)c1ccc(-c2c3nc(c(-c4c(F)c(F)c(F)c(F)c4F)c4ccc([nH]4)c(-c4c(F)c(F)c(F)c(F)c4F)c4nc(c(-c5c(F)c(F)c(F)c(F)c5F)c5ccc2[nH]5)C=C4)C=C3)cc1)N1C(=O)/C(=C/C(C)=C/c2ccccc2)SC1=S
REMARK SMILES IDX 9 1 8 2 7 3 6 4 4 5 5 6 3 8 2 9 1 10 79 11 80 12 94 13 81 14
REMARK SMILES IDX 82 15 93 16 95 17 83 18 84 19 85 20 86 21 87 22 88 23 92 24
REMARK SMILES IDX 89 25 91 26 90 27 10 28 11 29 12 30 13 31 14 32 15 34 16 35
REMARK SMILES IDX 17 36 78 37 18 38 77 39 19 40 20 41 21 42 71 43 22 44 76 45
REMARK SMILES IDX 70 46 72 47 23 48 75 49 69 50 68 51 24 53 56 54 36 55 55 56
REMARK SMILES IDX 37 57 40 58 54 59 73 60 38 61 39 62 53 64 74 65 41 66 25 67
REMARK SMILES IDX 26 68 34 69 27 70 28 71 32 72 35 73 29 74 30 75 33 76 31 77
REMARK SMILES IDX 57 78 58 79 66 80 59 81 60 82 64 83 67 84 61 85 62 86 65 87
REMARK SMILES IDX 63 88 42 89 43 90 51 91 44 92 45 93 49 94 52 95 46 96 47 97
REMARK SMILES IDX 50 98 48 99
REMARK H PARENT 6 7 13 33 72 52 40 63
REMARK Flexibility Score: inf
ROOT
ATOM      1  C   UNL A   1      36.922  21.858  24.946  1.00  0.00     0.002 C 
ENDROOT
BRANCH   1   2
ATOM      2  C   UNL A   1      36.720  22.532  23.585  1.00  0.00     0.021 C 
BRANCH   2   3
ATOM      3  C   UNL A   1      35.474  23.414  23.507  1.00  0.00     0.116 C 
BRANCH   3   4
ATOM      4  N   UNL A   1      34.286  22.603  23.635  1.00  0.00    -0.354 N 
ATOM      5  C   UNL A   1      33.392  22.492  24.652  1.00  0.00     0.243 C 
ATOM      6  O   UNL A   1      32.487  21.666  24.489  1.00  0.00    -0.273 OA
ATOM      7  H   UNL A   1      34.090  22.037  22.853  1.00  0.00     0.163 HD
BRANCH   5   8
ATOM      8  C   UNL A   1      33.474  23.398  25.909  1.00  0.00     0.181 C 
BRANCH   8   9
ATOM      9  C   UNL A   1      33.229  22.708  27.269  1.00  0.00     0.032 C 
ATOM     10  C   UNL A   1      34.104  21.504  27.575  1.00  0.00     0.006 C 
ENDBRANCH   8   9
BRANCH   8  11
ATOM     11  N   UNL A   1      32.479  24.474  25.654  1.00  0.00    -0.280 N 
ATOM     12  C   UNL A   1      32.913  25.704  25.175  1.00  0.00     0.266 C 
ATOM     13  C   UNL A   1      31.153  24.404  26.027  1.00  0.00     0.149 C 
ATOM     14  O   UNL A   1      34.052  26.001  24.857  1.00  0.00    -0.268 OA
ATOM     15  C   UNL A   1      31.770  26.655  25.062  1.00  0.00     0.080 C 
ATOM     16  S   UNL A   1      30.365  25.946  25.734  1.00  0.00    -0.054 SA
ATOM     17  S   UNL A   1      30.321  23.096  26.649  1.00  0.00    -0.052 S 
ATOM     18  C   UNL A   1      31.960  27.843  24.466  1.00  0.00     0.024 C 
BRANCH  18  19
ATOM     19  C   UNL A   1      31.063  28.962  24.179  1.00  0.00    -0.049 C 
ATOM     20  C   UNL A   1      31.282  30.158  25.081  1.00  0.00     0.044 C 
ATOM     21  C   UNL A   1      30.168  28.965  23.172  1.00  0.00     0.011 C 
BRANCH  21  22
ATOM     22  C   UNL A   1      29.274  30.054  22.763  1.00  0.00    -0.025 A 
ATOM     23  C   UNL A   1      29.347  30.521  21.444  1.00  0.00     0.008 A 
ATOM     24  C   UNL A   1      28.451  30.716  23.679  1.00  0.00     0.008 A 
ATOM     25  C   UNL A   1      28.606  31.635  21.048  1.00  0.00     0.001 A 
ATOM     26  C   UNL A   1      27.707  31.829  23.280  1.00  0.00     0.001 A 
ATOM     27  C   UNL A   1      27.789  32.289  21.967  1.00  0.00     0.000 A 
ENDBRANCH  21  22
ENDBRANCH  18  19
ENDBRANCH   8  11
ENDBRANCH   5   8
ENDBRANCH   3   4
ENDBRANCH   2   3
ENDBRANCH   1   2
BRANCH   1  28
ATOM     28  C   UNL A   1      36.659  20.350  24.968  1.00  0.00     0.002 C 
BRANCH  28  29
ATOM     29  C   UNL A   1      37.909  19.468  25.005  1.00  0.00     0.021 C 
BRANCH  29  30
ATOM     30  C   UNL A   1      39.109  20.077  25.728  1.00  0.00     0.116 C 
BRANCH  30  31
ATOM     31  N   UNL A   1      40.213  19.143  25.844  1.00  0.00    -0.352 N 
ATOM     32  C   UNL A   1      41.545  19.381  26.064  1.00  0.00     0.251 C 
ATOM     33  H   UNL A   1      39.969  18.193  25.750  1.00  0.00     0.163 HD
ATOM     34  O   UNL A   1      42.360  18.471  25.944  1.00  0.00    -0.269 OA
BRANCH  32  35
ATOM     35  C   UNL A   1      42.011  20.736  26.429  1.00  0.00     0.039 A 
ATOM     36  C   UNL A   1      42.239  21.661  25.406  1.00  0.00     0.014 A 
ATOM     37  C   UNL A   1      42.257  21.088  27.760  1.00  0.00     0.014 A 
ATOM     38  C   UNL A   1      42.667  22.951  25.722  1.00  0.00     0.010 A 
ATOM     39  C   UNL A   1      42.620  22.395  28.079  1.00  0.00     0.010 A 
ATOM     40  C   UNL A   1      42.836  23.337  27.062  1.00  0.00    -0.014 A 
BRANCH  40  41
ATOM     41  C   UNL A   1      43.231  24.728  27.401  1.00  0.00     0.031 A 
ATOM     42  C   UNL A   1      44.640  25.200  27.172  1.00  0.00     0.074 A 
ATOM     43  C   UNL A   1      42.324  25.555  27.952  1.00  0.00     0.049 A 
ATOM     44  N   UNL A   1      45.162  26.379  27.397  1.00  0.00    -0.248 NA
ATOM     45  C   UNL A   1      45.594  24.213  26.647  1.00  0.00     0.031 C 
ATOM     46  C   UNL A   1      40.945  25.193  28.284  1.00  0.00     0.029 A 
ATOM     47  N   UNL A   1      42.423  26.870  28.333  1.00  0.00    -0.354 N 
ATOM     48  C   UNL A   1      46.502  26.273  27.051  1.00  0.00     0.074 A 
ATOM     49  C   UNL A   1      46.726  24.899  26.652  1.00  0.00     0.031 C 
ATOM     50  C   UNL A   1      40.319  26.267  28.793  1.00  0.00     0.029 A 
ATOM     51  C   UNL A   1      41.258  27.383  28.846  1.00  0.00     0.049 A 
ATOM     52  H   UNL A   1      43.252  27.394  28.247  1.00  0.00     0.167 HD
ATOM     53  C   UNL A   1      47.454  27.237  27.043  1.00  0.00     0.037 A 
ATOM     54  C   UNL A   1      40.976  28.618  29.301  1.00  0.00     0.037 A 
ATOM     55  C   UNL A   1      47.222  28.608  27.417  1.00  0.00     0.049 A 
ATOM     56  C   UNL A   1      42.041  29.678  29.254  1.00  0.00     0.074 A 
ATOM     57  C   UNL A   1      48.099  29.677  27.373  1.00  0.00     0.029 A 
ATOM     58  N   UNL A   1      46.020  29.099  27.909  1.00  0.00    -0.354 N 
ATOM     59  N   UNL A   1      43.282  29.587  28.842  1.00  0.00    -0.248 NA
ATOM     60  C   UNL A   1      41.661  31.018  29.724  1.00  0.00     0.031 C 
ATOM     61  C   UNL A   1      47.443  30.804  27.881  1.00  0.00     0.029 A 
ATOM     62  C   UNL A   1      46.142  30.451  28.196  1.00  0.00     0.049 A 
ATOM     63  H   UNL A   1      45.203  28.566  28.038  1.00  0.00     0.167 HD
ATOM     64  C   UNL A   1      43.826  30.855  28.984  1.00  0.00     0.074 A 
ATOM     65  C   UNL A   1      42.770  31.706  29.497  1.00  0.00     0.031 C 
ATOM     66  C   UNL A   1      45.085  31.280  28.715  1.00  0.00     0.037 A 
BRANCH  53  67
ATOM     67  C   UNL A   1      48.838  26.843  26.614  1.00  0.00     0.064 A 
ATOM     68  C   UNL A   1      49.770  26.320  27.523  1.00  0.00     0.173 A 
ATOM     69  C   UNL A   1      49.227  26.957  25.270  1.00  0.00     0.173 A 
ATOM     70  F   UNL A   1      49.453  26.199  28.821  1.00  0.00    -0.203 F 
ATOM     71  C   UNL A   1      51.050  25.957  27.109  1.00  0.00     0.198 A 
ATOM     72  C   UNL A   1      50.497  26.565  24.855  1.00  0.00     0.198 A 
ATOM     73  F   UNL A   1      48.373  27.446  24.358  1.00  0.00    -0.203 F 
ATOM     74  F   UNL A   1      51.940  25.508  28.006  1.00  0.00    -0.200 F 
ATOM     75  C   UNL A   1      51.410  26.073  25.776  1.00  0.00     0.200 A 
ATOM     76  F   UNL A   1      50.839  26.667  23.563  1.00  0.00    -0.200 F 
ATOM     77  F   UNL A   1      52.640  25.719  25.378  1.00  0.00    -0.200 F 
ENDBRANCH  53  67
BRANCH  54  78
ATOM     78  C   UNL A   1      39.612  28.925  29.803  1.00  0.00     0.064 A 
ATOM     79  C   UNL A   1      39.263  28.679  31.137  1.00  0.00     0.173 A 
ATOM     80  C   UNL A   1      38.635  29.477  28.962  1.00  0.00     0.173 A 
ATOM     81  F   UNL A   1      40.159  28.134  31.974  1.00  0.00    -0.203 F 
ATOM     82  C   UNL A   1      37.982  28.958  31.610  1.00  0.00     0.198 A 
ATOM     83  C   UNL A   1      37.362  29.781  29.442  1.00  0.00     0.198 A 
ATOM     84  F   UNL A   1      38.922  29.738  27.678  1.00  0.00    -0.203 F 
ATOM     85  F   UNL A   1      37.662  28.675  32.880  1.00  0.00    -0.200 F 
ATOM     86  C   UNL A   1      37.034  29.514  30.763  1.00  0.00     0.200 A 
ATOM     87  F   UNL A   1      36.455  30.332  28.625  1.00  0.00    -0.200 F 
ATOM     88  F   UNL A   1      35.805  29.788  31.218  1.00  0.00    -0.200 F 
ENDBRANCH  54  78
BRANCH  66  89
ATOM     89  C   UNL A   1      45.382  32.731  28.962  1.00  0.00     0.064 A 
ATOM     90  C   UNL A   1      45.130  33.708  27.987  1.00  0.00     0.173 A 
ATOM     91  C   UNL A   1      45.911  33.150  30.191  1.00  0.00     0.173 A 
ATOM     92  F   UNL A   1      44.639  33.356  26.789  1.00  0.00    -0.203 F 
ATOM     93  C   UNL A   1      45.428  35.047  28.223  1.00  0.00     0.198 A 
ATOM     94  C   UNL A   1      46.179  34.495  30.435  1.00  0.00     0.198 A 
ATOM     95  F   UNL A   1      46.164  32.257  31.160  1.00  0.00    -0.203 F 
ATOM     96  F   UNL A   1      45.233  35.955  27.257  1.00  0.00    -0.200 F 
ATOM     97  C   UNL A   1      45.948  35.440  29.447  1.00  0.00     0.200 A 
ATOM     98  F   UNL A   1      46.670  34.874  31.623  1.00  0.00    -0.200 F 
ATOM     99  F   UNL A   1      46.235  36.730  29.672  1.00  0.00    -0.200 F 
ENDBRANCH  66  89
ENDBRANCH  40  41
ENDBRANCH  32  35
ENDBRANCH  30  31
ENDBRANCH  29  30
ENDBRANCH  28  29
ENDBRANCH   1  28
TORSDOF 17
ENDMDL
MODEL 2
REMARK VINA RESULT:     -12.4      0.502      7.089
REMARK SMILES CC[C@@H](C(=O)NCCCCCCNC(=O)c1ccc(-c2c3nc(c(-c4c(F)c(F)c(F)c(F)c4F)c4ccc([nH]4)c(-c4c(F)c(F)c(F)c(F)c4F)c4nc(c(-c5c(F)c(F)c(F)c(F)c5F)c5ccc2[nH]5)C=C4)C=C3)cc1)N1C(=O)/C(=C/C(C)=C/c2ccccc2)SC1=S
REMARK SMILES IDX 9 1 8 2 7 3 6 4 4 5 5 6 3 8 2 9 1 10 79 11 80 12 94 13 81 14
REMARK SMILES IDX 82 15 93 16 95 17 83 18 84 19 85 20 86 21 87 22 88 23 92 24
REMARK SMILES IDX 89 25 91 26 90 27 10 28 11 29 12 30 13 31 14 32 15 34 16 35
REMARK SMILES IDX 17 36 78 37 18 38 77 39 19 40 20 41 21 42 71 43 22 44 76 45
REMARK SMILES IDX 70 46 72 47 23 48 75 49 69 50 68 51 24 53 56 54 36 55 55 56
REMARK SMILES IDX 37 57 40 58 54 59 73 60 38 61 39 62 53 64 74 65 41 66 25 67
REMARK SMILES IDX 26 68 34 69 27 70 28 71 32 72 35 73 29 74 30 75 33 76 31 77
REMARK SMILES IDX 57 78 58 79 66 80 59 81 60 82 64 83 67 84 61 85 62 86 65 87
REMARK SMILES IDX 63 88 42 89 43 90 51 91 44 92 45 93 49 94 52 95 46 96 47 97
REMARK SMILES IDX 50 98 48 99
REMARK H PARENT 6 7 13 33 72 52 40 63
REMARK Flexibility Score: inf
ROOT
ATOM      1  C   UNL A   1      37.052  21.843  24.828  1.00  0.00     0.002 C 
ENDROOT
BRANCH   1   2
ATOM      2  C   UNL A   1      36.718  22.546  23.508  1.00  0.00     0.021 C 
BRANCH   2   3
ATOM      3  C   UNL A   1      35.477  23.435  23.574  1.00  0.00     0.116 C 
BRANCH   3   4
ATOM      4  N   UNL A   1      34.291  22.620  23.692  1.00  0.00    -0.354 N 
ATOM      5  C   UNL A   1      33.392  22.501  24.704  1.00  0.00     0.243 C 
ATOM      6  O   UNL A   1      32.491  21.672  24.533  1.00  0.00    -0.273 OA
ATOM      7  H   UNL A   1      34.101  22.056  22.907  1.00  0.00     0.163 HD
BRANCH   5   8
ATOM      8  C   UNL A   1      33.465  23.402  25.966  1.00  0.00     0.181 C 
BRANCH   8   9
ATOM      9  C   UNL A   1      33.189  22.712  27.319  1.00  0.00     0.032 C 
ATOM     10  C   UNL A   1      34.082  21.530  27.661  1.00  0.00     0.006 C 
ENDBRANCH   8   9
BRANCH   8  11
ATOM     11  N   UNL A   1      32.488  24.492  25.697  1.00  0.00    -0.280 N 
ATOM     12  C   UNL A   1      32.948  25.729  25.263  1.00  0.00     0.266 C 
ATOM     13  C   UNL A   1      31.148  24.423  26.019  1.00  0.00     0.149 C 
ATOM     14  O   UNL A   1      34.100  26.024  24.995  1.00  0.00    -0.268 OA
ATOM     15  C   UNL A   1      31.818  26.691  25.129  1.00  0.00     0.080 C 
ATOM     16  S   UNL A   1      30.383  25.978  25.731  1.00  0.00    -0.054 SA
ATOM     17  S   UNL A   1      30.284  23.109  26.579  1.00  0.00    -0.052 S 
ATOM     18  C   UNL A   1      32.038  27.890  24.568  1.00  0.00     0.024 C 
BRANCH  18  19
ATOM     19  C   UNL A   1      31.160  29.023  24.272  1.00  0.00    -0.049 C 
ATOM     20  C   UNL A   1      31.407  30.225  25.159  1.00  0.00     0.044 C 
ATOM     21  C   UNL A   1      30.258  29.030  23.271  1.00  0.00     0.011 C 
BRANCH  21  22
ATOM     22  C   UNL A   1      29.382  30.131  22.854  1.00  0.00    -0.025 A 
ATOM     23  C   UNL A   1      29.186  30.348  21.485  1.00  0.00     0.008 A 
ATOM     24  C   UNL A   1      28.848  31.037  23.775  1.00  0.00     0.008 A 
ATOM     25  C   UNL A   1      28.463  31.456  21.042  1.00  0.00     0.001 A 
ATOM     26  C   UNL A   1      28.122  32.144  23.332  1.00  0.00     0.001 A 
ATOM     27  C   UNL A   1      27.934  32.355  21.967  1.00  0.00     0.000 A 
ENDBRANCH  21  22
ENDBRANCH  18  19
ENDBRANCH   8  11
ENDBRANCH   5   8
ENDBRANCH   3   4
ENDBRANCH   2   3
ENDBRANCH   1   2
BRANCH   1  28
ATOM     28  C   UNL A   1      36.734  20.346  24.862  1.00  0.00     0.002 C 
BRANCH  28  29
ATOM     29  C   UNL A   1      37.949  19.421  24.966  1.00  0.00     0.021 C 
BRANCH  29  30
ATOM     30  C   UNL A   1      39.146  20.007  25.711  1.00  0.00     0.116 C 
BRANCH  30  31
ATOM     31  N   UNL A   1      40.214  19.039  25.882  1.00  0.00    -0.352 N 
ATOM     32  C   UNL A   1      41.552  19.239  26.109  1.00  0.00     0.251 C 
ATOM     33  H   UNL A   1      39.937  18.096  25.827  1.00  0.00     0.163 HD
ATOM     34  O   UNL A   1      42.334  18.296  26.038  1.00  0.00    -0.269 OA
BRANCH  32  35
ATOM     35  C   UNL A   1      42.062  20.592  26.420  1.00  0.00     0.039 A 
ATOM     36  C   UNL A   1      42.372  21.448  25.359  1.00  0.00     0.014 A 
ATOM     37  C   UNL A   1      42.270  21.006  27.739  1.00  0.00     0.014 A 
ATOM     38  C   UNL A   1      42.844  22.734  25.623  1.00  0.00     0.010 A 
ATOM     39  C   UNL A   1      42.678  22.313  28.002  1.00  0.00     0.010 A 
ATOM     40  C   UNL A   1      42.977  23.186  26.946  1.00  0.00    -0.014 A 
BRANCH  40  41
ATOM     41  C   UNL A   1      43.419  24.576  27.227  1.00  0.00     0.031 A 
ATOM     42  C   UNL A   1      42.458  25.586  27.789  1.00  0.00     0.074 A 
ATOM     43  C   UNL A   1      44.684  24.936  26.939  1.00  0.00     0.049 A 
ATOM     44  N   UNL A   1      42.668  26.838  28.107  1.00  0.00    -0.248 NA
ATOM     45  C   UNL A   1      41.072  25.139  27.997  1.00  0.00     0.031 C 
ATOM     46  C   UNL A   1      45.690  24.066  26.330  1.00  0.00     0.029 A 
ATOM     47  N   UNL A   1      45.339  26.129  27.117  1.00  0.00    -0.354 N 
ATOM     48  C   UNL A   1      41.444  27.329  28.541  1.00  0.00     0.074 A 
ATOM     49  C   UNL A   1      40.484  26.256  28.395  1.00  0.00     0.031 C 
ATOM     50  C   UNL A   1      46.843  24.744  26.210  1.00  0.00     0.029 A 
ATOM     51  C   UNL A   1      46.650  26.101  26.710  1.00  0.00     0.049 A 
ATOM     52  H   UNL A   1      44.909  26.927  27.499  1.00  0.00     0.167 HD
ATOM     53  C   UNL A   1      41.153  28.556  29.039  1.00  0.00     0.037 A 
ATOM     54  C   UNL A   1      47.592  27.062  26.743  1.00  0.00     0.037 A 
ATOM     55  C   UNL A   1      42.116  29.612  29.206  1.00  0.00     0.049 A 
ATOM     56  C   UNL A   1      47.252  28.404  27.327  1.00  0.00     0.074 A 
ATOM     57  C   UNL A   1      41.938  30.864  29.769  1.00  0.00     0.029 A 
ATOM     58  N   UNL A   1      43.443  29.541  28.805  1.00  0.00    -0.354 N 
ATOM     59  N   UNL A   1      46.113  28.829  27.817  1.00  0.00    -0.248 NA
ATOM     60  C   UNL A   1      48.334  29.397  27.377  1.00  0.00     0.031 C 
ATOM     61  C   UNL A   1      43.144  31.566  29.668  1.00  0.00     0.029 A 
ATOM     62  C   UNL A   1      44.088  30.737  29.086  1.00  0.00     0.049 A 
ATOM     63  H   UNL A   1      43.864  28.759  28.382  1.00  0.00     0.167 HD
ATOM     64  C   UNL A   1      46.342  30.128  28.248  1.00  0.00     0.074 A 
ATOM     65  C   UNL A   1      47.739  30.412  27.986  1.00  0.00     0.031 C 
ATOM     66  C   UNL A   1      45.476  31.007  28.810  1.00  0.00     0.037 A 
BRANCH  53  67
ATOM     67  C   UNL A   1      39.731  28.820  29.443  1.00  0.00     0.064 A 
ATOM     68  C   UNL A   1      39.275  28.561  30.744  1.00  0.00     0.173 A 
ATOM     69  C   UNL A   1      38.820  29.370  28.527  1.00  0.00     0.173 A 
ATOM     70  F   UNL A   1      40.101  28.026  31.656  1.00  0.00    -0.203 F 
ATOM     71  C   UNL A   1      37.953  28.813  31.105  1.00  0.00     0.198 A 
ATOM     72  C   UNL A   1      37.507  29.648  28.900  1.00  0.00     0.198 A 
ATOM     73  F   UNL A   1      39.205  29.642  27.271  1.00  0.00    -0.203 F 
ATOM     74  F   UNL A   1      37.528  28.509  32.340  1.00  0.00    -0.200 F 
ATOM     75  C   UNL A   1      37.073  29.361  30.185  1.00  0.00     0.200 A 
ATOM     76  F   UNL A   1      36.661  30.190  28.013  1.00  0.00    -0.200 F 
ATOM     77  F   UNL A   1      35.803  29.608  30.534  1.00  0.00    -0.200 F 
ENDBRANCH  53  67
BRANCH  54  78
ATOM     78  C   UNL A   1      48.960  26.770  26.242  1.00  0.00     0.064 A 
ATOM     79  C   UNL A   1      49.931  26.211  27.082  1.00  0.00     0.173 A 
ATOM     80  C   UNL A   1      49.320  27.037  24.913  1.00  0.00     0.173 A 
ATOM     81  F   UNL A   1      49.638  25.956  28.367  1.00  0.00    -0.203 F 
ATOM     82  C   UNL A   1      51.218  25.944  26.618  1.00  0.00     0.198 A 
ATOM     83  C   UNL A   1      50.599  26.745  24.442  1.00  0.00     0.198 A 
ATOM     84  F   UNL A   1      48.424  27.566  24.067  1.00  0.00    -0.203 F 
ATOM     85  F   UNL A   1      52.139  25.447  27.454  1.00  0.00    -0.200 F 
ATOM     86  C   UNL A   1      51.549  26.206  25.297  1.00  0.00     0.200 A 
ATOM     87  F   UNL A   1      50.909  26.985  23.162  1.00  0.00    -0.200 F 
ATOM     88  F   UNL A   1      52.783  25.944  24.849  1.00  0.00    -0.200 F 
ENDBRANCH  54  78
BRANCH  66  89
ATOM     89  C   UNL A   1      46.022  32.354  29.187  1.00  0.00     0.064 A 
ATOM     90  C   UNL A   1      46.590  32.589  30.448  1.00  0.00     0.173 A 
ATOM     91  C   UNL A   1      45.989  33.416  28.273  1.00  0.00     0.173 A 
ATOM     92  F   UNL A   1      46.631  31.608  31.364  1.00  0.00    -0.203 F 
ATOM     93  C   UNL A   1      47.075  33.847  30.791  1.00  0.00     0.198 A 
ATOM     94  C   UNL A   1      46.503  34.667  28.608  1.00  0.00     0.198 A 
ATOM     95  F   UNL A   1      45.463  33.243  27.050  1.00  0.00    -0.203 F 
ATOM     96  F   UNL A   1      47.560  34.064  32.021  1.00  0.00    -0.200 F 
ATOM     97  C   UNL A   1      47.036  34.884  29.871  1.00  0.00     0.200 A 
ATOM     98  F   UNL A   1      46.475  35.663  27.713  1.00  0.00    -0.200 F 
ATOM     99  F   UNL A   1      47.502  36.096  30.202  1.00  0.00    -0.200 F 
ENDBRANCH  66  89
ENDBRANCH  40  41
ENDBRANCH  32  35
ENDBRANCH  30  31
ENDBRANCH  29  30
ENDBRANCH  28  29
ENDBRANCH   1  28
TORSDOF 17
ENDMDL
MODEL 3
REMARK VINA RESULT:     -12.2      5.106     11.217
REMARK SMILES CC[C@@H](C(=O)NCCCCCCNC(=O)c1ccc(-c2c3nc(c(-c4c(F)c(F)c(F)c(F)c4F)c4ccc([nH]4)c(-c4c(F)c(F)c(F)c(F)c4F)c4nc(c(-c5c(F)c(F)c(F)c(F)c5F)c5ccc2[nH]5)C=C4)C=C3)cc1)N1C(=O)/C(=C/C(C)=C/c2ccccc2)SC1=S
REMARK SMILES IDX 9 1 8 2 7 3 6 4 4 5 5 6 3 8 2 9 1 10 79 11 80 12 94 13 81 14
REMARK SMILES IDX 82 15 93 16 95 17 83 18 84 19 85 20 86 21 87 22 88 23 92 24
REMARK SMILES IDX 89 25 91 26 90 27 10 28 11 29 12 30 13 31 14 32 15 34 16 35
REMARK SMILES IDX 17 36 78 37 18 38 77 39 19 40 20 41 21 42 71 43 22 44 76 45
REMARK SMILES IDX 70 46 72 47 23 48 75 49 69 50 68 51 24 53 56 54 36 55 55 56
REMARK SMILES IDX 37 57 40 58 54 59 73 60 38 61 39 62 53 64 74 65 41 66 25 67
REMARK SMILES IDX 26 68 34 69 27 70 28 71 32 72 35 73 29 74 30 75 33 76 31 77
REMARK SMILES IDX 57 78 58 79 66 80 59 81 60 82 64 83 67 84 61 85 62 86 65 87
REMARK SMILES IDX 63 88 42 89 43 90 51 91 44 92 45 93 49 94 52 95 46 96 47 97
REMARK SMILES IDX 50 98 48 99
REMARK H PARENT 6 7 13 33 72 52 40 63
REMARK Flexibility Score: inf
ROOT
ATOM      1  C   UNL A   1      31.394  29.757  26.998  1.00  0.00     0.002 C 
ENDROOT
BRANCH   1   2
ATOM      2  C   UNL A   1      32.657  28.930  27.263  1.00  0.00     0.021 C 
BRANCH   2   3
ATOM      3  C   UNL A   1      32.531  27.459  26.869  1.00  0.00     0.116 C 
BRANCH   3   4
ATOM      4  N   UNL A   1      31.599  27.319  25.774  1.00  0.00    -0.354 N 
ATOM      5  C   UNL A   1      31.812  27.129  24.445  1.00  0.00     0.243 C 
ATOM      6  O   UNL A   1      30.801  27.094  23.736  1.00  0.00    -0.273 OA
ATOM      7  H   UNL A   1      30.651  27.368  26.035  1.00  0.00     0.163 HD
BRANCH   5   8
ATOM      8  C   UNL A   1      33.238  26.904  23.875  1.00  0.00     0.181 C 
BRANCH   8   9
ATOM      9  C   UNL A   1      33.606  27.713  22.612  1.00  0.00     0.032 C 
ATOM     10  C   UNL A   1      33.722  29.218  22.793  1.00  0.00     0.006 C 
ENDBRANCH   8   9
BRANCH   8  11
ATOM     11  N   UNL A   1      33.309  25.439  23.626  1.00  0.00    -0.280 N 
ATOM     12  C   UNL A   1      33.790  24.600  24.625  1.00  0.00     0.266 C 
ATOM     13  C   UNL A   1      33.094  24.853  22.396  1.00  0.00     0.149 C 
ATOM     14  O   UNL A   1      34.109  24.925  25.756  1.00  0.00    -0.268 OA
ATOM     15  C   UNL A   1      33.847  23.191  24.143  1.00  0.00     0.080 C 
ATOM     16  S   UNL A   1      33.470  23.139  22.475  1.00  0.00    -0.054 SA
ATOM     17  S   UNL A   1      32.539  25.568  20.993  1.00  0.00    -0.052 S 
ATOM     18  C   UNL A   1      34.133  22.210  25.014  1.00  0.00     0.024 C 
BRANCH  18  19
ATOM     19  C   UNL A   1      34.238  20.758  24.871  1.00  0.00    -0.049 C 
ATOM     20  C   UNL A   1      35.655  20.241  24.994  1.00  0.00     0.044 C 
ATOM     21  C   UNL A   1      33.178  19.943  24.708  1.00  0.00     0.011 C 
BRANCH  21  22
ATOM     22  C   UNL A   1      33.171  18.478  24.621  1.00  0.00    -0.025 A 
ATOM     23  C   UNL A   1      32.730  17.743  25.729  1.00  0.00     0.008 A 
ATOM     24  C   UNL A   1      33.708  17.802  23.521  1.00  0.00     0.008 A 
ATOM     25  C   UNL A   1      32.823  16.351  25.735  1.00  0.00     0.001 A 
ATOM     26  C   UNL A   1      33.797  16.409  23.527  1.00  0.00     0.001 A 
ATOM     27  C   UNL A   1      33.360  15.686  24.635  1.00  0.00     0.000 A 
ENDBRANCH  21  22
ENDBRANCH  18  19
ENDBRANCH   8  11
ENDBRANCH   5   8
ENDBRANCH   3   4
ENDBRANCH   2   3
ENDBRANCH   1   2
BRANCH   1  28
ATOM     28  C   UNL A   1      31.604  30.998  26.127  1.00  0.00     0.002 C 
BRANCH  28  29
ATOM     29  C   UNL A   1      31.432  32.339  26.846  1.00  0.00     0.021 C 
BRANCH  29  30
ATOM     30  C   UNL A   1      32.676  33.224  26.870  1.00  0.00     0.116 C 
BRANCH  30  31
ATOM     31  N   UNL A   1      32.471  34.440  27.636  1.00  0.00    -0.352 N 
ATOM     32  C   UNL A   1      33.054  34.848  28.808  1.00  0.00     0.251 C 
ATOM     33  H   UNL A   1      31.813  35.067  27.257  1.00  0.00     0.163 HD
ATOM     34  O   UNL A   1      32.614  35.826  29.405  1.00  0.00    -0.269 OA
BRANCH  32  35
ATOM     35  C   UNL A   1      34.203  34.104  29.369  1.00  0.00     0.039 A 
ATOM     36  C   UNL A   1      35.495  34.532  29.049  1.00  0.00     0.014 A 
ATOM     37  C   UNL A   1      34.017  32.975  30.171  1.00  0.00     0.014 A 
ATOM     38  C   UNL A   1      36.597  33.857  29.574  1.00  0.00     0.010 A 
ATOM     39  C   UNL A   1      35.117  32.343  30.749  1.00  0.00     0.010 A 
ATOM     40  C   UNL A   1      36.418  32.773  30.448  1.00  0.00    -0.014 A 
BRANCH  40  41
ATOM     41  C   UNL A   1      37.590  32.094  31.057  1.00  0.00     0.031 A 
ATOM     42  C   UNL A   1      38.055  32.461  32.438  1.00  0.00     0.074 A 
ATOM     43  C   UNL A   1      38.259  31.168  30.344  1.00  0.00     0.049 A 
ATOM     44  N   UNL A   1      39.049  31.969  33.133  1.00  0.00    -0.248 NA
ATOM     45  C   UNL A   1      37.325  33.541  33.119  1.00  0.00     0.031 C 
ATOM     46  C   UNL A   1      37.945  30.773  28.970  1.00  0.00     0.029 A 
ATOM     47  N   UNL A   1      39.341  30.392  30.675  1.00  0.00    -0.354 N 
ATOM     48  C   UNL A   1      39.070  32.683  34.323  1.00  0.00     0.074 A 
ATOM     49  C   UNL A   1      38.023  33.679  34.235  1.00  0.00     0.031 C 
ATOM     50  C   UNL A   1      38.797  29.810  28.584  1.00  0.00     0.029 A 
ATOM     51  C   UNL A   1      39.731  29.538  29.673  1.00  0.00     0.049 A 
ATOM     52  H   UNL A   1      39.795  30.444  31.546  1.00  0.00     0.167 HD
ATOM     53  C   UNL A   1      39.872  32.508  35.402  1.00  0.00     0.037 A 
ATOM     54  C   UNL A   1      40.726  28.632  29.639  1.00  0.00     0.037 A 
ATOM     55  C   UNL A   1      40.895  31.500  35.496  1.00  0.00     0.049 A 
ATOM     56  C   UNL A   1      41.582  28.436  30.858  1.00  0.00     0.074 A 
ATOM     57  C   UNL A   1      41.710  31.193  36.571  1.00  0.00     0.029 A 
ATOM     58  N   UNL A   1      41.246  30.634  34.469  1.00  0.00    -0.354 N 
ATOM     59  N   UNL A   1      41.535  29.057  32.012  1.00  0.00    -0.248 NA
ATOM     60  C   UNL A   1      42.623  27.402  30.777  1.00  0.00     0.031 C 
ATOM     61  C   UNL A   1      42.585  30.172  36.181  1.00  0.00     0.029 A 
ATOM     62  C   UNL A   1      42.284  29.809  34.879  1.00  0.00     0.049 A 
ATOM     63  H   UNL A   1      40.823  30.610  33.581  1.00  0.00     0.167 HD
ATOM     64  C   UNL A   1      42.523  28.482  32.797  1.00  0.00     0.074 A 
ATOM     65  C   UNL A   1      43.137  27.441  31.997  1.00  0.00     0.031 C 
ATOM     66  C   UNL A   1      42.890  28.785  34.066  1.00  0.00     0.037 A 
BRANCH  53  67
ATOM     67  C   UNL A   1      39.672  33.429  36.571  1.00  0.00     0.064 A 
ATOM     68  C   UNL A   1      38.851  33.076  37.654  1.00  0.00     0.173 A 
ATOM     69  C   UNL A   1      40.334  34.665  36.627  1.00  0.00     0.173 A 
ATOM     70  F   UNL A   1      38.188  31.911  37.647  1.00  0.00    -0.203 F 
ATOM     71  C   UNL A   1      38.677  33.940  38.732  1.00  0.00     0.198 A 
ATOM     72  C   UNL A   1      40.180  35.513  37.721  1.00  0.00     0.198 A 
ATOM     73  F   UNL A   1      41.134  35.049  35.621  1.00  0.00    -0.203 F 
ATOM     74  F   UNL A   1      37.848  33.603  39.731  1.00  0.00    -0.200 F 
ATOM     75  C   UNL A   1      39.345  35.153  38.768  1.00  0.00     0.200 A 
ATOM     76  F   UNL A   1      40.837  36.680  37.759  1.00  0.00    -0.200 F 
ATOM     77  F   UNL A   1      39.181  35.982  39.809  1.00  0.00    -0.200 F 
ENDBRANCH  53  67
BRANCH  54  78
ATOM     78  C   UNL A   1      40.936  27.813  28.417  1.00  0.00     0.064 A 
ATOM     79  C   UNL A   1      41.832  28.221  27.422  1.00  0.00     0.173 A 
ATOM     80  C   UNL A   1      40.251  26.604  28.225  1.00  0.00     0.173 A 
ATOM     81  F   UNL A   1      42.496  29.380  27.552  1.00  0.00    -0.203 F 
ATOM     82  C   UNL A   1      42.025  27.460  26.270  1.00  0.00     0.198 A 
ATOM     83  C   UNL A   1      40.464  25.830  27.086  1.00  0.00     0.198 A 
ATOM     84  F   UNL A   1      39.387  26.166  29.153  1.00  0.00    -0.203 F 
ATOM     85  F   UNL A   1      42.858  27.894  25.315  1.00  0.00    -0.200 F 
ATOM     86  C   UNL A   1      41.345  26.262  26.106  1.00  0.00     0.200 A 
ATOM     87  F   UNL A   1      39.817  24.666  26.940  1.00  0.00    -0.200 F 
ATOM     88  F   UNL A   1      41.535  25.527  25.003  1.00  0.00    -0.200 F 
ENDBRANCH  54  78
BRANCH  66  89
ATOM     89  C   UNL A   1      44.000  27.973  34.668  1.00  0.00     0.064 A 
ATOM     90  C   UNL A   1      45.339  28.387  34.590  1.00  0.00     0.173 A 
ATOM     91  C   UNL A   1      43.721  26.776  35.342  1.00  0.00     0.173 A 
ATOM     92  F   UNL A   1      45.659  29.518  33.942  1.00  0.00    -0.203 F 
ATOM     93  C   UNL A   1      46.360  27.614  35.136  1.00  0.00     0.198 A 
ATOM     94  C   UNL A   1      44.742  26.020  35.913  1.00  0.00     0.198 A 
ATOM     95  F   UNL A   1      42.457  26.338  35.451  1.00  0.00    -0.203 F 
ATOM     96  F   UNL A   1      47.635  28.000  34.999  1.00  0.00    -0.200 F 
ATOM     97  C   UNL A   1      46.061  26.435  35.800  1.00  0.00     0.200 A 
ATOM     98  F   UNL A   1      44.450  24.887  36.566  1.00  0.00    -0.200 F 
ATOM     99  F   UNL A   1      47.045  25.691  36.325  1.00  0.00    -0.200 F 
ENDBRANCH  66  89
ENDBRANCH  40  41
ENDBRANCH  32  35
ENDBRANCH  30  31
ENDBRANCH  29  30
ENDBRANCH  28  29
ENDBRANCH   1  28
TORSDOF 17
ENDMDL
