MODEL 1
REMARK VINA RESULT:     -13.0      0.000      0.000
REMARK SMILES Cc1ccccc1OCCN1C(=O)CC[C@H](C(=O)NCCCCCCNC(=O)c2ccc(-c3c4nc(c(-c5c(F)c(F)c(F)c(F)c5F)c5ccc([nH]5)c(-c5c(F)c(F)c(F)c(F)c5F)c5nc(c(-c6c(F)c(F)c(F)c(F)c6F)c6ccc3[nH]6)C=C5)C=C4)cc2)[C@@H]1c1ccco1
REMARK SMILES IDX 21 1 20 2 19 3 17 4 18 5 16 7 11 8 12 9 92 10 13 11 14 12
REMARK SMILES IDX 15 13 10 14 9 15 8 16 7 17 1 18 2 19 3 20 4 21 6 22 5 23
REMARK SMILES IDX 93 24 94 25 97 26 95 27 96 28 22 29 23 30 24 31 25 32 26 33
REMARK SMILES IDX 27 34 28 36 29 37 30 38 91 39 31 40 90 41 32 42 33 43 34 44
REMARK SMILES IDX 84 45 35 46 89 47 83 48 85 49 36 50 88 51 82 52 81 53 37 55
REMARK SMILES IDX 69 56 49 57 68 58 50 59 53 60 67 61 86 62 51 63 52 64 66 66
REMARK SMILES IDX 87 67 54 68 38 69 39 70 47 71 40 72 41 73 45 74 48 75 42 76
REMARK SMILES IDX 43 77 46 78 44 79 70 80 71 81 79 82 72 83 73 84 77 85 80 86
REMARK SMILES IDX 74 87 75 88 78 89 76 90 55 91 56 92 64 93 57 94 58 95 62 96
REMARK SMILES IDX 65 97 59 98 60 99 63 100 61 101
REMARK H PARENT 19 6 26 35 85 54 53 65
REMARK Flexibility Score: inf
ROOT
ATOM      1  C   UNL A   1      32.292  30.610  26.833  1.00  0.00     0.021 C 
ENDROOT
BRANCH   1   2
ATOM      2  C   UNL A   1      32.041  29.865  25.530  1.00  0.00     0.116 C 
BRANCH   2   3
ATOM      3  N   UNL A   1      33.196  29.700  24.679  1.00  0.00    -0.356 N 
ATOM      4  C   UNL A   1      33.652  28.548  24.108  1.00  0.00     0.225 C 
ATOM      5  O   UNL A   1      34.373  28.649  23.110  1.00  0.00    -0.275 OA
ATOM      6  H   UNL A   1      33.716  30.515  24.488  1.00  0.00     0.163 HD
BRANCH   4   7
ATOM      7  C   UNL A   1      33.303  27.164  24.660  1.00  0.00     0.109 C 
ATOM      8  N   UNL A   1      31.671  25.251  24.651  1.00  0.00    -0.328 N 
ATOM      9  C   UNL A   1      31.465  25.276  26.019  1.00  0.00     0.223 C 
ATOM     10  C   UNL A   1      32.188  26.416  23.915  1.00  0.00     0.164 C 
ATOM     11  O   UNL A   1      30.766  24.450  26.609  1.00  0.00    -0.275 OA
ATOM     12  C   UNL A   1      32.078  26.410  26.800  1.00  0.00     0.101 C 
ATOM     13  C   UNL A   1      33.287  27.088  26.187  1.00  0.00     0.026 C 
BRANCH   8  14
ATOM     14  C   UNL A   1      31.081  24.139  23.891  1.00  0.00     0.162 C 
BRANCH  14  15
ATOM     15  C   UNL A   1      32.018  22.952  23.623  1.00  0.00     0.251 C 
BRANCH  15  16
ATOM     16  O   UNL A   1      32.760  22.468  24.743  1.00  0.00    -0.491 OA
BRANCH  16  17
ATOM     17  C   UNL A   1      34.065  22.840  24.902  1.00  0.00     0.122 A 
ATOM     18  C   UNL A   1      34.129  22.899  27.465  1.00  0.00     0.048 C 
ATOM     19  C   UNL A   1      34.754  23.025  26.108  1.00  0.00    -0.009 A 
ATOM     20  C   UNL A   1      36.117  23.383  26.056  1.00  0.00     0.007 A 
ATOM     21  C   UNL A   1      36.765  23.616  24.843  1.00  0.00     0.001 A 
ATOM     22  C   UNL A   1      34.714  23.125  23.689  1.00  0.00     0.047 A 
ATOM     23  C   UNL A   1      36.055  23.504  23.655  1.00  0.00     0.004 A 
ENDBRANCH  16  17
ENDBRANCH  15  16
ENDBRANCH  14  15
ENDBRANCH   8  14
BRANCH  10  24
ATOM     24  C   UNL A   1      31.030  27.244  23.428  1.00  0.00     0.127 A 
ATOM     25  C   UNL A   1      29.717  27.354  23.849  1.00  0.00     0.048 A 
ATOM     26  O   UNL A   1      31.260  28.137  22.418  1.00  0.00    -0.467 OA
ATOM     27  C   UNL A   1      29.128  28.383  23.073  1.00  0.00     0.042 A 
ATOM     28  C   UNL A   1      30.115  28.842  22.234  1.00  0.00     0.195 A 
ENDBRANCH  10  24
ENDBRANCH   4   7
ENDBRANCH   2   3
ENDBRANCH   1   2
BRANCH   1  29
ATOM     29  C   UNL A   1      33.741  30.626  27.332  1.00  0.00     0.002 C 
BRANCH  29  30
ATOM     30  C   UNL A   1      34.134  31.681  28.382  1.00  0.00     0.002 C 
BRANCH  30  31
ATOM     31  C   UNL A   1      33.880  33.151  28.046  1.00  0.00     0.021 C 
BRANCH  31  32
ATOM     32  C   UNL A   1      34.480  34.152  29.015  1.00  0.00     0.116 C 
BRANCH  32  33
ATOM     33  N   UNL A   1      33.539  34.740  29.953  1.00  0.00    -0.352 N 
ATOM     34  C   UNL A   1      33.512  34.656  31.338  1.00  0.00     0.251 C 
ATOM     35  H   UNL A   1      32.817  35.273  29.548  1.00  0.00     0.163 HD
ATOM     36  O   UNL A   1      32.584  35.137  31.962  1.00  0.00    -0.269 OA
BRANCH  34  37
ATOM     37  C   UNL A   1      34.691  34.107  32.059  1.00  0.00     0.039 A 
ATOM     38  C   UNL A   1      35.819  34.929  32.191  1.00  0.00     0.014 A 
ATOM     39  C   UNL A   1      34.774  32.759  32.382  1.00  0.00     0.014 A 
ATOM     40  C   UNL A   1      37.071  34.347  32.384  1.00  0.00     0.010 A 
ATOM     41  C   UNL A   1      36.017  32.170  32.431  1.00  0.00     0.010 A 
ATOM     42  C   UNL A   1      37.169  32.960  32.374  1.00  0.00    -0.014 A 
BRANCH  42  43
ATOM     43  C   UNL A   1      38.412  32.220  32.214  1.00  0.00     0.031 A 
ATOM     44  C   UNL A   1      38.440  30.994  31.385  1.00  0.00     0.074 A 
ATOM     45  C   UNL A   1      39.563  32.775  32.659  1.00  0.00     0.049 A 
ATOM     46  N   UNL A   1      39.413  30.149  31.385  1.00  0.00    -0.248 NA
ATOM     47  C   UNL A   1      37.348  30.604  30.498  1.00  0.00     0.031 C 
ATOM     48  C   UNL A   1      40.923  32.430  32.253  1.00  0.00     0.029 A 
ATOM     49  N   UNL A   1      39.740  33.683  33.718  1.00  0.00    -0.354 N 
ATOM     50  C   UNL A   1      39.209  29.267  30.350  1.00  0.00     0.074 A 
ATOM     51  C   UNL A   1      37.891  29.570  29.847  1.00  0.00     0.031 C 
ATOM     52  C   UNL A   1      41.782  32.856  33.191  1.00  0.00     0.029 A 
ATOM     53  C   UNL A   1      40.986  33.344  34.302  1.00  0.00     0.049 A 
ATOM     54  H   UNL A   1      39.127  34.402  33.996  1.00  0.00     0.167 HD
ATOM     55  C   UNL A   1      40.231  28.450  29.969  1.00  0.00     0.037 A 
ATOM     56  C   UNL A   1      41.077  32.878  35.581  1.00  0.00     0.037 A 
ATOM     57  C   UNL A   1      41.394  28.631  30.826  1.00  0.00     0.049 A 
ATOM     58  C   UNL A   1      41.699  31.507  35.694  1.00  0.00     0.074 A 
ATOM     59  C   UNL A   1      42.534  29.411  30.708  1.00  0.00     0.029 A 
ATOM     60  N   UNL A   1      41.326  28.223  32.150  1.00  0.00    -0.354 N 
ATOM     61  N   UNL A   1      41.769  30.664  34.703  1.00  0.00    -0.248 NA
ATOM     62  C   UNL A   1      42.274  30.966  36.924  1.00  0.00     0.031 C 
ATOM     63  C   UNL A   1      43.136  29.501  31.986  1.00  0.00     0.029 A 
ATOM     64  C   UNL A   1      42.374  28.758  32.871  1.00  0.00     0.049 A 
ATOM     65  H   UNL A   1      40.630  27.636  32.523  1.00  0.00     0.167 HD
ATOM     66  C   UNL A   1      42.363  29.503  35.124  1.00  0.00     0.074 A 
ATOM     67  C   UNL A   1      42.672  29.745  36.520  1.00  0.00     0.031 C 
ATOM     68  C   UNL A   1      42.538  28.444  34.280  1.00  0.00     0.037 A 
BRANCH  55  69
ATOM     69  C   UNL A   1      40.260  27.662  28.685  1.00  0.00     0.064 A 
ATOM     70  C   UNL A   1      39.625  26.403  28.596  1.00  0.00     0.173 A 
ATOM     71  C   UNL A   1      40.916  28.082  27.515  1.00  0.00     0.173 A 
ATOM     72  F   UNL A   1      38.906  25.907  29.611  1.00  0.00    -0.203 F 
ATOM     73  C   UNL A   1      39.715  25.596  27.460  1.00  0.00     0.198 A 
ATOM     74  C   UNL A   1      41.052  27.252  26.397  1.00  0.00     0.198 A 
ATOM     75  F   UNL A   1      41.403  29.325  27.401  1.00  0.00    -0.203 F 
ATOM     76  F   UNL A   1      39.090  24.411  27.434  1.00  0.00    -0.200 F 
ATOM     77  C   UNL A   1      40.457  26.007  26.372  1.00  0.00     0.200 A 
ATOM     78  F   UNL A   1      41.765  27.671  25.341  1.00  0.00    -0.200 F 
ATOM     79  F   UNL A   1      40.578  25.216  25.297  1.00  0.00    -0.200 F 
ENDBRANCH  55  69
BRANCH  56  80
ATOM     80  C   UNL A   1      40.012  33.422  36.464  1.00  0.00     0.064 A 
ATOM     81  C   UNL A   1      38.929  32.578  36.779  1.00  0.00     0.173 A 
ATOM     82  C   UNL A   1      40.259  34.505  37.315  1.00  0.00     0.173 A 
ATOM     83  F   UNL A   1      38.652  31.526  35.992  1.00  0.00    -0.203 F 
ATOM     84  C   UNL A   1      38.217  32.727  37.967  1.00  0.00     0.198 A 
ATOM     85  C   UNL A   1      39.531  34.661  38.498  1.00  0.00     0.198 A 
ATOM     86  F   UNL A   1      41.285  35.335  37.077  1.00  0.00    -0.203 F 
ATOM     87  F   UNL A   1      37.279  31.829  38.301  1.00  0.00    -0.200 F 
ATOM     88  C   UNL A   1      38.543  33.748  38.842  1.00  0.00     0.200 A 
ATOM     89  F   UNL A   1      39.861  35.633  39.360  1.00  0.00    -0.200 F 
ATOM     90  F   UNL A   1      37.938  33.828  40.035  1.00  0.00    -0.200 F 
ENDBRANCH  56  80
BRANCH  68  91
ATOM     91  C   UNL A   1      42.938  27.034  34.649  1.00  0.00     0.064 A 
ATOM     92  C   UNL A   1      42.033  26.035  35.034  1.00  0.00     0.173 A 
ATOM     93  C   UNL A   1      44.274  26.597  34.444  1.00  0.00     0.173 A 
ATOM     94  F   UNL A   1      40.725  26.291  35.165  1.00  0.00    -0.203 F 
ATOM     95  C   UNL A   1      42.435  24.710  35.235  1.00  0.00     0.198 A 
ATOM     96  C   UNL A   1      44.658  25.266  34.584  1.00  0.00     0.198 A 
ATOM     97  F   UNL A   1      45.242  27.445  34.067  1.00  0.00    -0.203 F 
ATOM     98  F   UNL A   1      41.536  23.799  35.631  1.00  0.00    -0.200 F 
ATOM     99  C   UNL A   1      43.741  24.322  34.992  1.00  0.00     0.200 A 
ATOM    100  F   UNL A   1      45.916  24.901  34.295  1.00  0.00    -0.200 F 
ATOM    101  F   UNL A   1      44.106  23.041  35.128  1.00  0.00    -0.200 F 
ENDBRANCH  68  91
ENDBRANCH  42  43
ENDBRANCH  34  37
ENDBRANCH  32  33
ENDBRANCH  31  32
ENDBRANCH  30  31
ENDBRANCH  29  30
ENDBRANCH   1  29
TORSDOF 18
ENDMDL
MODEL 2
REMARK VINA RESULT:     -12.9      5.117     10.817
REMARK SMILES Cc1ccccc1OCCN1C(=O)CC[C@H](C(=O)NCCCCCCNC(=O)c2ccc(-c3c4nc(c(-c5c(F)c(F)c(F)c(F)c5F)c5ccc([nH]5)c(-c5c(F)c(F)c(F)c(F)c5F)c5nc(c(-c6c(F)c(F)c(F)c(F)c6F)c6ccc3[nH]6)C=C5)C=C4)cc2)[C@@H]1c1ccco1
REMARK SMILES IDX 21 1 20 2 19 3 17 4 18 5 16 7 11 8 12 9 92 10 13 11 14 12
REMARK SMILES IDX 15 13 10 14 9 15 8 16 7 17 1 18 2 19 3 20 4 21 6 22 5 23
REMARK SMILES IDX 93 24 94 25 97 26 95 27 96 28 22 29 23 30 24 31 25 32 26 33
REMARK SMILES IDX 27 34 28 36 29 37 30 38 91 39 31 40 90 41 32 42 33 43 34 44
REMARK SMILES IDX 84 45 35 46 89 47 83 48 85 49 36 50 88 51 82 52 81 53 37 55
REMARK SMILES IDX 69 56 49 57 68 58 50 59 53 60 67 61 86 62 51 63 52 64 66 66
REMARK SMILES IDX 87 67 54 68 38 69 39 70 47 71 40 72 41 73 45 74 48 75 42 76
REMARK SMILES IDX 43 77 46 78 44 79 70 80 71 81 79 82 72 83 73 84 77 85 80 86
REMARK SMILES IDX 74 87 75 88 78 89 76 90 55 91 56 92 64 93 57 94 58 95 62 96
REMARK SMILES IDX 65 97 59 98 60 99 63 100 61 101
REMARK H PARENT 19 6 26 35 85 54 53 65
REMARK Flexibility Score: inf
ROOT
ATOM      1  C   UNL A   1      38.440  24.062  26.574  1.00  0.00     0.021 C 
ENDROOT
BRANCH   1   2
ATOM      2  C   UNL A   1      37.179  23.582  25.871  1.00  0.00     0.116 C 
BRANCH   2   3
ATOM      3  N   UNL A   1      36.085  23.217  26.740  1.00  0.00    -0.356 N 
ATOM      4  C   UNL A   1      35.055  22.365  26.469  1.00  0.00     0.225 C 
ATOM      5  O   UNL A   1      34.464  21.858  27.427  1.00  0.00    -0.275 OA
ATOM      6  H   UNL A   1      36.082  23.631  27.633  1.00  0.00     0.163 HD
BRANCH   4   7
ATOM      7  C   UNL A   1      34.620  22.031  25.040  1.00  0.00     0.109 C 
ATOM      8  N   UNL A   1      33.161  22.659  23.090  1.00  0.00    -0.328 N 
ATOM      9  C   UNL A   1      32.546  21.424  23.011  1.00  0.00     0.223 C 
ATOM     10  C   UNL A   1      33.823  23.129  24.319  1.00  0.00     0.164 C 
ATOM     11  O   UNL A   1      31.738  21.130  22.127  1.00  0.00    -0.275 OA
ATOM     12  C   UNL A   1      32.835  20.425  24.102  1.00  0.00     0.101 C 
ATOM     13  C   UNL A   1      34.140  20.592  24.854  1.00  0.00     0.026 C 
BRANCH   8  14
ATOM     14  C   UNL A   1      32.886  23.630  22.021  1.00  0.00     0.162 C 
BRANCH  14  15
ATOM     15  C   UNL A   1      33.653  24.958  22.121  1.00  0.00     0.251 C 
BRANCH  15  16
ATOM     16  O   UNL A   1      33.006  26.103  21.568  1.00  0.00    -0.491 OA
BRANCH  16  17
ATOM     17  C   UNL A   1      32.288  26.934  22.381  1.00  0.00     0.122 A 
ATOM     18  C   UNL A   1      34.161  28.577  22.988  1.00  0.00     0.048 C 
ATOM     19  C   UNL A   1      32.745  28.087  23.033  1.00  0.00    -0.009 A 
ATOM     20  C   UNL A   1      31.830  28.828  23.810  1.00  0.00     0.007 A 
ATOM     21  C   UNL A   1      30.514  28.402  23.990  1.00  0.00     0.001 A 
ATOM     22  C   UNL A   1      30.975  26.489  22.611  1.00  0.00     0.047 A 
ATOM     23  C   UNL A   1      30.090  27.218  23.403  1.00  0.00     0.004 A 
ENDBRANCH  16  17
ENDBRANCH  15  16
ENDBRANCH  14  15
ENDBRANCH   8  14
BRANCH  10  24
ATOM     24  C   UNL A   1      32.833  23.899  25.148  1.00  0.00     0.127 A 
ATOM     25  C   UNL A   1      32.837  25.188  25.651  1.00  0.00     0.048 A 
ATOM     26  O   UNL A   1      31.642  23.298  25.447  1.00  0.00    -0.467 OA
ATOM     27  C   UNL A   1      31.575  25.387  26.262  1.00  0.00     0.042 A 
ATOM     28  C   UNL A   1      30.877  24.215  26.092  1.00  0.00     0.195 A 
ENDBRANCH  10  24
ENDBRANCH   4   7
ENDBRANCH   2   3
ENDBRANCH   1   2
BRANCH   1  29
ATOM     29  C   UNL A   1      39.636  23.105  26.539  1.00  0.00     0.002 C 
BRANCH  29  30
ATOM     30  C   UNL A   1      39.361  21.612  26.281  1.00  0.00     0.002 C 
BRANCH  30  31
ATOM     31  C   UNL A   1      40.541  20.642  26.370  1.00  0.00     0.021 C 
BRANCH  31  32
ATOM     32  C   UNL A   1      41.911  21.267  26.194  1.00  0.00     0.116 C 
BRANCH  32  33
ATOM     33  N   UNL A   1      42.828  20.512  25.357  1.00  0.00    -0.352 N 
ATOM     34  C   UNL A   1      44.036  20.907  24.801  1.00  0.00     0.251 C 
ATOM     35  H   UNL A   1      42.551  19.589  25.155  1.00  0.00     0.163 HD
ATOM     36  O   UNL A   1      44.630  20.166  24.039  1.00  0.00    -0.269 OA
BRANCH  34  37
ATOM     37  C   UNL A   1      44.669  22.173  25.255  1.00  0.00     0.039 A 
ATOM     38  C   UNL A   1      45.301  22.177  26.507  1.00  0.00     0.014 A 
ATOM     39  C   UNL A   1      44.445  23.370  24.588  1.00  0.00     0.014 A 
ATOM     40  C   UNL A   1      45.457  23.381  27.191  1.00  0.00     0.010 A 
ATOM     41  C   UNL A   1      44.467  24.540  25.312  1.00  0.00     0.010 A 
ATOM     42  C   UNL A   1      44.919  24.537  26.635  1.00  0.00    -0.014 A 
BRANCH  42  43
ATOM     43  C   UNL A   1      44.692  25.776  27.364  1.00  0.00     0.031 A 
ATOM     44  C   UNL A   1      43.331  26.354  27.431  1.00  0.00     0.074 A 
ATOM     45  C   UNL A   1      45.687  26.271  28.135  1.00  0.00     0.049 A 
ATOM     46  N   UNL A   1      43.079  27.553  27.832  1.00  0.00    -0.248 NA
ATOM     47  C   UNL A   1      42.132  25.627  27.022  1.00  0.00     0.031 C 
ATOM     48  C   UNL A   1      45.561  27.224  29.235  1.00  0.00     0.029 A 
ATOM     49  N   UNL A   1      47.076  26.123  27.966  1.00  0.00    -0.354 N 
ATOM     50  C   UNL A   1      41.717  27.674  27.977  1.00  0.00     0.074 A 
ATOM     51  C   UNL A   1      41.167  26.458  27.427  1.00  0.00     0.031 C 
ATOM     52  C   UNL A   1      46.753  27.797  29.458  1.00  0.00     0.029 A 
ATOM     53  C   UNL A   1      47.642  27.347  28.403  1.00  0.00     0.049 A 
ATOM     54  H   UNL A   1      47.554  25.336  27.617  1.00  0.00     0.167 HD
ATOM     55  C   UNL A   1      41.218  28.750  28.646  1.00  0.00     0.037 A 
ATOM     56  C   UNL A   1      48.309  28.176  27.548  1.00  0.00     0.037 A 
ATOM     57  C   UNL A   1      42.284  29.656  29.050  1.00  0.00     0.049 A 
ATOM     58  C   UNL A   1      47.711  29.558  27.440  1.00  0.00     0.074 A 
ATOM     59  C   UNL A   1      43.006  29.791  30.225  1.00  0.00     0.029 A 
ATOM     60  N   UNL A   1      42.975  30.360  28.075  1.00  0.00    -0.354 N 
ATOM     61  N   UNL A   1      46.482  29.840  27.770  1.00  0.00    -0.248 NA
ATOM     62  C   UNL A   1      48.432  30.725  26.938  1.00  0.00     0.031 C 
ATOM     63  C   UNL A   1      44.164  30.555  29.941  1.00  0.00     0.029 A 
ATOM     64  C   UNL A   1      44.129  30.901  28.601  1.00  0.00     0.049 A 
ATOM     65  H   UNL A   1      42.684  30.460  27.140  1.00  0.00     0.167 HD
ATOM     66  C   UNL A   1      46.233  31.167  27.535  1.00  0.00     0.074 A 
ATOM     67  C   UNL A   1      47.489  31.682  27.025  1.00  0.00     0.031 C 
ATOM     68  C   UNL A   1      45.007  31.716  27.778  1.00  0.00     0.037 A 
BRANCH  55  69
ATOM     69  C   UNL A   1      39.799  28.865  29.141  1.00  0.00     0.064 A 
ATOM     70  C   UNL A   1      38.784  29.382  28.305  1.00  0.00     0.173 A 
ATOM     71  C   UNL A   1      39.380  28.506  30.433  1.00  0.00     0.173 A 
ATOM     72  F   UNL A   1      39.023  29.704  27.027  1.00  0.00    -0.203 F 
ATOM     73  C   UNL A   1      37.480  29.601  28.756  1.00  0.00     0.198 A 
ATOM     74  C   UNL A   1      38.089  28.774  30.901  1.00  0.00     0.198 A 
ATOM     75  F   UNL A   1      40.193  27.839  31.265  1.00  0.00    -0.203 F 
ATOM     76  F   UNL A   1      36.559  30.093  27.915  1.00  0.00    -0.200 F 
ATOM     77  C   UNL A   1      37.141  29.328  30.064  1.00  0.00     0.200 A 
ATOM     78  F   UNL A   1      37.771  28.490  32.173  1.00  0.00    -0.200 F 
ATOM     79  F   UNL A   1      35.902  29.577  30.510  1.00  0.00    -0.200 F 
ENDBRANCH  55  69
BRANCH  56  80
ATOM     80  C   UNL A   1      48.991  27.437  26.453  1.00  0.00     0.064 A 
ATOM     81  C   UNL A   1      48.347  27.382  25.202  1.00  0.00     0.173 A 
ATOM     82  C   UNL A   1      50.371  27.208  26.483  1.00  0.00     0.173 A 
ATOM     83  F   UNL A   1      47.023  27.595  25.121  1.00  0.00    -0.203 F 
ATOM     84  C   UNL A   1      49.072  27.248  24.020  1.00  0.00     0.198 A 
ATOM     85  C   UNL A   1      51.093  27.057  25.296  1.00  0.00     0.198 A 
ATOM     86  F   UNL A   1      51.043  27.262  27.642  1.00  0.00    -0.203 F 
ATOM     87  F   UNL A   1      48.445  27.332  22.838  1.00  0.00    -0.200 F 
ATOM     88  C   UNL A   1      50.449  27.121  24.068  1.00  0.00     0.200 A 
ATOM     89  F   UNL A   1      52.429  26.959  25.337  1.00  0.00    -0.200 F 
ATOM     90  F   UNL A   1      51.161  27.104  22.932  1.00  0.00    -0.200 F 
ENDBRANCH  56  80
BRANCH  68  91
ATOM     91  C   UNL A   1      44.509  33.075  27.344  1.00  0.00     0.064 A 
ATOM     92  C   UNL A   1      43.925  33.337  26.096  1.00  0.00     0.173 A 
ATOM     93  C   UNL A   1      44.448  34.142  28.279  1.00  0.00     0.173 A 
ATOM     94  F   UNL A   1      43.827  32.386  25.158  1.00  0.00    -0.203 F 
ATOM     95  C   UNL A   1      43.357  34.579  25.792  1.00  0.00     0.198 A 
ATOM     96  C   UNL A   1      43.827  35.356  27.994  1.00  0.00     0.198 A 
ATOM     97  F   UNL A   1      44.961  34.028  29.513  1.00  0.00    -0.203 F 
ATOM     98  F   UNL A   1      42.839  34.788  24.574  1.00  0.00    -0.200 F 
ATOM     99  C   UNL A   1      43.292  35.580  26.744  1.00  0.00     0.200 A 
ATOM    100  F   UNL A   1      43.727  36.294  28.947  1.00  0.00    -0.200 F 
ATOM    101  F   UNL A   1      42.693  36.745  26.466  1.00  0.00    -0.200 F 
ENDBRANCH  68  91
ENDBRANCH  42  43
ENDBRANCH  34  37
ENDBRANCH  32  33
ENDBRANCH  31  32
ENDBRANCH  30  31
ENDBRANCH  29  30
ENDBRANCH   1  29
TORSDOF 18
ENDMDL
MODEL 3
REMARK VINA RESULT:     -12.8      2.820      4.816
REMARK SMILES Cc1ccccc1OCCN1C(=O)CC[C@H](C(=O)NCCCCCCNC(=O)c2ccc(-c3c4nc(c(-c5c(F)c(F)c(F)c(F)c5F)c5ccc([nH]5)c(-c5c(F)c(F)c(F)c(F)c5F)c5nc(c(-c6c(F)c(F)c(F)c(F)c6F)c6ccc3[nH]6)C=C5)C=C4)cc2)[C@@H]1c1ccco1
REMARK SMILES IDX 21 1 20 2 19 3 17 4 18 5 16 7 11 8 12 9 92 10 13 11 14 12
REMARK SMILES IDX 15 13 10 14 9 15 8 16 7 17 1 18 2 19 3 20 4 21 6 22 5 23
REMARK SMILES IDX 93 24 94 25 97 26 95 27 96 28 22 29 23 30 24 31 25 32 26 33
REMARK SMILES IDX 27 34 28 36 29 37 30 38 91 39 31 40 90 41 32 42 33 43 34 44
REMARK SMILES IDX 84 45 35 46 89 47 83 48 85 49 36 50 88 51 82 52 81 53 37 55
REMARK SMILES IDX 69 56 49 57 68 58 50 59 53 60 67 61 86 62 51 63 52 64 66 66
REMARK SMILES IDX 87 67 54 68 38 69 39 70 47 71 40 72 41 73 45 74 48 75 42 76
REMARK SMILES IDX 43 77 46 78 44 79 70 80 71 81 79 82 72 83 73 84 77 85 80 86
REMARK SMILES IDX 74 87 75 88 78 89 76 90 55 91 56 92 64 93 57 94 58 95 62 96
REMARK SMILES IDX 65 97 59 98 60 99 63 100 61 101
REMARK H PARENT 19 6 26 35 85 54 53 65
REMARK Flexibility Score: inf
ROOT
ATOM      1  C   UNL A   1      33.544  28.144  26.261  1.00  0.00     0.021 C 
ENDROOT
BRANCH   1   2
ATOM      2  C   UNL A   1      33.236  26.689  25.938  1.00  0.00     0.116 C 
BRANCH   2   3
ATOM      3  N   UNL A   1      31.980  26.193  26.449  1.00  0.00    -0.356 N 
ATOM      4  C   UNL A   1      31.211  25.190  25.937  1.00  0.00     0.225 C 
ATOM      5  O   UNL A   1      30.416  24.631  26.699  1.00  0.00    -0.275 OA
ATOM      6  H   UNL A   1      31.639  26.630  27.263  1.00  0.00     0.163 HD
BRANCH   4   7
ATOM      7  C   UNL A   1      31.301  24.751  24.474  1.00  0.00     0.109 C 
ATOM      8  N   UNL A   1      32.519  23.353  22.774  1.00  0.00    -0.328 N 
ATOM      9  C   UNL A   1      32.786  24.415  21.930  1.00  0.00     0.223 C 
ATOM     10  C   UNL A   1      32.211  23.544  24.201  1.00  0.00     0.164 C 
ATOM     11  O   UNL A   1      33.334  24.282  20.833  1.00  0.00    -0.275 OA
ATOM     12  C   UNL A   1      32.447  25.801  22.416  1.00  0.00     0.101 C 
ATOM     13  C   UNL A   1      31.371  25.909  23.478  1.00  0.00     0.026 C 
BRANCH   8  14
ATOM     14  C   UNL A   1      32.841  22.001  22.295  1.00  0.00     0.162 C 
BRANCH  14  15
ATOM     15  C   UNL A   1      31.985  20.870  22.886  1.00  0.00     0.251 C 
BRANCH  15  16
ATOM     16  O   UNL A   1      32.437  20.316  24.121  1.00  0.00    -0.491 OA
BRANCH  16  17
ATOM     17  C   UNL A   1      33.161  19.157  24.119  1.00  0.00     0.122 A 
ATOM     18  C   UNL A   1      35.392  20.108  24.952  1.00  0.00     0.048 C 
ATOM     19  C   UNL A   1      34.496  18.990  24.510  1.00  0.00    -0.009 A 
ATOM     20  C   UNL A   1      35.054  17.695  24.461  1.00  0.00     0.007 A 
ATOM     21  C   UNL A   1      34.330  16.607  23.975  1.00  0.00     0.001 A 
ATOM     22  C   UNL A   1      32.459  18.064  23.585  1.00  0.00     0.047 A 
ATOM     23  C   UNL A   1      33.033  16.796  23.518  1.00  0.00     0.004 A 
ENDBRANCH  16  17
ENDBRANCH  15  16
ENDBRANCH  14  15
ENDBRANCH   8  14
BRANCH  10  24
ATOM     24  C   UNL A   1      33.487  23.469  24.994  1.00  0.00     0.127 A 
ATOM     25  C   UNL A   1      34.746  24.008  24.794  1.00  0.00     0.048 A 
ATOM     26  O   UNL A   1      33.459  22.814  26.194  1.00  0.00    -0.467 OA
ATOM     27  C   UNL A   1      35.511  23.686  25.942  1.00  0.00     0.042 A 
ATOM     28  C   UNL A   1      34.675  22.978  26.773  1.00  0.00     0.195 A 
ENDBRANCH  10  24
ENDBRANCH   4   7
ENDBRANCH   2   3
ENDBRANCH   1   2
BRANCH   1  29
ATOM     29  C   UNL A   1      32.684  28.787  27.354  1.00  0.00     0.002 C 
BRANCH  29  30
ATOM     30  C   UNL A   1      31.819  30.002  26.973  1.00  0.00     0.002 C 
BRANCH  30  31
ATOM     31  C   UNL A   1      32.443  31.393  27.105  1.00  0.00     0.021 C 
BRANCH  31  32
ATOM     32  C   UNL A   1      33.935  31.414  27.371  1.00  0.00     0.116 C 
BRANCH  32  33
ATOM     33  N   UNL A   1      34.334  32.114  28.580  1.00  0.00    -0.352 N 
ATOM     34  C   UNL A   1      35.259  31.742  29.544  1.00  0.00     0.251 C 
ATOM     35  H   UNL A   1      33.882  32.975  28.737  1.00  0.00     0.163 HD
ATOM     36  O   UNL A   1      35.397  32.413  30.551  1.00  0.00    -0.269 OA
BRANCH  34  37
ATOM     37  C   UNL A   1      36.181  30.607  29.272  1.00  0.00     0.039 A 
ATOM     38  C   UNL A   1      36.396  29.677  30.299  1.00  0.00     0.014 A 
ATOM     39  C   UNL A   1      36.984  30.588  28.140  1.00  0.00     0.014 A 
ATOM     40  C   UNL A   1      37.568  28.923  30.305  1.00  0.00     0.010 A 
ATOM     41  C   UNL A   1      38.204  29.954  28.210  1.00  0.00     0.010 A 
ATOM     42  C   UNL A   1      38.521  29.165  29.320  1.00  0.00    -0.014 A 
BRANCH  42  43
ATOM     43  C   UNL A   1      39.907  28.728  29.386  1.00  0.00     0.031 A 
ATOM     44  C   UNL A   1      40.279  27.378  28.906  1.00  0.00     0.074 A 
ATOM     45  C   UNL A   1      40.863  29.634  29.696  1.00  0.00     0.049 A 
ATOM     46  N   UNL A   1      41.414  26.817  29.147  1.00  0.00    -0.248 NA
ATOM     47  C   UNL A   1      39.380  26.530  28.127  1.00  0.00     0.031 C 
ATOM     48  C   UNL A   1      42.295  29.535  29.423  1.00  0.00     0.029 A 
ATOM     49  N   UNL A   1      40.742  30.792  30.485  1.00  0.00    -0.354 N 
ATOM     50  C   UNL A   1      41.500  25.684  28.373  1.00  0.00     0.074 A 
ATOM     51  C   UNL A   1      40.194  25.529  27.780  1.00  0.00     0.031 C 
ATOM     52  C   UNL A   1      42.955  30.372  30.236  1.00  0.00     0.029 A 
ATOM     53  C   UNL A   1      41.980  30.916  31.164  1.00  0.00     0.049 A 
ATOM     54  H   UNL A   1      39.963  31.389  30.553  1.00  0.00     0.167 HD
ATOM     55  C   UNL A   1      42.707  25.066  28.241  1.00  0.00     0.037 A 
ATOM     56  C   UNL A   1      42.067  30.817  32.522  1.00  0.00     0.037 A 
ATOM     57  C   UNL A   1      43.724  25.726  29.045  1.00  0.00     0.049 A 
ATOM     58  C   UNL A   1      42.971  29.706  33.002  1.00  0.00     0.074 A 
ATOM     59  C   UNL A   1      44.665  26.701  28.753  1.00  0.00     0.029 A 
ATOM     60  N   UNL A   1      43.641  25.656  30.428  1.00  0.00    -0.354 N 
ATOM     61  N   UNL A   1      43.310  28.685  32.266  1.00  0.00    -0.248 NA
ATOM     62  C   UNL A   1      43.549  29.641  34.342  1.00  0.00     0.031 C 
ATOM     63  C   UNL A   1      45.124  27.247  29.977  1.00  0.00     0.029 A 
ATOM     64  C   UNL A   1      44.478  26.586  31.007  1.00  0.00     0.049 A 
ATOM     65  H   UNL A   1      43.066  25.031  30.926  1.00  0.00     0.167 HD
ATOM     66  C   UNL A   1      44.114  27.842  32.988  1.00  0.00     0.074 A 
ATOM     67  C   UNL A   1      44.244  28.490  34.279  1.00  0.00     0.031 C 
ATOM     68  C   UNL A   1      44.592  26.680  32.453  1.00  0.00     0.037 A 
BRANCH  55  69
ATOM     69  C   UNL A   1      43.019  24.015  27.207  1.00  0.00     0.064 A 
ATOM     70  C   UNL A   1      42.713  22.656  27.444  1.00  0.00     0.173 A 
ATOM     71  C   UNL A   1      43.639  24.279  25.973  1.00  0.00     0.173 A 
ATOM     72  F   UNL A   1      42.062  22.266  28.547  1.00  0.00    -0.203 F 
ATOM     73  C   UNL A   1      43.078  21.639  26.559  1.00  0.00     0.198 A 
ATOM     74  C   UNL A   1      44.052  23.256  25.112  1.00  0.00     0.198 A 
ATOM     75  F   UNL A   1      43.820  25.535  25.543  1.00  0.00    -0.203 F 
ATOM     76  F   UNL A   1      42.759  20.368  26.838  1.00  0.00    -0.200 F 
ATOM     77  C   UNL A   1      43.777  21.937  25.408  1.00  0.00     0.200 A 
ATOM     78  F   UNL A   1      44.719  23.562  23.989  1.00  0.00    -0.200 F 
ATOM     79  F   UNL A   1      44.164  20.958  24.578  1.00  0.00    -0.200 F 
ENDBRANCH  55  69
BRANCH  56  80
ATOM     80  C   UNL A   1      40.838  31.293  33.210  1.00  0.00     0.064 A 
ATOM     81  C   UNL A   1      40.653  32.684  33.329  1.00  0.00     0.173 A 
ATOM     82  C   UNL A   1      39.708  30.475  33.322  1.00  0.00     0.173 A 
ATOM     83  F   UNL A   1      41.707  33.509  33.228  1.00  0.00    -0.203 F 
ATOM     84  C   UNL A   1      39.378  33.239  33.411  1.00  0.00     0.198 A 
ATOM     85  C   UNL A   1      38.432  31.036  33.422  1.00  0.00     0.198 A 
ATOM     86  F   UNL A   1      39.818  29.144  33.203  1.00  0.00    -0.203 F 
ATOM     87  F   UNL A   1      39.227  34.571  33.389  1.00  0.00    -0.200 F 
ATOM     88  C   UNL A   1      38.267  32.414  33.422  1.00  0.00     0.200 A 
ATOM     89  F   UNL A   1      37.352  30.241  33.408  1.00  0.00    -0.200 F 
ATOM     90  F   UNL A   1      37.036  32.946  33.389  1.00  0.00    -0.200 F 
ENDBRANCH  56  80
BRANCH  68  91
ATOM     91  C   UNL A   1      45.267  25.544  33.185  1.00  0.00     0.064 A 
ATOM     92  C   UNL A   1      46.652  25.318  33.182  1.00  0.00     0.173 A 
ATOM     93  C   UNL A   1      44.522  24.732  34.081  1.00  0.00     0.173 A 
ATOM     94  F   UNL A   1      47.481  26.080  32.458  1.00  0.00    -0.203 F 
ATOM     95  C   UNL A   1      47.242  24.335  33.983  1.00  0.00     0.198 A 
ATOM     96  C   UNL A   1      45.120  23.798  34.922  1.00  0.00     0.198 A 
ATOM     97  F   UNL A   1      43.190  24.846  34.192  1.00  0.00    -0.203 F 
ATOM     98  F   UNL A   1      48.566  24.139  33.922  1.00  0.00    -0.200 F 
ATOM     99  C   UNL A   1      46.481  23.589  34.865  1.00  0.00     0.200 A 
ATOM    100  F   UNL A   1      44.372  23.122  35.807  1.00  0.00    -0.200 F 
ATOM    101  F   UNL A   1      47.061  22.691  35.673  1.00  0.00    -0.200 F 
ENDBRANCH  68  91
ENDBRANCH  42  43
ENDBRANCH  34  37
ENDBRANCH  32  33
ENDBRANCH  31  32
ENDBRANCH  30  31
ENDBRANCH  29  30
ENDBRANCH   1  29
TORSDOF 18
ENDMDL
