MODEL 1
REMARK VINA RESULT:     -10.5      0.000      0.000
REMARK SMILES CCC(CC)(CC)NC(=O)NC[C@@H]1CC[C@H](C(=O)NCCCCCCNC(=O)c2ccc(-c3c4nc(c(-c5c(F)c(F)c(F)c(F)c5F)c5ccc([nH]5)c(-c5c(F)c(F)c(F)c(F)c5F)c5nc(c(-c6c(F)c(F)c(F)c(F)c6F)c6ccc3[nH]6)C=C5)C=C4)cc2)O1
REMARK SMILES IDX 21 1 20 2 19 3 17 4 18 5 16 7 13 8 14 9 92 10 15 11 12 12
REMARK SMILES IDX 11 13 8 14 9 15 10 17 3 19 2 20 1 21 4 22 5 23 6 24 7 25
REMARK SMILES IDX 22 26 23 27 24 28 25 29 26 30 27 31 28 33 29 34 30 35 91 36
REMARK SMILES IDX 31 37 90 38 32 39 33 40 34 41 84 42 35 43 89 44 83 45 85 46
REMARK SMILES IDX 36 47 88 48 82 49 81 50 37 52 69 53 49 54 68 55 50 56 53 57
REMARK SMILES IDX 67 58 86 59 51 60 52 61 66 63 87 64 54 65 38 66 39 67 47 68
REMARK SMILES IDX 40 69 41 70 45 71 48 72 42 73 43 74 46 75 44 76 70 77 71 78
REMARK SMILES IDX 79 79 72 80 73 81 77 82 80 83 74 84 75 85 78 86 76 87 55 88
REMARK SMILES IDX 56 89 64 90 57 91 58 92 62 93 65 94 59 95 60 96 63 97 61 98
REMARK H PARENT 19 6 8 16 11 18 26 32 85 51 53 62
REMARK Flexibility Score: inf
ROOT
ATOM      1  C   UNL A   1      35.529  32.572  28.131  1.00  0.00     0.021 C 
ENDROOT
BRANCH   1   2
ATOM      2  C   UNL A   1      34.655  31.331  28.017  1.00  0.00     0.116 C 
BRANCH   2   3
ATOM      3  N   UNL A   1      33.419  31.559  27.312  1.00  0.00    -0.354 N 
ATOM      4  C   UNL A   1      32.531  30.634  26.839  1.00  0.00     0.249 C 
ATOM      5  O   UNL A   1      31.462  31.041  26.376  1.00  0.00    -0.272 OA
ATOM      6  H   UNL A   1      33.185  32.502  27.149  1.00  0.00     0.163 HD
BRANCH   4   7
ATOM      7  C   UNL A   1      32.885  29.132  26.825  1.00  0.00     0.207 C 
ATOM      8  C   UNL A   1      32.337  27.296  25.486  1.00  0.00     0.138 C 
ATOM      9  C   UNL A   1      31.332  27.300  26.633  1.00  0.00     0.037 C 
ATOM     10  O   UNL A   1      32.987  28.577  25.509  1.00  0.00    -0.363 OA
ATOM     11  C   UNL A   1      31.894  28.292  27.622  1.00  0.00     0.045 C 
BRANCH   8  12
ATOM     12  C   UNL A   1      31.692  27.057  24.101  1.00  0.00     0.149 C 
BRANCH  12  13
ATOM     13  N   UNL A   1      32.654  26.772  23.054  1.00  0.00    -0.336 N 
ATOM     14  N   UNL A   1      33.083  24.431  22.900  1.00  0.00    -0.333 N 
ATOM     15  C   UNL A   1      33.111  25.683  22.443  1.00  0.00     0.315 C 
ATOM     16  H   UNL A   1      33.441  23.826  22.212  1.00  0.00     0.165 HD
ATOM     17  O   UNL A   1      33.649  25.851  21.342  1.00  0.00    -0.249 OA
ATOM     18  H   UNL A   1      33.076  27.592  22.709  1.00  0.00     0.165 HD
BRANCH  14  19
ATOM     19  C   UNL A   1      32.695  23.638  24.095  1.00  0.00     0.041 C 
BRANCH  19  20
ATOM     20  C   UNL A   1      33.526  23.968  25.359  1.00  0.00     0.025 C 
ATOM     21  C   UNL A   1      34.941  24.473  25.069  1.00  0.00     0.006 C 
ENDBRANCH  19  20
BRANCH  19  22
ATOM     22  C   UNL A   1      33.000  22.127  23.742  1.00  0.00     0.025 C 
ATOM     23  C   UNL A   1      32.148  21.528  22.619  1.00  0.00     0.006 C 
ENDBRANCH  19  22
BRANCH  19  24
ATOM     24  C   UNL A   1      31.149  23.726  24.337  1.00  0.00     0.025 C 
ATOM     25  C   UNL A   1      30.628  23.738  25.771  1.00  0.00     0.006 C 
ENDBRANCH  19  24
ENDBRANCH  14  19
ENDBRANCH  12  13
ENDBRANCH   8  12
ENDBRANCH   4   7
ENDBRANCH   2   3
ENDBRANCH   1   2
BRANCH   1  26
ATOM     26  C   UNL A   1      34.866  33.664  28.962  1.00  0.00     0.002 C 
BRANCH  26  27
ATOM     27  C   UNL A   1      34.877  35.055  28.310  1.00  0.00     0.002 C 
BRANCH  27  28
ATOM     28  C   UNL A   1      33.750  35.998  28.741  1.00  0.00     0.021 C 
BRANCH  28  29
ATOM     29  C   UNL A   1      32.649  35.337  29.563  1.00  0.00     0.116 C 
BRANCH  29  30
ATOM     30  N   UNL A   1      32.313  36.114  30.747  1.00  0.00    -0.352 N 
ATOM     31  C   UNL A   1      32.785  36.022  32.024  1.00  0.00     0.251 C 
ATOM     32  H   UNL A   1      31.641  36.820  30.604  1.00  0.00     0.163 HD
ATOM     33  O   UNL A   1      32.216  36.630  32.935  1.00  0.00    -0.269 OA
BRANCH  31  34
ATOM     34  C   UNL A   1      33.973  35.204  32.323  1.00  0.00     0.039 A 
ATOM     35  C   UNL A   1      33.796  33.924  32.855  1.00  0.00     0.014 A 
ATOM     36  C   UNL A   1      35.260  35.718  32.135  1.00  0.00     0.014 A 
ATOM     37  C   UNL A   1      34.910  33.151  33.178  1.00  0.00     0.010 A 
ATOM     38  C   UNL A   1      36.369  34.916  32.381  1.00  0.00     0.010 A 
ATOM     39  C   UNL A   1      36.204  33.637  32.931  1.00  0.00    -0.014 A 
BRANCH  39  40
ATOM     40  C   UNL A   1      37.401  32.846  33.300  1.00  0.00     0.031 A 
ATOM     41  C   UNL A   1      38.103  33.122  34.602  1.00  0.00     0.074 A 
ATOM     42  C   UNL A   1      37.879  31.918  32.451  1.00  0.00     0.049 A 
ATOM     43  N   UNL A   1      39.200  32.592  35.081  1.00  0.00    -0.248 NA
ATOM     44  C   UNL A   1      37.509  34.153  35.468  1.00  0.00     0.031 C 
ATOM     45  C   UNL A   1      37.304  31.590  31.146  1.00  0.00     0.029 A 
ATOM     46  N   UNL A   1      38.963  31.084  32.556  1.00  0.00    -0.354 N 
ATOM     47  C   UNL A   1      39.432  33.237  36.291  1.00  0.00     0.074 A 
ATOM     48  C   UNL A   1      38.401  34.238  36.443  1.00  0.00     0.031 C 
ATOM     49  C   UNL A   1      38.025  30.608  30.582  1.00  0.00     0.029 A 
ATOM     50  C   UNL A   1      39.133  30.264  31.468  1.00  0.00     0.049 A 
ATOM     51  H   UNL A   1      39.563  31.075  33.337  1.00  0.00     0.167 HD
ATOM     52  C   UNL A   1      40.400  32.992  37.206  1.00  0.00     0.037 A 
ATOM     53  C   UNL A   1      40.082  29.343  31.217  1.00  0.00     0.037 A 
ATOM     54  C   UNL A   1      41.405  31.973  37.059  1.00  0.00     0.049 A 
ATOM     55  C   UNL A   1      41.151  29.097  32.248  1.00  0.00     0.074 A 
ATOM     56  C   UNL A   1      42.405  31.614  37.945  1.00  0.00     0.029 A 
ATOM     57  N   UNL A   1      41.533  31.146  35.952  1.00  0.00    -0.354 N 
ATOM     58  N   UNL A   1      41.329  29.672  33.412  1.00  0.00    -0.248 NA
ATOM     59  C   UNL A   1      42.147  28.064  31.931  1.00  0.00     0.031 C 
ATOM     60  C   UNL A   1      43.167  30.600  37.353  1.00  0.00     0.029 A 
ATOM     61  C   UNL A   1      42.606  30.288  36.125  1.00  0.00     0.049 A 
ATOM     62  H   UNL A   1      40.947  31.168  35.160  1.00  0.00     0.167 HD
ATOM     63  C   UNL A   1      42.428  29.045  33.985  1.00  0.00     0.074 A 
ATOM     64  C   UNL A   1      42.870  28.038  33.042  1.00  0.00     0.031 C 
ATOM     65  C   UNL A   1      43.018  29.279  35.183  1.00  0.00     0.037 A 
BRANCH  52  66
ATOM     66  C   UNL A   1      40.414  33.840  38.446  1.00  0.00     0.064 A 
ATOM     67  C   UNL A   1      39.664  33.496  39.582  1.00  0.00     0.173 A 
ATOM     68  C   UNL A   1      41.211  34.992  38.513  1.00  0.00     0.173 A 
ATOM     69  F   UNL A   1      38.875  32.411  39.567  1.00  0.00    -0.203 F 
ATOM     70  C   UNL A   1      39.686  34.292  40.725  1.00  0.00     0.198 A 
ATOM     71  C   UNL A   1      41.258  35.767  39.670  1.00  0.00     0.198 A 
ATOM     72  F   UNL A   1      41.952  35.366  37.459  1.00  0.00    -0.203 F 
ATOM     73  F   UNL A   1      38.918  33.973  41.775  1.00  0.00    -0.200 F 
ATOM     74  C   UNL A   1      40.488  35.421  40.771  1.00  0.00     0.200 A 
ATOM     75  F   UNL A   1      42.044  36.850  39.718  1.00  0.00    -0.200 F 
ATOM     76  F   UNL A   1      40.515  36.181  41.874  1.00  0.00    -0.200 F 
ENDBRANCH  52  66
BRANCH  53  77
ATOM     77  C   UNL A   1      40.049  28.564  29.951  1.00  0.00     0.064 A 
ATOM     78  C   UNL A   1      39.411  27.317  29.891  1.00  0.00     0.173 A 
ATOM     79  C   UNL A   1      40.664  29.038  28.784  1.00  0.00     0.173 A 
ATOM     80  F   UNL A   1      38.824  26.812  30.986  1.00  0.00    -0.203 F 
ATOM     81  C   UNL A   1      39.415  26.561  28.721  1.00  0.00     0.198 A 
ATOM     82  C   UNL A   1      40.641  28.295  27.604  1.00  0.00     0.198 A 
ATOM     83  F   UNL A   1      41.281  30.229  28.784  1.00  0.00    -0.203 F 
ATOM     84  F   UNL A   1      38.846  25.347  28.708  1.00  0.00    -0.200 F 
ATOM     85  C   UNL A   1      40.026  27.052  27.577  1.00  0.00     0.200 A 
ATOM     86  F   UNL A   1      41.219  28.781  26.497  1.00  0.00    -0.200 F 
ATOM     87  F   UNL A   1      40.032  26.324  26.453  1.00  0.00    -0.200 F 
ENDBRANCH  53  77
BRANCH  65  88
ATOM     88  C   UNL A   1      44.168  28.395  35.570  1.00  0.00     0.064 A 
ATOM     89  C   UNL A   1      43.981  27.208  36.292  1.00  0.00     0.173 A 
ATOM     90  C   UNL A   1      45.474  28.726  35.174  1.00  0.00     0.173 A 
ATOM     91  F   UNL A   1      42.754  26.855  36.705  1.00  0.00    -0.203 F 
ATOM     92  C   UNL A   1      45.062  26.400  36.631  1.00  0.00     0.198 A 
ATOM     93  C   UNL A   1      46.548  27.897  35.485  1.00  0.00     0.198 A 
ATOM     94  F   UNL A   1      45.706  29.845  34.475  1.00  0.00    -0.203 F 
ATOM     95  F   UNL A   1      44.866  25.297  37.367  1.00  0.00    -0.200 F 
ATOM     96  C   UNL A   1      46.343  26.740  36.220  1.00  0.00     0.200 A 
ATOM     97  F   UNL A   1      47.781  28.220  35.073  1.00  0.00    -0.200 F 
ATOM     98  F   UNL A   1      47.381  25.955  36.540  1.00  0.00    -0.200 F 
ENDBRANCH  65  88
ENDBRANCH  39  40
ENDBRANCH  31  34
ENDBRANCH  29  30
ENDBRANCH  28  29
ENDBRANCH  27  28
ENDBRANCH  26  27
ENDBRANCH   1  26
TORSDOF 19
ENDMDL
MODEL 2
REMARK VINA RESULT:     -10.2      1.146      2.270
REMARK SMILES CCC(CC)(CC)NC(=O)NC[C@@H]1CC[C@H](C(=O)NCCCCCCNC(=O)c2ccc(-c3c4nc(c(-c5c(F)c(F)c(F)c(F)c5F)c5ccc([nH]5)c(-c5c(F)c(F)c(F)c(F)c5F)c5nc(c(-c6c(F)c(F)c(F)c(F)c6F)c6ccc3[nH]6)C=C5)C=C4)cc2)O1
REMARK SMILES IDX 21 1 20 2 19 3 17 4 18 5 16 7 13 8 14 9 92 10 15 11 12 12
REMARK SMILES IDX 11 13 8 14 9 15 10 17 3 19 2 20 1 21 4 22 5 23 6 24 7 25
REMARK SMILES IDX 22 26 23 27 24 28 25 29 26 30 27 31 28 33 29 34 30 35 91 36
REMARK SMILES IDX 31 37 90 38 32 39 33 40 34 41 84 42 35 43 89 44 83 45 85 46
REMARK SMILES IDX 36 47 88 48 82 49 81 50 37 52 69 53 49 54 68 55 50 56 53 57
REMARK SMILES IDX 67 58 86 59 51 60 52 61 66 63 87 64 54 65 38 66 39 67 47 68
REMARK SMILES IDX 40 69 41 70 45 71 48 72 42 73 43 74 46 75 44 76 70 77 71 78
REMARK SMILES IDX 79 79 72 80 73 81 77 82 80 83 74 84 75 85 78 86 76 87 55 88
REMARK SMILES IDX 56 89 64 90 57 91 58 92 62 93 65 94 59 95 60 96 63 97 61 98
REMARK H PARENT 19 6 8 16 11 18 26 32 85 51 53 62
REMARK Flexibility Score: inf
ROOT
ATOM      1  C   UNL A   1      35.289  31.735  28.009  1.00  0.00     0.021 C 
ENDROOT
BRANCH   1   2
ATOM      2  C   UNL A   1      34.300  30.600  27.780  1.00  0.00     0.116 C 
BRANCH   2   3
ATOM      3  N   UNL A   1      34.032  30.341  26.389  1.00  0.00    -0.354 N 
ATOM      4  C   UNL A   1      33.429  29.247  25.833  1.00  0.00     0.249 C 
ATOM      5  O   UNL A   1      33.173  29.278  24.626  1.00  0.00    -0.272 OA
ATOM      6  H   UNL A   1      34.319  31.040  25.758  1.00  0.00     0.163 HD
BRANCH   4   7
ATOM      7  C   UNL A   1      33.138  27.989  26.677  1.00  0.00     0.207 C 
ATOM      8  C   UNL A   1      32.125  25.916  26.298  1.00  0.00     0.138 C 
ATOM      9  C   UNL A   1      31.031  26.832  26.839  1.00  0.00     0.037 C 
ATOM     10  O   UNL A   1      33.226  26.766  25.936  1.00  0.00    -0.363 OA
ATOM     11  C   UNL A   1      31.774  28.041  27.352  1.00  0.00     0.045 C 
BRANCH   8  12
ATOM     12  C   UNL A   1      31.682  25.080  25.076  1.00  0.00     0.149 C 
BRANCH  12  13
ATOM     13  N   UNL A   1      30.779  23.996  25.410  1.00  0.00    -0.336 N 
ATOM     14  N   UNL A   1      31.949  21.922  25.556  1.00  0.00    -0.333 N 
ATOM     15  C   UNL A   1      30.903  22.722  25.770  1.00  0.00     0.315 C 
ATOM     16  H   UNL A   1      31.783  21.050  25.980  1.00  0.00     0.165 HD
ATOM     17  O   UNL A   1      29.932  22.210  26.339  1.00  0.00    -0.249 OA
ATOM     18  H   UNL A   1      29.836  24.273  25.357  1.00  0.00     0.165 HD
BRANCH  14  19
ATOM     19  C   UNL A   1      33.279  21.900  24.896  1.00  0.00     0.041 C 
BRANCH  19  20
ATOM     20  C   UNL A   1      33.296  22.578  23.505  1.00  0.00     0.025 C 
ATOM     21  C   UNL A   1      32.416  21.892  22.458  1.00  0.00     0.006 C 
ENDBRANCH  19  20
BRANCH  19  22
ATOM     22  C   UNL A   1      33.629  20.376  24.655  1.00  0.00     0.025 C 
ATOM     23  C   UNL A   1      32.904  19.382  25.566  1.00  0.00     0.006 C 
ENDBRANCH  19  22
BRANCH  19  24
ATOM     24  C   UNL A   1      34.383  22.452  25.862  1.00  0.00     0.025 C 
ATOM     25  C   UNL A   1      35.176  23.687  25.443  1.00  0.00     0.006 C 
ENDBRANCH  19  24
ENDBRANCH  14  19
ENDBRANCH  12  13
ENDBRANCH   8  12
ENDBRANCH   4   7
ENDBRANCH   2   3
ENDBRANCH   1   2
BRANCH   1  26
ATOM     26  C   UNL A   1      34.727  32.804  28.939  1.00  0.00     0.002 C 
BRANCH  26  27
ATOM     27  C   UNL A   1      35.291  34.213  28.704  1.00  0.00     0.002 C 
BRANCH  27  28
ATOM     28  C   UNL A   1      34.271  35.354  28.763  1.00  0.00     0.021 C 
BRANCH  28  29
ATOM     29  C   UNL A   1      32.904  34.956  29.306  1.00  0.00     0.116 C 
BRANCH  29  30
ATOM     30  N   UNL A   1      32.484  35.813  30.404  1.00  0.00    -0.352 N 
ATOM     31  C   UNL A   1      32.877  35.826  31.711  1.00  0.00     0.251 C 
ATOM     32  H   UNL A   1      31.811  36.492  30.167  1.00  0.00     0.163 HD
ATOM     33  O   UNL A   1      32.243  36.490  32.537  1.00  0.00    -0.269 OA
BRANCH  31  34
ATOM     34  C   UNL A   1      34.057  35.057  32.143  1.00  0.00     0.039 A 
ATOM     35  C   UNL A   1      35.307  35.679  32.137  1.00  0.00     0.014 A 
ATOM     36  C   UNL A   1      33.940  33.709  32.495  1.00  0.00     0.014 A 
ATOM     37  C   UNL A   1      36.440  34.955  32.508  1.00  0.00     0.010 A 
ATOM     38  C   UNL A   1      35.057  33.011  32.942  1.00  0.00     0.010 A 
ATOM     39  C   UNL A   1      36.321  33.620  32.925  1.00  0.00    -0.014 A 
BRANCH  39  40
ATOM     40  C   UNL A   1      37.516  32.822  33.288  1.00  0.00     0.031 A 
ATOM     41  C   UNL A   1      38.229  33.099  34.583  1.00  0.00     0.074 A 
ATOM     42  C   UNL A   1      37.980  31.887  32.439  1.00  0.00     0.049 A 
ATOM     43  N   UNL A   1      39.327  32.565  35.056  1.00  0.00    -0.248 NA
ATOM     44  C   UNL A   1      37.649  34.139  35.449  1.00  0.00     0.031 C 
ATOM     45  C   UNL A   1      37.392  31.558  31.140  1.00  0.00     0.029 A 
ATOM     46  N   UNL A   1      39.060  31.047  32.539  1.00  0.00    -0.354 N 
ATOM     47  C   UNL A   1      39.572  33.213  36.261  1.00  0.00     0.074 A 
ATOM     48  C   UNL A   1      38.549  34.222  36.417  1.00  0.00     0.031 C 
ATOM     49  C   UNL A   1      38.102  30.568  30.576  1.00  0.00     0.029 A 
ATOM     50  C   UNL A   1      39.215  30.221  31.454  1.00  0.00     0.049 A 
ATOM     51  H   UNL A   1      39.665  31.037  33.316  1.00  0.00     0.167 HD
ATOM     52  C   UNL A   1      40.547  32.966  37.169  1.00  0.00     0.037 A 
ATOM     53  C   UNL A   1      40.156  29.292  31.199  1.00  0.00     0.037 A 
ATOM     54  C   UNL A   1      41.543  31.939  37.019  1.00  0.00     0.049 A 
ATOM     55  C   UNL A   1      41.232  29.044  32.223  1.00  0.00     0.074 A 
ATOM     56  C   UNL A   1      42.548  31.577  37.898  1.00  0.00     0.029 A 
ATOM     57  N   UNL A   1      41.657  31.107  35.915  1.00  0.00    -0.354 N 
ATOM     58  N   UNL A   1      41.422  29.622  33.383  1.00  0.00    -0.248 NA
ATOM     59  C   UNL A   1      42.218  28.003  31.903  1.00  0.00     0.031 C 
ATOM     60  C   UNL A   1      43.298  30.556  37.305  1.00  0.00     0.029 A 
ATOM     61  C   UNL A   1      42.725  30.242  36.084  1.00  0.00     0.049 A 
ATOM     62  H   UNL A   1      41.065  31.129  35.128  1.00  0.00     0.167 HD
ATOM     63  C   UNL A   1      42.521  28.991  33.950  1.00  0.00     0.074 A 
ATOM     64  C   UNL A   1      42.949  27.977  33.008  1.00  0.00     0.031 C 
ATOM     65  C   UNL A   1      43.122  29.226  35.143  1.00  0.00     0.037 A 
BRANCH  52  66
ATOM     66  C   UNL A   1      40.576  33.819  38.405  1.00  0.00     0.064 A 
ATOM     67  C   UNL A   1      41.370  34.974  38.485  1.00  0.00     0.173 A 
ATOM     68  C   UNL A   1      39.778  33.498  39.512  1.00  0.00     0.173 A 
ATOM     69  F   UNL A   1      42.163  35.320  37.459  1.00  0.00    -0.203 F 
ATOM     70  C   UNL A   1      41.389  35.756  39.637  1.00  0.00     0.198 A 
ATOM     71  C   UNL A   1      39.772  34.301  40.651  1.00  0.00     0.198 A 
ATOM     72  F   UNL A   1      38.996  32.408  39.490  1.00  0.00    -0.203 F 
ATOM     73  F   UNL A   1      42.197  36.822  39.709  1.00  0.00    -0.200 F 
ATOM     74  C   UNL A   1      40.584  35.423  40.716  1.00  0.00     0.200 A 
ATOM     75  F   UNL A   1      38.983  33.986  41.687  1.00  0.00    -0.200 F 
ATOM     76  F   UNL A   1      40.596  36.181  41.821  1.00  0.00    -0.200 F 
ENDBRANCH  52  66
BRANCH  53  77
ATOM     77  C   UNL A   1      40.107  28.508  29.938  1.00  0.00     0.064 A 
ATOM     78  C   UNL A   1      39.459  27.265  29.888  1.00  0.00     0.173 A 
ATOM     79  C   UNL A   1      40.717  28.971  28.764  1.00  0.00     0.173 A 
ATOM     80  F   UNL A   1      38.876  26.770  30.990  1.00  0.00    -0.203 F 
ATOM     81  C   UNL A   1      39.449  26.504  28.722  1.00  0.00     0.198 A 
ATOM     82  C   UNL A   1      40.679  28.223  27.588  1.00  0.00     0.198 A 
ATOM     83  F   UNL A   1      41.344  30.157  28.754  1.00  0.00    -0.203 F 
ATOM     84  F   UNL A   1      38.870  25.294  28.719  1.00  0.00    -0.200 F 
ATOM     85  C   UNL A   1      40.055  26.985  27.571  1.00  0.00     0.200 A 
ATOM     86  F   UNL A   1      41.253  28.699  26.475  1.00  0.00    -0.200 F 
ATOM     87  F   UNL A   1      40.047  26.251  26.450  1.00  0.00    -0.200 F 
ENDBRANCH  53  77
BRANCH  65  88
ATOM     88  C   UNL A   1      44.270  28.336  35.524  1.00  0.00     0.064 A 
ATOM     89  C   UNL A   1      45.594  28.650  35.188  1.00  0.00     0.173 A 
ATOM     90  C   UNL A   1      44.040  27.171  36.273  1.00  0.00     0.173 A 
ATOM     91  F   UNL A   1      45.866  29.746  34.462  1.00  0.00    -0.203 F 
ATOM     92  C   UNL A   1      46.643  27.815  35.562  1.00  0.00     0.198 A 
ATOM     93  C   UNL A   1      45.094  26.357  36.674  1.00  0.00     0.198 A 
ATOM     94  F   UNL A   1      42.792  26.830  36.627  1.00  0.00    -0.203 F 
ATOM     95  F   UNL A   1      47.896  28.107  35.184  1.00  0.00    -0.200 F 
ATOM     96  C   UNL A   1      46.394  26.674  36.310  1.00  0.00     0.200 A 
ATOM     97  F   UNL A   1      44.852  25.265  37.411  1.00  0.00    -0.200 F 
ATOM     98  F   UNL A   1      47.407  25.876  36.676  1.00  0.00    -0.200 F 
ENDBRANCH  65  88
ENDBRANCH  39  40
ENDBRANCH  31  34
ENDBRANCH  29  30
ENDBRANCH  28  29
ENDBRANCH  27  28
ENDBRANCH  26  27
ENDBRANCH   1  26
TORSDOF 19
ENDMDL
MODEL 3
REMARK VINA RESULT:      -9.8      1.037      7.368
REMARK SMILES CCC(CC)(CC)NC(=O)NC[C@@H]1CC[C@H](C(=O)NCCCCCCNC(=O)c2ccc(-c3c4nc(c(-c5c(F)c(F)c(F)c(F)c5F)c5ccc([nH]5)c(-c5c(F)c(F)c(F)c(F)c5F)c5nc(c(-c6c(F)c(F)c(F)c(F)c6F)c6ccc3[nH]6)C=C5)C=C4)cc2)O1
REMARK SMILES IDX 21 1 20 2 19 3 17 4 18 5 16 7 13 8 14 9 92 10 15 11 12 12
REMARK SMILES IDX 11 13 8 14 9 15 10 17 3 19 2 20 1 21 4 22 5 23 6 24 7 25
REMARK SMILES IDX 22 26 23 27 24 28 25 29 26 30 27 31 28 33 29 34 30 35 91 36
REMARK SMILES IDX 31 37 90 38 32 39 33 40 34 41 84 42 35 43 89 44 83 45 85 46
REMARK SMILES IDX 36 47 88 48 82 49 81 50 37 52 69 53 49 54 68 55 50 56 53 57
REMARK SMILES IDX 67 58 86 59 51 60 52 61 66 63 87 64 54 65 38 66 39 67 47 68
REMARK SMILES IDX 40 69 41 70 45 71 48 72 42 73 43 74 46 75 44 76 70 77 71 78
REMARK SMILES IDX 79 79 72 80 73 81 77 82 80 83 74 84 75 85 78 86 76 87 55 88
REMARK SMILES IDX 56 89 64 90 57 91 58 92 62 93 65 94 59 95 60 96 63 97 61 98
REMARK H PARENT 19 6 8 16 11 18 26 32 85 51 53 62
REMARK Flexibility Score: inf
ROOT
ATOM      1  C   UNL A   1      36.041  31.732  28.055  1.00  0.00     0.021 C 
ENDROOT
BRANCH   1   2
ATOM      2  C   UNL A   1      35.263  30.487  27.650  1.00  0.00     0.116 C 
BRANCH   2   3
ATOM      3  N   UNL A   1      34.082  30.772  26.876  1.00  0.00    -0.354 N 
ATOM      4  C   UNL A   1      32.978  29.986  26.697  1.00  0.00     0.249 C 
ATOM      5  O   UNL A   1      32.012  30.471  26.100  1.00  0.00    -0.272 OA
ATOM      6  H   UNL A   1      34.068  31.643  26.417  1.00  0.00     0.163 HD
BRANCH   4   7
ATOM      7  C   UNL A   1      32.967  28.517  27.168  1.00  0.00     0.207 C 
ATOM      8  C   UNL A   1      33.042  26.424  26.128  1.00  0.00     0.138 C 
ATOM      9  C   UNL A   1      31.564  26.753  26.316  1.00  0.00     0.037 C 
ATOM     10  O   UNL A   1      33.764  27.646  26.357  1.00  0.00    -0.363 OA
ATOM     11  C   UNL A   1      31.559  27.940  27.248  1.00  0.00     0.045 C 
BRANCH   8  12
ATOM     12  C   UNL A   1      33.377  25.870  24.724  1.00  0.00     0.149 C 
BRANCH  12  13
ATOM     13  N   UNL A   1      32.275  25.165  24.099  1.00  0.00    -0.336 N 
ATOM     14  N   UNL A   1      32.554  22.804  24.284  1.00  0.00    -0.333 N 
ATOM     15  C   UNL A   1      31.843  23.908  24.054  1.00  0.00     0.315 C 
ATOM     16  H   UNL A   1      31.961  22.020  24.233  1.00  0.00     0.165 HD
ATOM     17  O   UNL A   1      30.661  23.740  23.734  1.00  0.00    -0.249 OA
ATOM     18  H   UNL A   1      31.702  25.771  23.576  1.00  0.00     0.165 HD
BRANCH  14  19
ATOM     19  C   UNL A   1      33.936  22.353  24.591  1.00  0.00     0.041 C 
BRANCH  19  20
ATOM     20  C   UNL A   1      34.094  20.815  24.640  1.00  0.00     0.025 C 
ATOM     21  C   UNL A   1      32.842  20.039  24.225  1.00  0.00     0.006 C 
ENDBRANCH  19  20
BRANCH  19  22
ATOM     22  C   UNL A   1      34.262  22.883  26.045  1.00  0.00     0.025 C 
ATOM     23  C   UNL A   1      33.197  22.594  27.106  1.00  0.00     0.006 C 
ENDBRANCH  19  22
BRANCH  19  24
ATOM     24  C   UNL A   1      34.966  23.046  23.634  1.00  0.00     0.025 C 
ATOM     25  C   UNL A   1      36.390  23.277  24.129  1.00  0.00     0.006 C 
ENDBRANCH  19  24
ENDBRANCH  14  19
ENDBRANCH  12  13
ENDBRANCH   8  12
ENDBRANCH   4   7
ENDBRANCH   2   3
ENDBRANCH   1   2
BRANCH   1  26
ATOM     26  C   UNL A   1      35.179  32.714  28.840  1.00  0.00     0.002 C 
BRANCH  26  27
ATOM     27  C   UNL A   1      35.521  34.192  28.602  1.00  0.00     0.002 C 
BRANCH  27  28
ATOM     28  C   UNL A   1      34.341  35.166  28.679  1.00  0.00     0.021 C 
BRANCH  28  29
ATOM     29  C   UNL A   1      33.070  34.576  29.279  1.00  0.00     0.116 C 
BRANCH  29  30
ATOM     30  N   UNL A   1      32.524  35.418  30.333  1.00  0.00    -0.352 N 
ATOM     31  C   UNL A   1      32.854  35.499  31.654  1.00  0.00     0.251 C 
ATOM     32  H   UNL A   1      31.805  36.028  30.047  1.00  0.00     0.163 HD
ATOM     33  O   UNL A   1      32.126  36.123  32.433  1.00  0.00    -0.269 OA
BRANCH  31  34
ATOM     34  C   UNL A   1      34.077  34.852  32.159  1.00  0.00     0.039 A 
ATOM     35  C   UNL A   1      35.282  35.558  32.115  1.00  0.00     0.014 A 
ATOM     36  C   UNL A   1      34.049  33.532  32.619  1.00  0.00     0.014 A 
ATOM     37  C   UNL A   1      36.456  34.947  32.554  1.00  0.00     0.010 A 
ATOM     38  C   UNL A   1      35.204  32.953  33.132  1.00  0.00     0.010 A 
ATOM     39  C   UNL A   1      36.423  33.644  33.078  1.00  0.00    -0.014 A 
BRANCH  39  40
ATOM     40  C   UNL A   1      37.664  32.964  33.516  1.00  0.00     0.031 A 
ATOM     41  C   UNL A   1      38.299  31.929  32.628  1.00  0.00     0.074 A 
ATOM     42  C   UNL A   1      38.190  33.243  34.723  1.00  0.00     0.049 A 
ATOM     43  N   UNL A   1      39.343  31.173  32.852  1.00  0.00    -0.248 NA
ATOM     44  C   UNL A   1      37.654  31.690  31.327  1.00  0.00     0.031 C 
ATOM     45  C   UNL A   1      37.641  34.201  35.684  1.00  0.00     0.029 A 
ATOM     46  N   UNL A   1      39.302  32.743  35.351  1.00  0.00    -0.354 N 
ATOM     47  C   UNL A   1      39.468  30.363  31.730  1.00  0.00     0.074 A 
ATOM     48  C   UNL A   1      38.360  30.672  30.856  1.00  0.00     0.031 C 
ATOM     49  C   UNL A   1      38.431  34.237  36.768  1.00  0.00     0.029 A 
ATOM     50  C   UNL A   1      39.520  33.280  36.595  1.00  0.00     0.049 A 
ATOM     51  H   UNL A   1      39.888  32.062  34.947  1.00  0.00     0.167 HD
ATOM     52  C   UNL A   1      40.440  29.463  31.442  1.00  0.00     0.037 A 
ATOM     53  C   UNL A   1      40.488  33.021  37.494  1.00  0.00     0.037 A 
ATOM     54  C   UNL A   1      41.556  29.183  32.304  1.00  0.00     0.049 A 
ATOM     55  C   UNL A   1      41.551  32.011  37.151  1.00  0.00     0.074 A 
ATOM     56  C   UNL A   1      42.618  28.323  32.090  1.00  0.00     0.029 A 
ATOM     57  N   UNL A   1      41.755  29.763  33.549  1.00  0.00    -0.354 N 
ATOM     58  N   UNL A   1      41.692  31.292  36.064  1.00  0.00    -0.248 NA
ATOM     59  C   UNL A   1      42.596  31.786  38.159  1.00  0.00     0.031 C 
ATOM     60  C   UNL A   1      43.436  28.348  33.225  1.00  0.00     0.029 A 
ATOM     61  C   UNL A   1      42.915  29.267  34.121  1.00  0.00     0.049 A 
ATOM     62  H   UNL A   1      41.159  30.428  33.964  1.00  0.00     0.167 HD
ATOM     63  C   UNL A   1      42.859  30.561  36.238  1.00  0.00     0.074 A 
ATOM     64  C   UNL A   1      43.393  30.932  37.533  1.00  0.00     0.031 C 
ATOM     65  C   UNL A   1      43.440  29.665  35.402  1.00  0.00     0.037 A 
BRANCH  52  66
ATOM     66  C   UNL A   1      40.337  28.723  30.139  1.00  0.00     0.064 A 
ATOM     67  C   UNL A   1      39.626  27.517  30.030  1.00  0.00     0.173 A 
ATOM     68  C   UNL A   1      40.928  29.239  28.976  1.00  0.00     0.173 A 
ATOM     69  F   UNL A   1      39.053  26.972  31.114  1.00  0.00    -0.203 F 
ATOM     70  C   UNL A   1      39.540  26.841  28.816  1.00  0.00     0.198 A 
ATOM     71  C   UNL A   1      40.810  28.579  27.756  1.00  0.00     0.198 A 
ATOM     72  F   UNL A   1      41.615  30.391  29.020  1.00  0.00    -0.203 F 
ATOM     73  F   UNL A   1      38.903  25.663  28.751  1.00  0.00    -0.200 F 
ATOM     74  C   UNL A   1      40.124  27.376  27.679  1.00  0.00     0.200 A 
ATOM     75  F   UNL A   1      41.364  29.104  26.655  1.00  0.00    -0.200 F 
ATOM     76  F   UNL A   1      40.033  26.729  26.509  1.00  0.00    -0.200 F 
ENDBRANCH  52  66
BRANCH  53  77
ATOM     77  C   UNL A   1      40.517  33.749  38.789  1.00  0.00     0.064 A 
ATOM     78  C   UNL A   1      41.371  34.845  38.980  1.00  0.00     0.173 A 
ATOM     79  C   UNL A   1      39.708  33.359  39.866  1.00  0.00     0.173 A 
ATOM     80  F   UNL A   1      42.178  35.245  37.987  1.00  0.00    -0.203 F 
ATOM     81  C   UNL A   1      41.437  35.502  40.207  1.00  0.00     0.198 A 
ATOM     82  C   UNL A   1      39.751  34.038  41.083  1.00  0.00     0.198 A 
ATOM     83  F   UNL A   1      38.866  32.323  39.734  1.00  0.00    -0.203 F 
ATOM     84  F   UNL A   1      42.303  36.511  40.378  1.00  0.00    -0.200 F 
ATOM     85  C   UNL A   1      40.623  35.102  41.255  1.00  0.00     0.200 A 
ATOM     86  F   UNL A   1      38.951  33.657  42.089  1.00  0.00    -0.200 F 
ATOM     87  F   UNL A   1      40.688  35.733  42.435  1.00  0.00    -0.200 F 
ENDBRANCH  53  77
BRANCH  65  88
ATOM     88  C   UNL A   1      44.748  29.066  35.834  1.00  0.00     0.064 A 
ATOM     89  C   UNL A   1      44.810  27.876  36.573  1.00  0.00     0.173 A 
ATOM     90  C   UNL A   1      45.957  29.675  35.465  1.00  0.00     0.173 A 
ATOM     91  F   UNL A   1      43.681  27.263  36.962  1.00  0.00    -0.203 F 
ATOM     92  C   UNL A   1      46.034  27.335  36.954  1.00  0.00     0.198 A 
ATOM     93  C   UNL A   1      47.180  29.112  35.817  1.00  0.00     0.198 A 
ATOM     94  F   UNL A   1      45.954  30.809  34.750  1.00  0.00    -0.203 F 
ATOM     95  F   UNL A   1      46.069  26.225  37.706  1.00  0.00    -0.200 F 
ATOM     96  C   UNL A   1      47.218  27.947  36.569  1.00  0.00     0.200 A 
ATOM     97  F   UNL A   1      48.321  29.697  35.429  1.00  0.00    -0.200 F 
ATOM     98  F   UNL A   1      48.395  27.419  36.929  1.00  0.00    -0.200 F 
ENDBRANCH  65  88
ENDBRANCH  39  40
ENDBRANCH  31  34
ENDBRANCH  29  30
ENDBRANCH  28  29
ENDBRANCH  27  28
ENDBRANCH  26  27
ENDBRANCH   1  26
TORSDOF 19
ENDMDL
