MODEL 1
REMARK VINA RESULT:     -11.4      0.000      0.000
REMARK SMILES C[C@@H](C(=O)NCc1ccco1)[N@H+]1CCCC[C@@H]1C(=O)NCCCCCCNC(=O)c1ccc(-c2c3nc(c(-c4c(F)c(F)c(F)c(F)c4F)c4ccc([nH]4)c(-c4c(F)c(F)c(F)c(F)c4F)c4nc(c(-c5c(F)c(F)c(F)c(F)c5F)c5ccc2[nH]5)C=C4)C=C3)cc1
REMARK SMILES IDX 22 1 21 2 20 3 18 4 19 5 17 7 12 8 13 9 14 11 16 12 15 13
REMARK SMILES IDX 2 14 1 15 3 16 4 17 5 18 6 20 7 21 8 22 11 23 9 24 10 25
REMARK SMILES IDX 23 26 24 27 25 28 26 29 27 30 28 31 29 33 30 34 31 35 92 36
REMARK SMILES IDX 32 37 91 38 33 39 34 40 35 41 85 42 36 43 90 44 84 45 86 46
REMARK SMILES IDX 37 47 89 48 83 49 82 50 38 52 70 53 50 54 69 55 51 56 54 57
REMARK SMILES IDX 68 58 87 59 52 60 53 61 67 63 88 64 55 65 39 66 40 67 48 68
REMARK SMILES IDX 41 69 42 70 46 71 49 72 43 73 44 74 47 75 45 76 71 77 72 78
REMARK SMILES IDX 80 79 73 80 74 81 78 82 81 83 75 84 76 85 79 86 77 87 56 88
REMARK SMILES IDX 57 89 65 90 58 91 59 92 63 93 66 94 60 95 61 96 64 97 62 98
REMARK H PARENT 20 6 12 10 5 19 27 32 86 51 54 62
REMARK Flexibility Score: inf
ROOT
ATOM      1  C   UNL A   1      36.099  22.551  25.143  1.00  0.00     0.021 C 
ENDROOT
BRANCH   1   2
ATOM      2  C   UNL A   1      35.565  23.737  24.343  1.00  0.00     0.116 C 
BRANCH   2   3
ATOM      3  N   UNL A   1      34.883  23.256  23.160  1.00  0.00    -0.351 N 
ATOM      4  C   UNL A   1      33.662  23.590  22.656  1.00  0.00     0.278 C 
ATOM      5  O   UNL A   1      33.249  22.914  21.710  1.00  0.00    -0.268 OA
ATOM      6  H   UNL A   1      35.378  22.583  22.639  1.00  0.00     0.163 HD
BRANCH   4   7
ATOM      7  C   UNL A   1      32.841  24.755  23.244  1.00  0.00     0.274 C 
ATOM      8  N   UNL A   1      31.842  24.278  24.251  1.00  0.00    -0.315 N 
ATOM      9  C   UNL A   1      30.994  25.377  24.727  1.00  0.00     0.263 C 
ATOM     10  H   UNL A   1      31.296  23.607  23.711  1.00  0.00     0.349 HD
ATOM     11  C   UNL A   1      30.286  26.083  23.573  1.00  0.00     0.062 C 
ATOM     12  C   UNL A   1      32.233  25.590  22.094  1.00  0.00     0.076 C 
ATOM     13  C   UNL A   1      31.293  26.675  22.601  1.00  0.00     0.012 C 
BRANCH   8  14
ATOM     14  C   UNL A   1      32.351  23.459  25.413  1.00  0.00     0.271 C 
ATOM     15  C   UNL A   1      32.596  24.438  26.566  1.00  0.00     0.086 C 
BRANCH  14  16
ATOM     16  C   UNL A   1      31.505  22.206  25.792  1.00  0.00     0.278 C 
ATOM     17  O   UNL A   1      30.321  22.262  26.130  1.00  0.00    -0.268 OA
ATOM     18  N   UNL A   1      32.028  20.953  25.668  1.00  0.00    -0.344 N 
ATOM     19  H   UNL A   1      31.807  20.316  26.386  1.00  0.00     0.164 HD
BRANCH  18  20
ATOM     20  C   UNL A   1      32.869  20.448  24.606  1.00  0.00     0.191 C 
BRANCH  20  21
ATOM     21  C   UNL A   1      33.095  18.985  24.721  1.00  0.00     0.122 A 
ATOM     22  C   UNL A   1      34.094  18.162  24.238  1.00  0.00     0.047 A 
ATOM     23  O   UNL A   1      32.161  18.234  25.378  1.00  0.00    -0.467 OA
ATOM     24  C   UNL A   1      33.757  16.844  24.630  1.00  0.00     0.042 A 
ATOM     25  C   UNL A   1      32.576  16.943  25.326  1.00  0.00     0.195 A 
ENDBRANCH  20  21
ENDBRANCH  18  20
ENDBRANCH  14  16
ENDBRANCH   8  14
ENDBRANCH   4   7
ENDBRANCH   2   3
ENDBRANCH   1   2
BRANCH   1  26
ATOM     26  C   UNL A   1      37.552  22.197  24.800  1.00  0.00     0.002 C 
BRANCH  26  27
ATOM     27  C   UNL A   1      38.545  22.418  25.945  1.00  0.00     0.002 C 
BRANCH  27  28
ATOM     28  C   UNL A   1      39.226  21.143  26.450  1.00  0.00     0.021 C 
BRANCH  28  29
ATOM     29  C   UNL A   1      39.469  20.095  25.370  1.00  0.00     0.116 C 
BRANCH  29  30
ATOM     30  N   UNL A   1      40.411  19.075  25.805  1.00  0.00    -0.352 N 
ATOM     31  C   UNL A   1      41.715  19.210  26.194  1.00  0.00     0.251 C 
ATOM     32  H   UNL A   1      40.058  18.156  25.822  1.00  0.00     0.163 HD
ATOM     33  O   UNL A   1      42.429  18.216  26.328  1.00  0.00    -0.269 OA
BRANCH  31  34
ATOM     34  C   UNL A   1      42.277  20.553  26.435  1.00  0.00     0.039 A 
ATOM     35  C   UNL A   1      42.659  21.329  25.338  1.00  0.00     0.014 A 
ATOM     36  C   UNL A   1      42.431  21.047  27.735  1.00  0.00     0.014 A 
ATOM     37  C   UNL A   1      43.144  22.620  25.543  1.00  0.00     0.010 A 
ATOM     38  C   UNL A   1      42.843  22.361  27.933  1.00  0.00     0.010 A 
ATOM     39  C   UNL A   1      43.205  23.160  26.839  1.00  0.00    -0.014 A 
BRANCH  39  40
ATOM     40  C   UNL A   1      43.626  24.568  27.051  1.00  0.00     0.031 A 
ATOM     41  C   UNL A   1      42.643  25.595  27.538  1.00  0.00     0.074 A 
ATOM     42  C   UNL A   1      44.892  24.926  26.764  1.00  0.00     0.049 A 
ATOM     43  N   UNL A   1      42.829  26.870  27.776  1.00  0.00    -0.248 NA
ATOM     44  C   UNL A   1      41.263  25.139  27.764  1.00  0.00     0.031 C 
ATOM     45  C   UNL A   1      45.920  24.031  26.230  1.00  0.00     0.029 A 
ATOM     46  N   UNL A   1      45.530  26.135  26.877  1.00  0.00    -0.354 N 
ATOM     47  C   UNL A   1      41.596  27.365  28.175  1.00  0.00     0.074 A 
ATOM     48  C   UNL A   1      40.653  26.270  28.090  1.00  0.00     0.031 C 
ATOM     49  C   UNL A   1      47.069  24.712  26.094  1.00  0.00     0.029 A 
ATOM     50  C   UNL A   1      46.848  26.098  26.495  1.00  0.00     0.049 A 
ATOM     51  H   UNL A   1      45.085  26.951  27.202  1.00  0.00     0.167 HD
ATOM     52  C   UNL A   1      41.283  28.614  28.599  1.00  0.00     0.037 A 
ATOM     53  C   UNL A   1      47.776  27.074  26.469  1.00  0.00     0.037 A 
ATOM     54  C   UNL A   1      42.227  29.697  28.693  1.00  0.00     0.049 A 
ATOM     55  C   UNL A   1      47.399  28.453  26.938  1.00  0.00     0.074 A 
ATOM     56  C   UNL A   1      42.024  30.982  29.165  1.00  0.00     0.029 A 
ATOM     57  N   UNL A   1      43.556  29.624  28.298  1.00  0.00    -0.354 N 
ATOM     58  N   UNL A   1      46.249  28.889  27.390  1.00  0.00    -0.248 NA
ATOM     59  C   UNL A   1      48.455  29.473  26.900  1.00  0.00     0.031 C 
ATOM     60  C   UNL A   1      43.213  31.701  29.005  1.00  0.00     0.029 A 
ATOM     61  C   UNL A   1      44.175  30.849  28.489  1.00  0.00     0.049 A 
ATOM     62  H   UNL A   1      43.994  28.819  27.937  1.00  0.00     0.167 HD
ATOM     63  C   UNL A   1      46.447  30.225  27.712  1.00  0.00     0.074 A 
ATOM     64  C   UNL A   1      47.837  30.519  27.428  1.00  0.00     0.031 C 
ATOM     65  C   UNL A   1      45.558  31.129  28.193  1.00  0.00     0.037 A 
BRANCH  52  66
ATOM     66  C   UNL A   1      39.857  28.876  28.995  1.00  0.00     0.064 A 
ATOM     67  C   UNL A   1      38.899  29.298  28.060  1.00  0.00     0.173 A 
ATOM     68  C   UNL A   1      39.434  28.664  30.315  1.00  0.00     0.173 A 
ATOM     69  F   UNL A   1      39.252  29.527  26.786  1.00  0.00    -0.203 F 
ATOM     70  C   UNL A   1      37.578  29.529  28.439  1.00  0.00     0.198 A 
ATOM     71  C   UNL A   1      38.105  28.863  30.684  1.00  0.00     0.198 A 
ATOM     72  F   UNL A   1      40.305  28.255  31.249  1.00  0.00    -0.203 F 
ATOM     73  F   UNL A   1      36.693  29.980  27.540  1.00  0.00    -0.200 F 
ATOM     74  C   UNL A   1      37.181  29.303  29.748  1.00  0.00     0.200 A 
ATOM     75  F   UNL A   1      37.719  28.630  31.946  1.00  0.00    -0.200 F 
ATOM     76  F   UNL A   1      35.908  29.515  30.110  1.00  0.00    -0.200 F 
ENDBRANCH  52  66
BRANCH  53  77
ATOM     77  C   UNL A   1      49.156  26.775  26.008  1.00  0.00     0.064 A 
ATOM     78  C   UNL A   1      50.121  26.273  26.892  1.00  0.00     0.173 A 
ATOM     79  C   UNL A   1      49.544  26.990  24.676  1.00  0.00     0.173 A 
ATOM     80  F   UNL A   1      49.805  26.069  28.181  1.00  0.00    -0.203 F 
ATOM     81  C   UNL A   1      51.425  26.022  26.472  1.00  0.00     0.198 A 
ATOM     82  C   UNL A   1      50.839  26.708  24.249  1.00  0.00     0.198 A 
ATOM     83  F   UNL A   1      48.658  27.463  23.787  1.00  0.00    -0.203 F 
ATOM     84  F   UNL A   1      52.340  25.592  27.351  1.00  0.00    -0.200 F 
ATOM     85  C   UNL A   1      51.781  26.234  25.148  1.00  0.00     0.200 A 
ATOM     86  F   UNL A   1      51.174  26.898  22.966  1.00  0.00    -0.200 F 
ATOM     87  F   UNL A   1      53.034  25.989  24.742  1.00  0.00    -0.200 F 
ENDBRANCH  53  77
BRANCH  65  88
ATOM     88  C   UNL A   1      46.074  32.515  28.462  1.00  0.00     0.064 A 
ATOM     89  C   UNL A   1      46.623  32.868  29.703  1.00  0.00     0.173 A 
ATOM     90  C   UNL A   1      46.026  33.498  27.462  1.00  0.00     0.173 A 
ATOM     91  F   UNL A   1      46.678  31.970  30.698  1.00  0.00    -0.203 F 
ATOM     92  C   UNL A   1      47.069  34.165  29.947  1.00  0.00     0.198 A 
ATOM     93  C   UNL A   1      46.506  34.784  27.697  1.00  0.00     0.198 A 
ATOM     94  F   UNL A   1      45.518  33.212  26.254  1.00  0.00    -0.203 F 
ATOM     95  F   UNL A   1      47.529  34.497  31.161  1.00  0.00    -0.200 F 
ATOM     96  C   UNL A   1      47.016  35.120  28.942  1.00  0.00     0.200 A 
ATOM     97  F   UNL A   1      46.467  35.701  26.721  1.00  0.00    -0.200 F 
ATOM     98  F   UNL A   1      47.445  36.367  29.178  1.00  0.00    -0.200 F 
ENDBRANCH  65  88
ENDBRANCH  39  40
ENDBRANCH  31  34
ENDBRANCH  29  30
ENDBRANCH  28  29
ENDBRANCH  27  28
ENDBRANCH  26  27
ENDBRANCH   1  26
TORSDOF 17
ENDMDL
MODEL 2
REMARK VINA RESULT:     -11.4      0.828      2.105
REMARK SMILES C[C@@H](C(=O)NCc1ccco1)[N@H+]1CCCC[C@@H]1C(=O)NCCCCCCNC(=O)c1ccc(-c2c3nc(c(-c4c(F)c(F)c(F)c(F)c4F)c4ccc([nH]4)c(-c4c(F)c(F)c(F)c(F)c4F)c4nc(c(-c5c(F)c(F)c(F)c(F)c5F)c5ccc2[nH]5)C=C4)C=C3)cc1
REMARK SMILES IDX 22 1 21 2 20 3 18 4 19 5 17 7 12 8 13 9 14 11 16 12 15 13
REMARK SMILES IDX 2 14 1 15 3 16 4 17 5 18 6 20 7 21 8 22 11 23 9 24 10 25
REMARK SMILES IDX 23 26 24 27 25 28 26 29 27 30 28 31 29 33 30 34 31 35 92 36
REMARK SMILES IDX 32 37 91 38 33 39 34 40 35 41 85 42 36 43 90 44 84 45 86 46
REMARK SMILES IDX 37 47 89 48 83 49 82 50 38 52 70 53 50 54 69 55 51 56 54 57
REMARK SMILES IDX 68 58 87 59 52 60 53 61 67 63 88 64 55 65 39 66 40 67 48 68
REMARK SMILES IDX 41 69 42 70 46 71 49 72 43 73 44 74 47 75 45 76 71 77 72 78
REMARK SMILES IDX 80 79 73 80 74 81 78 82 81 83 75 84 76 85 79 86 77 87 56 88
REMARK SMILES IDX 57 89 65 90 58 91 59 92 63 93 66 94 60 95 61 96 64 97 62 98
REMARK H PARENT 20 6 12 10 5 19 27 32 86 51 54 62
REMARK Flexibility Score: inf
ROOT
ATOM      1  C   UNL A   1      36.083  22.166  25.764  1.00  0.00     0.021 C 
ENDROOT
BRANCH   1   2
ATOM      2  C   UNL A   1      35.320  23.460  26.041  1.00  0.00     0.116 C 
BRANCH   2   3
ATOM      3  N   UNL A   1      34.075  23.154  26.713  1.00  0.00    -0.351 N 
ATOM      4  C   UNL A   1      32.876  23.800  26.676  1.00  0.00     0.278 C 
ATOM      5  O   UNL A   1      32.013  23.415  27.469  1.00  0.00    -0.268 OA
ATOM      6  H   UNL A   1      34.098  22.354  27.287  1.00  0.00     0.163 HD
BRANCH   4   7
ATOM      7  C   UNL A   1      32.617  24.956  25.689  1.00  0.00     0.274 C 
ATOM      8  N   UNL A   1      32.651  24.492  24.267  1.00  0.00    -0.315 N 
ATOM      9  C   UNL A   1      32.510  25.614  23.332  1.00  0.00     0.263 C 
ATOM     10  H   UNL A   1      33.581  24.077  24.198  1.00  0.00     0.349 HD
ATOM     11  C   UNL A   1      33.579  26.679  23.566  1.00  0.00     0.062 C 
ATOM     12  C   UNL A   1      33.583  26.124  25.997  1.00  0.00     0.076 C 
ATOM     13  C   UNL A   1      33.481  27.245  24.972  1.00  0.00     0.012 C 
BRANCH   8  14
ATOM     14  C   UNL A   1      31.734  23.357  23.876  1.00  0.00     0.271 C 
ATOM     15  C   UNL A   1      30.473  23.996  23.284  1.00  0.00     0.086 C 
BRANCH  14  16
ATOM     16  C   UNL A   1      32.366  22.234  23.000  1.00  0.00     0.278 C 
ATOM     17  O   UNL A   1      32.919  22.444  21.919  1.00  0.00    -0.268 OA
ATOM     18  N   UNL A   1      32.420  20.948  23.454  1.00  0.00    -0.344 N 
ATOM     19  H   UNL A   1      32.238  20.245  22.790  1.00  0.00     0.164 HD
BRANCH  18  20
ATOM     20  C   UNL A   1      32.715  20.498  24.795  1.00  0.00     0.191 C 
BRANCH  20  21
ATOM     21  C   UNL A   1      33.009  19.043  24.843  1.00  0.00     0.122 A 
ATOM     22  C   UNL A   1      34.036  18.288  24.309  1.00  0.00     0.047 A 
ATOM     23  O   UNL A   1      32.121  18.223  25.479  1.00  0.00    -0.467 OA
ATOM     24  C   UNL A   1      33.766  16.941  24.648  1.00  0.00     0.042 A 
ATOM     25  C   UNL A   1      32.593  16.955  25.365  1.00  0.00     0.195 A 
ENDBRANCH  20  21
ENDBRANCH  18  20
ENDBRANCH  14  16
ENDBRANCH   8  14
ENDBRANCH   4   7
ENDBRANCH   2   3
ENDBRANCH   1   2
BRANCH   1  26
ATOM     26  C   UNL A   1      37.418  22.396  25.044  1.00  0.00     0.002 C 
BRANCH  26  27
ATOM     27  C   UNL A   1      38.633  22.484  25.974  1.00  0.00     0.002 C 
BRANCH  27  28
ATOM     28  C   UNL A   1      39.162  21.132  26.457  1.00  0.00     0.021 C 
BRANCH  28  29
ATOM     29  C   UNL A   1      39.360  20.106  25.346  1.00  0.00     0.116 C 
BRANCH  29  30
ATOM     30  N   UNL A   1      40.305  19.068  25.728  1.00  0.00    -0.352 N 
ATOM     31  C   UNL A   1      41.613  19.185  26.112  1.00  0.00     0.251 C 
ATOM     32  H   UNL A   1      39.952  18.149  25.708  1.00  0.00     0.163 HD
ATOM     33  O   UNL A   1      42.327  18.186  26.195  1.00  0.00    -0.269 OA
BRANCH  31  34
ATOM     34  C   UNL A   1      42.177  20.517  26.406  1.00  0.00     0.039 A 
ATOM     35  C   UNL A   1      42.615  21.311  25.344  1.00  0.00     0.014 A 
ATOM     36  C   UNL A   1      42.280  20.980  27.722  1.00  0.00     0.014 A 
ATOM     37  C   UNL A   1      43.103  22.592  25.597  1.00  0.00     0.010 A 
ATOM     38  C   UNL A   1      42.697  22.285  27.966  1.00  0.00     0.010 A 
ATOM     39  C   UNL A   1      43.115  23.104  26.907  1.00  0.00    -0.014 A 
BRANCH  39  40
ATOM     40  C   UNL A   1      43.540  24.501  27.168  1.00  0.00     0.031 A 
ATOM     41  C   UNL A   1      42.566  25.509  27.711  1.00  0.00     0.074 A 
ATOM     42  C   UNL A   1      44.802  24.869  26.875  1.00  0.00     0.049 A 
ATOM     43  N   UNL A   1      42.758  26.773  27.996  1.00  0.00    -0.248 NA
ATOM     44  C   UNL A   1      41.190  25.045  27.941  1.00  0.00     0.031 C 
ATOM     45  C   UNL A   1      45.821  23.996  26.290  1.00  0.00     0.029 A 
ATOM     46  N   UNL A   1      45.443  26.073  27.026  1.00  0.00    -0.354 N 
ATOM     47  C   UNL A   1      41.532  27.253  28.434  1.00  0.00     0.074 A 
ATOM     48  C   UNL A   1      40.586  26.163  28.320  1.00  0.00     0.031 C 
ATOM     49  C   UNL A   1      46.967  24.682  26.163  1.00  0.00     0.029 A 
ATOM     50  C   UNL A   1      46.755  26.051  26.622  1.00  0.00     0.049 A 
ATOM     51  H   UNL A   1      45.004  26.876  27.390  1.00  0.00     0.167 HD
ATOM     52  C   UNL A   1      41.227  28.484  28.912  1.00  0.00     0.037 A 
ATOM     53  C   UNL A   1      47.683  27.027  26.620  1.00  0.00     0.037 A 
ATOM     54  C   UNL A   1      42.174  29.562  29.034  1.00  0.00     0.049 A 
ATOM     55  C   UNL A   1      47.316  28.386  27.149  1.00  0.00     0.074 A 
ATOM     56  C   UNL A   1      41.979  30.827  29.560  1.00  0.00     0.029 A 
ATOM     57  N   UNL A   1      43.496  29.504  28.616  1.00  0.00    -0.354 N 
ATOM     58  N   UNL A   1      46.173  28.804  27.637  1.00  0.00    -0.248 NA
ATOM     59  C   UNL A   1      48.372  29.405  27.135  1.00  0.00     0.031 C 
ATOM     60  C   UNL A   1      43.167  31.552  29.410  1.00  0.00     0.029 A 
ATOM     61  C   UNL A   1      44.120  30.720  28.845  1.00  0.00     0.049 A 
ATOM     62  H   UNL A   1      43.927  28.714  28.216  1.00  0.00     0.167 HD
ATOM     63  C   UNL A   1      46.378  30.127  28.008  1.00  0.00     0.074 A 
ATOM     64  C   UNL A   1      47.764  30.430  27.714  1.00  0.00     0.031 C 
ATOM     65  C   UNL A   1      45.498  31.011  28.539  1.00  0.00     0.037 A 
BRANCH  52  66
ATOM     66  C   UNL A   1      39.808  28.731  29.341  1.00  0.00     0.064 A 
ATOM     67  C   UNL A   1      39.380  28.479  30.654  1.00  0.00     0.173 A 
ATOM     68  C   UNL A   1      38.874  29.265  28.440  1.00  0.00     0.173 A 
ATOM     69  F   UNL A   1      40.229  27.958  31.553  1.00  0.00    -0.203 F 
ATOM     70  C   UNL A   1      38.065  28.722  31.040  1.00  0.00     0.198 A 
ATOM     71  C   UNL A   1      37.567  29.539  28.838  1.00  0.00     0.198 A 
ATOM     72  F   UNL A   1      39.229  29.531  27.174  1.00  0.00    -0.203 F 
ATOM     73  F   UNL A   1      37.667  28.426  32.285  1.00  0.00    -0.200 F 
ATOM     74  C   UNL A   1      37.161  29.259  30.135  1.00  0.00     0.200 A 
ATOM     75  F   UNL A   1      36.700  30.071  27.967  1.00  0.00    -0.200 F 
ATOM     76  F   UNL A   1      35.898  29.503  30.510  1.00  0.00    -0.200 F 
ENDBRANCH  52  66
BRANCH  53  77
ATOM     77  C   UNL A   1      49.056  26.745  26.125  1.00  0.00     0.064 A 
ATOM     78  C   UNL A   1      49.418  27.025  24.800  1.00  0.00     0.173 A 
ATOM     79  C   UNL A   1      50.033  26.183  26.962  1.00  0.00     0.173 A 
ATOM     80  F   UNL A   1      48.514  27.543  23.956  1.00  0.00    -0.203 F 
ATOM     81  C   UNL A   1      50.694  26.732  24.324  1.00  0.00     0.198 A 
ATOM     82  C   UNL A   1      51.318  25.921  26.494  1.00  0.00     0.198 A 
ATOM     83  F   UNL A   1      49.741  25.903  28.241  1.00  0.00    -0.203 F 
ATOM     84  F   UNL A   1      50.996  26.962  23.039  1.00  0.00    -0.200 F 
ATOM     85  C   UNL A   1      51.645  26.186  25.173  1.00  0.00     0.200 A 
ATOM     86  F   UNL A   1      52.239  25.410  27.322  1.00  0.00    -0.200 F 
ATOM     87  F   UNL A   1      52.873  25.908  24.716  1.00  0.00    -0.200 F 
ENDBRANCH  53  77
BRANCH  65  88
ATOM     88  C   UNL A   1      46.019  32.385  28.854  1.00  0.00     0.064 A 
ATOM     89  C   UNL A   1      46.599  32.685  30.096  1.00  0.00     0.173 A 
ATOM     90  C   UNL A   1      45.948  33.410  27.899  1.00  0.00     0.173 A 
ATOM     91  F   UNL A   1      46.678  31.745  31.050  1.00  0.00    -0.203 F 
ATOM     92  C   UNL A   1      47.050  33.971  30.384  1.00  0.00     0.198 A 
ATOM     93  C   UNL A   1      46.432  34.685  28.177  1.00  0.00     0.198 A 
ATOM     94  F   UNL A   1      45.410  33.175  26.692  1.00  0.00    -0.203 F 
ATOM     95  F   UNL A   1      47.539  34.251  31.600  1.00  0.00    -0.200 F 
ATOM     96  C   UNL A   1      46.972  34.968  29.422  1.00  0.00     0.200 A 
ATOM     97  F   UNL A   1      46.370  35.643  27.242  1.00  0.00    -0.200 F 
ATOM     98  F   UNL A   1      47.406  36.205  29.701  1.00  0.00    -0.200 F 
ENDBRANCH  65  88
ENDBRANCH  39  40
ENDBRANCH  31  34
ENDBRANCH  29  30
ENDBRANCH  28  29
ENDBRANCH  27  28
ENDBRANCH  26  27
ENDBRANCH   1  26
TORSDOF 17
ENDMDL
MODEL 3
REMARK VINA RESULT:     -11.3      0.900      7.338
REMARK SMILES C[C@@H](C(=O)NCc1ccco1)[N@H+]1CCCC[C@@H]1C(=O)NCCCCCCNC(=O)c1ccc(-c2c3nc(c(-c4c(F)c(F)c(F)c(F)c4F)c4ccc([nH]4)c(-c4c(F)c(F)c(F)c(F)c4F)c4nc(c(-c5c(F)c(F)c(F)c(F)c5F)c5ccc2[nH]5)C=C4)C=C3)cc1
REMARK SMILES IDX 22 1 21 2 20 3 18 4 19 5 17 7 12 8 13 9 14 11 16 12 15 13
REMARK SMILES IDX 2 14 1 15 3 16 4 17 5 18 6 20 7 21 8 22 11 23 9 24 10 25
REMARK SMILES IDX 23 26 24 27 25 28 26 29 27 30 28 31 29 33 30 34 31 35 92 36
REMARK SMILES IDX 32 37 91 38 33 39 34 40 35 41 85 42 36 43 90 44 84 45 86 46
REMARK SMILES IDX 37 47 89 48 83 49 82 50 38 52 70 53 50 54 69 55 51 56 54 57
REMARK SMILES IDX 68 58 87 59 52 60 53 61 67 63 88 64 55 65 39 66 40 67 48 68
REMARK SMILES IDX 41 69 42 70 46 71 49 72 43 73 44 74 47 75 45 76 71 77 72 78
REMARK SMILES IDX 80 79 73 80 74 81 78 82 81 83 75 84 76 85 79 86 77 87 56 88
REMARK SMILES IDX 57 89 65 90 58 91 59 92 63 93 66 94 60 95 61 96 64 97 62 98
REMARK H PARENT 20 6 12 10 5 19 27 32 86 51 54 62
REMARK Flexibility Score: inf
ROOT
ATOM      1  C   UNL A   1      36.102  22.027  25.755  1.00  0.00     0.021 C 
ENDROOT
BRANCH   1   2
ATOM      2  C   UNL A   1      35.357  23.328  26.045  1.00  0.00     0.116 C 
BRANCH   2   3
ATOM      3  N   UNL A   1      34.128  23.035  26.753  1.00  0.00    -0.351 N 
ATOM      4  C   UNL A   1      32.943  23.707  26.767  1.00  0.00     0.278 C 
ATOM      5  O   UNL A   1      32.098  23.326  27.582  1.00  0.00    -0.268 OA
ATOM      6  H   UNL A   1      34.153  22.224  27.312  1.00  0.00     0.163 HD
BRANCH   4   7
ATOM      7  C   UNL A   1      32.677  24.887  25.811  1.00  0.00     0.274 C 
ATOM      8  N   UNL A   1      32.680  24.453  24.379  1.00  0.00    -0.315 N 
ATOM      9  C   UNL A   1      32.532  25.597  23.471  1.00  0.00     0.263 C 
ATOM     10  H   UNL A   1      33.604  24.031  24.283  1.00  0.00     0.349 HD
ATOM     11  C   UNL A   1      33.615  26.647  23.707  1.00  0.00     0.062 C 
ATOM     12  C   UNL A   1      33.659  26.038  26.126  1.00  0.00     0.076 C 
ATOM     13  C   UNL A   1      33.549  27.182  25.127  1.00  0.00     0.012 C 
BRANCH   8  14
ATOM     14  C   UNL A   1      31.744  23.335  23.981  1.00  0.00     0.271 C 
ATOM     15  C   UNL A   1      30.482  23.999  23.419  1.00  0.00     0.086 C 
BRANCH  14  16
ATOM     16  C   UNL A   1      32.352  22.222  23.076  1.00  0.00     0.278 C 
ATOM     17  O   UNL A   1      32.903  22.447  21.997  1.00  0.00    -0.268 OA
ATOM     18  N   UNL A   1      32.385  20.925  23.499  1.00  0.00    -0.344 N 
ATOM     19  H   UNL A   1      32.186  20.241  22.820  1.00  0.00     0.164 HD
BRANCH  18  20
ATOM     20  C   UNL A   1      32.678  20.439  24.828  1.00  0.00     0.191 C 
BRANCH  20  21
ATOM     21  C   UNL A   1      33.005  18.990  24.831  1.00  0.00     0.122 A 
ATOM     22  C   UNL A   1      34.032  18.271  24.251  1.00  0.00     0.047 A 
ATOM     23  O   UNL A   1      32.153  18.135  25.472  1.00  0.00    -0.467 OA
ATOM     24  C   UNL A   1      33.801  16.910  24.564  1.00  0.00     0.042 A 
ATOM     25  C   UNL A   1      32.649  16.881  25.313  1.00  0.00     0.195 A 
ENDBRANCH  20  21
ENDBRANCH  18  20
ENDBRANCH  14  16
ENDBRANCH   8  14
ENDBRANCH   4   7
ENDBRANCH   2   3
ENDBRANCH   1   2
BRANCH   1  26
ATOM     26  C   UNL A   1      37.434  22.244  25.026  1.00  0.00     0.002 C 
BRANCH  26  27
ATOM     27  C   UNL A   1      38.644  22.405  25.951  1.00  0.00     0.002 C 
BRANCH  27  28
ATOM     28  C   UNL A   1      39.236  21.087  26.457  1.00  0.00     0.021 C 
BRANCH  28  29
ATOM     29  C   UNL A   1      39.407  20.024  25.377  1.00  0.00     0.116 C 
BRANCH  29  30
ATOM     30  N   UNL A   1      40.395  19.024  25.751  1.00  0.00    -0.352 N 
ATOM     31  C   UNL A   1      41.698  19.194  26.130  1.00  0.00     0.251 C 
ATOM     32  H   UNL A   1      40.080  18.092  25.727  1.00  0.00     0.163 HD
ATOM     33  O   UNL A   1      42.453  18.224  26.206  1.00  0.00    -0.269 OA
BRANCH  31  34
ATOM     34  C   UNL A   1      42.208  20.546  26.428  1.00  0.00     0.039 A 
ATOM     35  C   UNL A   1      42.590  21.370  25.367  1.00  0.00     0.014 A 
ATOM     36  C   UNL A   1      42.315  21.001  27.747  1.00  0.00     0.014 A 
ATOM     37  C   UNL A   1      43.026  22.668  25.625  1.00  0.00     0.010 A 
ATOM     38  C   UNL A   1      42.678  22.320  27.997  1.00  0.00     0.010 A 
ATOM     39  C   UNL A   1      43.039  23.167  26.940  1.00  0.00    -0.014 A 
BRANCH  39  40
ATOM     40  C   UNL A   1      43.406  24.579  27.208  1.00  0.00     0.031 A 
ATOM     41  C   UNL A   1      44.800  25.073  26.938  1.00  0.00     0.074 A 
ATOM     42  C   UNL A   1      42.485  25.409  27.736  1.00  0.00     0.049 A 
ATOM     43  N   UNL A   1      45.302  26.270  27.115  1.00  0.00    -0.248 NA
ATOM     44  C   UNL A   1      45.765  24.088  26.425  1.00  0.00     0.031 C 
ATOM     45  C   UNL A   1      41.118  25.031  28.096  1.00  0.00     0.029 A 
ATOM     46  N   UNL A   1      42.560  26.739  28.065  1.00  0.00    -0.354 N 
ATOM     47  C   UNL A   1      46.635  26.180  26.739  1.00  0.00     0.074 A 
ATOM     48  C   UNL A   1      46.882  24.800  26.382  1.00  0.00     0.031 C 
ATOM     49  C   UNL A   1      40.472  26.111  28.563  1.00  0.00     0.029 A 
ATOM     50  C   UNL A   1      41.389  27.246  28.571  1.00  0.00     0.049 A 
ATOM     51  H   UNL A   1      43.375  27.279  27.948  1.00  0.00     0.167 HD
ATOM     52  C   UNL A   1      47.563  27.166  26.673  1.00  0.00     0.037 A 
ATOM     53  C   UNL A   1      41.088  28.488  28.996  1.00  0.00     0.037 A 
ATOM     54  C   UNL A   1      47.309  28.541  27.018  1.00  0.00     0.049 A 
ATOM     55  C   UNL A   1      42.139  29.561  28.918  1.00  0.00     0.074 A 
ATOM     56  C   UNL A   1      48.164  29.626  26.930  1.00  0.00     0.029 A 
ATOM     57  N   UNL A   1      46.109  29.020  27.527  1.00  0.00    -0.354 N 
ATOM     58  N   UNL A   1      43.374  29.482  28.484  1.00  0.00    -0.248 NA
ATOM     59  C   UNL A   1      41.750  30.899  29.383  1.00  0.00     0.031 C 
ATOM     60  C   UNL A   1      47.500  30.749  27.436  1.00  0.00     0.029 A 
ATOM     61  C   UNL A   1      46.212  30.378  27.785  1.00  0.00     0.049 A 
ATOM     62  H   UNL A   1      45.303  28.474  27.681  1.00  0.00     0.167 HD
ATOM     63  C   UNL A   1      43.902  30.762  28.602  1.00  0.00     0.074 A 
ATOM     64  C   UNL A   1      42.842  31.602  29.122  1.00  0.00     0.031 C 
ATOM     65  C   UNL A   1      45.151  31.200  28.311  1.00  0.00     0.037 A 
BRANCH  52  66
ATOM     66  C   UNL A   1      48.942  26.792  26.209  1.00  0.00     0.064 A 
ATOM     67  C   UNL A   1      49.334  26.942  24.869  1.00  0.00     0.173 A 
ATOM     68  C   UNL A   1      49.897  26.317  27.120  1.00  0.00     0.173 A 
ATOM     69  F   UNL A   1      48.458  27.382  23.954  1.00  0.00    -0.203 F 
ATOM     70  C   UNL A   1      50.619  26.601  24.454  1.00  0.00     0.198 A 
ATOM     71  C   UNL A   1      51.192  26.008  26.709  1.00  0.00     0.198 A 
ATOM     72  F   UNL A   1      49.579  26.160  28.414  1.00  0.00    -0.203 F 
ATOM     73  F   UNL A   1      50.955  26.705  23.161  1.00  0.00    -0.200 F 
ATOM     74  C   UNL A   1      51.549  26.142  25.375  1.00  0.00     0.200 A 
ATOM     75  F   UNL A   1      52.093  25.579  27.603  1.00  0.00    -0.200 F 
ATOM     76  F   UNL A   1      52.789  25.824  24.977  1.00  0.00    -0.200 F 
ENDBRANCH  52  66
BRANCH  53  77
ATOM     77  C   UNL A   1      39.725  28.789  29.506  1.00  0.00     0.064 A 
ATOM     78  C   UNL A   1      39.405  28.613  30.859  1.00  0.00     0.173 A 
ATOM     79  C   UNL A   1      38.711  29.251  28.652  1.00  0.00     0.173 A 
ATOM     80  F   UNL A   1      40.335  28.155  31.712  1.00  0.00    -0.203 F 
ATOM     81  C   UNL A   1      38.120  28.863  31.335  1.00  0.00     0.198 A 
ATOM     82  C   UNL A   1      37.436  29.531  29.135  1.00  0.00     0.198 A 
ATOM     83  F   UNL A   1      38.966  29.442  27.349  1.00  0.00    -0.203 F 
ATOM     84  F   UNL A   1      37.829  28.637  32.624  1.00  0.00    -0.200 F 
ATOM     85  C   UNL A   1      37.138  29.328  30.474  1.00  0.00     0.200 A 
ATOM     86  F   UNL A   1      36.494  29.996  28.303  1.00  0.00    -0.200 F 
ATOM     87  F   UNL A   1      35.903  29.572  30.932  1.00  0.00    -0.200 F 
ENDBRANCH  53  77
BRANCH  65  88
ATOM     88  C   UNL A   1      45.429  32.661  28.530  1.00  0.00     0.064 A 
ATOM     89  C   UNL A   1      45.169  33.617  27.537  1.00  0.00     0.173 A 
ATOM     90  C   UNL A   1      45.952  33.110  29.752  1.00  0.00     0.173 A 
ATOM     91  F   UNL A   1      44.684  33.238  26.345  1.00  0.00    -0.203 F 
ATOM     92  C   UNL A   1      45.460  34.963  27.745  1.00  0.00     0.198 A 
ATOM     93  C   UNL A   1      46.208  34.461  29.970  1.00  0.00     0.198 A 
ATOM     94  F   UNL A   1      46.211  32.239  30.739  1.00  0.00    -0.203 F 
ATOM     95  F   UNL A   1      45.266  35.848  26.758  1.00  0.00    -0.200 F 
ATOM     96  C   UNL A   1      45.973  35.384  28.962  1.00  0.00     0.200 A 
ATOM     97  F   UNL A   1      46.690  34.868  31.152  1.00  0.00    -0.200 F 
ATOM     98  F   UNL A   1      46.253  36.680  29.160  1.00  0.00    -0.200 F 
ENDBRANCH  65  88
ENDBRANCH  39  40
ENDBRANCH  31  34
ENDBRANCH  29  30
ENDBRANCH  28  29
ENDBRANCH  27  28
ENDBRANCH  26  27
ENDBRANCH   1  26
TORSDOF 17
ENDMDL
