MODEL 1
REMARK VINA RESULT:     -10.8      0.000      0.000
REMARK SMILES COCC[C@H](NC(=O)N1CC[C@H](C(=O)OC)C1)C(=O)NCCCCCCNC(=O)c1ccc(-c2c3nc(c(-c4c(F)c(F)c(F)c(F)c4F)c4ccc([nH]4)c(-c4c(F)c(F)c(F)c(F)c4F)c4nc(c(-c5c(F)c(F)c(F)c(F)c5F)c5ccc2[nH]5)C=C4)C=C3)cc1
REMARK SMILES IDX 22 1 21 2 20 3 18 4 19 5 5 7 4 8 3 9 2 10 1 11 6 12 7 13
REMARK SMILES IDX 8 15 9 16 10 17 17 18 11 19 12 20 13 21 14 22 15 23 16 24
REMARK SMILES IDX 23 25 24 26 25 27 26 28 27 29 28 30 29 32 30 33 31 34 92 35
REMARK SMILES IDX 32 36 91 37 33 38 34 39 35 40 85 41 36 42 90 43 84 44 86 45
REMARK SMILES IDX 37 46 89 47 83 48 82 49 38 51 70 52 50 53 69 54 51 55 54 56
REMARK SMILES IDX 68 57 87 58 52 59 53 60 67 62 88 63 55 64 39 65 40 66 48 67
REMARK SMILES IDX 41 68 42 69 46 70 49 71 43 72 44 73 47 74 45 75 71 76 72 77
REMARK SMILES IDX 80 78 73 79 74 80 78 81 81 82 75 83 76 84 79 85 77 86 56 87
REMARK SMILES IDX 57 88 65 89 58 90 59 91 63 92 66 93 60 94 61 95 64 96 62 97
REMARK H PARENT 20 6 6 14 27 31 86 50 54 61
REMARK Flexibility Score: inf
ROOT
ATOM      1  C   UNL A   1      33.017  28.686  27.126  1.00  0.00     0.021 C 
ENDROOT
BRANCH   1   2
ATOM      2  C   UNL A   1      33.522  28.153  25.795  1.00  0.00     0.116 C 
BRANCH   2   3
ATOM      3  N   UNL A   1      34.169  26.863  25.888  1.00  0.00    -0.354 N 
ATOM      4  C   UNL A   1      33.813  25.660  25.348  1.00  0.00     0.242 C 
ATOM      5  O   UNL A   1      34.709  24.816  25.236  1.00  0.00    -0.273 OA
ATOM      6  H   UNL A   1      34.995  26.850  26.423  1.00  0.00     0.163 HD
BRANCH   4   7
ATOM      7  C   UNL A   1      32.390  25.351  24.841  1.00  0.00     0.175 C 
BRANCH   7   8
ATOM      8  C   UNL A   1      31.599  24.133  25.357  1.00  0.00     0.063 C 
BRANCH   8   9
ATOM      9  C   UNL A   1      31.914  22.726  24.876  1.00  0.00     0.162 C 
BRANCH   9  10
ATOM     10  O   UNL A   1      32.779  22.620  23.749  1.00  0.00    -0.385 OA
ATOM     11  C   UNL A   1      32.267  22.007  22.580  1.00  0.00     0.194 C 
ENDBRANCH   9  10
ENDBRANCH   8   9
ENDBRANCH   7   8
BRANCH   7  12
ATOM     12  N   UNL A   1      32.341  25.526  23.390  1.00  0.00    -0.326 N 
ATOM     13  C   UNL A   1      31.524  26.245  22.594  1.00  0.00     0.318 C 
ATOM     14  H   UNL A   1      33.034  25.024  22.903  1.00  0.00     0.166 HD
ATOM     15  O   UNL A   1      31.587  26.003  21.387  1.00  0.00    -0.249 OA
BRANCH  13  16
ATOM     16  N   UNL A   1      30.603  27.098  23.101  1.00  0.00    -0.324 N 
ATOM     17  C   UNL A   1      29.283  26.886  23.672  1.00  0.00     0.122 C 
ATOM     18  C   UNL A   1      30.921  28.516  23.180  1.00  0.00     0.136 C 
ATOM     19  C   UNL A   1      28.525  28.096  23.156  1.00  0.00     0.039 C 
ATOM     20  C   UNL A   1      29.566  29.214  23.312  1.00  0.00     0.120 C 
BRANCH  20  21
ATOM     21  C   UNL A   1      29.409  30.330  22.311  1.00  0.00     0.310 C 
ATOM     22  O   UNL A   1      29.461  30.154  21.100  1.00  0.00    -0.252 OA
BRANCH  21  23
ATOM     23  O   UNL A   1      29.201  31.533  22.911  1.00  0.00    -0.469 OA
ATOM     24  C   UNL A   1      28.455  32.459  22.120  1.00  0.00     0.282 C 
ENDBRANCH  21  23
ENDBRANCH  20  21
ENDBRANCH  13  16
ENDBRANCH   7  12
ENDBRANCH   4   7
ENDBRANCH   2   3
ENDBRANCH   1   2
BRANCH   1  25
ATOM     25  C   UNL A   1      31.722  29.499  27.021  1.00  0.00     0.002 C 
BRANCH  25  26
ATOM     26  C   UNL A   1      31.754  30.696  26.060  1.00  0.00     0.002 C 
BRANCH  26  27
ATOM     27  C   UNL A   1      31.448  32.062  26.678  1.00  0.00     0.021 C 
BRANCH  27  28
ATOM     28  C   UNL A   1      32.641  32.774  27.302  1.00  0.00     0.116 C 
BRANCH  28  29
ATOM     29  N   UNL A   1      32.357  34.154  27.654  1.00  0.00    -0.352 N 
ATOM     30  C   UNL A   1      32.956  34.948  28.600  1.00  0.00     0.251 C 
ATOM     31  H   UNL A   1      31.632  34.580  27.142  1.00  0.00     0.163 HD
ATOM     32  O   UNL A   1      32.513  36.059  28.852  1.00  0.00    -0.269 OA
BRANCH  30  33
ATOM     33  C   UNL A   1      34.127  34.432  29.343  1.00  0.00     0.039 A 
ATOM     34  C   UNL A   1      33.911  33.775  30.557  1.00  0.00     0.014 A 
ATOM     35  C   UNL A   1      35.423  34.583  28.842  1.00  0.00     0.014 A 
ATOM     36  C   UNL A   1      34.992  33.216  31.240  1.00  0.00     0.010 A 
ATOM     37  C   UNL A   1      36.487  33.957  29.483  1.00  0.00     0.010 A 
ATOM     38  C   UNL A   1      36.284  33.272  30.690  1.00  0.00    -0.014 A 
BRANCH  38  39
ATOM     39  C   UNL A   1      37.432  32.621  31.369  1.00  0.00     0.031 A 
ATOM     40  C   UNL A   1      38.151  31.479  30.709  1.00  0.00     0.074 A 
ATOM     41  C   UNL A   1      37.789  33.023  32.604  1.00  0.00     0.049 A 
ATOM     42  N   UNL A   1      39.141  30.751  31.161  1.00  0.00    -0.248 NA
ATOM     43  C   UNL A   1      37.678  31.083  29.373  1.00  0.00     0.031 C 
ATOM     44  C   UNL A   1      37.135  34.088  33.368  1.00  0.00     0.029 A 
ATOM     45  N   UNL A   1      38.783  32.578  33.439  1.00  0.00    -0.354 N 
ATOM     46  C   UNL A   1      39.400  29.810  30.174  1.00  0.00     0.074 A 
ATOM     47  C   UNL A   1      38.424  30.017  29.126  1.00  0.00     0.031 C 
ATOM     48  C   UNL A   1      37.763  34.231  34.547  1.00  0.00     0.029 A 
ATOM     49  C   UNL A   1      38.833  33.243  34.640  1.00  0.00     0.049 A 
ATOM     50  H   UNL A   1      39.403  31.851  33.200  1.00  0.00     0.167 HD
ATOM     51  C   UNL A   1      40.377  28.873  30.134  1.00  0.00     0.037 A 
ATOM     52  C   UNL A   1      39.644  33.069  35.700  1.00  0.00     0.037 A 
ATOM     53  C   UNL A   1      41.356  28.683  31.174  1.00  0.00     0.049 A 
ATOM     54  C   UNL A   1      40.713  32.010  35.638  1.00  0.00     0.074 A 
ATOM     55  C   UNL A   1      42.423  27.803  31.204  1.00  0.00     0.029 A 
ATOM     56  N   UNL A   1      41.380  29.381  32.373  1.00  0.00    -0.354 N 
ATOM     57  N   UNL A   1      40.996  31.175  34.668  1.00  0.00    -0.248 NA
ATOM     58  C   UNL A   1      41.579  31.875  36.817  1.00  0.00     0.031 C 
ATOM     59  C   UNL A   1      43.056  27.926  32.445  1.00  0.00     0.029 A 
ATOM     60  C   UNL A   1      42.425  28.930  33.163  1.00  0.00     0.049 A 
ATOM     61  H   UNL A   1      40.747  30.093  32.625  1.00  0.00     0.167 HD
ATOM     62  C   UNL A   1      42.089  30.439  35.104  1.00  0.00     0.074 A 
ATOM     63  C   UNL A   1      42.427  30.937  36.421  1.00  0.00     0.031 C 
ATOM     64  C   UNL A   1      42.754  29.440  34.471  1.00  0.00     0.037 A 
BRANCH  51  65
ATOM     65  C   UNL A   1      40.435  27.979  28.929  1.00  0.00     0.064 A 
ATOM     66  C   UNL A   1      39.741  26.761  28.877  1.00  0.00     0.173 A 
ATOM     67  C   UNL A   1      41.172  28.359  27.795  1.00  0.00     0.173 A 
ATOM     68  F   UNL A   1      39.029  26.343  29.935  1.00  0.00    -0.203 F 
ATOM     69  C   UNL A   1      39.810  25.941  27.753  1.00  0.00     0.198 A 
ATOM     70  C   UNL A   1      41.210  27.553  26.660  1.00  0.00     0.198 A 
ATOM     71  F   UNL A   1      41.850  29.516  27.786  1.00  0.00    -0.203 F 
ATOM     72  F   UNL A   1      39.185  24.755  27.751  1.00  0.00    -0.200 F 
ATOM     73  C   UNL A   1      40.538  26.341  26.643  1.00  0.00     0.200 A 
ATOM     74  F   UNL A   1      41.901  27.951  25.582  1.00  0.00    -0.200 F 
ATOM     75  F   UNL A   1      40.598  25.555  25.560  1.00  0.00    -0.200 F 
ENDBRANCH  51  65
BRANCH  52  76
ATOM     76  C   UNL A   1      39.492  33.931  36.902  1.00  0.00     0.064 A 
ATOM     77  C   UNL A   1      40.114  35.185  36.974  1.00  0.00     0.173 A 
ATOM     78  C   UNL A   1      38.726  33.520  38.003  1.00  0.00     0.173 A 
ATOM     79  F   UNL A   1      40.872  35.616  35.956  1.00  0.00    -0.203 F 
ATOM     80  C   UNL A   1      39.995  35.985  38.109  1.00  0.00     0.198 A 
ATOM     81  C   UNL A   1      38.581  34.334  39.125  1.00  0.00     0.198 A 
ATOM     82  F   UNL A   1      38.104  32.331  37.984  1.00  0.00    -0.203 F 
ATOM     83  F   UNL A   1      40.640  37.157  38.171  1.00  0.00    -0.200 F 
ATOM     84  C   UNL A   1      39.223  35.561  39.181  1.00  0.00     0.200 A 
ATOM     85  F   UNL A   1      37.820  33.927  40.150  1.00  0.00    -0.200 F 
ATOM     86  F   UNL A   1      39.105  36.332  40.271  1.00  0.00    -0.200 F 
ENDBRANCH  52  76
BRANCH  64  87
ATOM     87  C   UNL A   1      43.937  28.843  35.177  1.00  0.00     0.064 A 
ATOM     88  C   UNL A   1      45.233  29.354  35.013  1.00  0.00     0.173 A 
ATOM     89  C   UNL A   1      43.764  27.766  36.060  1.00  0.00     0.173 A 
ATOM     90  F   UNL A   1      45.455  30.374  34.169  1.00  0.00    -0.203 F 
ATOM     91  C   UNL A   1      46.315  28.793  35.685  1.00  0.00     0.198 A 
ATOM     92  C   UNL A   1      44.842  27.229  36.758  1.00  0.00     0.198 A 
ATOM     93  F   UNL A   1      42.545  27.243  36.259  1.00  0.00    -0.203 F 
ATOM     94  F   UNL A   1      47.551  29.264  35.473  1.00  0.00    -0.200 F 
ATOM     95  C   UNL A   1      46.118  27.737  36.563  1.00  0.00     0.200 A 
ATOM     96  F   UNL A   1      44.647  26.221  37.618  1.00  0.00    -0.200 F 
ATOM     97  F   UNL A   1      47.159  27.203  37.216  1.00  0.00    -0.200 F 
ENDBRANCH  64  87
ENDBRANCH  38  39
ENDBRANCH  30  33
ENDBRANCH  28  29
ENDBRANCH  27  28
ENDBRANCH  26  27
ENDBRANCH  25  26
ENDBRANCH   1  25
TORSDOF 20
ENDMDL
MODEL 2
REMARK VINA RESULT:     -10.6      1.610      3.721
REMARK SMILES COCC[C@H](NC(=O)N1CC[C@H](C(=O)OC)C1)C(=O)NCCCCCCNC(=O)c1ccc(-c2c3nc(c(-c4c(F)c(F)c(F)c(F)c4F)c4ccc([nH]4)c(-c4c(F)c(F)c(F)c(F)c4F)c4nc(c(-c5c(F)c(F)c(F)c(F)c5F)c5ccc2[nH]5)C=C4)C=C3)cc1
REMARK SMILES IDX 22 1 21 2 20 3 18 4 19 5 5 7 4 8 3 9 2 10 1 11 6 12 7 13
REMARK SMILES IDX 8 15 9 16 10 17 17 18 11 19 12 20 13 21 14 22 15 23 16 24
REMARK SMILES IDX 23 25 24 26 25 27 26 28 27 29 28 30 29 32 30 33 31 34 92 35
REMARK SMILES IDX 32 36 91 37 33 38 34 39 35 40 85 41 36 42 90 43 84 44 86 45
REMARK SMILES IDX 37 46 89 47 83 48 82 49 38 51 70 52 50 53 69 54 51 55 54 56
REMARK SMILES IDX 68 57 87 58 52 59 53 60 67 62 88 63 55 64 39 65 40 66 48 67
REMARK SMILES IDX 41 68 42 69 46 70 49 71 43 72 44 73 47 74 45 75 71 76 72 77
REMARK SMILES IDX 80 78 73 79 74 80 78 81 81 82 75 83 76 84 79 85 77 86 56 87
REMARK SMILES IDX 57 88 65 89 58 90 59 91 63 92 66 93 60 94 61 95 64 96 62 97
REMARK H PARENT 20 6 6 14 27 31 86 50 54 61
REMARK Flexibility Score: inf
ROOT
ATOM      1  C   UNL A   1      32.722  28.454  27.304  1.00  0.00     0.021 C 
ENDROOT
BRANCH   1   2
ATOM      2  C   UNL A   1      33.061  27.845  25.952  1.00  0.00     0.116 C 
BRANCH   2   3
ATOM      3  N   UNL A   1      33.944  26.702  26.030  1.00  0.00    -0.354 N 
ATOM      4  C   UNL A   1      33.870  25.491  25.404  1.00  0.00     0.242 C 
ATOM      5  O   UNL A   1      34.920  24.846  25.318  1.00  0.00    -0.273 OA
ATOM      6  H   UNL A   1      34.719  26.815  26.626  1.00  0.00     0.163 HD
BRANCH   4   7
ATOM      7  C   UNL A   1      32.572  24.945  24.774  1.00  0.00     0.175 C 
BRANCH   7   8
ATOM      8  C   UNL A   1      32.009  25.526  23.462  1.00  0.00     0.063 C 
BRANCH   8   9
ATOM      9  C   UNL A   1      32.887  26.322  22.510  1.00  0.00     0.162 C 
BRANCH   9  10
ATOM     10  O   UNL A   1      33.537  25.584  21.479  1.00  0.00    -0.385 OA
ATOM     11  C   UNL A   1      33.236  24.205  21.366  1.00  0.00     0.194 C 
ENDBRANCH   9  10
ENDBRANCH   8   9
ENDBRANCH   7   8
BRANCH   7  12
ATOM     12  N   UNL A   1      31.569  24.746  25.820  1.00  0.00    -0.326 N 
ATOM     13  C   UNL A   1      31.380  23.753  26.712  1.00  0.00     0.318 C 
ATOM     14  H   UNL A   1      30.908  25.473  25.884  1.00  0.00     0.166 HD
ATOM     15  O   UNL A   1      30.303  23.756  27.311  1.00  0.00    -0.249 OA
BRANCH  13  16
ATOM     16  N   UNL A   1      32.270  22.742  26.855  1.00  0.00    -0.324 N 
ATOM     17  C   UNL A   1      33.116  22.334  27.965  1.00  0.00     0.122 C 
ATOM     18  C   UNL A   1      32.448  21.798  25.763  1.00  0.00     0.136 C 
ATOM     19  C   UNL A   1      34.376  21.888  27.245  1.00  0.00     0.039 C 
ATOM     20  C   UNL A   1      33.802  21.137  26.034  1.00  0.00     0.120 C 
BRANCH  20  21
ATOM     21  C   UNL A   1      34.697  21.170  24.822  1.00  0.00     0.310 C 
ATOM     22  O   UNL A   1      34.461  21.856  23.836  1.00  0.00    -0.252 OA
BRANCH  21  23
ATOM     23  O   UNL A   1      35.780  20.360  24.963  1.00  0.00    -0.469 OA
ATOM     24  C   UNL A   1      37.032  21.047  24.919  1.00  0.00     0.282 C 
ENDBRANCH  21  23
ENDBRANCH  20  21
ENDBRANCH  13  16
ENDBRANCH   7  12
ENDBRANCH   4   7
ENDBRANCH   2   3
ENDBRANCH   1   2
BRANCH   1  25
ATOM     25  C   UNL A   1      31.622  29.520  27.248  1.00  0.00     0.002 C 
BRANCH  25  26
ATOM     26  C   UNL A   1      31.768  30.582  26.148  1.00  0.00     0.002 C 
BRANCH  26  27
ATOM     27  C   UNL A   1      31.509  32.028  26.574  1.00  0.00     0.021 C 
BRANCH  27  28
ATOM     28  C   UNL A   1      32.679  32.726  27.254  1.00  0.00     0.116 C 
BRANCH  28  29
ATOM     29  N   UNL A   1      32.387  34.101  27.619  1.00  0.00    -0.352 N 
ATOM     30  C   UNL A   1      32.979  34.889  28.575  1.00  0.00     0.251 C 
ATOM     31  H   UNL A   1      31.661  34.528  27.109  1.00  0.00     0.163 HD
ATOM     32  O   UNL A   1      32.529  35.995  28.835  1.00  0.00    -0.269 OA
BRANCH  30  33
ATOM     33  C   UNL A   1      34.150  34.373  29.316  1.00  0.00     0.039 A 
ATOM     34  C   UNL A   1      33.935  33.712  30.528  1.00  0.00     0.014 A 
ATOM     35  C   UNL A   1      35.446  34.526  28.815  1.00  0.00     0.014 A 
ATOM     36  C   UNL A   1      35.017  33.152  31.209  1.00  0.00     0.010 A 
ATOM     37  C   UNL A   1      36.512  33.900  29.454  1.00  0.00     0.010 A 
ATOM     38  C   UNL A   1      36.309  33.211  30.659  1.00  0.00    -0.014 A 
BRANCH  38  39
ATOM     39  C   UNL A   1      37.458  32.559  31.336  1.00  0.00     0.031 A 
ATOM     40  C   UNL A   1      38.168  31.409  30.679  1.00  0.00     0.074 A 
ATOM     41  C   UNL A   1      37.824  32.968  32.566  1.00  0.00     0.049 A 
ATOM     42  N   UNL A   1      39.158  30.680  31.131  1.00  0.00    -0.248 NA
ATOM     43  C   UNL A   1      37.685  31.006  29.350  1.00  0.00     0.031 C 
ATOM     44  C   UNL A   1      37.180  34.042  33.326  1.00  0.00     0.029 A 
ATOM     45  N   UNL A   1      38.821  32.525  33.398  1.00  0.00    -0.354 N 
ATOM     46  C   UNL A   1      39.406  29.731  30.150  1.00  0.00     0.074 A 
ATOM     47  C   UNL A   1      38.425  29.935  29.105  1.00  0.00     0.031 C 
ATOM     48  C   UNL A   1      37.815  34.190  34.500  1.00  0.00     0.029 A 
ATOM     49  C   UNL A   1      38.881  33.198  34.594  1.00  0.00     0.049 A 
ATOM     50  H   UNL A   1      39.436  31.793  33.160  1.00  0.00     0.167 HD
ATOM     51  C   UNL A   1      40.379  28.789  30.111  1.00  0.00     0.037 A 
ATOM     52  C   UNL A   1      39.698  33.028  35.651  1.00  0.00     0.037 A 
ATOM     53  C   UNL A   1      41.362  28.602  31.146  1.00  0.00     0.049 A 
ATOM     54  C   UNL A   1      40.761  31.964  35.590  1.00  0.00     0.074 A 
ATOM     55  C   UNL A   1      42.426  27.717  31.176  1.00  0.00     0.029 A 
ATOM     56  N   UNL A   1      41.397  29.309  32.340  1.00  0.00    -0.354 N 
ATOM     57  N   UNL A   1      41.035  31.121  34.624  1.00  0.00    -0.248 NA
ATOM     58  C   UNL A   1      41.633  31.833  36.764  1.00  0.00     0.031 C 
ATOM     59  C   UNL A   1      43.067  27.846  32.412  1.00  0.00     0.029 A 
ATOM     60  C   UNL A   1      42.445  28.858  33.127  1.00  0.00     0.049 A 
ATOM     61  H   UNL A   1      40.769  30.025  32.590  1.00  0.00     0.167 HD
ATOM     62  C   UNL A   1      42.127  30.382  35.059  1.00  0.00     0.074 A 
ATOM     63  C   UNL A   1      42.475  30.888  36.371  1.00  0.00     0.031 C 
ATOM     64  C   UNL A   1      42.783  29.376  34.429  1.00  0.00     0.037 A 
BRANCH  51  65
ATOM     65  C   UNL A   1      40.425  27.886  28.911  1.00  0.00     0.064 A 
ATOM     66  C   UNL A   1      41.195  28.198  27.780  1.00  0.00     0.173 A 
ATOM     67  C   UNL A   1      39.713  26.676  28.903  1.00  0.00     0.173 A 
ATOM     68  F   UNL A   1      41.886  29.347  27.729  1.00  0.00    -0.203 F 
ATOM     69  C   UNL A   1      41.222  27.352  26.673  1.00  0.00     0.198 A 
ATOM     70  C   UNL A   1      39.772  25.816  27.809  1.00  0.00     0.198 A 
ATOM     71  F   UNL A   1      38.967  26.323  29.960  1.00  0.00    -0.203 F 
ATOM     72  F   UNL A   1      41.919  27.701  25.583  1.00  0.00    -0.200 F 
ATOM     73  C   UNL A   1      40.517  26.159  26.692  1.00  0.00     0.200 A 
ATOM     74  F   UNL A   1      39.103  24.655  27.836  1.00  0.00    -0.200 F 
ATOM     75  F   UNL A   1      40.550  25.343  25.630  1.00  0.00    -0.200 F 
ENDBRANCH  51  65
BRANCH  52  76
ATOM     76  C   UNL A   1      39.556  33.899  36.848  1.00  0.00     0.064 A 
ATOM     77  C   UNL A   1      38.789  33.494  37.948  1.00  0.00     0.173 A 
ATOM     78  C   UNL A   1      40.180  35.154  36.915  1.00  0.00     0.173 A 
ATOM     79  F   UNL A   1      38.157  32.311  37.925  1.00  0.00    -0.203 F 
ATOM     80  C   UNL A   1      38.632  34.318  39.061  1.00  0.00     0.198 A 
ATOM     81  C   UNL A   1      40.049  35.964  38.041  1.00  0.00     0.198 A 
ATOM     82  F   UNL A   1      40.930  35.588  35.892  1.00  0.00    -0.203 F 
ATOM     83  F   UNL A   1      37.853  33.926  40.078  1.00  0.00    -0.200 F 
ATOM     84  C   UNL A   1      39.267  35.550  39.109  1.00  0.00     0.200 A 
ATOM     85  F   UNL A   1      40.678  37.146  38.089  1.00  0.00    -0.200 F 
ATOM     86  F   UNL A   1      39.121  36.341  40.180  1.00  0.00    -0.200 F 
ENDBRANCH  52  76
BRANCH  64  87
ATOM     87  C   UNL A   1      43.968  28.778  35.132  1.00  0.00     0.064 A 
ATOM     88  C   UNL A   1      45.264  29.287  34.963  1.00  0.00     0.173 A 
ATOM     89  C   UNL A   1      43.796  27.703  36.019  1.00  0.00     0.173 A 
ATOM     90  F   UNL A   1      45.485  30.305  34.116  1.00  0.00    -0.203 F 
ATOM     91  C   UNL A   1      46.347  28.725  35.633  1.00  0.00     0.198 A 
ATOM     92  C   UNL A   1      44.876  27.166  36.714  1.00  0.00     0.198 A 
ATOM     93  F   UNL A   1      42.577  27.183  36.223  1.00  0.00    -0.203 F 
ATOM     94  F   UNL A   1      47.583  29.193  35.415  1.00  0.00    -0.200 F 
ATOM     95  C   UNL A   1      46.151  27.671  36.514  1.00  0.00     0.200 A 
ATOM     96  F   UNL A   1      44.682  26.160  37.577  1.00  0.00    -0.200 F 
ATOM     97  F   UNL A   1      47.194  27.137  37.164  1.00  0.00    -0.200 F 
ENDBRANCH  64  87
ENDBRANCH  38  39
ENDBRANCH  30  33
ENDBRANCH  28  29
ENDBRANCH  27  28
ENDBRANCH  26  27
ENDBRANCH  25  26
ENDBRANCH   1  25
TORSDOF 20
ENDMDL
MODEL 3
REMARK VINA RESULT:     -10.2      0.938      2.208
REMARK SMILES COCC[C@H](NC(=O)N1CC[C@H](C(=O)OC)C1)C(=O)NCCCCCCNC(=O)c1ccc(-c2c3nc(c(-c4c(F)c(F)c(F)c(F)c4F)c4ccc([nH]4)c(-c4c(F)c(F)c(F)c(F)c4F)c4nc(c(-c5c(F)c(F)c(F)c(F)c5F)c5ccc2[nH]5)C=C4)C=C3)cc1
REMARK SMILES IDX 22 1 21 2 20 3 18 4 19 5 5 7 4 8 3 9 2 10 1 11 6 12 7 13
REMARK SMILES IDX 8 15 9 16 10 17 17 18 11 19 12 20 13 21 14 22 15 23 16 24
REMARK SMILES IDX 23 25 24 26 25 27 26 28 27 29 28 30 29 32 30 33 31 34 92 35
REMARK SMILES IDX 32 36 91 37 33 38 34 39 35 40 85 41 36 42 90 43 84 44 86 45
REMARK SMILES IDX 37 46 89 47 83 48 82 49 38 51 70 52 50 53 69 54 51 55 54 56
REMARK SMILES IDX 68 57 87 58 52 59 53 60 67 62 88 63 55 64 39 65 40 66 48 67
REMARK SMILES IDX 41 68 42 69 46 70 49 71 43 72 44 73 47 74 45 75 71 76 72 77
REMARK SMILES IDX 80 78 73 79 74 80 78 81 81 82 75 83 76 84 79 85 77 86 56 87
REMARK SMILES IDX 57 88 65 89 58 90 59 91 63 92 66 93 60 94 61 95 64 96 62 97
REMARK H PARENT 20 6 6 14 27 31 86 50 54 61
REMARK Flexibility Score: inf
ROOT
ATOM      1  C   UNL A   1      33.875  29.168  26.292  1.00  0.00     0.021 C 
ENDROOT
BRANCH   1   2
ATOM      2  C   UNL A   1      33.536  27.696  26.457  1.00  0.00     0.116 C 
BRANCH   2   3
ATOM      3  N   UNL A   1      32.128  27.439  26.668  1.00  0.00    -0.354 N 
ATOM      4  C   UNL A   1      31.250  26.697  25.931  1.00  0.00     0.242 C 
ATOM      5  O   UNL A   1      30.230  26.309  26.511  1.00  0.00    -0.273 OA
ATOM      6  H   UNL A   1      31.744  27.865  27.467  1.00  0.00     0.163 HD
BRANCH   4   7
ATOM      7  C   UNL A   1      31.508  26.296  24.465  1.00  0.00     0.175 C 
BRANCH   7   8
ATOM      8  C   UNL A   1      32.081  24.912  24.098  1.00  0.00     0.063 C 
BRANCH   8   9
ATOM      9  C   UNL A   1      31.168  23.726  23.832  1.00  0.00     0.162 C 
BRANCH   9  10
ATOM     10  O   UNL A   1      31.696  22.439  24.140  1.00  0.00    -0.385 OA
ATOM     11  C   UNL A   1      33.089  22.241  23.980  1.00  0.00     0.194 C 
ENDBRANCH   9  10
ENDBRANCH   8   9
ENDBRANCH   7   8
BRANCH   7  12
ATOM     12  N   UNL A   1      32.138  27.411  23.758  1.00  0.00    -0.326 N 
ATOM     13  C   UNL A   1      31.627  28.512  23.171  1.00  0.00     0.318 C 
ATOM     14  H   UNL A   1      33.119  27.345  23.700  1.00  0.00     0.166 HD
ATOM     15  O   UNL A   1      32.395  29.151  22.449  1.00  0.00    -0.249 OA
BRANCH  13  16
ATOM     16  N   UNL A   1      30.315  28.832  23.273  1.00  0.00    -0.324 N 
ATOM     17  C   UNL A   1      29.102  28.098  22.950  1.00  0.00     0.122 C 
ATOM     18  C   UNL A   1      29.944  30.113  23.851  1.00  0.00     0.136 C 
ATOM     19  C   UNL A   1      28.209  29.200  22.409  1.00  0.00     0.039 C 
ATOM     20  C   UNL A   1      28.509  30.356  23.376  1.00  0.00     0.120 C 
BRANCH  20  21
ATOM     21  C   UNL A   1      28.344  31.720  22.756  1.00  0.00     0.310 C 
ATOM     22  O   UNL A   1      28.890  32.724  23.195  1.00  0.00    -0.252 OA
BRANCH  21  23
ATOM     23  O   UNL A   1      27.531  31.693  21.666  1.00  0.00    -0.469 OA
ATOM     24  C   UNL A   1      28.143  32.179  20.470  1.00  0.00     0.282 C 
ENDBRANCH  21  23
ENDBRANCH  20  21
ENDBRANCH  13  16
ENDBRANCH   7  12
ENDBRANCH   4   7
ENDBRANCH   2   3
ENDBRANCH   1   2
BRANCH   1  25
ATOM     25  C   UNL A   1      33.086  30.098  27.221  1.00  0.00     0.002 C 
BRANCH  25  26
ATOM     26  C   UNL A   1      31.766  30.646  26.661  1.00  0.00     0.002 C 
BRANCH  26  27
ATOM     27  C   UNL A   1      31.521  32.143  26.864  1.00  0.00     0.021 C 
BRANCH  27  28
ATOM     28  C   UNL A   1      32.748  32.953  27.266  1.00  0.00     0.116 C 
BRANCH  28  29
ATOM     29  N   UNL A   1      32.422  34.303  27.689  1.00  0.00    -0.352 N 
ATOM     30  C   UNL A   1      32.986  35.058  28.688  1.00  0.00     0.251 C 
ATOM     31  H   UNL A   1      31.695  34.739  27.189  1.00  0.00     0.163 HD
ATOM     32  O   UNL A   1      32.510  36.141  28.993  1.00  0.00    -0.269 OA
BRANCH  30  33
ATOM     33  C   UNL A   1      34.157  34.531  29.422  1.00  0.00     0.039 A 
ATOM     34  C   UNL A   1      33.949  33.916  30.658  1.00  0.00     0.014 A 
ATOM     35  C   UNL A   1      35.446  34.629  28.889  1.00  0.00     0.014 A 
ATOM     36  C   UNL A   1      35.029  33.346  31.335  1.00  0.00     0.010 A 
ATOM     37  C   UNL A   1      36.506  33.992  29.526  1.00  0.00     0.010 A 
ATOM     38  C   UNL A   1      36.309  33.349  30.757  1.00  0.00    -0.014 A 
BRANCH  38  39
ATOM     39  C   UNL A   1      37.453  32.685  31.431  1.00  0.00     0.031 A 
ATOM     40  C   UNL A   1      38.154  31.532  30.770  1.00  0.00     0.074 A 
ATOM     41  C   UNL A   1      37.823  33.086  32.663  1.00  0.00     0.049 A 
ATOM     42  N   UNL A   1      39.138  30.794  31.218  1.00  0.00    -0.248 NA
ATOM     43  C   UNL A   1      37.668  31.138  29.439  1.00  0.00     0.031 C 
ATOM     44  C   UNL A   1      37.188  34.162  33.427  1.00  0.00     0.029 A 
ATOM     45  N   UNL A   1      38.817  32.632  33.493  1.00  0.00    -0.354 N 
ATOM     46  C   UNL A   1      39.378  29.846  30.233  1.00  0.00     0.074 A 
ATOM     47  C   UNL A   1      38.399  30.062  29.190  1.00  0.00     0.031 C 
ATOM     48  C   UNL A   1      37.824  34.300  34.602  1.00  0.00     0.029 A 
ATOM     49  C   UNL A   1      38.882  33.299  34.691  1.00  0.00     0.049 A 
ATOM     50  H   UNL A   1      39.426  31.896  33.252  1.00  0.00     0.167 HD
ATOM     51  C   UNL A   1      40.344  28.897  30.190  1.00  0.00     0.037 A 
ATOM     52  C   UNL A   1      39.698  33.118  35.747  1.00  0.00     0.037 A 
ATOM     53  C   UNL A   1      41.326  28.698  31.224  1.00  0.00     0.049 A 
ATOM     54  C   UNL A   1      40.753  32.046  35.682  1.00  0.00     0.074 A 
ATOM     55  C   UNL A   1      42.382  27.804  31.251  1.00  0.00     0.029 A 
ATOM     56  N   UNL A   1      41.366  29.399  32.421  1.00  0.00    -0.354 N 
ATOM     57  N   UNL A   1      41.019  31.205  34.713  1.00  0.00    -0.248 NA
ATOM     58  C   UNL A   1      41.624  31.903  36.856  1.00  0.00     0.031 C 
ATOM     59  C   UNL A   1      43.024  27.923  32.487  1.00  0.00     0.029 A 
ATOM     60  C   UNL A   1      42.411  28.937  33.206  1.00  0.00     0.049 A 
ATOM     61  H   UNL A   1      40.744  30.119  32.675  1.00  0.00     0.167 HD
ATOM     62  C   UNL A   1      42.106  30.455  35.144  1.00  0.00     0.074 A 
ATOM     63  C   UNL A   1      42.458  30.954  36.458  1.00  0.00     0.031 C 
ATOM     64  C   UNL A   1      42.753  29.447  34.510  1.00  0.00     0.037 A 
BRANCH  51  65
ATOM     65  C   UNL A   1      40.383  27.998  28.987  1.00  0.00     0.064 A 
ATOM     66  C   UNL A   1      41.160  28.305  27.860  1.00  0.00     0.173 A 
ATOM     67  C   UNL A   1      39.655  26.797  28.971  1.00  0.00     0.173 A 
ATOM     68  F   UNL A   1      41.867  29.445  27.816  1.00  0.00    -0.203 F 
ATOM     69  C   UNL A   1      41.180  27.463  26.750  1.00  0.00     0.198 A 
ATOM     70  C   UNL A   1      39.706  25.941  27.874  1.00  0.00     0.198 A 
ATOM     71  F   UNL A   1      38.900  26.450  30.024  1.00  0.00    -0.203 F 
ATOM     72  F   UNL A   1      41.885  27.808  25.663  1.00  0.00    -0.200 F 
ATOM     73  C   UNL A   1      40.460  26.279  26.761  1.00  0.00     0.200 A 
ATOM     74  F   UNL A   1      39.021  24.789  27.894  1.00  0.00    -0.200 F 
ATOM     75  F   UNL A   1      40.486  25.467  25.696  1.00  0.00    -0.200 F 
ENDBRANCH  51  65
BRANCH  52  76
ATOM     76  C   UNL A   1      39.563  33.986  36.948  1.00  0.00     0.064 A 
ATOM     77  C   UNL A   1      38.796  33.581  38.048  1.00  0.00     0.173 A 
ATOM     78  C   UNL A   1      40.195  35.237  37.019  1.00  0.00     0.173 A 
ATOM     79  F   UNL A   1      38.157  32.402  38.022  1.00  0.00    -0.203 F 
ATOM     80  C   UNL A   1      38.646  34.402  39.165  1.00  0.00     0.198 A 
ATOM     81  C   UNL A   1      40.070  36.043  38.148  1.00  0.00     0.198 A 
ATOM     82  F   UNL A   1      40.946  35.670  35.996  1.00  0.00    -0.203 F 
ATOM     83  F   UNL A   1      37.867  34.011  40.182  1.00  0.00    -0.200 F 
ATOM     84  C   UNL A   1      39.289  35.630  39.215  1.00  0.00     0.200 A 
ATOM     85  F   UNL A   1      40.707  37.221  38.200  1.00  0.00    -0.200 F 
ATOM     86  F   UNL A   1      39.148  36.418  40.290  1.00  0.00    -0.200 F 
ENDBRANCH  52  76
BRANCH  64  87
ATOM     87  C   UNL A   1      43.934  28.837  35.211  1.00  0.00     0.064 A 
ATOM     88  C   UNL A   1      43.800  27.732  36.063  1.00  0.00     0.173 A 
ATOM     89  C   UNL A   1      45.224  29.346  34.994  1.00  0.00     0.173 A 
ATOM     90  F   UNL A   1      42.586  27.217  36.315  1.00  0.00    -0.203 F 
ATOM     91  C   UNL A   1      44.909  27.175  36.694  1.00  0.00     0.198 A 
ATOM     92  C   UNL A   1      46.335  28.765  35.599  1.00  0.00     0.198 A 
ATOM     93  F   UNL A   1      45.410  30.397  34.183  1.00  0.00    -0.203 F 
ATOM     94  F   UNL A   1      44.750  26.153  37.546  1.00  0.00    -0.200 F 
ATOM     95  C   UNL A   1      46.176  27.686  36.455  1.00  0.00     0.200 A 
ATOM     96  F   UNL A   1      47.560  29.249  35.353  1.00  0.00    -0.200 F 
ATOM     97  F   UNL A   1      47.244  27.144  37.057  1.00  0.00    -0.200 F 
ENDBRANCH  64  87
ENDBRANCH  38  39
ENDBRANCH  30  33
ENDBRANCH  28  29
ENDBRANCH  27  28
ENDBRANCH  26  27
ENDBRANCH  25  26
ENDBRANCH   1  25
TORSDOF 20
ENDMDL
