MODEL 1
REMARK VINA RESULT:     -11.9      0.000      0.000
REMARK SMILES Cc1csc(C[C@@H](Cc2ccc(Br)cc2)C(=O)NCCCCCCNC(=O)c2ccc(-c3c4nc(c(-c5c(F)c(F)c(F)c(F)c5F)c5ccc([nH]5)c(-c5c(F)c(F)c(F)c(F)c5F)c5nc(c(-c6c(F)c(F)c(F)c(F)c6F)c6ccc3[nH]6)C=C5)C=C4)cc2)n1
REMARK SMILES IDX 21 1 20 2 19 3 18 4 16 5 17 6 7 8 6 9 5 10 1 11 2 12 3 13
REMARK SMILES IDX 91 14 4 15 8 16 9 17 10 18 15 19 11 20 14 21 12 22 13 23
REMARK SMILES IDX 22 24 23 25 24 26 25 27 26 28 27 30 28 31 29 32 90 33 30 34
REMARK SMILES IDX 89 35 31 36 32 37 33 38 83 39 34 40 88 41 82 42 84 43 35 44
REMARK SMILES IDX 87 45 81 46 80 47 36 49 68 50 48 51 67 52 49 53 52 54 66 55
REMARK SMILES IDX 85 56 50 57 51 58 65 60 86 61 53 62 37 63 38 64 46 65 39 66
REMARK SMILES IDX 40 67 44 68 47 69 41 70 42 71 45 72 43 73 69 74 70 75 78 76
REMARK SMILES IDX 71 77 72 78 76 79 79 80 73 81 74 82 77 83 75 84 54 85 55 86
REMARK SMILES IDX 63 87 56 88 57 89 61 90 64 91 58 92 59 93 62 94 60 95
REMARK H PARENT 18 7 25 29 84 48 52 59
REMARK Flexibility Score: inf
ROOT
ATOM      1  C   UNL A   1      32.300  30.023  26.571  1.00  0.00     0.002 C 
ENDROOT
BRANCH   1   2
ATOM      2  C   UNL A   1      31.708  28.824  27.318  1.00  0.00     0.021 C 
BRANCH   2   3
ATOM      3  C   UNL A   1      31.871  27.484  26.613  1.00  0.00     0.116 C 
BRANCH   3   4
ATOM      4  N   UNL A   1      30.813  26.540  26.896  1.00  0.00    -0.356 N 
ATOM      5  C   UNL A   1      30.157  25.677  26.073  1.00  0.00     0.223 C 
ATOM      6  O   UNL A   1      29.462  24.813  26.617  1.00  0.00    -0.275 OA
ATOM      7  H   UNL A   1      30.519  26.519  27.835  1.00  0.00     0.163 HD
BRANCH   5   8
ATOM      8  C   UNL A   1      30.226  25.744  24.546  1.00  0.00     0.089 C 
BRANCH   8   9
ATOM      9  C   UNL A   1      30.930  24.511  23.960  1.00  0.00     0.081 C 
BRANCH   9  10
ATOM     10  C   UNL A   1      32.288  24.237  24.535  1.00  0.00     0.094 A 
ATOM     11  C   UNL A   1      34.253  22.458  26.960  1.00  0.00     0.067 C 
ATOM     12  C   UNL A   1      33.828  23.402  25.898  1.00  0.00     0.048 A 
ATOM     13  C   UNL A   1      34.582  24.386  25.293  1.00  0.00     0.090 A 
ATOM     14  N   UNL A   1      32.523  23.329  25.455  1.00  0.00    -0.247 NA
ATOM     15  S   UNL A   1      33.637  25.224  24.132  1.00  0.00    -0.127 S 
ENDBRANCH   9  10
ENDBRANCH   8   9
BRANCH   8  16
ATOM     16  C   UNL A   1      28.929  26.289  23.904  1.00  0.00     0.049 C 
BRANCH  16  17
ATOM     17  C   UNL A   1      28.844  27.726  23.444  1.00  0.00    -0.047 A 
ATOM     18  C   UNL A   1      29.997  28.492  23.217  1.00  0.00     0.005 A 
ATOM     19  C   UNL A   1      27.592  28.338  23.275  1.00  0.00     0.005 A 
ATOM     20  C   UNL A   1      29.905  29.815  22.780  1.00  0.00     0.016 A 
ATOM     21  C   UNL A   1      27.496  29.665  22.843  1.00  0.00     0.016 A 
ATOM     22  C   UNL A   1      28.654  30.395  22.588  1.00  0.00     0.017 A 
ATOM     23  Br  UNL A   1      28.531  32.174  21.963  1.00  0.00    -0.051 Br
ENDBRANCH  16  17
ENDBRANCH   8  16
ENDBRANCH   5   8
ENDBRANCH   3   4
ENDBRANCH   2   3
ENDBRANCH   1   2
BRANCH   1  24
ATOM     24  C   UNL A   1      31.295  30.966  25.897  1.00  0.00     0.002 C 
BRANCH  24  25
ATOM     25  C   UNL A   1      31.219  32.391  26.454  1.00  0.00     0.021 C 
BRANCH  25  26
ATOM     26  C   UNL A   1      32.466  32.891  27.173  1.00  0.00     0.116 C 
BRANCH  26  27
ATOM     27  N   UNL A   1      32.340  34.265  27.618  1.00  0.00    -0.352 N 
ATOM     28  C   UNL A   1      32.996  34.933  28.622  1.00  0.00     0.251 C 
ATOM     29  H   UNL A   1      31.681  34.803  27.124  1.00  0.00     0.163 HD
ATOM     30  O   UNL A   1      32.630  36.064  28.930  1.00  0.00    -0.269 OA
BRANCH  28  31
ATOM     31  C   UNL A   1      34.127  34.309  29.350  1.00  0.00     0.039 A 
ATOM     32  C   UNL A   1      35.427  34.581  28.907  1.00  0.00     0.014 A 
ATOM     33  C   UNL A   1      33.928  33.418  30.408  1.00  0.00     0.014 A 
ATOM     34  C   UNL A   1      36.521  33.986  29.540  1.00  0.00     0.010 A 
ATOM     35  C   UNL A   1      35.024  32.878  31.083  1.00  0.00     0.010 A 
ATOM     36  C   UNL A   1      36.331  33.141  30.644  1.00  0.00    -0.014 A 
BRANCH  36  37
ATOM     37  C   UNL A   1      37.487  32.497  31.318  1.00  0.00     0.031 A 
ATOM     38  C   UNL A   1      38.219  31.364  30.651  1.00  0.00     0.074 A 
ATOM     39  C   UNL A   1      37.861  32.907  32.545  1.00  0.00     0.049 A 
ATOM     40  N   UNL A   1      39.227  30.653  31.090  1.00  0.00    -0.248 NA
ATOM     41  C   UNL A   1      37.736  30.959  29.322  1.00  0.00     0.031 C 
ATOM     42  C   UNL A   1      37.210  33.967  33.316  1.00  0.00     0.029 A 
ATOM     43  N   UNL A   1      38.878  32.478  33.361  1.00  0.00    -0.354 N 
ATOM     44  C   UNL A   1      39.487  29.712  30.103  1.00  0.00     0.074 A 
ATOM     45  C   UNL A   1      38.499  29.908  29.064  1.00  0.00     0.031 C 
ATOM     46  C   UNL A   1      37.858  34.122  34.481  1.00  0.00     0.029 A 
ATOM     47  C   UNL A   1      38.951  33.156  34.552  1.00  0.00     0.049 A 
ATOM     48  H   UNL A   1      39.497  31.753  33.114  1.00  0.00     0.167 HD
ATOM     49  C   UNL A   1      40.473  28.785  30.054  1.00  0.00     0.037 A 
ATOM     50  C   UNL A   1      39.804  33.015  35.585  1.00  0.00     0.037 A 
ATOM     51  C   UNL A   1      41.474  28.610  31.074  1.00  0.00     0.049 A 
ATOM     52  C   UNL A   1      40.899  31.986  35.501  1.00  0.00     0.074 A 
ATOM     53  C   UNL A   1      42.545  27.733  31.093  1.00  0.00     0.029 A 
ATOM     54  N   UNL A   1      41.529  29.333  32.257  1.00  0.00    -0.354 N 
ATOM     55  N   UNL A   1      41.171  31.141  34.535  1.00  0.00    -0.248 NA
ATOM     56  C   UNL A   1      41.814  31.900  36.647  1.00  0.00     0.031 C 
ATOM     57  C   UNL A   1      43.226  27.899  32.305  1.00  0.00     0.029 A 
ATOM     58  C   UNL A   1      42.607  28.912  33.019  1.00  0.00     0.049 A 
ATOM     59  H   UNL A   1      40.895  30.041  32.516  1.00  0.00     0.167 HD
ATOM     60  C   UNL A   1      42.301  30.446  34.943  1.00  0.00     0.074 A 
ATOM     61  C   UNL A   1      42.673  30.976  36.239  1.00  0.00     0.031 C 
ATOM     62  C   UNL A   1      42.970  29.458  34.302  1.00  0.00     0.037 A 
BRANCH  49  63
ATOM     63  C   UNL A   1      40.518  27.886  28.852  1.00  0.00     0.064 A 
ATOM     64  C   UNL A   1      39.801  26.681  28.808  1.00  0.00     0.173 A 
ATOM     65  C   UNL A   1      41.268  28.244  27.721  1.00  0.00     0.173 A 
ATOM     66  F   UNL A   1      39.078  26.287  29.868  1.00  0.00    -0.203 F 
ATOM     67  C   UNL A   1      39.857  25.852  27.691  1.00  0.00     0.198 A 
ATOM     68  C   UNL A   1      41.298  27.427  26.594  1.00  0.00     0.198 A 
ATOM     69  F   UNL A   1      41.968  29.388  27.708  1.00  0.00    -0.203 F 
ATOM     70  F   UNL A   1      39.205  24.682  27.692  1.00  0.00    -0.200 F 
ATOM     71  C   UNL A   1      40.600  26.229  26.582  1.00  0.00     0.200 A 
ATOM     72  F   UNL A   1      42.007  27.797  25.518  1.00  0.00    -0.200 F 
ATOM     73  F   UNL A   1      40.652  25.432  25.506  1.00  0.00    -0.200 F 
ENDBRANCH  49  63
BRANCH  50  74
ATOM     74  C   UNL A   1      39.682  33.899  36.771  1.00  0.00     0.064 A 
ATOM     75  C   UNL A   1      40.362  35.124  36.827  1.00  0.00     0.173 A 
ATOM     76  C   UNL A   1      38.888  33.542  37.870  1.00  0.00     0.173 A 
ATOM     77  F   UNL A   1      41.151  35.497  35.808  1.00  0.00    -0.203 F 
ATOM     78  C   UNL A   1      40.265  35.950  37.943  1.00  0.00     0.198 A 
ATOM     79  C   UNL A   1      38.772  34.381  38.976  1.00  0.00     0.198 A 
ATOM     80  F   UNL A   1      38.216  32.381  37.864  1.00  0.00    -0.203 F 
ATOM     81  F   UNL A   1      40.960  37.096  37.988  1.00  0.00    -0.200 F 
ATOM     82  C   UNL A   1      39.467  35.582  39.014  1.00  0.00     0.200 A 
ATOM     83  F   UNL A   1      37.990  34.027  40.005  1.00  0.00    -0.200 F 
ATOM     84  F   UNL A   1      39.373  36.378  40.088  1.00  0.00    -0.200 F 
ENDBRANCH  50  74
BRANCH  62  85
ATOM     85  C   UNL A   1      44.197  28.912  34.972  1.00  0.00     0.064 A 
ATOM     86  C   UNL A   1      45.462  29.481  34.771  1.00  0.00     0.173 A 
ATOM     87  C   UNL A   1      44.098  27.821  35.851  1.00  0.00     0.173 A 
ATOM     88  F   UNL A   1      45.611  30.515  33.929  1.00  0.00    -0.203 F 
ATOM     89  C   UNL A   1      46.588  28.964  35.405  1.00  0.00     0.198 A 
ATOM     90  C   UNL A   1      45.222  27.324  36.504  1.00  0.00     0.198 A 
ATOM     91  F   UNL A   1      42.910  27.244  36.081  1.00  0.00    -0.203 F 
ATOM     92  F   UNL A   1      47.795  29.495  35.162  1.00  0.00    -0.200 F 
ATOM     93  C   UNL A   1      46.467  27.891  36.275  1.00  0.00     0.200 A 
ATOM     94  F   UNL A   1      45.101  26.295  37.353  1.00  0.00    -0.200 F 
ATOM     95  F   UNL A   1      47.552  27.397  36.887  1.00  0.00    -0.200 F 
ENDBRANCH  62  85
ENDBRANCH  36  37
ENDBRANCH  28  31
ENDBRANCH  26  27
ENDBRANCH  25  26
ENDBRANCH  24  25
ENDBRANCH   1  24
TORSDOF 17
ENDMDL
MODEL 2
REMARK VINA RESULT:     -11.8      0.616      7.262
REMARK SMILES Cc1csc(C[C@@H](Cc2ccc(Br)cc2)C(=O)NCCCCCCNC(=O)c2ccc(-c3c4nc(c(-c5c(F)c(F)c(F)c(F)c5F)c5ccc([nH]5)c(-c5c(F)c(F)c(F)c(F)c5F)c5nc(c(-c6c(F)c(F)c(F)c(F)c6F)c6ccc3[nH]6)C=C5)C=C4)cc2)n1
REMARK SMILES IDX 21 1 20 2 19 3 18 4 16 5 17 6 7 8 6 9 5 10 1 11 2 12 3 13
REMARK SMILES IDX 91 14 4 15 8 16 9 17 10 18 15 19 11 20 14 21 12 22 13 23
REMARK SMILES IDX 22 24 23 25 24 26 25 27 26 28 27 30 28 31 29 32 90 33 30 34
REMARK SMILES IDX 89 35 31 36 32 37 33 38 83 39 34 40 88 41 82 42 84 43 35 44
REMARK SMILES IDX 87 45 81 46 80 47 36 49 68 50 48 51 67 52 49 53 52 54 66 55
REMARK SMILES IDX 85 56 50 57 51 58 65 60 86 61 53 62 37 63 38 64 46 65 39 66
REMARK SMILES IDX 40 67 44 68 47 69 41 70 42 71 45 72 43 73 69 74 70 75 78 76
REMARK SMILES IDX 71 77 72 78 76 79 79 80 73 81 74 82 77 83 75 84 54 85 55 86
REMARK SMILES IDX 63 87 56 88 57 89 61 90 64 91 58 92 59 93 62 94 60 95
REMARK H PARENT 18 7 25 29 84 48 52 59
REMARK Flexibility Score: inf
ROOT
ATOM      1  C   UNL A   1      32.667  30.015  27.153  1.00  0.00     0.002 C 
ENDROOT
BRANCH   1   2
ATOM      2  C   UNL A   1      32.530  28.519  27.451  1.00  0.00     0.021 C 
BRANCH   2   3
ATOM      3  C   UNL A   1      31.958  27.687  26.310  1.00  0.00     0.116 C 
BRANCH   3   4
ATOM      4  N   UNL A   1      30.895  26.793  26.713  1.00  0.00    -0.356 N 
ATOM      5  C   UNL A   1      30.200  25.871  25.995  1.00  0.00     0.223 C 
ATOM      6  O   UNL A   1      29.509  25.074  26.638  1.00  0.00    -0.275 OA
ATOM      7  H   UNL A   1      30.631  26.865  27.659  1.00  0.00     0.163 HD
BRANCH   5   8
ATOM      8  C   UNL A   1      30.220  25.794  24.466  1.00  0.00     0.089 C 
BRANCH   8   9
ATOM      9  C   UNL A   1      30.827  24.471  23.978  1.00  0.00     0.081 C 
BRANCH   9  10
ATOM     10  C   UNL A   1      32.247  24.240  24.404  1.00  0.00     0.094 A 
ATOM     11  C   UNL A   1      34.506  22.644  26.697  1.00  0.00     0.067 C 
ATOM     12  C   UNL A   1      33.947  23.509  25.628  1.00  0.00     0.048 A 
ATOM     13  C   UNL A   1      34.613  24.448  24.869  1.00  0.00     0.090 A 
ATOM     14  N   UNL A   1      32.599  23.401  25.351  1.00  0.00    -0.247 NA
ATOM     15  S   UNL A   1      33.527  25.198  23.773  1.00  0.00    -0.127 S 
ENDBRANCH   9  10
ENDBRANCH   8   9
BRANCH   8  16
ATOM     16  C   UNL A   1      28.938  26.361  23.814  1.00  0.00     0.049 C 
BRANCH  16  17
ATOM     17  C   UNL A   1      28.826  27.833  23.490  1.00  0.00    -0.047 A 
ATOM     18  C   UNL A   1      27.590  28.426  23.195  1.00  0.00     0.005 A 
ATOM     19  C   UNL A   1      29.980  28.631  23.438  1.00  0.00     0.005 A 
ATOM     20  C   UNL A   1      27.499  29.790  22.909  1.00  0.00     0.016 A 
ATOM     21  C   UNL A   1      29.893  29.996  23.147  1.00  0.00     0.016 A 
ATOM     22  C   UNL A   1      28.651  30.572  22.893  1.00  0.00     0.017 A 
ATOM     23  Br  UNL A   1      28.522  32.424  22.541  1.00  0.00    -0.051 Br
ENDBRANCH  16  17
ENDBRANCH   8  16
ENDBRANCH   5   8
ENDBRANCH   3   4
ENDBRANCH   2   3
ENDBRANCH   1   2
BRANCH   1  24
ATOM     24  C   UNL A   1      31.429  30.707  26.567  1.00  0.00     0.002 C 
BRANCH  24  25
ATOM     25  C   UNL A   1      31.421  32.238  26.609  1.00  0.00     0.021 C 
BRANCH  25  26
ATOM     26  C   UNL A   1      32.728  32.898  27.029  1.00  0.00     0.116 C 
BRANCH  26  27
ATOM     27  N   UNL A   1      32.523  34.177  27.682  1.00  0.00    -0.352 N 
ATOM     28  C   UNL A   1      33.129  34.710  28.791  1.00  0.00     0.251 C 
ATOM     29  H   UNL A   1      31.843  34.752  27.264  1.00  0.00     0.163 HD
ATOM     30  O   UNL A   1      32.699  35.758  29.266  1.00  0.00    -0.269 OA
BRANCH  28  31
ATOM     31  C   UNL A   1      34.282  34.038  29.436  1.00  0.00     0.039 A 
ATOM     32  C   UNL A   1      35.570  34.473  29.106  1.00  0.00     0.014 A 
ATOM     33  C   UNL A   1      34.120  32.952  30.302  1.00  0.00     0.014 A 
ATOM     34  C   UNL A   1      36.687  33.844  29.660  1.00  0.00     0.010 A 
ATOM     35  C   UNL A   1      35.233  32.369  30.909  1.00  0.00     0.010 A 
ATOM     36  C   UNL A   1      36.529  32.795  30.580  1.00  0.00    -0.014 A 
BRANCH  36  37
ATOM     37  C   UNL A   1      37.709  32.115  31.169  1.00  0.00     0.031 A 
ATOM     38  C   UNL A   1      38.189  32.486  32.547  1.00  0.00     0.074 A 
ATOM     39  C   UNL A   1      38.373  31.184  30.456  1.00  0.00     0.049 A 
ATOM     40  N   UNL A   1      39.217  32.032  33.219  1.00  0.00    -0.248 NA
ATOM     41  C   UNL A   1      37.425  33.527  33.252  1.00  0.00     0.031 C 
ATOM     42  C   UNL A   1      38.035  30.763  29.096  1.00  0.00     0.029 A 
ATOM     43  N   UNL A   1      39.474  30.429  30.776  1.00  0.00    -0.354 N 
ATOM     44  C   UNL A   1      39.231  32.739  34.414  1.00  0.00     0.074 A 
ATOM     45  C   UNL A   1      38.141  33.689  34.355  1.00  0.00     0.031 C 
ATOM     46  C   UNL A   1      38.894  29.808  28.708  1.00  0.00     0.029 A 
ATOM     47  C   UNL A   1      39.859  29.569  29.778  1.00  0.00     0.049 A 
ATOM     48  H   UNL A   1      39.942  30.496  31.639  1.00  0.00     0.167 HD
ATOM     49  C   UNL A   1      40.061  32.595  35.475  1.00  0.00     0.037 A 
ATOM     50  C   UNL A   1      40.876  28.687  29.731  1.00  0.00     0.037 A 
ATOM     51  C   UNL A   1      41.127  31.630  35.546  1.00  0.00     0.049 A 
ATOM     52  C   UNL A   1      41.777  28.536  30.927  1.00  0.00     0.074 A 
ATOM     53  C   UNL A   1      41.991  31.372  36.596  1.00  0.00     0.029 A 
ATOM     54  N   UNL A   1      41.472  30.760  34.522  1.00  0.00    -0.354 N 
ATOM     55  N   UNL A   1      41.743  29.170  32.075  1.00  0.00    -0.248 NA
ATOM     56  C   UNL A   1      42.850  27.538  30.825  1.00  0.00     0.031 C 
ATOM     57  C   UNL A   1      42.882  30.370  36.195  1.00  0.00     0.029 A 
ATOM     58  C   UNL A   1      42.544  29.972  34.911  1.00  0.00     0.049 A 
ATOM     59  H   UNL A   1      41.021  30.708  33.648  1.00  0.00     0.167 HD
ATOM     60  C   UNL A   1      42.767  28.629  32.839  1.00  0.00     0.074 A 
ATOM     61  C   UNL A   1      43.397  27.605  32.030  1.00  0.00     0.031 C 
ATOM     62  C   UNL A   1      43.152  28.950  34.098  1.00  0.00     0.037 A 
BRANCH  49  63
ATOM     63  C   UNL A   1      39.847  33.505  36.650  1.00  0.00     0.064 A 
ATOM     64  C   UNL A   1      40.514  34.735  36.759  1.00  0.00     0.173 A 
ATOM     65  C   UNL A   1      38.946  33.156  37.667  1.00  0.00     0.173 A 
ATOM     66  F   UNL A   1      41.395  35.110  35.819  1.00  0.00    -0.203 F 
ATOM     67  C   UNL A   1      40.312  35.566  37.857  1.00  0.00     0.198 A 
ATOM     68  C   UNL A   1      38.724  34.004  38.750  1.00  0.00     0.198 A 
ATOM     69  F   UNL A   1      38.277  31.995  37.610  1.00  0.00    -0.203 F 
ATOM     70  F   UNL A   1      41.000  36.711  37.965  1.00  0.00    -0.200 F 
ATOM     71  C   UNL A   1      39.412  35.203  38.848  1.00  0.00     0.200 A 
ATOM     72  F   UNL A   1      37.845  33.658  39.701  1.00  0.00    -0.200 F 
ATOM     73  F   UNL A   1      39.217  36.005  39.904  1.00  0.00    -0.200 F 
ENDBRANCH  49  63
BRANCH  50  74
ATOM     74  C   UNL A   1      41.071  27.847  28.522  1.00  0.00     0.064 A 
ATOM     75  C   UNL A   1      41.964  28.235  27.515  1.00  0.00     0.173 A 
ATOM     76  C   UNL A   1      40.370  26.645  28.347  1.00  0.00     0.173 A 
ATOM     77  F   UNL A   1      42.640  29.389  27.628  1.00  0.00    -0.203 F 
ATOM     78  C   UNL A   1      42.139  27.461  26.371  1.00  0.00     0.198 A 
ATOM     79  C   UNL A   1      40.564  25.859  27.214  1.00  0.00     0.198 A 
ATOM     80  F   UNL A   1      39.505  26.230  29.284  1.00  0.00    -0.203 F 
ATOM     81  F   UNL A   1      42.969  27.877  25.403  1.00  0.00    -0.200 F 
ATOM     82  C   UNL A   1      41.444  26.272  26.223  1.00  0.00     0.200 A 
ATOM     83  F   UNL A   1      39.899  24.704  27.079  1.00  0.00    -0.200 F 
ATOM     84  F   UNL A   1      41.613  25.526  25.122  1.00  0.00    -0.200 F 
ENDBRANCH  50  74
BRANCH  62  85
ATOM     85  C   UNL A   1      44.280  28.161  34.695  1.00  0.00     0.064 A 
ATOM     86  C   UNL A   1      45.616  28.562  34.554  1.00  0.00     0.173 A 
ATOM     87  C   UNL A   1      44.016  27.003  35.444  1.00  0.00     0.173 A 
ATOM     88  F   UNL A   1      45.920  29.654  33.835  1.00  0.00    -0.203 F 
ATOM     89  C   UNL A   1      46.649  27.820  35.119  1.00  0.00     0.198 A 
ATOM     90  C   UNL A   1      45.050  26.279  36.031  1.00  0.00     0.198 A 
ATOM     91  F   UNL A   1      42.755  26.580  35.613  1.00  0.00    -0.203 F 
ATOM     92  F   UNL A   1      47.922  28.196  34.932  1.00  0.00    -0.200 F 
ATOM     93  C   UNL A   1      46.365  26.683  35.862  1.00  0.00     0.200 A 
ATOM     94  F   UNL A   1      44.773  25.188  36.757  1.00  0.00    -0.200 F 
ATOM     95  F   UNL A   1      47.361  25.972  36.407  1.00  0.00    -0.200 F 
ENDBRANCH  62  85
ENDBRANCH  36  37
ENDBRANCH  28  31
ENDBRANCH  26  27
ENDBRANCH  25  26
ENDBRANCH  24  25
ENDBRANCH   1  24
TORSDOF 17
ENDMDL
MODEL 3
REMARK VINA RESULT:     -11.6      0.979      7.404
REMARK SMILES Cc1csc(C[C@@H](Cc2ccc(Br)cc2)C(=O)NCCCCCCNC(=O)c2ccc(-c3c4nc(c(-c5c(F)c(F)c(F)c(F)c5F)c5ccc([nH]5)c(-c5c(F)c(F)c(F)c(F)c5F)c5nc(c(-c6c(F)c(F)c(F)c(F)c6F)c6ccc3[nH]6)C=C5)C=C4)cc2)n1
REMARK SMILES IDX 21 1 20 2 19 3 18 4 16 5 17 6 7 8 6 9 5 10 1 11 2 12 3 13
REMARK SMILES IDX 91 14 4 15 8 16 9 17 10 18 15 19 11 20 14 21 12 22 13 23
REMARK SMILES IDX 22 24 23 25 24 26 25 27 26 28 27 30 28 31 29 32 90 33 30 34
REMARK SMILES IDX 89 35 31 36 32 37 33 38 83 39 34 40 88 41 82 42 84 43 35 44
REMARK SMILES IDX 87 45 81 46 80 47 36 49 68 50 48 51 67 52 49 53 52 54 66 55
REMARK SMILES IDX 85 56 50 57 51 58 65 60 86 61 53 62 37 63 38 64 46 65 39 66
REMARK SMILES IDX 40 67 44 68 47 69 41 70 42 71 45 72 43 73 69 74 70 75 78 76
REMARK SMILES IDX 71 77 72 78 76 79 79 80 73 81 74 82 77 83 75 84 54 85 55 86
REMARK SMILES IDX 63 87 56 88 57 89 61 90 64 91 58 92 59 93 62 94 60 95
REMARK H PARENT 18 7 25 29 84 48 52 59
REMARK Flexibility Score: inf
ROOT
ATOM      1  C   UNL A   1      32.368  29.882  25.920  1.00  0.00     0.002 C 
ENDROOT
BRANCH   1   2
ATOM      2  C   UNL A   1      32.264  28.888  27.081  1.00  0.00     0.021 C 
BRANCH   2   3
ATOM      3  C   UNL A   1      32.273  27.421  26.672  1.00  0.00     0.116 C 
BRANCH   3   4
ATOM      4  N   UNL A   1      30.985  26.773  26.787  1.00  0.00    -0.356 N 
ATOM      5  C   UNL A   1      30.494  25.671  26.159  1.00  0.00     0.223 C 
ATOM      6  O   UNL A   1      29.451  25.191  26.616  1.00  0.00    -0.275 OA
ATOM      7  H   UNL A   1      30.363  27.200  27.420  1.00  0.00     0.163 HD
BRANCH   5   8
ATOM      8  C   UNL A   1      31.148  25.030  24.934  1.00  0.00     0.089 C 
BRANCH   8   9
ATOM      9  C   UNL A   1      31.634  23.605  25.236  1.00  0.00     0.081 C 
BRANCH   9  10
ATOM     10  C   UNL A   1      33.071  23.349  24.892  1.00  0.00     0.094 A 
ATOM     11  C   UNL A   1      36.528  23.942  25.671  1.00  0.00     0.067 C 
ATOM     12  C   UNL A   1      35.282  23.513  24.988  1.00  0.00     0.048 A 
ATOM     13  C   UNL A   1      35.162  22.901  23.758  1.00  0.00     0.090 A 
ATOM     14  N   UNL A   1      34.082  23.761  25.623  1.00  0.00    -0.247 NA
ATOM     15  S   UNL A   1      33.508  22.616  23.400  1.00  0.00    -0.127 S 
ENDBRANCH   9  10
ENDBRANCH   8   9
BRANCH   8  16
ATOM     16  C   UNL A   1      30.405  25.346  23.615  1.00  0.00     0.049 C 
BRANCH  16  17
ATOM     17  C   UNL A   1      29.815  26.716  23.374  1.00  0.00    -0.047 A 
ATOM     18  C   UNL A   1      28.457  26.980  23.605  1.00  0.00     0.005 A 
ATOM     19  C   UNL A   1      30.619  27.750  22.869  1.00  0.00     0.005 A 
ATOM     20  C   UNL A   1      27.927  28.254  23.390  1.00  0.00     0.016 A 
ATOM     21  C   UNL A   1      30.091  29.026  22.647  1.00  0.00     0.016 A 
ATOM     22  C   UNL A   1      28.748  29.274  22.918  1.00  0.00     0.017 A 
ATOM     23  Br  UNL A   1      28.038  31.007  22.662  1.00  0.00    -0.051 Br
ENDBRANCH  16  17
ENDBRANCH   8  16
ENDBRANCH   5   8
ENDBRANCH   3   4
ENDBRANCH   2   3
ENDBRANCH   1   2
BRANCH   1  24
ATOM     24  C   UNL A   1      31.142  30.772  25.677  1.00  0.00     0.002 C 
BRANCH  24  25
ATOM     25  C   UNL A   1      31.116  32.112  26.419  1.00  0.00     0.021 C 
BRANCH  25  26
ATOM     26  C   UNL A   1      32.447  32.578  26.998  1.00  0.00     0.116 C 
BRANCH  26  27
ATOM     27  N   UNL A   1      32.389  33.933  27.511  1.00  0.00    -0.352 N 
ATOM     28  C   UNL A   1      33.157  34.550  28.465  1.00  0.00     0.251 C 
ATOM     29  H   UNL A   1      31.688  34.498  27.113  1.00  0.00     0.163 HD
ATOM     30  O   UNL A   1      32.843  35.670  28.859  1.00  0.00    -0.269 OA
BRANCH  28  31
ATOM     31  C   UNL A   1      34.351  33.885  29.041  1.00  0.00     0.039 A 
ATOM     32  C   UNL A   1      34.157  32.740  29.821  1.00  0.00     0.014 A 
ATOM     33  C   UNL A   1      35.639  34.404  28.882  1.00  0.00     0.014 A 
ATOM     34  C   UNL A   1      35.249  32.102  30.414  1.00  0.00     0.010 A 
ATOM     35  C   UNL A   1      36.736  33.728  29.417  1.00  0.00     0.010 A 
ATOM     36  C   UNL A   1      36.552  32.582  30.205  1.00  0.00    -0.014 A 
BRANCH  36  37
ATOM     37  C   UNL A   1      37.719  31.916  30.837  1.00  0.00     0.031 A 
ATOM     38  C   UNL A   1      38.139  32.288  32.233  1.00  0.00     0.074 A 
ATOM     39  C   UNL A   1      38.424  30.999  30.146  1.00  0.00     0.049 A 
ATOM     40  N   UNL A   1      39.147  31.846  32.943  1.00  0.00    -0.248 NA
ATOM     41  C   UNL A   1      37.333  33.313  32.913  1.00  0.00     0.031 C 
ATOM     42  C   UNL A   1      38.145  30.579  28.772  1.00  0.00     0.029 A 
ATOM     43  N   UNL A   1      39.522  30.258  30.505  1.00  0.00    -0.354 N 
ATOM     44  C   UNL A   1      39.104  32.547  34.141  1.00  0.00     0.074 A 
ATOM     45  C   UNL A   1      38.003  33.481  34.043  1.00  0.00     0.031 C 
ATOM     46  C   UNL A   1      39.033  29.639  28.413  1.00  0.00     0.029 A 
ATOM     47  C   UNL A   1      39.959  29.409  29.518  1.00  0.00     0.049 A 
ATOM     48  H   UNL A   1      39.955  30.329  31.386  1.00  0.00     0.167 HD
ATOM     49  C   UNL A   1      39.895  32.411  35.232  1.00  0.00     0.037 A 
ATOM     50  C   UNL A   1      40.990  28.543  29.508  1.00  0.00     0.037 A 
ATOM     51  C   UNL A   1      40.971  31.461  35.340  1.00  0.00     0.049 A 
ATOM     52  C   UNL A   1      41.846  28.400  30.737  1.00  0.00     0.074 A 
ATOM     53  C   UNL A   1      41.798  31.211  36.422  1.00  0.00     0.029 A 
ATOM     54  N   UNL A   1      41.369  30.601  34.327  1.00  0.00    -0.354 N 
ATOM     55  N   UNL A   1      41.759  29.027  31.885  1.00  0.00    -0.248 NA
ATOM     56  C   UNL A   1      42.937  27.418  30.672  1.00  0.00     0.031 C 
ATOM     57  C   UNL A   1      42.719  30.225  36.051  1.00  0.00     0.029 A 
ATOM     58  C   UNL A   1      42.437  29.828  34.754  1.00  0.00     0.049 A 
ATOM     59  H   UNL A   1      40.953  30.547  33.436  1.00  0.00     0.167 HD
ATOM     60  C   UNL A   1      42.760  28.498  32.686  1.00  0.00     0.074 A 
ATOM     61  C   UNL A   1      43.437  27.488  31.898  1.00  0.00     0.031 C 
ATOM     62  C   UNL A   1      43.091  28.819  33.961  1.00  0.00     0.037 A 
BRANCH  49  63
ATOM     63  C   UNL A   1      39.621  33.311  36.402  1.00  0.00     0.064 A 
ATOM     64  C   UNL A   1      38.730  32.943  37.422  1.00  0.00     0.173 A 
ATOM     65  C   UNL A   1      40.276  34.547  36.520  1.00  0.00     0.173 A 
ATOM     66  F   UNL A   1      38.070  31.777  37.350  1.00  0.00    -0.203 F 
ATOM     67  C   UNL A   1      38.480  33.790  38.497  1.00  0.00     0.198 A 
ATOM     68  C   UNL A   1      40.046  35.379  37.612  1.00  0.00     0.198 A 
ATOM     69  F   UNL A   1      41.143  34.946  35.576  1.00  0.00    -0.203 F 
ATOM     70  F   UNL A   1      37.585  33.439  39.431  1.00  0.00    -0.200 F 
ATOM     71  C   UNL A   1      39.143  35.004  38.595  1.00  0.00     0.200 A 
ATOM     72  F   UNL A   1      40.696  36.547  37.712  1.00  0.00    -0.200 F 
ATOM     73  F   UNL A   1      38.903  35.818  39.633  1.00  0.00    -0.200 F 
ENDBRANCH  49  63
BRANCH  50  74
ATOM     74  C   UNL A   1      41.244  27.712  28.304  1.00  0.00     0.064 A 
ATOM     75  C   UNL A   1      40.595  26.482  28.130  1.00  0.00     0.173 A 
ATOM     76  C   UNL A   1      42.138  28.126  27.306  1.00  0.00     0.173 A 
ATOM     77  F   UNL A   1      39.748  26.034  29.070  1.00  0.00    -0.203 F 
ATOM     78  C   UNL A   1      40.842  25.689  27.012  1.00  0.00     0.198 A 
ATOM     79  C   UNL A   1      42.365  27.344  26.175  1.00  0.00     0.198 A 
ATOM     80  F   UNL A   1      42.782  29.296  27.425  1.00  0.00    -0.203 F 
ATOM     81  F   UNL A   1      40.240  24.497  26.893  1.00  0.00    -0.200 F 
ATOM     82  C   UNL A   1      41.722  26.123  26.033  1.00  0.00     0.200 A 
ATOM     83  F   UNL A   1      43.207  27.771  25.225  1.00  0.00    -0.200 F 
ATOM     84  F   UNL A   1      41.958  25.361  24.956  1.00  0.00    -0.200 F 
ENDBRANCH  50  74
BRANCH  62  85
ATOM     85  C   UNL A   1      44.208  28.044  34.597  1.00  0.00     0.064 A 
ATOM     86  C   UNL A   1      43.975  26.841  35.278  1.00  0.00     0.173 A 
ATOM     87  C   UNL A   1      45.532  28.498  34.498  1.00  0.00     0.173 A 
ATOM     88  F   UNL A   1      42.725  26.372  35.413  1.00  0.00    -0.203 F 
ATOM     89  C   UNL A   1      45.024  26.133  35.858  1.00  0.00     0.198 A 
ATOM     90  C   UNL A   1      46.582  27.774  35.055  1.00  0.00     0.198 A 
ATOM     91  F   UNL A   1      45.809  29.641  33.852  1.00  0.00    -0.203 F 
ATOM     92  F   UNL A   1      44.773  25.009  36.544  1.00  0.00    -0.200 F 
ATOM     93  C   UNL A   1      46.326  26.596  35.741  1.00  0.00     0.200 A 
ATOM     94  F   UNL A   1      47.840  28.217  34.931  1.00  0.00    -0.200 F 
ATOM     95  F   UNL A   1      47.335  25.911  36.298  1.00  0.00    -0.200 F 
ENDBRANCH  62  85
ENDBRANCH  36  37
ENDBRANCH  28  31
ENDBRANCH  26  27
ENDBRANCH  25  26
ENDBRANCH  24  25
ENDBRANCH   1  24
TORSDOF 17
ENDMDL
