MODEL 1
REMARK VINA RESULT:     -10.8      0.000      0.000
REMARK SMILES COCc1cccc(O[C@@H](F)C(=O)NCCCCCCNC(=O)c2ccc(-c3c4nc(c(-c5c(F)c(F)c(F)c(F)c5F)c5ccc([nH]5)c(-c5c(F)c(F)c(F)c(F)c5F)c5nc(c(-c6c(F)c(F)c(F)c(F)c6F)c6ccc3[nH]6)C=C5)C=C4)cc2)c1
REMARK SMILES IDX 16 1 15 2 14 3 12 4 13 5 10 7 11 8 9 9 8 10 4 11 5 12 87 13
REMARK SMILES IDX 6 14 7 15 3 16 2 17 1 18 17 19 18 20 19 21 20 22 21 23 22 24
REMARK SMILES IDX 23 26 24 27 25 28 86 29 26 30 85 31 27 32 28 33 29 34 79 35
REMARK SMILES IDX 30 36 84 37 78 38 80 39 31 40 83 41 77 42 76 43 32 45 64 46
REMARK SMILES IDX 44 47 63 48 45 49 48 50 62 51 81 52 46 53 47 54 61 56 82 57
REMARK SMILES IDX 49 58 33 59 34 60 42 61 35 62 36 63 40 64 43 65 37 66 38 67
REMARK SMILES IDX 41 68 39 69 65 70 66 71 74 72 67 73 68 74 72 75 75 76 69 77
REMARK SMILES IDX 70 78 73 79 71 80 50 81 51 82 59 83 52 84 53 85 57 86 60 87
REMARK SMILES IDX 54 88 55 89 58 90 56 91
REMARK H PARENT 14 6 21 25 80 44 48 55
REMARK Flexibility Score: inf
ROOT
ATOM      1  C   UNL A   1      32.657  28.624  26.694  1.00  0.00     0.021 C 
ENDROOT
BRANCH   1   2
ATOM      2  C   UNL A   1      33.629  27.801  25.841  1.00  0.00     0.116 C 
BRANCH   2   3
ATOM      3  N   UNL A   1      33.814  28.401  24.533  1.00  0.00    -0.350 N 
ATOM      4  C   UNL A   1      33.122  28.213  23.367  1.00  0.00     0.294 C 
ATOM      5  O   UNL A   1      33.561  28.793  22.365  1.00  0.00    -0.267 OA
ATOM      6  H   UNL A   1      34.555  29.047  24.475  1.00  0.00     0.163 HD
BRANCH   4   7
ATOM      7  C   UNL A   1      31.839  27.339  23.280  1.00  0.00     0.440 C 
ATOM      8  F   UNL A   1      31.425  27.138  21.993  1.00  0.00    -0.191 F 
BRANCH   7   9
ATOM      9  O   UNL A   1      30.739  27.666  24.136  1.00  0.00    -0.452 OA
BRANCH   9  10
ATOM     10  C   UNL A   1      29.737  28.423  23.608  1.00  0.00     0.124 A 
ATOM     11  C   UNL A   1      28.831  30.512  22.754  1.00  0.00    -0.019 A 
ATOM     12  C   UNL A   1      27.570  29.901  22.660  1.00  0.00     0.006 A 
ATOM     13  C   UNL A   1      29.919  29.725  23.147  1.00  0.00     0.052 A 
ATOM     14  C   UNL A   1      27.406  28.553  22.988  1.00  0.00     0.004 A 
ATOM     15  C   UNL A   1      28.488  27.820  23.478  1.00  0.00     0.046 A 
BRANCH  11  16
ATOM     16  C   UNL A   1      28.958  32.000  22.513  1.00  0.00     0.195 C 
BRANCH  16  17
ATOM     17  O   UNL A   1      27.786  32.644  22.012  1.00  0.00    -0.380 OA
ATOM     18  C   UNL A   1      27.762  32.810  20.599  1.00  0.00     0.195 C 
ENDBRANCH  16  17
ENDBRANCH  11  16
ENDBRANCH   9  10
ENDBRANCH   7   9
ENDBRANCH   4   7
ENDBRANCH   2   3
ENDBRANCH   1   2
BRANCH   1  19
ATOM     19  C   UNL A   1      32.720  30.133  26.430  1.00  0.00     0.002 C 
BRANCH  19  20
ATOM     20  C   UNL A   1      31.358  30.833  26.303  1.00  0.00     0.002 C 
BRANCH  20  21
ATOM     21  C   UNL A   1      31.329  32.333  26.617  1.00  0.00     0.021 C 
BRANCH  21  22
ATOM     22  C   UNL A   1      32.638  32.948  27.113  1.00  0.00     0.116 C 
BRANCH  22  23
ATOM     23  N   UNL A   1      32.456  34.296  27.623  1.00  0.00    -0.352 N 
ATOM     24  C   UNL A   1      33.034  34.930  28.695  1.00  0.00     0.251 C 
ATOM     25  H   UNL A   1      31.812  34.843  27.118  1.00  0.00     0.163 HD
ATOM     26  O   UNL A   1      32.590  36.012  29.066  1.00  0.00    -0.269 OA
BRANCH  24  27
ATOM     27  C   UNL A   1      34.183  34.334  29.420  1.00  0.00     0.039 A 
ATOM     28  C   UNL A   1      35.472  34.537  28.908  1.00  0.00     0.014 A 
ATOM     29  C   UNL A   1      34.008  33.510  30.535  1.00  0.00     0.014 A 
ATOM     30  C   UNL A   1      36.578  33.949  29.530  1.00  0.00     0.010 A 
ATOM     31  C   UNL A   1      35.119  32.968  31.189  1.00  0.00     0.010 A 
ATOM     32  C   UNL A   1      36.414  33.170  30.686  1.00  0.00    -0.014 A 
BRANCH  32  33
ATOM     33  C   UNL A   1      37.583  32.539  31.357  1.00  0.00     0.031 A 
ATOM     34  C   UNL A   1      38.308  31.395  30.703  1.00  0.00     0.074 A 
ATOM     35  C   UNL A   1      37.970  32.964  32.575  1.00  0.00     0.049 A 
ATOM     36  N   UNL A   1      39.309  30.680  31.154  1.00  0.00    -0.248 NA
ATOM     37  C   UNL A   1      37.831  30.985  29.374  1.00  0.00     0.031 C 
ATOM     38  C   UNL A   1      37.335  34.039  33.336  1.00  0.00     0.029 A 
ATOM     39  N   UNL A   1      38.987  32.532  33.392  1.00  0.00    -0.354 N 
ATOM     40  C   UNL A   1      39.567  29.727  30.178  1.00  0.00     0.074 A 
ATOM     41  C   UNL A   1      38.592  29.928  29.126  1.00  0.00     0.031 C 
ATOM     42  C   UNL A   1      37.984  34.194  34.502  1.00  0.00     0.029 A 
ATOM     43  C   UNL A   1      39.062  33.211  34.583  1.00  0.00     0.049 A 
ATOM     44  H   UNL A   1      39.603  31.806  33.147  1.00  0.00     0.167 HD
ATOM     45  C   UNL A   1      40.537  28.781  30.149  1.00  0.00     0.037 A 
ATOM     46  C   UNL A   1      39.901  33.058  35.625  1.00  0.00     0.037 A 
ATOM     47  C   UNL A   1      41.531  28.601  31.174  1.00  0.00     0.049 A 
ATOM     48  C   UNL A   1      40.978  32.010  35.565  1.00  0.00     0.074 A 
ATOM     49  C   UNL A   1      42.595  27.715  31.199  1.00  0.00     0.029 A 
ATOM     50  N   UNL A   1      41.586  29.323  32.357  1.00  0.00    -0.354 N 
ATOM     51  N   UNL A   1      41.246  31.154  34.609  1.00  0.00    -0.248 NA
ATOM     52  C   UNL A   1      41.872  31.910  36.727  1.00  0.00     0.031 C 
ATOM     53  C   UNL A   1      43.271  27.875  32.414  1.00  0.00     0.029 A 
ATOM     54  C   UNL A   1      42.653  28.889  33.128  1.00  0.00     0.049 A 
ATOM     55  H   UNL A   1      40.958  30.037  32.611  1.00  0.00     0.167 HD
ATOM     56  C   UNL A   1      42.350  30.433  35.043  1.00  0.00     0.074 A 
ATOM     57  C   UNL A   1      42.712  30.959  36.342  1.00  0.00     0.031 C 
ATOM     58  C   UNL A   1      43.005  29.423  34.417  1.00  0.00     0.037 A 
BRANCH  45  59
ATOM     59  C   UNL A   1      40.574  27.864  28.962  1.00  0.00     0.064 A 
ATOM     60  C   UNL A   1      41.362  28.147  27.837  1.00  0.00     0.173 A 
ATOM     61  C   UNL A   1      39.838  26.669  28.963  1.00  0.00     0.173 A 
ATOM     62  F   UNL A   1      42.076  29.283  27.783  1.00  0.00    -0.203 F 
ATOM     63  C   UNL A   1      41.390  27.285  26.745  1.00  0.00     0.198 A 
ATOM     64  C   UNL A   1      39.889  25.794  27.880  1.00  0.00     0.198 A 
ATOM     65  F   UNL A   1      39.074  26.346  30.017  1.00  0.00    -0.203 F 
ATOM     66  F   UNL A   1      42.115  27.600  25.662  1.00  0.00    -0.200 F 
ATOM     67  C   UNL A   1      40.659  26.106  26.769  1.00  0.00     0.200 A 
ATOM     68  F   UNL A   1      39.191  24.651  27.910  1.00  0.00    -0.200 F 
ATOM     69  F   UNL A   1      40.690  25.275  25.719  1.00  0.00    -0.200 F 
ENDBRANCH  45  59
BRANCH  46  70
ATOM     70  C   UNL A   1      39.772  33.942  36.811  1.00  0.00     0.064 A 
ATOM     71  C   UNL A   1      38.945  33.586  37.885  1.00  0.00     0.173 A 
ATOM     72  C   UNL A   1      40.473  35.153  36.899  1.00  0.00     0.173 A 
ATOM     73  F   UNL A   1      38.238  32.447  37.836  1.00  0.00    -0.203 F 
ATOM     74  C   UNL A   1      38.812  34.415  38.997  1.00  0.00     0.198 A 
ATOM     75  C   UNL A   1      40.358  35.970  38.021  1.00  0.00     0.198 A 
ATOM     76  F   UNL A   1      41.278  35.536  35.897  1.00  0.00    -0.203 F 
ATOM     77  F   UNL A   1      37.986  34.068  39.994  1.00  0.00    -0.200 F 
ATOM     78  C   UNL A   1      39.524  35.604  39.067  1.00  0.00     0.200 A 
ATOM     79  F   UNL A   1      41.055  37.112  38.091  1.00  0.00    -0.200 F 
ATOM     80  F   UNL A   1      39.401  36.396  40.140  1.00  0.00    -0.200 F 
ENDBRANCH  46  70
BRANCH  58  81
ATOM     81  C   UNL A   1      44.195  28.838  35.117  1.00  0.00     0.064 A 
ATOM     82  C   UNL A   1      44.073  27.732  35.971  1.00  0.00     0.173 A 
ATOM     83  C   UNL A   1      45.477  29.366  34.904  1.00  0.00     0.173 A 
ATOM     84  F   UNL A   1      42.865  27.202  36.220  1.00  0.00    -0.203 F 
ATOM     85  C   UNL A   1      45.190  27.189  36.601  1.00  0.00     0.198 A 
ATOM     86  C   UNL A   1      46.594  28.805  35.516  1.00  0.00     0.198 A 
ATOM     87  F   UNL A   1      45.647  30.421  34.092  1.00  0.00    -0.203 F 
ATOM     88  F   UNL A   1      45.044  26.157  37.445  1.00  0.00    -0.200 F 
ATOM     89  C   UNL A   1      46.449  27.721  36.368  1.00  0.00     0.200 A 
ATOM     90  F   UNL A   1      47.812  29.314  35.283  1.00  0.00    -0.200 F 
ATOM     91  F   UNL A   1      47.522  27.194  36.972  1.00  0.00    -0.200 F 
ENDBRANCH  58  81
ENDBRANCH  32  33
ENDBRANCH  24  27
ENDBRANCH  22  23
ENDBRANCH  21  22
ENDBRANCH  20  21
ENDBRANCH  19  20
ENDBRANCH   1  19
TORSDOF 17
ENDMDL
MODEL 2
REMARK VINA RESULT:     -10.6      2.543      3.914
REMARK SMILES COCc1cccc(O[C@@H](F)C(=O)NCCCCCCNC(=O)c2ccc(-c3c4nc(c(-c5c(F)c(F)c(F)c(F)c5F)c5ccc([nH]5)c(-c5c(F)c(F)c(F)c(F)c5F)c5nc(c(-c6c(F)c(F)c(F)c(F)c6F)c6ccc3[nH]6)C=C5)C=C4)cc2)c1
REMARK SMILES IDX 16 1 15 2 14 3 12 4 13 5 10 7 11 8 9 9 8 10 4 11 5 12 87 13
REMARK SMILES IDX 6 14 7 15 3 16 2 17 1 18 17 19 18 20 19 21 20 22 21 23 22 24
REMARK SMILES IDX 23 26 24 27 25 28 86 29 26 30 85 31 27 32 28 33 29 34 79 35
REMARK SMILES IDX 30 36 84 37 78 38 80 39 31 40 83 41 77 42 76 43 32 45 64 46
REMARK SMILES IDX 44 47 63 48 45 49 48 50 62 51 81 52 46 53 47 54 61 56 82 57
REMARK SMILES IDX 49 58 33 59 34 60 42 61 35 62 36 63 40 64 43 65 37 66 38 67
REMARK SMILES IDX 41 68 39 69 65 70 66 71 74 72 67 73 68 74 72 75 75 76 69 77
REMARK SMILES IDX 70 78 73 79 71 80 50 81 51 82 59 83 52 84 53 85 57 86 60 87
REMARK SMILES IDX 54 88 55 89 58 90 56 91
REMARK H PARENT 14 6 21 25 80 44 48 55
REMARK Flexibility Score: inf
ROOT
ATOM      1  C   UNL A   1      35.515  24.480  25.402  1.00  0.00     0.021 C 
ENDROOT
BRANCH   1   2
ATOM      2  C   UNL A   1      35.463  23.193  24.570  1.00  0.00     0.116 C 
BRANCH   2   3
ATOM      3  N   UNL A   1      34.949  23.452  23.238  1.00  0.00    -0.350 N 
ATOM      4  C   UNL A   1      33.793  23.031  22.638  1.00  0.00     0.294 C 
ATOM      5  O   UNL A   1      33.649  23.329  21.445  1.00  0.00    -0.267 OA
ATOM      6  H   UNL A   1      35.522  24.022  22.676  1.00  0.00     0.163 HD
BRANCH   4   7
ATOM      7  C   UNL A   1      32.692  22.236  23.395  1.00  0.00     0.440 C 
ATOM      8  F   UNL A   1      32.838  20.883  23.268  1.00  0.00    -0.191 F 
BRANCH   7   9
ATOM      9  O   UNL A   1      31.328  22.631  23.215  1.00  0.00    -0.452 OA
BRANCH   9  10
ATOM     10  C   UNL A   1      30.883  23.698  23.936  1.00  0.00     0.124 A 
ATOM     11  C   UNL A   1      30.082  25.986  24.134  1.00  0.00    -0.019 A 
ATOM     12  C   UNL A   1      30.115  25.853  25.531  1.00  0.00     0.006 A 
ATOM     13  C   UNL A   1      30.385  24.863  23.355  1.00  0.00     0.052 A 
ATOM     14  C   UNL A   1      30.480  24.641  26.122  1.00  0.00     0.004 A 
ATOM     15  C   UNL A   1      30.880  23.570  25.323  1.00  0.00     0.046 A 
BRANCH  11  16
ATOM     16  C   UNL A   1      29.806  27.340  23.519  1.00  0.00     0.195 C 
BRANCH  16  17
ATOM     17  O   UNL A   1      30.571  28.423  24.049  1.00  0.00    -0.380 OA
ATOM     18  C   UNL A   1      30.179  29.709  23.580  1.00  0.00     0.195 C 
ENDBRANCH  16  17
ENDBRANCH  11  16
ENDBRANCH   9  10
ENDBRANCH   7   9
ENDBRANCH   4   7
ENDBRANCH   2   3
ENDBRANCH   1   2
BRANCH   1  19
ATOM     19  C   UNL A   1      34.139  25.087  25.697  1.00  0.00     0.002 C 
BRANCH  19  20
ATOM     20  C   UNL A   1      33.782  26.333  24.872  1.00  0.00     0.002 C 
BRANCH  20  21
ATOM     21  C   UNL A   1      33.385  27.585  25.661  1.00  0.00     0.021 C 
BRANCH  21  22
ATOM     22  C   UNL A   1      33.829  28.926  25.076  1.00  0.00     0.116 C 
BRANCH  22  23
ATOM     23  N   UNL A   1      33.129  30.049  25.676  1.00  0.00    -0.352 N 
ATOM     24  C   UNL A   1      33.397  30.757  26.821  1.00  0.00     0.251 C 
ATOM     25  H   UNL A   1      32.333  30.349  25.181  1.00  0.00     0.163 HD
ATOM     26  O   UNL A   1      32.561  31.548  27.250  1.00  0.00    -0.269 OA
BRANCH  24  27
ATOM     27  C   UNL A   1      34.673  30.588  27.558  1.00  0.00     0.039 A 
ATOM     28  C   UNL A   1      34.890  29.388  28.247  1.00  0.00     0.014 A 
ATOM     29  C   UNL A   1      35.614  31.617  27.656  1.00  0.00     0.014 A 
ATOM     30  C   UNL A   1      36.056  29.207  28.999  1.00  0.00     0.010 A 
ATOM     31  C   UNL A   1      36.804  31.415  28.362  1.00  0.00     0.010 A 
ATOM     32  C   UNL A   1      37.032  30.214  29.051  1.00  0.00    -0.014 A 
BRANCH  32  33
ATOM     33  C   UNL A   1      38.277  30.034  29.846  1.00  0.00     0.031 A 
ATOM     34  C   UNL A   1      39.422  29.230  29.295  1.00  0.00     0.074 A 
ATOM     35  C   UNL A   1      38.365  30.557  31.084  1.00  0.00     0.049 A 
ATOM     36  N   UNL A   1      40.562  28.914  29.858  1.00  0.00    -0.248 NA
ATOM     37  C   UNL A   1      39.256  28.690  27.937  1.00  0.00     0.031 C 
ATOM     38  C   UNL A   1      37.318  31.328  31.753  1.00  0.00     0.029 A 
ATOM     39  N   UNL A   1      39.384  30.508  32.006  1.00  0.00    -0.354 N 
ATOM     40  C   UNL A   1      41.237  28.125  28.936  1.00  0.00     0.074 A 
ATOM     41  C   UNL A   1      40.363  27.976  27.791  1.00  0.00     0.031 C 
ATOM     42  C   UNL A   1      37.751  31.692  32.972  1.00  0.00     0.029 A 
ATOM     43  C   UNL A   1      39.094  31.157  33.181  1.00  0.00     0.049 A 
ATOM     44  H   UNL A   1      40.239  30.051  31.840  1.00  0.00     0.167 HD
ATOM     45  C   UNL A   1      42.478  27.588  29.024  1.00  0.00     0.037 A 
ATOM     46  C   UNL A   1      39.826  31.302  34.302  1.00  0.00     0.037 A 
ATOM     47  C   UNL A   1      43.365  27.763  30.144  1.00  0.00     0.049 A 
ATOM     48  C   UNL A   1      41.205  30.707  34.372  1.00  0.00     0.074 A 
ATOM     49  C   UNL A   1      44.666  27.314  30.294  1.00  0.00     0.029 A 
ATOM     50  N   UNL A   1      43.042  28.445  31.308  1.00  0.00    -0.354 N 
ATOM     51  N   UNL A   1      41.853  30.012  33.469  1.00  0.00    -0.248 NA
ATOM     52  C   UNL A   1      41.957  30.921  35.617  1.00  0.00     0.031 C 
ATOM     53  C   UNL A   1      45.118  27.693  31.563  1.00  0.00     0.029 A 
ATOM     54  C   UNL A   1      44.112  28.413  32.188  1.00  0.00     0.049 A 
ATOM     55  H   UNL A   1      42.179  28.886  31.482  1.00  0.00     0.167 HD
ATOM     56  C   UNL A   1      43.093  29.728  34.025  1.00  0.00     0.074 A 
ATOM     57  C   UNL A   1      43.114  30.336  35.339  1.00  0.00     0.031 C 
ATOM     58  C   UNL A   1      44.122  29.024  33.491  1.00  0.00     0.037 A 
BRANCH  45  59
ATOM     59  C   UNL A   1      42.955  26.756  27.870  1.00  0.00     0.064 A 
ATOM     60  C   UNL A   1      42.712  25.376  27.807  1.00  0.00     0.173 A 
ATOM     61  C   UNL A   1      43.636  27.352  26.797  1.00  0.00     0.173 A 
ATOM     62  F   UNL A   1      42.074  24.758  28.814  1.00  0.00    -0.203 F 
ATOM     63  C   UNL A   1      43.156  24.618  26.729  1.00  0.00     0.198 A 
ATOM     64  C   UNL A   1      44.056  26.594  25.706  1.00  0.00     0.198 A 
ATOM     65  F   UNL A   1      43.888  28.669  26.803  1.00  0.00    -0.203 F 
ATOM     66  F   UNL A   1      42.952  23.293  26.713  1.00  0.00    -0.200 F 
ATOM     67  C   UNL A   1      43.823  25.228  25.676  1.00  0.00     0.200 A 
ATOM     68  F   UNL A   1      44.690  27.187  24.685  1.00  0.00    -0.200 F 
ATOM     69  F   UNL A   1      44.247  24.497  24.636  1.00  0.00    -0.200 F 
ENDBRANCH  45  59
BRANCH  46  70
ATOM     70  C   UNL A   1      39.274  32.070  35.447  1.00  0.00     0.064 A 
ATOM     71  C   UNL A   1      38.490  31.440  36.422  1.00  0.00     0.173 A 
ATOM     72  C   UNL A   1      39.523  33.442  35.593  1.00  0.00     0.173 A 
ATOM     73  F   UNL A   1      38.207  30.134  36.312  1.00  0.00    -0.203 F 
ATOM     74  C   UNL A   1      37.962  32.157  37.494  1.00  0.00     0.198 A 
ATOM     75  C   UNL A   1      39.015  34.153  36.677  1.00  0.00     0.198 A 
ATOM     76  F   UNL A   1      40.270  34.089  34.687  1.00  0.00    -0.203 F 
ATOM     77  F   UNL A   1      37.184  31.538  38.393  1.00  0.00    -0.200 F 
ATOM     78  C   UNL A   1      38.230  33.512  37.625  1.00  0.00     0.200 A 
ATOM     79  F   UNL A   1      39.285  35.459  36.807  1.00  0.00    -0.200 F 
ATOM     80  F   UNL A   1      37.728  34.198  38.659  1.00  0.00    -0.200 F 
ENDBRANCH  46  70
BRANCH  58  81
ATOM     81  C   UNL A   1      45.367  28.895  34.317  1.00  0.00     0.064 A 
ATOM     82  C   UNL A   1      46.392  29.852  34.253  1.00  0.00     0.173 A 
ATOM     83  C   UNL A   1      45.523  27.824  35.208  1.00  0.00     0.173 A 
ATOM     84  F   UNL A   1      46.296  30.887  33.404  1.00  0.00    -0.203 F 
ATOM     85  C   UNL A   1      47.535  29.728  35.038  1.00  0.00     0.198 A 
ATOM     86  C   UNL A   1      46.656  27.716  36.009  1.00  0.00     0.198 A 
ATOM     87  F   UNL A   1      44.569  26.885  35.309  1.00  0.00    -0.203 F 
ATOM     88  F   UNL A   1      48.519  30.632  34.931  1.00  0.00    -0.200 F 
ATOM     89  C   UNL A   1      47.663  28.665  35.919  1.00  0.00     0.200 A 
ATOM     90  F   UNL A   1      46.775  26.694  36.867  1.00  0.00    -0.200 F 
ATOM     91  F   UNL A   1      48.762  28.551  36.677  1.00  0.00    -0.200 F 
ENDBRANCH  58  81
ENDBRANCH  32  33
ENDBRANCH  24  27
ENDBRANCH  22  23
ENDBRANCH  21  22
ENDBRANCH  20  21
ENDBRANCH  19  20
ENDBRANCH   1  19
TORSDOF 17
ENDMDL
MODEL 3
REMARK VINA RESULT:     -10.5      5.535     11.872
REMARK SMILES COCc1cccc(O[C@@H](F)C(=O)NCCCCCCNC(=O)c2ccc(-c3c4nc(c(-c5c(F)c(F)c(F)c(F)c5F)c5ccc([nH]5)c(-c5c(F)c(F)c(F)c(F)c5F)c5nc(c(-c6c(F)c(F)c(F)c(F)c6F)c6ccc3[nH]6)C=C5)C=C4)cc2)c1
REMARK SMILES IDX 16 1 15 2 14 3 12 4 13 5 10 7 11 8 9 9 8 10 4 11 5 12 87 13
REMARK SMILES IDX 6 14 7 15 3 16 2 17 1 18 17 19 18 20 19 21 20 22 21 23 22 24
REMARK SMILES IDX 23 26 24 27 25 28 86 29 26 30 85 31 27 32 28 33 29 34 79 35
REMARK SMILES IDX 30 36 84 37 78 38 80 39 31 40 83 41 77 42 76 43 32 45 64 46
REMARK SMILES IDX 44 47 63 48 45 49 48 50 62 51 81 52 46 53 47 54 61 56 82 57
REMARK SMILES IDX 49 58 33 59 34 60 42 61 35 62 36 63 40 64 43 65 37 66 38 67
REMARK SMILES IDX 41 68 39 69 65 70 66 71 74 72 67 73 68 74 72 75 75 76 69 77
REMARK SMILES IDX 70 78 73 79 71 80 50 81 51 82 59 83 52 84 53 85 57 86 60 87
REMARK SMILES IDX 54 88 55 89 58 90 56 91
REMARK H PARENT 14 6 21 25 80 44 48 55
REMARK Flexibility Score: inf
ROOT
ATOM      1  C   UNL A   1      47.912  27.387  30.426  1.00  0.00     0.021 C 
ENDROOT
BRANCH   1   2
ATOM      2  C   UNL A   1      49.060  27.438  29.411  1.00  0.00     0.116 C 
BRANCH   2   3
ATOM      3  N   UNL A   1      49.563  26.108  29.123  1.00  0.00    -0.350 N 
ATOM      4  C   UNL A   1      49.413  25.327  28.009  1.00  0.00     0.294 C 
ATOM      5  O   UNL A   1      49.876  24.180  28.072  1.00  0.00    -0.267 OA
ATOM      6  H   UNL A   1      50.098  25.703  29.843  1.00  0.00     0.163 HD
BRANCH   4   7
ATOM      7  C   UNL A   1      48.718  25.831  26.713  1.00  0.00     0.440 C 
ATOM      8  F   UNL A   1      49.372  26.885  26.140  1.00  0.00    -0.191 F 
BRANCH   7   9
ATOM      9  O   UNL A   1      47.304  26.054  26.747  1.00  0.00    -0.452 OA
BRANCH   9  10
ATOM     10  C   UNL A   1      46.508  24.989  27.044  1.00  0.00     0.124 A 
ATOM     11  C   UNL A   1      45.484  22.847  26.518  1.00  0.00    -0.019 A 
ATOM     12  C   UNL A   1      44.746  22.932  27.709  1.00  0.00     0.006 A 
ATOM     13  C   UNL A   1      46.426  23.846  26.251  1.00  0.00     0.052 A 
ATOM     14  C   UNL A   1      44.925  24.009  28.582  1.00  0.00     0.004 A 
ATOM     15  C   UNL A   1      45.794  25.045  28.239  1.00  0.00     0.046 A 
BRANCH  11  16
ATOM     16  C   UNL A   1      45.184  21.740  25.532  1.00  0.00     0.195 C 
BRANCH  16  17
ATOM     17  O   UNL A   1      46.325  21.075  24.988  1.00  0.00    -0.380 OA
ATOM     18  C   UNL A   1      46.374  19.677  25.249  1.00  0.00     0.195 C 
ENDBRANCH  16  17
ENDBRANCH  11  16
ENDBRANCH   9  10
ENDBRANCH   7   9
ENDBRANCH   4   7
ENDBRANCH   2   3
ENDBRANCH   1   2
BRANCH   1  19
ATOM     19  C   UNL A   1      48.321  26.847  31.801  1.00  0.00     0.002 C 
BRANCH  19  20
ATOM     20  C   UNL A   1      47.589  25.573  32.249  1.00  0.00     0.002 C 
BRANCH  20  21
ATOM     21  C   UNL A   1      48.235  24.778  33.389  1.00  0.00     0.021 C 
BRANCH  21  22
ATOM     22  C   UNL A   1      49.149  25.562  34.331  1.00  0.00     0.116 C 
BRANCH  22  23
ATOM     23  N   UNL A   1      48.774  25.400  35.725  1.00  0.00    -0.352 N 
ATOM     24  C   UNL A   1      47.690  25.880  36.419  1.00  0.00     0.251 C 
ATOM     25  H   UNL A   1      49.399  24.858  36.258  1.00  0.00     0.163 HD
ATOM     26  O   UNL A   1      47.669  25.784  37.643  1.00  0.00    -0.269 OA
BRANCH  24  27
ATOM     27  C   UNL A   1      46.544  26.516  35.724  1.00  0.00     0.039 A 
ATOM     28  C   UNL A   1      45.354  25.788  35.597  1.00  0.00     0.014 A 
ATOM     29  C   UNL A   1      46.650  27.772  35.121  1.00  0.00     0.014 A 
ATOM     30  C   UNL A   1      44.267  26.329  34.903  1.00  0.00     0.010 A 
ATOM     31  C   UNL A   1      45.545  28.335  34.475  1.00  0.00     0.010 A 
ATOM     32  C   UNL A   1      44.346  27.615  34.347  1.00  0.00    -0.014 A 
BRANCH  32  33
ATOM     33  C   UNL A   1      43.197  28.202  33.607  1.00  0.00     0.031 A 
ATOM     34  C   UNL A   1      42.988  27.884  32.151  1.00  0.00     0.074 A 
ATOM     35  C   UNL A   1      42.362  29.057  34.228  1.00  0.00     0.049 A 
ATOM     36  N   UNL A   1      42.082  28.341  31.323  1.00  0.00    -0.248 NA
ATOM     37  C   UNL A   1      43.938  26.942  31.539  1.00  0.00     0.031 C 
ATOM     38  C   UNL A   1      42.469  29.478  35.624  1.00  0.00     0.029 A 
ATOM     39  N   UNL A   1      41.262  29.734  33.758  1.00  0.00    -0.354 N 
ATOM     40  C   UNL A   1      42.364  27.761  30.093  1.00  0.00     0.074 A 
ATOM     41  C   UNL A   1      43.549  26.950  30.272  1.00  0.00     0.031 C 
ATOM     42  C   UNL A   1      41.469  30.330  35.903  1.00  0.00     0.029 A 
ATOM     43  C   UNL A   1      40.667  30.537  34.699  1.00  0.00     0.049 A 
ATOM     44  H   UNL A   1      40.932  29.651  32.835  1.00  0.00     0.167 HD
ATOM     45  C   UNL A   1      41.688  27.878  28.924  1.00  0.00     0.037 A 
ATOM     46  C   UNL A   1      39.599  31.351  34.604  1.00  0.00     0.037 A 
ATOM     47  C   UNL A   1      40.488  28.654  28.750  1.00  0.00     0.049 A 
ATOM     48  C   UNL A   1      38.857  31.455  33.299  1.00  0.00     0.074 A 
ATOM     49  C   UNL A   1      39.696  28.777  27.621  1.00  0.00     0.029 A 
ATOM     50  N   UNL A   1      39.905  29.438  29.734  1.00  0.00    -0.354 N 
ATOM     51  N   UNL A   1      39.101  30.856  32.160  1.00  0.00    -0.248 NA
ATOM     52  C   UNL A   1      37.688  32.345  33.270  1.00  0.00     0.031 C 
ATOM     53  C   UNL A   1      38.653  29.665  27.911  1.00  0.00     0.029 A 
ATOM     54  C   UNL A   1      38.773  30.063  29.233  1.00  0.00     0.049 A 
ATOM     55  H   UNL A   1      40.245  29.536  30.653  1.00  0.00     0.167 HD
ATOM     56  C   UNL A   1      38.106  31.276  31.288  1.00  0.00     0.074 A 
ATOM     57  C   UNL A   1      37.246  32.172  32.033  1.00  0.00     0.031 C 
ATOM     58  C   UNL A   1      37.924  30.948  29.985  1.00  0.00     0.037 A 
BRANCH  45  59
ATOM     59  C   UNL A   1      42.232  27.144  27.734  1.00  0.00     0.064 A 
ATOM     60  C   UNL A   1      43.205  27.713  26.900  1.00  0.00     0.173 A 
ATOM     61  C   UNL A   1      41.799  25.840  27.443  1.00  0.00     0.173 A 
ATOM     62  F   UNL A   1      43.644  28.960  27.130  1.00  0.00    -0.203 F 
ATOM     63  C   UNL A   1      43.704  27.018  25.802  1.00  0.00     0.198 A 
ATOM     64  C   UNL A   1      42.320  25.137  26.360  1.00  0.00     0.198 A 
ATOM     65  F   UNL A   1      40.876  25.246  28.214  1.00  0.00    -0.203 F 
ATOM     66  F   UNL A   1      44.599  27.601  24.992  1.00  0.00    -0.200 F 
ATOM     67  C   UNL A   1      43.266  25.729  25.536  1.00  0.00     0.200 A 
ATOM     68  F   UNL A   1      41.904  23.888  26.110  1.00  0.00    -0.200 F 
ATOM     69  F   UNL A   1      43.750  25.060  24.481  1.00  0.00    -0.200 F 
ENDBRANCH  45  59
BRANCH  46  70
ATOM     70  C   UNL A   1      39.147  32.117  35.794  1.00  0.00     0.064 A 
ATOM     71  C   UNL A   1      38.299  31.532  36.744  1.00  0.00     0.173 A 
ATOM     72  C   UNL A   1      39.557  33.440  36.008  1.00  0.00     0.173 A 
ATOM     73  F   UNL A   1      37.864  30.275  36.568  1.00  0.00    -0.203 F 
ATOM     74  C   UNL A   1      37.866  32.247  37.858  1.00  0.00     0.198 A 
ATOM     75  C   UNL A   1      39.141  34.147  37.134  1.00  0.00     0.198 A 
ATOM     76  F   UNL A   1      40.370  34.043  35.128  1.00  0.00    -0.203 F 
ATOM     77  F   UNL A   1      37.026  31.676  38.732  1.00  0.00    -0.200 F 
ATOM     78  C   UNL A   1      38.292  33.552  38.056  1.00  0.00     0.200 A 
ATOM     79  F   UNL A   1      39.564  35.403  37.328  1.00  0.00    -0.200 F 
ATOM     80  F   UNL A   1      37.880  34.237  39.131  1.00  0.00    -0.200 F 
ENDBRANCH  46  70
BRANCH  58  81
ATOM     81  C   UNL A   1      36.735  31.540  29.287  1.00  0.00     0.064 A 
ATOM     82  C   UNL A   1      36.692  32.897  28.936  1.00  0.00     0.173 A 
ATOM     83  C   UNL A   1      35.643  30.734  28.934  1.00  0.00     0.173 A 
ATOM     84  F   UNL A   1      37.705  33.712  29.267  1.00  0.00    -0.203 F 
ATOM     85  C   UNL A   1      35.588  33.429  28.273  1.00  0.00     0.198 A 
ATOM     86  C   UNL A   1      34.553  31.263  28.250  1.00  0.00     0.198 A 
ATOM     87  F   UNL A   1      35.639  29.428  29.243  1.00  0.00    -0.203 F 
ATOM     88  F   UNL A   1      35.551  34.737  27.982  1.00  0.00    -0.200 F 
ATOM     89  C   UNL A   1      34.524  32.611  27.925  1.00  0.00     0.200 A 
ATOM     90  F   UNL A   1      33.529  30.470  27.906  1.00  0.00    -0.200 F 
ATOM     91  F   UNL A   1      33.466  33.124  27.283  1.00  0.00    -0.200 F 
ENDBRANCH  58  81
ENDBRANCH  32  33
ENDBRANCH  24  27
ENDBRANCH  22  23
ENDBRANCH  21  22
ENDBRANCH  20  21
ENDBRANCH  19  20
ENDBRANCH   1  19
TORSDOF 17
ENDMDL
