MODEL 1
REMARK VINA RESULT:     -13.4      0.000      0.000
REMARK SMILES O=C(NCCCCCCNC(=O)[C@@H]1CCCC[C@H]1C(=O)Nc1cccc(-c2nnc(-c3ccccc3)o2)c1)c1ccc(-c2c3nc(c(-c4c(F)c(F)c(F)c(F)c4F)c4ccc([nH]4)c(-c4c(F)c(F)c(F)c(F)c4F)c4nc(c(-c5c(F)c(F)c(F)c(F)c5F)c5ccc2[nH]5)C=C4)C=C3)cc1
REMARK SMILES IDX 7 1 6 2 5 3 4 4 3 5 1 6 2 7 39 9 40 10 101 11 41 12 100 13
REMARK SMILES IDX 42 14 43 15 44 16 94 17 45 18 99 19 93 20 95 21 46 22 98 23
REMARK SMILES IDX 92 24 91 25 47 27 79 28 59 29 78 30 60 31 63 32 77 33 96 34
REMARK SMILES IDX 61 35 62 36 76 38 97 39 64 40 48 41 49 42 57 43 50 44 51 45
REMARK SMILES IDX 55 46 58 47 52 48 53 49 56 50 54 51 80 52 81 53 89 54 82 55
REMARK SMILES IDX 83 56 87 57 90 58 84 59 85 60 88 61 86 62 65 63 66 64 74 65
REMARK SMILES IDX 67 66 68 67 72 68 75 69 69 70 70 71 73 72 71 73 8 74 9 75
REMARK SMILES IDX 10 76 11 77 12 79 13 80 14 81 18 82 15 83 17 84 16 85 19 86
REMARK SMILES IDX 20 87 21 88 22 90 23 91 38 92 24 93 26 94 25 95 27 96 28 97
REMARK SMILES IDX 37 98 29 99 30 100 31 101 32 102 36 103 33 104 35 105 34 106
REMARK H PARENT 3 8 95 26 63 37 10 78 21 89
REMARK Flexibility Score: inf
ROOT
ATOM      1  C   UNL A   1      37.351  21.956  24.601  1.00  0.00     0.002 C 
ENDROOT
BRANCH   1   2
ATOM      2  C   UNL A   1      37.127  20.500  25.025  1.00  0.00     0.002 C 
BRANCH   2   3
ATOM      3  C   UNL A   1      38.372  19.618  24.950  1.00  0.00     0.021 C 
BRANCH   3   4
ATOM      4  C   UNL A   1      39.478  20.028  25.912  1.00  0.00     0.116 C 
BRANCH   4   5
ATOM      5  N   UNL A   1      40.517  19.013  26.009  1.00  0.00    -0.352 N 
ATOM      6  O   UNL A   1      42.622  18.202  25.910  1.00  0.00    -0.269 OA
ATOM      7  C   UNL A   1      41.882  19.162  26.058  1.00  0.00     0.251 C 
ATOM      8  H   UNL A   1      40.195  18.084  26.044  1.00  0.00     0.163 HD
BRANCH   7   9
ATOM      9  C   UNL A   1      42.449  20.510  26.276  1.00  0.00     0.039 A 
ATOM     10  C   UNL A   1      42.540  21.032  27.566  1.00  0.00     0.014 A 
ATOM     11  C   UNL A   1      42.875  21.261  25.179  1.00  0.00     0.014 A 
ATOM     12  C   UNL A   1      42.885  22.364  27.743  1.00  0.00     0.010 A 
ATOM     13  C   UNL A   1      43.330  22.568  25.373  1.00  0.00     0.010 A 
ATOM     14  C   UNL A   1      43.297  23.145  26.652  1.00  0.00    -0.014 A 
BRANCH  14  15
ATOM     15  C   UNL A   1      43.723  24.547  26.893  1.00  0.00     0.031 A 
ATOM     16  C   UNL A   1      42.770  25.566  27.451  1.00  0.00     0.074 A 
ATOM     17  C   UNL A   1      45.004  24.883  26.642  1.00  0.00     0.049 A 
ATOM     18  N   UNL A   1      42.990  26.820  27.760  1.00  0.00    -0.248 NA
ATOM     19  C   UNL A   1      41.386  25.129  27.687  1.00  0.00     0.031 C 
ATOM     20  C   UNL A   1      46.017  23.979  26.090  1.00  0.00     0.029 A 
ATOM     21  N   UNL A   1      45.682  26.058  26.840  1.00  0.00    -0.354 N 
ATOM     22  C   UNL A   1      41.774  27.326  28.198  1.00  0.00     0.074 A 
ATOM     23  C   UNL A   1      40.810  26.254  28.091  1.00  0.00     0.031 C 
ATOM     24  C   UNL A   1      47.197  24.612  26.050  1.00  0.00     0.029 A 
ATOM     25  C   UNL A   1      47.011  25.985  26.504  1.00  0.00     0.049 A 
ATOM     26  H   UNL A   1      45.256  26.874  27.189  1.00  0.00     0.167 HD
ATOM     27  C   UNL A   1      41.492  28.571  28.658  1.00  0.00     0.037 A 
ATOM     28  C   UNL A   1      47.973  26.924  26.543  1.00  0.00     0.037 A 
ATOM     29  C   UNL A   1      42.465  29.628  28.779  1.00  0.00     0.049 A 
ATOM     30  C   UNL A   1      47.625  28.300  27.036  1.00  0.00     0.074 A 
ATOM     31  C   UNL A   1      42.291  30.910  29.271  1.00  0.00     0.029 A 
ATOM     32  N   UNL A   1      43.797  29.527  28.398  1.00  0.00    -0.354 N 
ATOM     33  N   UNL A   1      46.482  28.752  27.488  1.00  0.00    -0.248 NA
ATOM     34  C   UNL A   1      48.705  29.293  27.026  1.00  0.00     0.031 C 
ATOM     35  C   UNL A   1      43.498  31.603  29.131  1.00  0.00     0.029 A 
ATOM     36  C   UNL A   1      44.446  30.732  28.619  1.00  0.00     0.049 A 
ATOM     37  H   UNL A   1      44.217  28.718  28.027  1.00  0.00     0.167 HD
ATOM     38  C   UNL A   1      46.710  30.073  27.846  1.00  0.00     0.074 A 
ATOM     39  C   UNL A   1      48.108  30.341  27.575  1.00  0.00     0.031 C 
ATOM     40  C   UNL A   1      45.841  30.981  28.354  1.00  0.00     0.037 A 
BRANCH  27  41
ATOM     41  C   UNL A   1      40.069  28.872  29.038  1.00  0.00     0.064 A 
ATOM     42  C   UNL A   1      39.624  28.807  30.367  1.00  0.00     0.173 A 
ATOM     43  C   UNL A   1      39.146  29.274  28.060  1.00  0.00     0.173 A 
ATOM     44  F   UNL A   1      40.461  28.419  31.342  1.00  0.00    -0.203 F 
ATOM     45  C   UNL A   1      38.303  29.102  30.697  1.00  0.00     0.198 A 
ATOM     46  C   UNL A   1      37.834  29.602  28.398  1.00  0.00     0.198 A 
ATOM     47  F   UNL A   1      39.517  29.362  26.774  1.00  0.00    -0.203 F 
ATOM     48  F   UNL A   1      37.889  28.984  31.967  1.00  0.00    -0.200 F 
ATOM     49  C   UNL A   1      37.411  29.507  29.715  1.00  0.00     0.200 A 
ATOM     50  F   UNL A   1      36.981  30.008  27.448  1.00  0.00    -0.200 F 
ATOM     51  F   UNL A   1      36.144  29.800  30.035  1.00  0.00    -0.200 F 
ENDBRANCH  27  41
BRANCH  28  52
ATOM     52  C   UNL A   1      49.355  26.589  26.109  1.00  0.00     0.064 A 
ATOM     53  C   UNL A   1      49.784  26.853  24.802  1.00  0.00     0.173 A 
ATOM     54  C   UNL A   1      50.272  25.998  26.992  1.00  0.00     0.173 A 
ATOM     55  F   UNL A   1      48.939  27.402  23.917  1.00  0.00    -0.203 F 
ATOM     56  C   UNL A   1      51.071  26.518  24.387  1.00  0.00     0.198 A 
ATOM     57  C   UNL A   1      51.569  25.696  26.586  1.00  0.00     0.198 A 
ATOM     58  F   UNL A   1      49.912  25.731  28.256  1.00  0.00    -0.203 F 
ATOM     59  F   UNL A   1      51.440  26.735  23.117  1.00  0.00    -0.200 F 
ATOM     60  C   UNL A   1      51.965  25.946  25.280  1.00  0.00     0.200 A 
ATOM     61  F   UNL A   1      52.434  25.162  27.458  1.00  0.00    -0.200 F 
ATOM     62  F   UNL A   1      53.204  25.629  24.882  1.00  0.00    -0.200 F 
ENDBRANCH  28  52
BRANCH  40  63
ATOM     63  C   UNL A   1      46.394  32.334  28.702  1.00  0.00     0.064 A 
ATOM     64  C   UNL A   1      46.935  32.613  29.966  1.00  0.00     0.173 A 
ATOM     65  C   UNL A   1      46.392  33.363  27.748  1.00  0.00     0.173 A 
ATOM     66  F   UNL A   1      46.947  31.669  30.919  1.00  0.00    -0.203 F 
ATOM     67  C   UNL A   1      47.415  33.883  30.274  1.00  0.00     0.198 A 
ATOM     68  C   UNL A   1      46.907  34.621  28.048  1.00  0.00     0.198 A 
ATOM     69  F   UNL A   1      45.893  33.149  26.521  1.00  0.00    -0.203 F 
ATOM     70  F   UNL A   1      47.866  34.146  31.509  1.00  0.00    -0.200 F 
ATOM     71  C   UNL A   1      47.408  34.884  29.314  1.00  0.00     0.200 A 
ATOM     72  F   UNL A   1      46.913  35.582  27.113  1.00  0.00    -0.200 F 
ATOM     73  F   UNL A   1      47.871  36.105  29.613  1.00  0.00    -0.200 F 
ENDBRANCH  40  63
ENDBRANCH  14  15
ENDBRANCH   7   9
ENDBRANCH   4   5
ENDBRANCH   3   4
ENDBRANCH   2   3
ENDBRANCH   1   2
BRANCH   1  74
ATOM     74  C   UNL A   1      37.200  22.985  25.726  1.00  0.00     0.021 C 
BRANCH  74  75
ATOM     75  C   UNL A   1      35.783  23.541  25.868  1.00  0.00     0.116 C 
BRANCH  75  76
ATOM     76  N   UNL A   1      35.063  22.802  26.880  1.00  0.00    -0.356 N 
ATOM     77  C   UNL A   1      33.794  22.340  26.924  1.00  0.00     0.223 C 
ATOM     78  H   UNL A   1      35.594  22.600  27.684  1.00  0.00     0.163 HD
ATOM     79  O   UNL A   1      33.403  21.898  28.011  1.00  0.00    -0.275 OA
BRANCH  77  80
ATOM     80  C   UNL A   1      32.883  22.247  25.708  1.00  0.00     0.091 C 
ATOM     81  C   UNL A   1      33.607  21.616  24.514  1.00  0.00     0.014 C 
ATOM     82  C   UNL A   1      32.038  23.466  25.323  1.00  0.00     0.091 C 
ATOM     83  C   UNL A   1      32.602  21.272  23.415  1.00  0.00     0.001 C 
ATOM     84  C   UNL A   1      31.092  23.166  24.145  1.00  0.00     0.014 C 
ATOM     85  C   UNL A   1      31.832  22.513  22.973  1.00  0.00     0.001 C 
BRANCH  82  86
ATOM     86  C   UNL A   1      31.359  24.241  26.465  1.00  0.00     0.228 C 
ATOM     87  O   UNL A   1      30.659  23.609  27.270  1.00  0.00    -0.274 OA
ATOM     88  N   UNL A   1      31.558  25.564  26.751  1.00  0.00    -0.326 N 
ATOM     89  H   UNL A   1      30.991  25.936  27.465  1.00  0.00     0.169 HD
BRANCH  88  90
ATOM     90  C   UNL A   1      32.457  26.454  26.164  1.00  0.00     0.041 A 
ATOM     91  C   UNL A   1      32.863  26.211  24.853  1.00  0.00     0.026 A 
ATOM     92  C   UNL A   1      32.871  27.610  26.819  1.00  0.00     0.040 A 
ATOM     93  C   UNL A   1      33.524  27.211  24.143  1.00  0.00     0.003 A 
ATOM     94  C   UNL A   1      33.424  28.664  26.087  1.00  0.00     0.041 A 
ATOM     95  C   UNL A   1      33.754  28.451  24.743  1.00  0.00     0.014 A 
BRANCH  94  96
ATOM     96  C   UNL A   1      33.405  30.013  26.628  1.00  0.00     0.248 A 
ATOM     97  N   UNL A   1      32.420  30.886  26.576  1.00  0.00    -0.107 NA
ATOM     98  O   UNL A   1      34.451  30.429  27.411  1.00  0.00    -0.416 OA
ATOM     99  N   UNL A   1      32.782  31.932  27.393  1.00  0.00    -0.107 NA
ATOM    100  C   UNL A   1      33.988  31.650  27.844  1.00  0.00     0.248 A 
BRANCH 100 101
ATOM    101  C   UNL A   1      34.862  32.464  28.668  1.00  0.00     0.039 A 
ATOM    102  C   UNL A   1      36.076  32.940  28.150  1.00  0.00     0.014 A 
ATOM    103  C   UNL A   1      34.565  32.695  30.018  1.00  0.00     0.014 A 
ATOM    104  C   UNL A   1      36.979  33.624  28.967  1.00  0.00     0.001 A 
ATOM    105  C   UNL A   1      35.476  33.363  30.839  1.00  0.00     0.001 A 
ATOM    106  C   UNL A   1      36.683  33.824  30.314  1.00  0.00     0.000 A 
ENDBRANCH 100 101
ENDBRANCH  94  96
ENDBRANCH  88  90
ENDBRANCH  82  86
ENDBRANCH  77  80
ENDBRANCH  75  76
ENDBRANCH  74  75
ENDBRANCH   1  74
TORSDOF 17
ENDMDL
MODEL 2
REMARK VINA RESULT:     -13.4      0.732      6.833
REMARK SMILES O=C(NCCCCCCNC(=O)[C@@H]1CCCC[C@H]1C(=O)Nc1cccc(-c2nnc(-c3ccccc3)o2)c1)c1ccc(-c2c3nc(c(-c4c(F)c(F)c(F)c(F)c4F)c4ccc([nH]4)c(-c4c(F)c(F)c(F)c(F)c4F)c4nc(c(-c5c(F)c(F)c(F)c(F)c5F)c5ccc2[nH]5)C=C4)C=C3)cc1
REMARK SMILES IDX 7 1 6 2 5 3 4 4 3 5 1 6 2 7 39 9 40 10 101 11 41 12 100 13
REMARK SMILES IDX 42 14 43 15 44 16 94 17 45 18 99 19 93 20 95 21 46 22 98 23
REMARK SMILES IDX 92 24 91 25 47 27 79 28 59 29 78 30 60 31 63 32 77 33 96 34
REMARK SMILES IDX 61 35 62 36 76 38 97 39 64 40 48 41 49 42 57 43 50 44 51 45
REMARK SMILES IDX 55 46 58 47 52 48 53 49 56 50 54 51 80 52 81 53 89 54 82 55
REMARK SMILES IDX 83 56 87 57 90 58 84 59 85 60 88 61 86 62 65 63 66 64 74 65
REMARK SMILES IDX 67 66 68 67 72 68 75 69 69 70 70 71 73 72 71 73 8 74 9 75
REMARK SMILES IDX 10 76 11 77 12 79 13 80 14 81 18 82 15 83 17 84 16 85 19 86
REMARK SMILES IDX 20 87 21 88 22 90 23 91 38 92 24 93 26 94 25 95 27 96 28 97
REMARK SMILES IDX 37 98 29 99 30 100 31 101 32 102 36 103 33 104 35 105 34 106
REMARK H PARENT 3 8 95 26 63 37 10 78 21 89
REMARK Flexibility Score: inf
ROOT
ATOM      1  C   UNL A   1      37.395  22.044  24.633  1.00  0.00     0.002 C 
ENDROOT
BRANCH   1   2
ATOM      2  C   UNL A   1      37.031  20.602  24.999  1.00  0.00     0.002 C 
BRANCH   2   3
ATOM      3  C   UNL A   1      38.208  19.629  25.001  1.00  0.00     0.021 C 
BRANCH   3   4
ATOM      4  C   UNL A   1      39.342  20.033  25.933  1.00  0.00     0.116 C 
BRANCH   4   5
ATOM      5  N   UNL A   1      40.403  19.038  25.961  1.00  0.00    -0.352 N 
ATOM      6  O   UNL A   1      42.525  18.281  25.802  1.00  0.00    -0.269 OA
ATOM      7  C   UNL A   1      41.765  19.214  26.014  1.00  0.00     0.251 C 
ATOM      8  H   UNL A   1      40.101  18.101  25.940  1.00  0.00     0.163 HD
BRANCH   7   9
ATOM      9  C   UNL A   1      42.304  20.557  26.312  1.00  0.00     0.039 A 
ATOM     10  C   UNL A   1      42.402  20.996  27.633  1.00  0.00     0.014 A 
ATOM     11  C   UNL A   1      42.696  21.389  25.261  1.00  0.00     0.014 A 
ATOM     12  C   UNL A   1      42.718  22.321  27.892  1.00  0.00     0.010 A 
ATOM     13  C   UNL A   1      43.124  22.691  25.535  1.00  0.00     0.010 A 
ATOM     14  C   UNL A   1      43.097  23.181  26.850  1.00  0.00    -0.014 A 
BRANCH  14  15
ATOM     15  C   UNL A   1      43.494  24.575  27.176  1.00  0.00     0.031 A 
ATOM     16  C   UNL A   1      44.880  25.079  26.883  1.00  0.00     0.074 A 
ATOM     17  C   UNL A   1      42.569  25.401  27.702  1.00  0.00     0.049 A 
ATOM     18  N   UNL A   1      45.377  26.277  27.066  1.00  0.00    -0.248 NA
ATOM     19  C   UNL A   1      45.837  24.115  26.322  1.00  0.00     0.031 C 
ATOM     20  C   UNL A   1      41.194  25.019  28.037  1.00  0.00     0.029 A 
ATOM     21  N   UNL A   1      42.629  26.733  28.022  1.00  0.00    -0.354 N 
ATOM     22  C   UNL A   1      46.706  26.205  26.669  1.00  0.00     0.074 A 
ATOM     23  C   UNL A   1      46.948  24.838  26.262  1.00  0.00     0.031 C 
ATOM     24  C   UNL A   1      40.526  26.102  28.458  1.00  0.00     0.029 A 
ATOM     25  C   UNL A   1      41.442  27.237  28.492  1.00  0.00     0.049 A 
ATOM     26  H   UNL A   1      43.446  27.275  27.926  1.00  0.00     0.167 HD
ATOM     27  C   UNL A   1      47.634  27.193  26.640  1.00  0.00     0.037 A 
ATOM     28  C   UNL A   1      41.125  28.473  28.916  1.00  0.00     0.037 A 
ATOM     29  C   UNL A   1      47.377  28.556  27.031  1.00  0.00     0.049 A 
ATOM     30  C   UNL A   1      42.182  29.541  28.892  1.00  0.00     0.074 A 
ATOM     31  C   UNL A   1      48.237  29.641  26.999  1.00  0.00     0.029 A 
ATOM     32  N   UNL A   1      46.169  29.023  27.532  1.00  0.00    -0.354 N 
ATOM     33  N   UNL A   1      43.421  29.469  28.474  1.00  0.00    -0.248 NA
ATOM     34  C   UNL A   1      41.791  30.862  29.397  1.00  0.00     0.031 C 
ATOM     35  C   UNL A   1      47.571  30.746  27.537  1.00  0.00     0.029 A 
ATOM     36  C   UNL A   1      46.271  30.371  27.838  1.00  0.00     0.049 A 
ATOM     37  H   UNL A   1      45.359  28.476  27.651  1.00  0.00     0.167 HD
ATOM     38  C   UNL A   1      43.951  30.741  28.635  1.00  0.00     0.074 A 
ATOM     39  C   UNL A   1      42.890  31.569  29.173  1.00  0.00     0.031 C 
ATOM     40  C   UNL A   1      45.203  31.185  28.363  1.00  0.00     0.037 A 
BRANCH  27  41
ATOM     41  C   UNL A   1      49.025  26.833  26.197  1.00  0.00     0.064 A 
ATOM     42  C   UNL A   1      49.981  26.322  27.088  1.00  0.00     0.173 A 
ATOM     43  C   UNL A   1      49.395  26.964  24.849  1.00  0.00     0.173 A 
ATOM     44  F   UNL A   1      49.686  26.185  28.390  1.00  0.00    -0.203 F 
ATOM     45  C   UNL A   1      51.261  25.984  26.653  1.00  0.00     0.198 A 
ATOM     46  C   UNL A   1      50.664  26.593  24.410  1.00  0.00     0.198 A 
ATOM     47  F   UNL A   1      48.520  27.439  23.950  1.00  0.00    -0.203 F 
ATOM     48  F   UNL A   1      52.172  25.545  27.533  1.00  0.00    -0.200 F 
ATOM     49  C   UNL A   1      51.599  26.112  25.314  1.00  0.00     0.200 A 
ATOM     50  F   UNL A   1      50.982  26.703  23.113  1.00  0.00    -0.200 F 
ATOM     51  F   UNL A   1      52.827  25.778  24.895  1.00  0.00    -0.200 F 
ENDBRANCH  27  41
BRANCH  28  52
ATOM     52  C   UNL A   1      39.747  28.765  29.391  1.00  0.00     0.064 A 
ATOM     53  C   UNL A   1      38.758  29.211  28.504  1.00  0.00     0.173 A 
ATOM     54  C   UNL A   1      39.391  28.603  30.738  1.00  0.00     0.173 A 
ATOM     55  F   UNL A   1      39.053  29.396  27.208  1.00  0.00    -0.203 F 
ATOM     56  C   UNL A   1      37.473  29.507  28.951  1.00  0.00     0.198 A 
ATOM     57  C   UNL A   1      38.097  28.866  31.178  1.00  0.00     0.198 A 
ATOM     58  F   UNL A   1      40.300  28.171  31.625  1.00  0.00    -0.203 F 
ATOM     59  F   UNL A   1      36.560  29.981  28.092  1.00  0.00    -0.200 F 
ATOM     60  C   UNL A   1      37.141  29.328  30.286  1.00  0.00     0.200 A 
ATOM     61  F   UNL A   1      37.777  28.672  32.463  1.00  0.00    -0.200 F 
ATOM     62  F   UNL A   1      35.903  29.608  30.715  1.00  0.00    -0.200 F 
ENDBRANCH  28  52
BRANCH  40  63
ATOM     63  C   UNL A   1      45.474  32.645  28.589  1.00  0.00     0.064 A 
ATOM     64  C   UNL A   1      45.974  33.129  29.807  1.00  0.00     0.173 A 
ATOM     65  C   UNL A   1      45.237  33.573  27.563  1.00  0.00     0.173 A 
ATOM     66  F   UNL A   1      46.203  32.286  30.826  1.00  0.00    -0.203 F 
ATOM     67  C   UNL A   1      46.190  34.490  30.002  1.00  0.00     0.198 A 
ATOM     68  C   UNL A   1      45.490  34.929  27.749  1.00  0.00     0.198 A 
ATOM     69  F   UNL A   1      44.765  33.164  26.375  1.00  0.00    -0.203 F 
ATOM     70  F   UNL A   1      46.605  34.937  31.195  1.00  0.00    -0.200 F 
ATOM     71  C   UNL A   1      45.955  35.389  28.971  1.00  0.00     0.200 A 
ATOM     72  F   UNL A   1      45.276  35.792  26.746  1.00  0.00    -0.200 F 
ATOM     73  F   UNL A   1      46.164  36.698  29.161  1.00  0.00    -0.200 F 
ENDBRANCH  40  63
ENDBRANCH  14  15
ENDBRANCH   7   9
ENDBRANCH   4   5
ENDBRANCH   3   4
ENDBRANCH   2   3
ENDBRANCH   1   2
BRANCH   1  74
ATOM     74  C   UNL A   1      37.166  23.070  25.749  1.00  0.00     0.021 C 
BRANCH  74  75
ATOM     75  C   UNL A   1      35.718  23.548  25.859  1.00  0.00     0.116 C 
BRANCH  75  76
ATOM     76  N   UNL A   1      35.023  22.785  26.871  1.00  0.00    -0.356 N 
ATOM     77  C   UNL A   1      33.770  22.282  26.916  1.00  0.00     0.223 C 
ATOM     78  H   UNL A   1      35.561  22.600  27.674  1.00  0.00     0.163 HD
ATOM     79  O   UNL A   1      33.394  21.827  28.002  1.00  0.00    -0.275 OA
BRANCH  77  80
ATOM     80  C   UNL A   1      32.861  22.161  25.700  1.00  0.00     0.091 C 
ATOM     81  C   UNL A   1      33.611  21.576  24.498  1.00  0.00     0.014 C 
ATOM     82  C   UNL A   1      31.962  23.345  25.328  1.00  0.00     0.091 C 
ATOM     83  C   UNL A   1      32.619  21.199  23.397  1.00  0.00     0.001 C 
ATOM     84  C   UNL A   1      31.028  23.016  24.150  1.00  0.00     0.014 C 
ATOM     85  C   UNL A   1      31.794  22.409  22.970  1.00  0.00     0.001 C 
BRANCH  82  86
ATOM     86  C   UNL A   1      31.251  24.077  26.480  1.00  0.00     0.228 C 
ATOM     87  O   UNL A   1      30.543  23.413  27.251  1.00  0.00    -0.274 OA
ATOM     88  N   UNL A   1      31.429  25.393  26.810  1.00  0.00    -0.326 N 
ATOM     89  H   UNL A   1      30.844  25.737  27.524  1.00  0.00     0.169 HD
BRANCH  88  90
ATOM     90  C   UNL A   1      32.329  26.311  26.269  1.00  0.00     0.041 A 
ATOM     91  C   UNL A   1      32.975  25.976  25.080  1.00  0.00     0.026 A 
ATOM     92  C   UNL A   1      32.516  27.568  26.833  1.00  0.00     0.040 A 
ATOM     93  C   UNL A   1      33.653  26.962  24.367  1.00  0.00     0.003 A 
ATOM     94  C   UNL A   1      33.086  28.594  26.074  1.00  0.00     0.041 A 
ATOM     95  C   UNL A   1      33.660  28.278  24.837  1.00  0.00     0.014 A 
BRANCH  94  96
ATOM     96  C   UNL A   1      32.849  29.982  26.435  1.00  0.00     0.248 A 
ATOM     97  N   UNL A   1      31.818  30.734  26.105  1.00  0.00    -0.107 NA
ATOM     98  O   UNL A   1      33.691  30.589  27.331  1.00  0.00    -0.416 OA
ATOM     99  N   UNL A   1      31.930  31.892  26.837  1.00  0.00    -0.107 NA
ATOM    100  C   UNL A   1      33.051  31.791  27.523  1.00  0.00     0.248 A 
BRANCH 100 101
ATOM    101  C   UNL A   1      33.682  32.777  28.380  1.00  0.00     0.039 A 
ATOM    102  C   UNL A   1      34.674  32.386  29.293  1.00  0.00     0.014 A 
ATOM    103  C   UNL A   1      33.239  34.107  28.391  1.00  0.00     0.014 A 
ATOM    104  C   UNL A   1      35.204  33.301  30.204  1.00  0.00     0.001 A 
ATOM    105  C   UNL A   1      33.757  35.017  29.315  1.00  0.00     0.001 A 
ATOM    106  C   UNL A   1      34.736  34.614  30.222  1.00  0.00     0.000 A 
ENDBRANCH 100 101
ENDBRANCH  94  96
ENDBRANCH  88  90
ENDBRANCH  82  86
ENDBRANCH  77  80
ENDBRANCH  75  76
ENDBRANCH  74  75
ENDBRANCH   1  74
TORSDOF 17
ENDMDL
MODEL 3
REMARK VINA RESULT:     -13.2      2.451      8.962
REMARK SMILES O=C(NCCCCCCNC(=O)[C@@H]1CCCC[C@H]1C(=O)Nc1cccc(-c2nnc(-c3ccccc3)o2)c1)c1ccc(-c2c3nc(c(-c4c(F)c(F)c(F)c(F)c4F)c4ccc([nH]4)c(-c4c(F)c(F)c(F)c(F)c4F)c4nc(c(-c5c(F)c(F)c(F)c(F)c5F)c5ccc2[nH]5)C=C4)C=C3)cc1
REMARK SMILES IDX 7 1 6 2 5 3 4 4 3 5 1 6 2 7 39 9 40 10 101 11 41 12 100 13
REMARK SMILES IDX 42 14 43 15 44 16 94 17 45 18 99 19 93 20 95 21 46 22 98 23
REMARK SMILES IDX 92 24 91 25 47 27 79 28 59 29 78 30 60 31 63 32 77 33 96 34
REMARK SMILES IDX 61 35 62 36 76 38 97 39 64 40 48 41 49 42 57 43 50 44 51 45
REMARK SMILES IDX 55 46 58 47 52 48 53 49 56 50 54 51 80 52 81 53 89 54 82 55
REMARK SMILES IDX 83 56 87 57 90 58 84 59 85 60 88 61 86 62 65 63 66 64 74 65
REMARK SMILES IDX 67 66 68 67 72 68 75 69 69 70 70 71 73 72 71 73 8 74 9 75
REMARK SMILES IDX 10 76 11 77 12 79 13 80 14 81 18 82 15 83 17 84 16 85 19 86
REMARK SMILES IDX 20 87 21 88 22 90 23 91 38 92 24 93 26 94 25 95 27 96 28 97
REMARK SMILES IDX 37 98 29 99 30 100 31 101 32 102 36 103 33 104 35 105 34 106
REMARK H PARENT 3 8 95 26 63 37 10 78 21 89
REMARK Flexibility Score: inf
ROOT
ATOM      1  C   UNL A   1      35.693  23.665  24.625  1.00  0.00     0.002 C 
ENDROOT
BRANCH   1   2
ATOM      2  C   UNL A   1      35.586  22.180  24.260  1.00  0.00     0.002 C 
BRANCH   2   3
ATOM      3  C   UNL A   1      36.881  21.388  24.432  1.00  0.00     0.021 C 
BRANCH   3   4
ATOM      4  C   UNL A   1      37.686  21.780  25.663  1.00  0.00     0.116 C 
BRANCH   4   5
ATOM      5  N   UNL A   1      38.655  20.756  26.027  1.00  0.00    -0.352 N 
ATOM      6  O   UNL A   1      40.700  19.934  26.513  1.00  0.00    -0.269 OA
ATOM      7  C   UNL A   1      39.948  20.895  26.468  1.00  0.00     0.251 C 
ATOM      8  H   UNL A   1      38.336  19.828  25.944  1.00  0.00     0.163 HD
BRANCH   7   9
ATOM      9  C   UNL A   1      40.428  22.233  26.873  1.00  0.00     0.039 A 
ATOM     10  C   UNL A   1      40.011  23.368  26.176  1.00  0.00     0.014 A 
ATOM     11  C   UNL A   1      41.315  22.350  27.946  1.00  0.00     0.014 A 
ATOM     12  C   UNL A   1      40.616  24.589  26.433  1.00  0.00     0.010 A 
ATOM     13  C   UNL A   1      41.838  23.603  28.275  1.00  0.00     0.010 A 
ATOM     14  C   UNL A   1      41.526  24.727  27.493  1.00  0.00    -0.014 A 
BRANCH  14  15
ATOM     15  C   UNL A   1      42.101  26.066  27.778  1.00  0.00     0.031 A 
ATOM     16  C   UNL A   1      43.445  26.468  27.237  1.00  0.00     0.074 A 
ATOM     17  C   UNL A   1      41.371  26.939  28.498  1.00  0.00     0.049 A 
ATOM     18  N   UNL A   1      44.073  27.612  27.356  1.00  0.00    -0.248 NA
ATOM     19  C   UNL A   1      44.187  25.457  26.471  1.00  0.00     0.031 C 
ATOM     20  C   UNL A   1      40.057  26.656  29.082  1.00  0.00     0.029 A 
ATOM     21  N   UNL A   1      41.610  28.245  28.841  1.00  0.00    -0.354 N 
ATOM     22  C   UNL A   1      45.290  27.449  26.706  1.00  0.00     0.074 A 
ATOM     23  C   UNL A   1      45.326  26.088  26.218  1.00  0.00     0.031 C 
ATOM     24  C   UNL A   1      39.581  27.769  29.658  1.00  0.00     0.029 A 
ATOM     25  C   UNL A   1      40.584  28.822  29.547  1.00  0.00     0.049 A 
ATOM     26  H   UNL A   1      42.439  28.722  28.604  1.00  0.00     0.167 HD
ATOM     27  C   UNL A   1      46.280  28.358  26.526  1.00  0.00     0.037 A 
ATOM     28  C   UNL A   1      40.467  30.059  30.062  1.00  0.00     0.037 A 
ATOM     29  C   UNL A   1      46.225  29.718  27.002  1.00  0.00     0.049 A 
ATOM     30  C   UNL A   1      41.590  31.036  29.866  1.00  0.00     0.074 A 
ATOM     31  C   UNL A   1      47.157  30.729  26.836  1.00  0.00     0.029 A 
ATOM     32  N   UNL A   1      45.182  30.258  27.741  1.00  0.00    -0.354 N 
ATOM     33  N   UNL A   1      42.716  30.883  29.213  1.00  0.00    -0.248 NA
ATOM     34  C   UNL A   1      41.423  32.360  30.477  1.00  0.00     0.031 C 
ATOM     35  C   UNL A   1      46.707  31.859  27.526  1.00  0.00     0.029 A 
ATOM     36  C   UNL A   1      45.461  31.578  28.063  1.00  0.00     0.049 A 
ATOM     37  H   UNL A   1      44.364  29.775  27.999  1.00  0.00     0.167 HD
ATOM     38  C   UNL A   1      43.378  32.099  29.307  1.00  0.00     0.074 A 
ATOM     39  C   UNL A   1      42.517  32.984  30.065  1.00  0.00     0.031 C 
ATOM     40  C   UNL A   1      44.589  32.450  28.810  1.00  0.00     0.037 A 
BRANCH  27  41
ATOM     41  C   UNL A   1      47.523  27.907  25.811  1.00  0.00     0.064 A 
ATOM     42  C   UNL A   1      48.686  27.535  26.503  1.00  0.00     0.173 A 
ATOM     43  C   UNL A   1      47.536  27.805  24.411  1.00  0.00     0.173 A 
ATOM     44  F   UNL A   1      48.733  27.622  27.841  1.00  0.00    -0.203 F 
ATOM     45  C   UNL A   1      49.823  27.109  25.819  1.00  0.00     0.198 A 
ATOM     46  C   UNL A   1      48.663  27.346  23.732  1.00  0.00     0.198 A 
ATOM     47  F   UNL A   1      46.450  28.138  23.698  1.00  0.00    -0.203 F 
ATOM     48  F   UNL A   1      50.938  26.807  26.499  1.00  0.00    -0.200 F 
ATOM     49  C   UNL A   1      49.808  27.007  24.436  1.00  0.00     0.200 A 
ATOM     50  F   UNL A   1      48.639  27.233  22.397  1.00  0.00    -0.200 F 
ATOM     51  F   UNL A   1      50.899  26.587  23.781  1.00  0.00    -0.200 F 
ENDBRANCH  27  41
BRANCH  28  52
ATOM     52  C   UNL A   1      39.236  30.440  30.804  1.00  0.00     0.064 A 
ATOM     53  C   UNL A   1      38.146  31.020  30.143  1.00  0.00     0.173 A 
ATOM     54  C   UNL A   1      39.126  30.231  32.187  1.00  0.00     0.173 A 
ATOM     55  F   UNL A   1      38.209  31.254  28.823  1.00  0.00    -0.203 F 
ATOM     56  C   UNL A   1      37.001  31.399  30.841  1.00  0.00     0.198 A 
ATOM     57  C   UNL A   1      37.968  30.578  32.878  1.00  0.00     0.198 A 
ATOM     58  F   UNL A   1      40.139  29.673  32.865  1.00  0.00    -0.203 F 
ATOM     59  F   UNL A   1      35.993  31.998  30.193  1.00  0.00    -0.200 F 
ATOM     60  C   UNL A   1      36.910  31.172  32.206  1.00  0.00     0.200 A 
ATOM     61  F   UNL A   1      37.878  30.339  34.192  1.00  0.00    -0.200 F 
ATOM     62  F   UNL A   1      35.807  31.532  32.876  1.00  0.00    -0.200 F 
ENDBRANCH  28  52
BRANCH  40  63
ATOM     63  C   UNL A   1      45.028  33.871  29.023  1.00  0.00     0.064 A 
ATOM     64  C   UNL A   1      44.671  34.900  28.139  1.00  0.00     0.173 A 
ATOM     65  C   UNL A   1      45.810  34.207  30.139  1.00  0.00     0.173 A 
ATOM     66  F   UNL A   1      43.939  34.630  27.048  1.00  0.00    -0.203 F 
ATOM     67  C   UNL A   1      45.115  36.205  28.343  1.00  0.00     0.198 A 
ATOM     68  C   UNL A   1      46.220  35.519  30.359  1.00  0.00     0.198 A 
ATOM     69  F   UNL A   1      46.174  33.263  31.021  1.00  0.00    -0.203 F 
ATOM     70  F   UNL A   1      44.818  37.158  27.449  1.00  0.00    -0.200 F 
ATOM     71  C   UNL A   1      45.882  36.514  29.456  1.00  0.00     0.200 A 
ATOM     72  F   UNL A   1      46.949  35.819  31.444  1.00  0.00    -0.200 F 
ATOM     73  F   UNL A   1      46.307  37.770  29.650  1.00  0.00    -0.200 F 
ENDBRANCH  40  63
ENDBRANCH  14  15
ENDBRANCH   7   9
ENDBRANCH   4   5
ENDBRANCH   3   4
ENDBRANCH   2   3
ENDBRANCH   1   2
BRANCH   1  74
ATOM     74  C   UNL A   1      34.739  24.126  25.732  1.00  0.00     0.021 C 
BRANCH  74  75
ATOM     75  C   UNL A   1      34.089  25.483  25.459  1.00  0.00     0.116 C 
BRANCH  75  76
ATOM     76  N   UNL A   1      34.232  25.827  24.063  1.00  0.00    -0.356 N 
ATOM     77  C   UNL A   1      33.675  26.805  23.315  1.00  0.00     0.223 C 
ATOM     78  H   UNL A   1      34.847  25.240  23.566  1.00  0.00     0.163 HD
ATOM     79  O   UNL A   1      33.849  26.735  22.093  1.00  0.00    -0.275 OA
BRANCH  77  80
ATOM     80  C   UNL A   1      32.950  28.009  23.899  1.00  0.00     0.091 C 
ATOM     81  C   UNL A   1      33.777  28.677  25.003  1.00  0.00     0.014 C 
ATOM     82  C   UNL A   1      31.466  27.876  24.257  1.00  0.00     0.091 C 
ATOM     83  C   UNL A   1      33.167  30.032  25.364  1.00  0.00     0.001 C 
ATOM     84  C   UNL A   1      30.861  29.212  24.725  1.00  0.00     0.014 C 
ATOM     85  C   UNL A   1      31.716  29.875  25.809  1.00  0.00     0.001 C 
BRANCH  82  86
ATOM     86  C   UNL A   1      30.568  27.117  23.265  1.00  0.00     0.228 C 
ATOM     87  O   UNL A   1      30.206  27.701  22.233  1.00  0.00    -0.274 OA
ATOM     88  N   UNL A   1      30.227  25.796  23.358  1.00  0.00    -0.326 N 
ATOM     89  H   UNL A   1      29.580  25.474  22.688  1.00  0.00     0.169 HD
BRANCH  88  90
ATOM     90  C   UNL A   1      30.674  24.845  24.276  1.00  0.00     0.041 A 
ATOM     91  C   UNL A   1      30.244  24.954  25.597  1.00  0.00     0.026 A 
ATOM     92  C   UNL A   1      31.446  23.757  23.882  1.00  0.00     0.040 A 
ATOM     93  C   UNL A   1      30.430  23.884  26.470  1.00  0.00     0.003 A 
ATOM     94  C   UNL A   1      31.533  22.632  24.705  1.00  0.00     0.041 A 
ATOM     95  C   UNL A   1      31.025  22.707  26.008  1.00  0.00     0.014 A 
BRANCH  94  96
ATOM     96  C   UNL A   1      31.897  21.343  24.138  1.00  0.00     0.248 A 
ATOM     97  N   UNL A   1      31.995  21.025  22.863  1.00  0.00    -0.107 NA
ATOM     98  O   UNL A   1      32.330  20.347  24.975  1.00  0.00    -0.416 OA
ATOM     99  N   UNL A   1      32.560  19.773  22.817  1.00  0.00    -0.107 NA
ATOM    100  C   UNL A   1      32.718  19.390  24.067  1.00  0.00     0.248 A 
BRANCH 100 101
ATOM    101  C   UNL A   1      33.186  18.112  24.573  1.00  0.00     0.039 A 
ATOM    102  C   UNL A   1      34.465  17.647  24.233  1.00  0.00     0.014 A 
ATOM    103  C   UNL A   1      32.337  17.279  25.312  1.00  0.00     0.014 A 
ATOM    104  C   UNL A   1      34.883  16.370  24.615  1.00  0.00     0.001 A 
ATOM    105  C   UNL A   1      32.748  15.995  25.678  1.00  0.00     0.001 A 
ATOM    106  C   UNL A   1      34.018  15.540  25.327  1.00  0.00     0.000 A 
ENDBRANCH 100 101
ENDBRANCH  94  96
ENDBRANCH  88  90
ENDBRANCH  82  86
ENDBRANCH  77  80
ENDBRANCH  75  76
ENDBRANCH  74  75
ENDBRANCH   1  74
TORSDOF 17
ENDMDL
