MODEL 1
REMARK VINA RESULT:     -12.0      0.000      0.000
REMARK SMILES CC(C)[C@H](NS(=O)(=O)c1cccc(F)c1)C(=O)NCCCCCCNC(=O)c1ccc(-c2c3nc(c(-c4c(F)c(F)c(F)c(F)c4F)c4ccc([nH]4)c(-c4c(F)c(F)c(F)c(F)c4F)c4nc(c(-c5c(F)c(F)c(F)c(F)c5F)c5ccc2[nH]5)C=C4)C=C3)cc1
REMARK SMILES IDX 21 1 20 2 19 3 18 4 16 5 17 6 4 8 2 9 1 10 3 11 5 12 6 14
REMARK SMILES IDX 7 15 8 16 9 17 10 18 15 19 11 20 13 21 12 22 14 23 22 24
REMARK SMILES IDX 23 25 24 26 25 27 26 28 27 30 28 31 29 32 90 33 30 34 89 35
REMARK SMILES IDX 31 36 32 37 33 38 83 39 34 40 88 41 82 42 84 43 35 44 87 45
REMARK SMILES IDX 81 46 80 47 36 49 68 50 48 51 67 52 49 53 52 54 66 55 85 56
REMARK SMILES IDX 50 57 51 58 65 60 86 61 53 62 37 63 38 64 46 65 39 66 40 67
REMARK SMILES IDX 44 68 47 69 41 70 42 71 45 72 43 73 69 74 70 75 78 76 71 77
REMARK SMILES IDX 72 78 76 79 79 80 73 81 74 82 77 83 75 84 54 85 55 86 63 87
REMARK SMILES IDX 56 88 57 89 61 90 64 91 58 92 59 93 62 94 60 95
REMARK H PARENT 18 7 5 13 25 29 84 48 52 59
REMARK Flexibility Score: inf
ROOT
ATOM      1  C   UNL A   1      33.001  29.896  27.156  1.00  0.00     0.002 C 
ENDROOT
BRANCH   1   2
ATOM      2  C   UNL A   1      32.629  28.477  27.599  1.00  0.00     0.021 C 
BRANCH   2   3
ATOM      3  C   UNL A   1      31.178  28.091  27.337  1.00  0.00     0.116 C 
BRANCH   3   4
ATOM      4  N   UNL A   1      31.045  26.710  26.933  1.00  0.00    -0.355 N 
ATOM      5  C   UNL A   1      31.275  26.116  25.729  1.00  0.00     0.238 C 
ATOM      6  O   UNL A   1      31.180  24.886  25.685  1.00  0.00    -0.273 OA
ATOM      7  H   UNL A   1      30.737  26.100  27.641  1.00  0.00     0.163 HD
BRANCH   5   8
ATOM      8  C   UNL A   1      31.629  26.919  24.465  1.00  0.00     0.161 C 
BRANCH   8   9
ATOM      9  C   UNL A   1      33.105  27.372  24.293  1.00  0.00     0.010 C 
ATOM     10  C   UNL A   1      34.091  26.331  23.755  1.00  0.00     0.009 C 
ATOM     11  C   UNL A   1      33.262  28.695  23.535  1.00  0.00     0.009 C 
ENDBRANCH   8   9
BRANCH   8  12
ATOM     12  N   UNL A   1      30.657  28.003  24.268  1.00  0.00    -0.198 NA
ATOM     13  H   UNL A   1      31.203  28.861  24.185  1.00  0.00     0.142 HD
BRANCH  12  14
ATOM     14  S   UNL A   1      29.582  28.011  22.997  1.00  0.00     0.241 S 
ATOM     15  O   UNL A   1      30.347  27.583  21.850  1.00  0.00    -0.207 OA
ATOM     16  O   UNL A   1      28.386  27.311  23.418  1.00  0.00    -0.207 OA
BRANCH  14  17
ATOM     17  C   UNL A   1      29.173  29.722  22.775  1.00  0.00     0.085 A 
ATOM     18  C   UNL A   1      29.360  30.624  23.828  1.00  0.00     0.022 A 
ATOM     19  C   UNL A   1      28.584  30.144  21.578  1.00  0.00     0.061 A 
ATOM     20  C   UNL A   1      29.010  31.965  23.667  1.00  0.00     0.004 A 
ATOM     21  C   UNL A   1      28.223  31.479  21.444  1.00  0.00     0.124 A 
ATOM     22  C   UNL A   1      28.439  32.393  22.471  1.00  0.00     0.039 A 
ATOM     23  F   UNL A   1      27.650  31.893  20.307  1.00  0.00    -0.207 F 
ENDBRANCH  14  17
ENDBRANCH  12  14
ENDBRANCH   8  12
ENDBRANCH   5   8
ENDBRANCH   3   4
ENDBRANCH   2   3
ENDBRANCH   1   2
BRANCH   1  24
ATOM     24  C   UNL A   1      31.934  30.630  26.339  1.00  0.00     0.002 C 
BRANCH  24  25
ATOM     25  C   UNL A   1      31.639  32.065  26.783  1.00  0.00     0.021 C 
BRANCH  25  26
ATOM     26  C   UNL A   1      32.837  32.829  27.335  1.00  0.00     0.116 C 
BRANCH  26  27
ATOM     27  N   UNL A   1      32.510  34.204  27.675  1.00  0.00    -0.352 N 
ATOM     28  C   UNL A   1      33.036  35.007  28.655  1.00  0.00     0.251 C 
ATOM     29  H   UNL A   1      31.810  34.619  27.121  1.00  0.00     0.163 HD
ATOM     30  O   UNL A   1      32.521  36.089  28.914  1.00  0.00    -0.269 OA
BRANCH  28  31
ATOM     31  C   UNL A   1      34.212  34.548  29.422  1.00  0.00     0.039 A 
ATOM     32  C   UNL A   1      34.018  34.021  30.702  1.00  0.00     0.014 A 
ATOM     33  C   UNL A   1      35.497  34.623  28.878  1.00  0.00     0.014 A 
ATOM     34  C   UNL A   1      35.104  33.498  31.405  1.00  0.00     0.010 A 
ATOM     35  C   UNL A   1      36.566  34.037  29.549  1.00  0.00     0.010 A 
ATOM     36  C   UNL A   1      36.378  33.460  30.814  1.00  0.00    -0.014 A 
BRANCH  36  37
ATOM     37  C   UNL A   1      37.519  32.790  31.486  1.00  0.00     0.031 A 
ATOM     38  C   UNL A   1      38.192  31.610  30.847  1.00  0.00     0.074 A 
ATOM     39  C   UNL A   1      37.901  33.206  32.710  1.00  0.00     0.049 A 
ATOM     40  N   UNL A   1      39.138  30.841  31.323  1.00  0.00    -0.248 NA
ATOM     41  C   UNL A   1      37.725  31.227  29.505  1.00  0.00     0.031 C 
ATOM     42  C   UNL A   1      37.303  34.321  33.446  1.00  0.00     0.029 A 
ATOM     43  N   UNL A   1      38.874  32.734  33.557  1.00  0.00    -0.354 N 
ATOM     44  C   UNL A   1      39.374  29.885  30.344  1.00  0.00     0.074 A 
ATOM     45  C   UNL A   1      38.440  30.136  29.270  1.00  0.00     0.031 C 
ATOM     46  C   UNL A   1      37.936  34.463  34.620  1.00  0.00     0.029 A 
ATOM     47  C   UNL A   1      38.949  33.419  34.744  1.00  0.00     0.049 A 
ATOM     48  H   UNL A   1      39.461  31.976  33.334  1.00  0.00     0.167 HD
ATOM     49  C   UNL A   1      40.305  28.902  30.339  1.00  0.00     0.037 A 
ATOM     50  C   UNL A   1      39.736  33.221  35.821  1.00  0.00     0.037 A 
ATOM     51  C   UNL A   1      41.247  28.672  31.403  1.00  0.00     0.049 A 
ATOM     52  C   UNL A   1      40.734  32.097  35.804  1.00  0.00     0.074 A 
ATOM     53  C   UNL A   1      42.264  27.737  31.461  1.00  0.00     0.029 A 
ATOM     54  N   UNL A   1      41.284  29.381  32.595  1.00  0.00    -0.354 N 
ATOM     55  N   UNL A   1      40.987  31.233  34.852  1.00  0.00    -0.248 NA
ATOM     56  C   UNL A   1      41.555  31.915  37.011  1.00  0.00     0.031 C 
ATOM     57  C   UNL A   1      42.880  27.839  32.711  1.00  0.00     0.029 A 
ATOM     58  C   UNL A   1      42.288  28.879  33.409  1.00  0.00     0.049 A 
ATOM     59  H   UNL A   1      40.687  30.128  32.827  1.00  0.00     0.167 HD
ATOM     60  C   UNL A   1      42.006  30.422  35.331  1.00  0.00     0.074 A 
ATOM     61  C   UNL A   1      42.336  30.903  36.656  1.00  0.00     0.031 C 
ATOM     62  C   UNL A   1      42.610  29.371  34.725  1.00  0.00     0.037 A 
BRANCH  49  63
ATOM     63  C   UNL A   1      40.371  27.999  29.141  1.00  0.00     0.064 A 
ATOM     64  C   UNL A   1      41.124  28.366  28.014  1.00  0.00     0.173 A 
ATOM     65  C   UNL A   1      39.619  26.818  29.072  1.00  0.00     0.173 A 
ATOM     66  F   UNL A   1      41.856  29.490  28.026  1.00  0.00    -0.203 F 
ATOM     67  C   UNL A   1      41.106  27.590  26.858  1.00  0.00     0.198 A 
ATOM     68  C   UNL A   1      39.628  26.029  27.924  1.00  0.00     0.198 A 
ATOM     69  F   UNL A   1      38.889  26.419  30.125  1.00  0.00    -0.203 F 
ATOM     70  F   UNL A   1      41.802  27.980  25.781  1.00  0.00    -0.200 F 
ATOM     71  C   UNL A   1      40.362  26.421  26.815  1.00  0.00     0.200 A 
ATOM     72  F   UNL A   1      38.925  24.888  27.893  1.00  0.00    -0.200 F 
ATOM     73  F   UNL A   1      40.350  25.674  25.703  1.00  0.00    -0.200 F 
ENDBRANCH  49  63
BRANCH  50  74
ATOM     74  C   UNL A   1      39.618  34.130  36.993  1.00  0.00     0.064 A 
ATOM     75  C   UNL A   1      40.310  35.349  37.046  1.00  0.00     0.173 A 
ATOM     76  C   UNL A   1      38.837  33.775  38.100  1.00  0.00     0.173 A 
ATOM     77  F   UNL A   1      41.076  35.733  36.013  1.00  0.00    -0.203 F 
ATOM     78  C   UNL A   1      40.245  36.166  38.172  1.00  0.00     0.198 A 
ATOM     79  C   UNL A   1      38.749  34.606  39.215  1.00  0.00     0.198 A 
ATOM     80  F   UNL A   1      38.141  32.629  38.089  1.00  0.00    -0.203 F 
ATOM     81  F   UNL A   1      40.950  37.304  38.214  1.00  0.00    -0.200 F 
ATOM     82  C   UNL A   1      39.461  35.795  39.255  1.00  0.00     0.200 A 
ATOM     83  F   UNL A   1      37.972  34.256  40.249  1.00  0.00    -0.200 F 
ATOM     84  F   UNL A   1      39.391  36.585  40.335  1.00  0.00    -0.200 F 
ENDBRANCH  50  74
BRANCH  62  85
ATOM     85  C   UNL A   1      43.707  28.666  35.469  1.00  0.00     0.064 A 
ATOM     86  C   UNL A   1      43.400  27.661  36.399  1.00  0.00     0.173 A 
ATOM     87  C   UNL A   1      45.046  29.060  35.343  1.00  0.00     0.173 A 
ATOM     88  F   UNL A   1      42.132  27.254  36.563  1.00  0.00    -0.203 F 
ATOM     89  C   UNL A   1      44.391  27.095  37.196  1.00  0.00     0.198 A 
ATOM     90  C   UNL A   1      46.040  28.471  36.121  1.00  0.00     0.198 A 
ATOM     91  F   UNL A   1      45.391  30.008  34.458  1.00  0.00    -0.203 F 
ATOM     92  F   UNL A   1      44.068  26.171  38.111  1.00  0.00    -0.200 F 
ATOM     93  C   UNL A   1      45.710  27.500  37.055  1.00  0.00     0.200 A 
ATOM     94  F   UNL A   1      47.317  28.846  35.968  1.00  0.00    -0.200 F 
ATOM     95  F   UNL A   1      46.665  26.955  37.823  1.00  0.00    -0.200 F 
ENDBRANCH  62  85
ENDBRANCH  36  37
ENDBRANCH  28  31
ENDBRANCH  26  27
ENDBRANCH  25  26
ENDBRANCH  24  25
ENDBRANCH   1  24
TORSDOF 17
ENDMDL
MODEL 2
REMARK VINA RESULT:     -11.9      2.159      3.368
REMARK SMILES CC(C)[C@H](NS(=O)(=O)c1cccc(F)c1)C(=O)NCCCCCCNC(=O)c1ccc(-c2c3nc(c(-c4c(F)c(F)c(F)c(F)c4F)c4ccc([nH]4)c(-c4c(F)c(F)c(F)c(F)c4F)c4nc(c(-c5c(F)c(F)c(F)c(F)c5F)c5ccc2[nH]5)C=C4)C=C3)cc1
REMARK SMILES IDX 21 1 20 2 19 3 18 4 16 5 17 6 4 8 2 9 1 10 3 11 5 12 6 14
REMARK SMILES IDX 7 15 8 16 9 17 10 18 15 19 11 20 13 21 12 22 14 23 22 24
REMARK SMILES IDX 23 25 24 26 25 27 26 28 27 30 28 31 29 32 90 33 30 34 89 35
REMARK SMILES IDX 31 36 32 37 33 38 83 39 34 40 88 41 82 42 84 43 35 44 87 45
REMARK SMILES IDX 81 46 80 47 36 49 68 50 48 51 67 52 49 53 52 54 66 55 85 56
REMARK SMILES IDX 50 57 51 58 65 60 86 61 53 62 37 63 38 64 46 65 39 66 40 67
REMARK SMILES IDX 44 68 47 69 41 70 42 71 45 72 43 73 69 74 70 75 78 76 71 77
REMARK SMILES IDX 72 78 76 79 79 80 73 81 74 82 77 83 75 84 54 85 55 86 63 87
REMARK SMILES IDX 56 88 57 89 61 90 64 91 58 92 59 93 62 94 60 95
REMARK H PARENT 18 7 5 13 25 29 84 48 52 59
REMARK Flexibility Score: inf
ROOT
ATOM      1  C   UNL A   1      31.895  29.387  27.073  1.00  0.00     0.002 C 
ENDROOT
BRANCH   1   2
ATOM      2  C   UNL A   1      33.083  28.438  26.885  1.00  0.00     0.021 C 
BRANCH   2   3
ATOM      3  C   UNL A   1      32.712  27.053  26.371  1.00  0.00     0.116 C 
BRANCH   3   4
ATOM      4  N   UNL A   1      31.364  26.679  26.733  1.00  0.00    -0.355 N 
ATOM      5  C   UNL A   1      30.533  25.743  26.196  1.00  0.00     0.238 C 
ATOM      6  O   UNL A   1      29.456  25.554  26.770  1.00  0.00    -0.273 OA
ATOM      7  H   UNL A   1      30.984  27.182  27.488  1.00  0.00     0.163 HD
BRANCH   5   8
ATOM      8  C   UNL A   1      30.891  24.950  24.927  1.00  0.00     0.161 C 
BRANCH   8   9
ATOM      9  C   UNL A   1      30.340  25.478  23.573  1.00  0.00     0.010 C 
ATOM     10  C   UNL A   1      29.321  26.620  23.638  1.00  0.00     0.009 C 
ATOM     11  C   UNL A   1      31.430  25.795  22.543  1.00  0.00     0.009 C 
ENDBRANCH   8   9
BRANCH   8  12
ATOM     12  N   UNL A   1      30.643  23.518  25.140  1.00  0.00    -0.198 NA
ATOM     13  H   UNL A   1      30.448  23.123  24.219  1.00  0.00     0.142 HD
BRANCH  12  14
ATOM     14  S   UNL A   1      31.772  22.517  25.844  1.00  0.00     0.241 S 
ATOM     15  O   UNL A   1      31.823  22.917  27.230  1.00  0.00    -0.207 OA
ATOM     16  O   UNL A   1      31.467  21.155  25.456  1.00  0.00    -0.207 OA
BRANCH  14  17
ATOM     17  C   UNL A   1      33.307  22.979  25.084  1.00  0.00     0.085 A 
ATOM     18  C   UNL A   1      33.503  22.749  23.718  1.00  0.00     0.022 A 
ATOM     19  C   UNL A   1      34.344  23.488  25.872  1.00  0.00     0.061 A 
ATOM     20  C   UNL A   1      34.720  23.083  23.123  1.00  0.00     0.004 A 
ATOM     21  C   UNL A   1      35.557  23.794  25.267  1.00  0.00     0.124 A 
ATOM     22  C   UNL A   1      35.751  23.606  23.902  1.00  0.00     0.039 A 
ATOM     23  F   UNL A   1      36.560  24.274  26.012  1.00  0.00    -0.207 F 
ENDBRANCH  14  17
ENDBRANCH  12  14
ENDBRANCH   8  12
ENDBRANCH   5   8
ENDBRANCH   3   4
ENDBRANCH   2   3
ENDBRANCH   1   2
BRANCH   1  24
ATOM     24  C   UNL A   1      31.823  30.554  26.084  1.00  0.00     0.002 C 
BRANCH  24  25
ATOM     25  C   UNL A   1      31.495  31.917  26.697  1.00  0.00     0.021 C 
BRANCH  25  26
ATOM     26  C   UNL A   1      32.683  32.652  27.309  1.00  0.00     0.116 C 
BRANCH  26  27
ATOM     27  N   UNL A   1      32.388  34.048  27.589  1.00  0.00    -0.352 N 
ATOM     28  C   UNL A   1      32.947  34.886  28.521  1.00  0.00     0.251 C 
ATOM     29  H   UNL A   1      31.687  34.450  27.028  1.00  0.00     0.163 HD
ATOM     30  O   UNL A   1      32.457  35.988  28.737  1.00  0.00    -0.269 OA
BRANCH  28  31
ATOM     31  C   UNL A   1      34.127  34.439  29.290  1.00  0.00     0.039 A 
ATOM     32  C   UNL A   1      33.932  33.855  30.544  1.00  0.00     0.014 A 
ATOM     33  C   UNL A   1      35.417  34.582  28.770  1.00  0.00     0.014 A 
ATOM     34  C   UNL A   1      35.026  33.344  31.244  1.00  0.00     0.010 A 
ATOM     35  C   UNL A   1      36.497  34.010  29.436  1.00  0.00     0.010 A 
ATOM     36  C   UNL A   1      36.310  33.376  30.674  1.00  0.00    -0.014 A 
BRANCH  36  37
ATOM     37  C   UNL A   1      37.464  32.722  31.339  1.00  0.00     0.031 A 
ATOM     38  C   UNL A   1      38.168  31.570  30.681  1.00  0.00     0.074 A 
ATOM     39  C   UNL A   1      37.832  33.125  32.572  1.00  0.00     0.049 A 
ATOM     40  N   UNL A   1      39.130  30.816  31.147  1.00  0.00    -0.248 NA
ATOM     41  C   UNL A   1      37.716  31.200  29.331  1.00  0.00     0.031 C 
ATOM     42  C   UNL A   1      37.204  34.212  33.324  1.00  0.00     0.029 A 
ATOM     43  N   UNL A   1      38.813  32.661  33.414  1.00  0.00    -0.354 N 
ATOM     44  C   UNL A   1      39.394  29.883  30.153  1.00  0.00     0.074 A 
ATOM     45  C   UNL A   1      38.457  30.131  29.079  1.00  0.00     0.031 C 
ATOM     46  C   UNL A   1      37.829  34.348  34.504  1.00  0.00     0.029 A 
ATOM     47  C   UNL A   1      38.867  33.326  34.614  1.00  0.00     0.049 A 
ATOM     48  H   UNL A   1      39.419  31.922  33.179  1.00  0.00     0.167 HD
ATOM     49  C   UNL A   1      40.348  28.924  30.134  1.00  0.00     0.037 A 
ATOM     50  C   UNL A   1      39.655  33.129  35.690  1.00  0.00     0.037 A 
ATOM     51  C   UNL A   1      41.292  28.697  31.197  1.00  0.00     0.049 A 
ATOM     52  C   UNL A   1      40.680  32.029  35.657  1.00  0.00     0.074 A 
ATOM     53  C   UNL A   1      42.331  27.786  31.243  1.00  0.00     0.029 A 
ATOM     54  N   UNL A   1      41.307  29.385  32.402  1.00  0.00    -0.354 N 
ATOM     55  N   UNL A   1      40.957  31.189  34.691  1.00  0.00    -0.248 NA
ATOM     56  C   UNL A   1      41.500  31.846  36.863  1.00  0.00     0.031 C 
ATOM     57  C   UNL A   1      42.940  27.881  32.497  1.00  0.00     0.029 A 
ATOM     58  C   UNL A   1      42.320  28.894  33.211  1.00  0.00     0.049 A 
ATOM     59  H   UNL A   1      40.691  30.114  32.645  1.00  0.00     0.167 HD
ATOM     60  C   UNL A   1      41.993  30.394  35.159  1.00  0.00     0.074 A 
ATOM     61  C   UNL A   1      42.307  30.859  36.494  1.00  0.00     0.031 C 
ATOM     62  C   UNL A   1      42.625  29.370  34.536  1.00  0.00     0.037 A 
BRANCH  49  63
ATOM     63  C   UNL A   1      40.440  28.045  28.920  1.00  0.00     0.064 A 
ATOM     64  C   UNL A   1      41.214  28.434  27.816  1.00  0.00     0.173 A 
ATOM     65  C   UNL A   1      39.693  26.863  28.813  1.00  0.00     0.173 A 
ATOM     66  F   UNL A   1      41.944  29.559  27.864  1.00  0.00    -0.203 F 
ATOM     67  C   UNL A   1      41.222  27.681  26.645  1.00  0.00     0.198 A 
ATOM     68  C   UNL A   1      39.726  26.097  27.651  1.00  0.00     0.198 A 
ATOM     69  F   UNL A   1      38.943  26.442  29.843  1.00  0.00    -0.203 F 
ATOM     70  F   UNL A   1      41.938  28.094  25.590  1.00  0.00    -0.200 F 
ATOM     71  C   UNL A   1      40.481  26.512  26.564  1.00  0.00     0.200 A 
ATOM     72  F   UNL A   1      39.027  24.955  27.583  1.00  0.00    -0.200 F 
ATOM     73  F   UNL A   1      40.494  25.786  25.438  1.00  0.00    -0.200 F 
ENDBRANCH  49  63
BRANCH  50  74
ATOM     74  C   UNL A   1      39.510  34.013  36.877  1.00  0.00     0.064 A 
ATOM     75  C   UNL A   1      40.195  35.234  36.967  1.00  0.00     0.173 A 
ATOM     76  C   UNL A   1      38.711  33.632  37.962  1.00  0.00     0.173 A 
ATOM     77  F   UNL A   1      40.979  35.642  35.957  1.00  0.00    -0.203 F 
ATOM     78  C   UNL A   1      40.105  36.027  38.109  1.00  0.00     0.198 A 
ATOM     79  C   UNL A   1      38.598  34.441  39.092  1.00  0.00     0.198 A 
ATOM     80  F   UNL A   1      38.021  32.483  37.915  1.00  0.00    -0.203 F 
ATOM     81  F   UNL A   1      40.804  37.168  38.186  1.00  0.00    -0.200 F 
ATOM     82  C   UNL A   1      39.303  35.632  39.169  1.00  0.00     0.200 A 
ATOM     83  F   UNL A   1      37.803  34.066  40.104  1.00  0.00    -0.200 F 
ATOM     84  F   UNL A   1      39.209  36.399  40.263  1.00  0.00    -0.200 F 
ENDBRANCH  50  74
BRANCH  62  85
ATOM     85  C   UNL A   1      43.736  28.678  35.272  1.00  0.00     0.064 A 
ATOM     86  C   UNL A   1      43.448  27.664  36.200  1.00  0.00     0.173 A 
ATOM     87  C   UNL A   1      45.068  29.092  35.142  1.00  0.00     0.173 A 
ATOM     88  F   UNL A   1      42.188  27.238  36.368  1.00  0.00    -0.203 F 
ATOM     89  C   UNL A   1      44.452  27.110  36.990  1.00  0.00     0.198 A 
ATOM     90  C   UNL A   1      46.075  28.515  35.912  1.00  0.00     0.198 A 
ATOM     91  F   UNL A   1      45.395  30.048  34.259  1.00  0.00    -0.203 F 
ATOM     92  F   UNL A   1      44.147  26.178  37.903  1.00  0.00    -0.200 F 
ATOM     93  C   UNL A   1      45.764  27.535  36.844  1.00  0.00     0.200 A 
ATOM     94  F   UNL A   1      47.345  28.909  35.755  1.00  0.00    -0.200 F 
ATOM     95  F   UNL A   1      46.730  27.002  37.605  1.00  0.00    -0.200 F 
ENDBRANCH  62  85
ENDBRANCH  36  37
ENDBRANCH  28  31
ENDBRANCH  26  27
ENDBRANCH  25  26
ENDBRANCH  24  25
ENDBRANCH   1  24
TORSDOF 17
ENDMDL
MODEL 3
REMARK VINA RESULT:     -11.6      6.611     11.956
REMARK SMILES CC(C)[C@H](NS(=O)(=O)c1cccc(F)c1)C(=O)NCCCCCCNC(=O)c1ccc(-c2c3nc(c(-c4c(F)c(F)c(F)c(F)c4F)c4ccc([nH]4)c(-c4c(F)c(F)c(F)c(F)c4F)c4nc(c(-c5c(F)c(F)c(F)c(F)c5F)c5ccc2[nH]5)C=C4)C=C3)cc1
REMARK SMILES IDX 21 1 20 2 19 3 18 4 16 5 17 6 4 8 2 9 1 10 3 11 5 12 6 14
REMARK SMILES IDX 7 15 8 16 9 17 10 18 15 19 11 20 13 21 12 22 14 23 22 24
REMARK SMILES IDX 23 25 24 26 25 27 26 28 27 30 28 31 29 32 90 33 30 34 89 35
REMARK SMILES IDX 31 36 32 37 33 38 83 39 34 40 88 41 82 42 84 43 35 44 87 45
REMARK SMILES IDX 81 46 80 47 36 49 68 50 48 51 67 52 49 53 52 54 66 55 85 56
REMARK SMILES IDX 50 57 51 58 65 60 86 61 53 62 37 63 38 64 46 65 39 66 40 67
REMARK SMILES IDX 44 68 47 69 41 70 42 71 45 72 43 73 69 74 70 75 78 76 71 77
REMARK SMILES IDX 72 78 76 79 79 80 73 81 74 82 77 83 75 84 54 85 55 86 63 87
REMARK SMILES IDX 56 88 57 89 61 90 64 91 58 92 59 93 62 94 60 95
REMARK H PARENT 18 7 5 13 25 29 84 48 52 59
REMARK Flexibility Score: inf
ROOT
ATOM      1  C   UNL A   1      37.556  22.348  25.622  1.00  0.00     0.002 C 
ENDROOT
BRANCH   1   2
ATOM      2  C   UNL A   1      36.897  23.660  25.185  1.00  0.00     0.021 C 
BRANCH   2   3
ATOM      3  C   UNL A   1      35.475  23.857  25.696  1.00  0.00     0.116 C 
BRANCH   3   4
ATOM      4  N   UNL A   1      35.154  22.953  26.777  1.00  0.00    -0.355 N 
ATOM      5  C   UNL A   1      34.020  22.241  27.025  1.00  0.00     0.238 C 
ATOM      6  O   UNL A   1      34.048  21.456  27.978  1.00  0.00    -0.273 OA
ATOM      7  H   UNL A   1      35.869  22.833  27.442  1.00  0.00     0.163 HD
BRANCH   5   8
ATOM      8  C   UNL A   1      32.743  22.398  26.180  1.00  0.00     0.161 C 
BRANCH   8   9
ATOM      9  C   UNL A   1      31.572  23.211  26.796  1.00  0.00     0.010 C 
ATOM     10  C   UNL A   1      31.542  24.715  26.502  1.00  0.00     0.009 C 
ATOM     11  C   UNL A   1      30.191  22.594  26.546  1.00  0.00     0.009 C 
ENDBRANCH   8   9
BRANCH   8  12
ATOM     12  N   UNL A   1      32.331  21.094  25.642  1.00  0.00    -0.198 NA
ATOM     13  H   UNL A   1      31.323  21.153  25.496  1.00  0.00     0.142 HD
BRANCH  12  14
ATOM     14  S   UNL A   1      32.969  20.472  24.236  1.00  0.00     0.241 S 
ATOM     15  O   UNL A   1      31.856  20.382  23.322  1.00  0.00    -0.207 OA
ATOM     16  O   UNL A   1      34.160  21.231  23.912  1.00  0.00    -0.207 OA
BRANCH  14  17
ATOM     17  C   UNL A   1      33.461  18.824  24.664  1.00  0.00     0.085 A 
ATOM     18  C   UNL A   1      34.736  18.366  24.315  1.00  0.00     0.022 A 
ATOM     19  C   UNL A   1      32.541  17.962  25.270  1.00  0.00     0.061 A 
ATOM     20  C   UNL A   1      35.116  17.059  24.623  1.00  0.00     0.004 A 
ATOM     21  C   UNL A   1      32.930  16.657  25.550  1.00  0.00     0.124 A 
ATOM     22  C   UNL A   1      34.208  16.202  25.242  1.00  0.00     0.039 A 
ATOM     23  F   UNL A   1      32.056  15.820  26.121  1.00  0.00    -0.207 F 
ENDBRANCH  14  17
ENDBRANCH  12  14
ENDBRANCH   8  12
ENDBRANCH   5   8
ENDBRANCH   3   4
ENDBRANCH   2   3
ENDBRANCH   1   2
BRANCH   1  24
ATOM     24  C   UNL A   1      37.374  21.169  24.661  1.00  0.00     0.002 C 
BRANCH  24  25
ATOM     25  C   UNL A   1      38.217  19.930  24.973  1.00  0.00     0.021 C 
BRANCH  25  26
ATOM     26  C   UNL A   1      39.281  20.128  26.048  1.00  0.00     0.116 C 
BRANCH  26  27
ATOM     27  N   UNL A   1      40.282  19.074  26.039  1.00  0.00    -0.352 N 
ATOM     28  C   UNL A   1      41.648  19.171  26.126  1.00  0.00     0.251 C 
ATOM     29  H   UNL A   1      39.929  18.159  25.959  1.00  0.00     0.163 HD
ATOM     30  O   UNL A   1      42.353  18.188  25.928  1.00  0.00    -0.269 OA
BRANCH  28  31
ATOM     31  C   UNL A   1      42.270  20.476  26.429  1.00  0.00     0.039 A 
ATOM     32  C   UNL A   1      42.768  21.246  25.374  1.00  0.00     0.014 A 
ATOM     33  C   UNL A   1      42.349  20.945  27.743  1.00  0.00     0.014 A 
ATOM     34  C   UNL A   1      43.275  22.521  25.630  1.00  0.00     0.010 A 
ATOM     35  C   UNL A   1      42.788  22.243  27.988  1.00  0.00     0.010 A 
ATOM     36  C   UNL A   1      43.246  23.046  26.932  1.00  0.00    -0.014 A 
BRANCH  36  37
ATOM     37  C   UNL A   1      43.656  24.446  27.207  1.00  0.00     0.031 A 
ATOM     38  C   UNL A   1      42.653  25.449  27.700  1.00  0.00     0.074 A 
ATOM     39  C   UNL A   1      44.921  24.828  26.943  1.00  0.00     0.049 A 
ATOM     40  N   UNL A   1      42.802  26.732  27.906  1.00  0.00    -0.248 NA
ATOM     41  C   UNL A   1      41.297  24.950  27.978  1.00  0.00     0.031 C 
ATOM     42  C   UNL A   1      45.976  23.951  26.431  1.00  0.00     0.029 A 
ATOM     43  N   UNL A   1      45.533  26.052  27.054  1.00  0.00    -0.354 N 
ATOM     44  C   UNL A   1      41.563  27.193  28.329  1.00  0.00     0.074 A 
ATOM     45  C   UNL A   1      40.659  26.064  28.304  1.00  0.00     0.031 C 
ATOM     46  C   UNL A   1      47.108  24.658  26.297  1.00  0.00     0.029 A 
ATOM     47  C   UNL A   1      46.849  26.048  26.663  1.00  0.00     0.049 A 
ATOM     48  H   UNL A   1      45.071  26.857  27.384  1.00  0.00     0.167 HD
ATOM     49  C   UNL A   1      41.222  28.442  28.726  1.00  0.00     0.037 A 
ATOM     50  C   UNL A   1      47.745  27.052  26.593  1.00  0.00     0.037 A 
ATOM     51  C   UNL A   1      42.133  29.555  28.770  1.00  0.00     0.049 A 
ATOM     52  C   UNL A   1      47.328  28.438  27.001  1.00  0.00     0.074 A 
ATOM     53  C   UNL A   1      41.893  30.844  29.211  1.00  0.00     0.029 A 
ATOM     54  N   UNL A   1      43.456  29.513  28.354  1.00  0.00    -0.354 N 
ATOM     55  N   UNL A   1      46.170  28.851  27.452  1.00  0.00    -0.248 NA
ATOM     56  C   UNL A   1      48.339  29.499  26.888  1.00  0.00     0.031 C 
ATOM     57  C   UNL A   1      43.052  31.597  29.009  1.00  0.00     0.029 A 
ATOM     58  C   UNL A   1      44.034  30.764  28.499  1.00  0.00     0.049 A 
ATOM     59  H   UNL A   1      43.915  28.713  28.009  1.00  0.00     0.167 HD
ATOM     60  C   UNL A   1      46.315  30.209  27.697  1.00  0.00     0.074 A 
ATOM     61  C   UNL A   1      47.680  30.552  27.357  1.00  0.00     0.031 C 
ATOM     62  C   UNL A   1      45.397  31.090  28.161  1.00  0.00     0.037 A 
BRANCH  49  63
ATOM     63  C   UNL A   1      39.805  28.681  29.160  1.00  0.00     0.064 A 
ATOM     64  C   UNL A   1      38.851  29.157  28.247  1.00  0.00     0.173 A 
ATOM     65  C   UNL A   1      39.412  28.525  30.497  1.00  0.00     0.173 A 
ATOM     66  F   UNL A   1      39.177  29.331  26.957  1.00  0.00    -0.203 F 
ATOM     67  C   UNL A   1      37.563  29.485  28.661  1.00  0.00     0.198 A 
ATOM     68  C   UNL A   1      38.113  28.824  30.902  1.00  0.00     0.198 A 
ATOM     69  F   UNL A   1      40.283  28.064  31.408  1.00  0.00    -0.203 F 
ATOM     70  F   UNL A   1      36.682  29.975  27.779  1.00  0.00    -0.200 F 
ATOM     71  C   UNL A   1      37.194  29.315  29.987  1.00  0.00     0.200 A 
ATOM     72  F   UNL A   1      37.752  28.638  32.179  1.00  0.00    -0.200 F 
ATOM     73  F   UNL A   1      35.952  29.626  30.383  1.00  0.00    -0.200 F 
ENDBRANCH  49  63
BRANCH  50  74
ATOM     74  C   UNL A   1      49.131  26.768  26.135  1.00  0.00     0.064 A 
ATOM     75  C   UNL A   1      50.130  26.361  27.033  1.00  0.00     0.173 A 
ATOM     76  C   UNL A   1      49.492  26.935  24.792  1.00  0.00     0.173 A 
ATOM     77  F   UNL A   1      49.838  26.191  28.331  1.00  0.00    -0.203 F 
ATOM     78  C   UNL A   1      51.441  26.157  26.608  1.00  0.00     0.198 A 
ATOM     79  C   UNL A   1      50.797  26.703  24.362  1.00  0.00     0.198 A 
ATOM     80  F   UNL A   1      48.569  27.303  23.892  1.00  0.00    -0.203 F 
ATOM     81  F   UNL A   1      52.384  25.811  27.495  1.00  0.00    -0.200 F 
ATOM     82  C   UNL A   1      51.772  26.325  25.272  1.00  0.00     0.200 A 
ATOM     83  F   UNL A   1      51.109  26.843  23.066  1.00  0.00    -0.200 F 
ATOM     84  F   UNL A   1      53.031  26.120  24.862  1.00  0.00    -0.200 F 
ENDBRANCH  50  74
BRANCH  62  85
ATOM     85  C   UNL A   1      45.825  32.517  28.351  1.00  0.00     0.064 A 
ATOM     86  C   UNL A   1      46.336  32.945  29.587  1.00  0.00     0.173 A 
ATOM     87  C   UNL A   1      45.628  33.479  27.351  1.00  0.00     0.173 A 
ATOM     88  F   UNL A   1      46.536  32.065  30.579  1.00  0.00    -0.203 F 
ATOM     89  C   UNL A   1      46.608  34.291  29.822  1.00  0.00     0.198 A 
ATOM     90  C   UNL A   1      45.929  34.819  27.580  1.00  0.00     0.198 A 
ATOM     91  F   UNL A   1      45.155  33.116  26.149  1.00  0.00    -0.203 F 
ATOM     92  F   UNL A   1      47.049  34.683  31.024  1.00  0.00    -0.200 F 
ATOM     93  C   UNL A   1      46.405  35.225  28.818  1.00  0.00     0.200 A 
ATOM     94  F   UNL A   1      45.755  35.719  26.602  1.00  0.00    -0.200 F 
ATOM     95  F   UNL A   1      46.666  36.521  29.045  1.00  0.00    -0.200 F 
ENDBRANCH  62  85
ENDBRANCH  36  37
ENDBRANCH  28  31
ENDBRANCH  26  27
ENDBRANCH  25  26
ENDBRANCH  24  25
ENDBRANCH   1  24
TORSDOF 17
ENDMDL
