MODEL 1
REMARK VINA RESULT:     -12.0      0.000      0.000
REMARK SMILES COc1ccc2c(c1)[C@H]([NH2+][C@@H](C(=O)NCCCCCCNC(=O)c1ccc(-c3c4nc(c(-c5c(F)c(F)c(F)c(F)c5F)c5ccc([nH]5)c(-c5c(F)c(F)c(F)c(F)c5F)c5nc(c(-c6c(F)c(F)c(F)c(F)c6F)c6ccc3[nH]6)C=C5)C=C4)cc1)C1CC1)CC2
REMARK SMILES IDX 17 1 16 2 15 3 14 4 12 5 13 6 11 8 10 9 9 12 3 13 4 14 8 15
REMARK SMILES IDX 5 16 7 17 6 18 91 19 90 20 2 21 1 22 87 23 88 24 89 25 18 26
REMARK SMILES IDX 19 27 20 28 21 29 22 30 23 32 24 33 25 34 86 35 26 36 85 37
REMARK SMILES IDX 27 38 28 39 29 40 79 41 30 42 84 43 78 44 80 45 31 46 83 47
REMARK SMILES IDX 77 48 76 49 32 51 64 52 44 53 63 54 45 55 48 56 62 57 81 58
REMARK SMILES IDX 46 59 47 60 61 62 82 63 49 64 33 65 34 66 42 67 35 68 36 69
REMARK SMILES IDX 40 70 43 71 37 72 38 73 41 74 39 75 65 76 66 77 74 78 67 79
REMARK SMILES IDX 68 80 72 81 75 82 69 83 70 84 73 85 71 86 50 87 51 88 59 89
REMARK SMILES IDX 52 90 53 91 57 92 60 93 54 94 55 95 58 96 56 97
REMARK H PARENT 14 7 10 10 10 11 21 31 80 50 48 61
REMARK Flexibility Score: inf
ROOT
ATOM      1  C   UNL A   1      32.375  29.527  27.026  1.00  0.00     0.002 C 
ENDROOT
BRANCH   1   2
ATOM      2  C   UNL A   1      31.520  28.285  27.299  1.00  0.00     0.021 C 
BRANCH   2   3
ATOM      3  C   UNL A   1      31.839  27.098  26.396  1.00  0.00     0.116 C 
BRANCH   3   4
ATOM      4  N   UNL A   1      31.375  25.860  26.962  1.00  0.00    -0.351 N 
ATOM      5  C   UNL A   1      31.545  24.575  26.549  1.00  0.00     0.278 C 
ATOM      6  O   UNL A   1      31.020  23.741  27.295  1.00  0.00    -0.268 OA
ATOM      7  H   UNL A   1      30.847  25.959  27.787  1.00  0.00     0.163 HD
BRANCH   5   8
ATOM      8  C   UNL A   1      32.443  24.186  25.313  1.00  0.00     0.276 C 
BRANCH   8   9
ATOM      9  N   UNL A   1      31.683  24.190  24.040  1.00  0.00    -0.330 N 
ATOM     10  H   UNL A   1      31.811  23.273  23.611  1.00  0.00     0.347 HD
ATOM     11  H   UNL A   1      30.733  24.431  24.321  1.00  0.00     0.347 HD
BRANCH   9  12
ATOM     12  C   UNL A   1      32.016  25.196  23.015  1.00  0.00     0.214 C 
ATOM     13  C   UNL A   1      29.416  28.061  23.079  1.00  0.00     0.119 A 
ATOM     14  C   UNL A   1      30.296  29.123  22.847  1.00  0.00     0.047 A 
ATOM     15  C   UNL A   1      29.903  26.751  23.150  1.00  0.00     0.056 A 
ATOM     16  C   UNL A   1      31.651  28.875  22.611  1.00  0.00     0.008 A 
ATOM     17  C   UNL A   1      31.259  26.505  23.010  1.00  0.00     0.016 A 
ATOM     18  C   UNL A   1      32.108  27.566  22.671  1.00  0.00    -0.038 A 
ATOM     19  C   UNL A   1      33.469  27.074  22.295  1.00  0.00     0.042 C 
ATOM     20  C   UNL A   1      33.479  25.701  22.968  1.00  0.00     0.075 C 
BRANCH  13  21
ATOM     21  O   UNL A   1      28.067  28.183  23.281  1.00  0.00    -0.497 OA
ATOM     22  C   UNL A   1      27.497  29.428  22.896  1.00  0.00     0.278 C 
ENDBRANCH  13  21
ENDBRANCH   9  12
ENDBRANCH   8   9
BRANCH   8  23
ATOM     23  C   UNL A   1      33.213  22.886  25.537  1.00  0.00     0.057 C 
ATOM     24  C   UNL A   1      33.149  21.655  24.644  1.00  0.00     0.011 C 
ATOM     25  C   UNL A   1      34.409  22.445  24.696  1.00  0.00     0.011 C 
ENDBRANCH   8  23
ENDBRANCH   5   8
ENDBRANCH   3   4
ENDBRANCH   2   3
ENDBRANCH   1   2
BRANCH   1  26
ATOM     26  C   UNL A   1      31.731  30.570  26.106  1.00  0.00     0.002 C 
BRANCH  26  27
ATOM     27  C   UNL A   1      31.449  31.922  26.761  1.00  0.00     0.021 C 
BRANCH  27  28
ATOM     28  C   UNL A   1      32.688  32.647  27.274  1.00  0.00     0.116 C 
BRANCH  28  29
ATOM     29  N   UNL A   1      32.421  34.042  27.589  1.00  0.00    -0.352 N 
ATOM     30  C   UNL A   1      32.983  34.835  28.557  1.00  0.00     0.251 C 
ATOM     31  H   UNL A   1      31.739  34.478  27.030  1.00  0.00     0.163 HD
ATOM     32  O   UNL A   1      32.508  35.940  28.809  1.00  0.00    -0.269 OA
BRANCH  30  33
ATOM     33  C   UNL A   1      34.153  34.347  29.315  1.00  0.00     0.039 A 
ATOM     34  C   UNL A   1      33.948  33.720  30.546  1.00  0.00     0.014 A 
ATOM     35  C   UNL A   1      35.448  34.502  28.811  1.00  0.00     0.014 A 
ATOM     36  C   UNL A   1      35.036  33.188  31.239  1.00  0.00     0.010 A 
ATOM     37  C   UNL A   1      36.520  33.904  29.465  1.00  0.00     0.010 A 
ATOM     38  C   UNL A   1      36.325  33.241  30.686  1.00  0.00    -0.014 A 
BRANCH  38  39
ATOM     39  C   UNL A   1      37.481  32.598  31.362  1.00  0.00     0.031 A 
ATOM     40  C   UNL A   1      38.177  31.428  30.726  1.00  0.00     0.074 A 
ATOM     41  C   UNL A   1      37.859  33.028  32.582  1.00  0.00     0.049 A 
ATOM     42  N   UNL A   1      39.152  30.689  31.194  1.00  0.00    -0.248 NA
ATOM     43  C   UNL A   1      37.697  31.015  29.398  1.00  0.00     0.031 C 
ATOM     44  C   UNL A   1      37.234  34.125  33.323  1.00  0.00     0.029 A 
ATOM     45  N   UNL A   1      38.852  32.585  33.421  1.00  0.00    -0.354 N 
ATOM     46  C   UNL A   1      39.392  29.724  30.226  1.00  0.00     0.074 A 
ATOM     47  C   UNL A   1      38.424  29.933  29.171  1.00  0.00     0.031 C 
ATOM     48  C   UNL A   1      37.872  34.285  34.493  1.00  0.00     0.029 A 
ATOM     49  C   UNL A   1      38.918  33.275  34.607  1.00  0.00     0.049 A 
ATOM     50  H   UNL A   1      39.458  31.844  33.193  1.00  0.00     0.167 HD
ATOM     51  C   UNL A   1      40.348  28.764  30.208  1.00  0.00     0.037 A 
ATOM     52  C   UNL A   1      39.722  33.101  35.673  1.00  0.00     0.037 A 
ATOM     53  C   UNL A   1      41.318  28.569  31.256  1.00  0.00     0.049 A 
ATOM     54  C   UNL A   1      40.759  32.010  35.639  1.00  0.00     0.074 A 
ATOM     55  C   UNL A   1      42.360  27.661  31.308  1.00  0.00     0.029 A 
ATOM     56  N   UNL A   1      41.358  29.292  32.440  1.00  0.00    -0.354 N 
ATOM     57  N   UNL A   1      41.022  31.146  34.689  1.00  0.00    -0.248 NA
ATOM     58  C   UNL A   1      41.615  31.874  36.826  1.00  0.00     0.031 C 
ATOM     59  C   UNL A   1      42.993  27.793  32.548  1.00  0.00     0.029 A 
ATOM     60  C   UNL A   1      42.390  28.828  33.241  1.00  0.00     0.049 A 
ATOM     61  H   UNL A   1      40.745  30.025  32.675  1.00  0.00     0.167 HD
ATOM     62  C   UNL A   1      42.092  30.388  35.147  1.00  0.00     0.074 A 
ATOM     63  C   UNL A   1      42.438  30.904  36.454  1.00  0.00     0.031 C 
ATOM     64  C   UNL A   1      42.729  29.356  34.539  1.00  0.00     0.037 A 
BRANCH  51  65
ATOM     65  C   UNL A   1      40.391  27.844  29.021  1.00  0.00     0.064 A 
ATOM     66  C   UNL A   1      39.664  26.644  28.989  1.00  0.00     0.173 A 
ATOM     67  C   UNL A   1      41.139  28.185  27.884  1.00  0.00     0.173 A 
ATOM     68  F   UNL A   1      38.939  26.265  30.054  1.00  0.00    -0.203 F 
ATOM     69  C   UNL A   1      39.708  25.807  27.877  1.00  0.00     0.198 A 
ATOM     70  C   UNL A   1      41.152  27.362  26.760  1.00  0.00     0.198 A 
ATOM     71  F   UNL A   1      41.848  29.323  27.855  1.00  0.00    -0.203 F 
ATOM     72  F   UNL A   1      39.046  24.641  27.892  1.00  0.00    -0.200 F 
ATOM     73  C   UNL A   1      40.445  26.170  26.761  1.00  0.00     0.200 A 
ATOM     74  F   UNL A   1      41.853  27.724  25.675  1.00  0.00    -0.200 F 
ATOM     75  F   UNL A   1      40.478  25.368  25.688  1.00  0.00    -0.200 F 
ENDBRANCH  51  65
BRANCH  52  76
ATOM     76  C   UNL A   1      39.590  33.991  36.858  1.00  0.00     0.064 A 
ATOM     77  C   UNL A   1      40.253  35.225  36.911  1.00  0.00     0.173 A 
ATOM     78  C   UNL A   1      38.810  33.622  37.964  1.00  0.00     0.173 A 
ATOM     79  F   UNL A   1      41.028  35.613  35.887  1.00  0.00    -0.203 F 
ATOM     80  C   UNL A   1      40.162  36.045  38.033  1.00  0.00     0.198 A 
ATOM     81  C   UNL A   1      38.693  34.459  39.072  1.00  0.00     0.198 A 
ATOM     82  F   UNL A   1      38.150  32.455  37.964  1.00  0.00    -0.203 F 
ATOM     83  F   UNL A   1      40.849  37.193  38.078  1.00  0.00    -0.200 F 
ATOM     84  C   UNL A   1      39.377  35.664  39.111  1.00  0.00     0.200 A 
ATOM     85  F   UNL A   1      37.920  34.094  40.105  1.00  0.00    -0.200 F 
ATOM     86  F   UNL A   1      39.287  36.453  40.190  1.00  0.00    -0.200 F 
ENDBRANCH  52  76
BRANCH  64  87
ATOM     87  C   UNL A   1      43.895  28.744  35.262  1.00  0.00     0.064 A 
ATOM     88  C   UNL A   1      45.202  29.231  35.105  1.00  0.00     0.173 A 
ATOM     89  C   UNL A   1      43.696  27.679  36.154  1.00  0.00     0.173 A 
ATOM     90  F   UNL A   1      45.450  30.237  34.252  1.00  0.00    -0.203 F 
ATOM     91  C   UNL A   1      46.268  28.654  35.789  1.00  0.00     0.198 A 
ATOM     92  C   UNL A   1      44.758  27.129  36.865  1.00  0.00     0.198 A 
ATOM     93  F   UNL A   1      42.465  27.181  36.348  1.00  0.00    -0.203 F 
ATOM     94  F   UNL A   1      47.514  29.100  35.582  1.00  0.00    -0.200 F 
ATOM     95  C   UNL A   1      46.044  27.611  36.675  1.00  0.00     0.200 A 
ATOM     96  F   UNL A   1      44.537  26.132  37.733  1.00  0.00    -0.200 F 
ATOM     97  F   UNL A   1      47.070  27.063  37.341  1.00  0.00    -0.200 F 
ENDBRANCH  64  87
ENDBRANCH  38  39
ENDBRANCH  30  33
ENDBRANCH  28  29
ENDBRANCH  27  28
ENDBRANCH  26  27
ENDBRANCH   1  26
TORSDOF 17
ENDMDL
MODEL 2
REMARK VINA RESULT:     -11.9      1.265      3.116
REMARK SMILES COc1ccc2c(c1)[C@H]([NH2+][C@@H](C(=O)NCCCCCCNC(=O)c1ccc(-c3c4nc(c(-c5c(F)c(F)c(F)c(F)c5F)c5ccc([nH]5)c(-c5c(F)c(F)c(F)c(F)c5F)c5nc(c(-c6c(F)c(F)c(F)c(F)c6F)c6ccc3[nH]6)C=C5)C=C4)cc1)C1CC1)CC2
REMARK SMILES IDX 17 1 16 2 15 3 14 4 12 5 13 6 11 8 10 9 9 12 3 13 4 14 8 15
REMARK SMILES IDX 5 16 7 17 6 18 91 19 90 20 2 21 1 22 87 23 88 24 89 25 18 26
REMARK SMILES IDX 19 27 20 28 21 29 22 30 23 32 24 33 25 34 86 35 26 36 85 37
REMARK SMILES IDX 27 38 28 39 29 40 79 41 30 42 84 43 78 44 80 45 31 46 83 47
REMARK SMILES IDX 77 48 76 49 32 51 64 52 44 53 63 54 45 55 48 56 62 57 81 58
REMARK SMILES IDX 46 59 47 60 61 62 82 63 49 64 33 65 34 66 42 67 35 68 36 69
REMARK SMILES IDX 40 70 43 71 37 72 38 73 41 74 39 75 65 76 66 77 74 78 67 79
REMARK SMILES IDX 68 80 72 81 75 82 69 83 70 84 73 85 71 86 50 87 51 88 59 89
REMARK SMILES IDX 52 90 53 91 57 92 60 93 54 94 55 95 58 96 56 97
REMARK H PARENT 14 7 10 10 10 11 21 31 80 50 48 61
REMARK Flexibility Score: inf
ROOT
ATOM      1  C   UNL A   1      33.074  30.083  26.890  1.00  0.00     0.002 C 
ENDROOT
BRANCH   1   2
ATOM      2  C   UNL A   1      33.592  29.275  25.695  1.00  0.00     0.021 C 
BRANCH   2   3
ATOM      3  C   UNL A   1      32.633  29.232  24.510  1.00  0.00     0.116 C 
BRANCH   3   4
ATOM      4  N   UNL A   1      33.303  28.838  23.299  1.00  0.00    -0.351 N 
ATOM      5  C   UNL A   1      33.542  27.606  22.777  1.00  0.00     0.278 C 
ATOM      6  O   UNL A   1      34.136  27.633  21.693  1.00  0.00    -0.268 OA
ATOM      7  H   UNL A   1      33.646  29.587  22.759  1.00  0.00     0.163 HD
BRANCH   5   8
ATOM      8  C   UNL A   1      32.989  26.280  23.426  1.00  0.00     0.276 C 
BRANCH   8   9
ATOM      9  N   UNL A   1      33.998  25.193  23.435  1.00  0.00    -0.330 N 
ATOM     10  H   UNL A   1      33.534  24.350  23.095  1.00  0.00     0.347 HD
ATOM     11  H   UNL A   1      34.757  25.556  22.860  1.00  0.00     0.347 HD
BRANCH   9  12
ATOM     12  C   UNL A   1      34.655  24.841  24.707  1.00  0.00     0.214 C 
ATOM     13  C   UNL A   1      32.060  23.377  27.175  1.00  0.00     0.119 A 
ATOM     14  C   UNL A   1      32.871  22.387  27.741  1.00  0.00     0.047 A 
ATOM     15  C   UNL A   1      32.571  24.215  26.178  1.00  0.00     0.056 A 
ATOM     16  C   UNL A   1      34.213  22.279  27.366  1.00  0.00     0.008 A 
ATOM     17  C   UNL A   1      33.873  24.054  25.734  1.00  0.00     0.016 A 
ATOM     18  C   UNL A   1      34.701  23.131  26.386  1.00  0.00    -0.038 A 
ATOM     19  C   UNL A   1      36.126  23.287  25.963  1.00  0.00     0.042 C 
ATOM     20  C   UNL A   1      35.956  24.006  24.624  1.00  0.00     0.075 C 
BRANCH  13  21
ATOM     21  O   UNL A   1      30.747  23.601  27.496  1.00  0.00    -0.497 OA
ATOM     22  C   UNL A   1      29.818  22.658  26.975  1.00  0.00     0.278 C 
ENDBRANCH  13  21
ENDBRANCH   9  12
ENDBRANCH   8   9
BRANCH   8  23
ATOM     23  C   UNL A   1      31.657  25.844  22.820  1.00  0.00     0.057 C 
ATOM     24  C   UNL A   1      30.918  24.551  23.143  1.00  0.00     0.011 C 
ATOM     25  C   UNL A   1      30.330  25.848  23.577  1.00  0.00     0.011 C 
ENDBRANCH   8  23
ENDBRANCH   5   8
ENDBRANCH   3   4
ENDBRANCH   2   3
ENDBRANCH   1   2
BRANCH   1  26
ATOM     26  C   UNL A   1      31.628  30.575  26.764  1.00  0.00     0.002 C 
BRANCH  26  27
ATOM     27  C   UNL A   1      31.459  32.094  26.782  1.00  0.00     0.021 C 
BRANCH  27  28
ATOM     28  C   UNL A   1      32.713  32.865  27.179  1.00  0.00     0.116 C 
BRANCH  28  29
ATOM     29  N   UNL A   1      32.419  34.237  27.563  1.00  0.00    -0.352 N 
ATOM     30  C   UNL A   1      32.974  34.996  28.561  1.00  0.00     0.251 C 
ATOM     31  H   UNL A   1      31.722  34.684  27.030  1.00  0.00     0.163 HD
ATOM     32  O   UNL A   1      32.477  36.078  28.869  1.00  0.00    -0.269 OA
BRANCH  30  33
ATOM     33  C   UNL A   1      34.161  34.499  29.286  1.00  0.00     0.039 A 
ATOM     34  C   UNL A   1      34.013  34.053  30.601  1.00  0.00     0.014 A 
ATOM     35  C   UNL A   1      35.415  34.468  28.668  1.00  0.00     0.014 A 
ATOM     36  C   UNL A   1      35.110  33.511  31.273  1.00  0.00     0.010 A 
ATOM     37  C   UNL A   1      36.487  33.858  29.311  1.00  0.00     0.010 A 
ATOM     38  C   UNL A   1      36.346  33.373  30.620  1.00  0.00    -0.014 A 
BRANCH  38  39
ATOM     39  C   UNL A   1      37.499  32.715  31.285  1.00  0.00     0.031 A 
ATOM     40  C   UNL A   1      38.210  31.574  30.614  1.00  0.00     0.074 A 
ATOM     41  C   UNL A   1      37.860  33.102  32.524  1.00  0.00     0.049 A 
ATOM     42  N   UNL A   1      39.186  30.826  31.065  1.00  0.00    -0.248 NA
ATOM     43  C   UNL A   1      37.748  31.207  29.266  1.00  0.00     0.031 C 
ATOM     44  C   UNL A   1      37.219  34.166  33.298  1.00  0.00     0.029 A 
ATOM     45  N   UNL A   1      38.847  32.636  33.357  1.00  0.00    -0.354 N 
ATOM     46  C   UNL A   1      39.444  29.898  30.065  1.00  0.00     0.074 A 
ATOM     47  C   UNL A   1      38.486  30.140  29.007  1.00  0.00     0.031 C 
ATOM     48  C   UNL A   1      37.842  34.287  34.480  1.00  0.00     0.029 A 
ATOM     49  C   UNL A   1      38.895  33.281  34.569  1.00  0.00     0.049 A 
ATOM     50  H   UNL A   1      39.462  31.907  33.109  1.00  0.00     0.167 HD
ATOM     51  C   UNL A   1      40.407  28.947  30.022  1.00  0.00     0.037 A 
ATOM     52  C   UNL A   1      39.689  33.073  35.637  1.00  0.00     0.037 A 
ATOM     53  C   UNL A   1      41.367  28.721  31.073  1.00  0.00     0.049 A 
ATOM     54  C   UNL A   1      40.735  31.992  35.574  1.00  0.00     0.074 A 
ATOM     55  C   UNL A   1      42.416  27.819  31.102  1.00  0.00     0.029 A 
ATOM     56  N   UNL A   1      41.390  29.399  32.283  1.00  0.00    -0.354 N 
ATOM     57  N   UNL A   1      41.014  31.166  34.595  1.00  0.00    -0.248 NA
ATOM     58  C   UNL A   1      41.579  31.818  36.764  1.00  0.00     0.031 C 
ATOM     59  C   UNL A   1      43.035  27.909  32.354  1.00  0.00     0.029 A 
ATOM     60  C   UNL A   1      42.416  28.914  33.078  1.00  0.00     0.049 A 
ATOM     61  H   UNL A   1      40.768  30.119  32.539  1.00  0.00     0.167 HD
ATOM     62  C   UNL A   1      42.085  30.399  35.037  1.00  0.00     0.074 A 
ATOM     63  C   UNL A   1      42.413  30.869  36.366  1.00  0.00     0.031 C 
ATOM     64  C   UNL A   1      42.736  29.396  34.398  1.00  0.00     0.037 A 
BRANCH  51  65
ATOM     65  C   UNL A   1      40.471  28.073  28.802  1.00  0.00     0.064 A 
ATOM     66  C   UNL A   1      41.251  28.417  27.686  1.00  0.00     0.173 A 
ATOM     67  C   UNL A   1      39.775  26.855  28.762  1.00  0.00     0.173 A 
ATOM     68  F   UNL A   1      41.929  29.575  27.668  1.00  0.00    -0.203 F 
ATOM     69  C   UNL A   1      41.305  27.591  26.567  1.00  0.00     0.198 A 
ATOM     70  C   UNL A   1      39.860  26.015  27.654  1.00  0.00     0.198 A 
ATOM     71  F   UNL A   1      39.020  26.472  29.802  1.00  0.00    -0.203 F 
ATOM     72  F   UNL A   1      42.015  27.967  25.493  1.00  0.00    -0.200 F 
ATOM     73  C   UNL A   1      40.618  26.387  26.554  1.00  0.00     0.200 A 
ATOM     74  F   UNL A   1      39.208  24.844  27.652  1.00  0.00    -0.200 F 
ATOM     75  F   UNL A   1      40.680  25.589  25.480  1.00  0.00    -0.200 F 
ENDBRANCH  51  65
BRANCH  52  76
ATOM     76  C   UNL A   1      39.537  33.917  36.852  1.00  0.00     0.064 A 
ATOM     77  C   UNL A   1      40.165  35.168  36.945  1.00  0.00     0.173 A 
ATOM     78  C   UNL A   1      38.774  33.489  37.948  1.00  0.00     0.173 A 
ATOM     79  F   UNL A   1      40.923  35.613  35.932  1.00  0.00    -0.203 F 
ATOM     80  C   UNL A   1      40.056  35.946  38.096  1.00  0.00     0.198 A 
ATOM     81  C   UNL A   1      38.638  34.283  39.085  1.00  0.00     0.198 A 
ATOM     82  F   UNL A   1      38.148  32.303  37.910  1.00  0.00    -0.203 F 
ATOM     83  F   UNL A   1      40.710  37.111  38.178  1.00  0.00    -0.200 F 
ATOM     84  C   UNL A   1      39.287  35.505  39.162  1.00  0.00     0.200 A 
ATOM     85  F   UNL A   1      37.881  33.860  40.107  1.00  0.00    -0.200 F 
ATOM     86  F   UNL A   1      39.180  36.253  40.269  1.00  0.00    -0.200 F 
ENDBRANCH  52  76
BRANCH  64  87
ATOM     87  C   UNL A   1      43.900  28.765  35.111  1.00  0.00     0.064 A 
ATOM     88  C   UNL A   1      43.741  27.647  35.942  1.00  0.00     0.173 A 
ATOM     89  C   UNL A   1      45.199  29.266  34.926  1.00  0.00     0.173 A 
ATOM     90  F   UNL A   1      42.520  27.139  36.165  1.00  0.00    -0.203 F 
ATOM     91  C   UNL A   1      44.833  27.074  36.588  1.00  0.00     0.198 A 
ATOM     92  C   UNL A   1      46.293  28.668  35.543  1.00  0.00     0.198 A 
ATOM     93  F   UNL A   1      45.408  30.328  34.134  1.00  0.00    -0.203 F 
ATOM     94  F   UNL A   1      44.650  26.040  37.421  1.00  0.00    -0.200 F 
ATOM     95  C   UNL A   1      46.109  27.578  36.380  1.00  0.00     0.200 A 
ATOM     96  F   UNL A   1      47.526  29.146  35.328  1.00  0.00    -0.200 F 
ATOM     97  F   UNL A   1      47.161  27.019  36.994  1.00  0.00    -0.200 F 
ENDBRANCH  64  87
ENDBRANCH  38  39
ENDBRANCH  30  33
ENDBRANCH  28  29
ENDBRANCH  27  28
ENDBRANCH  26  27
ENDBRANCH   1  26
TORSDOF 17
ENDMDL
MODEL 3
REMARK VINA RESULT:     -11.9      1.289      2.933
REMARK SMILES COc1ccc2c(c1)[C@H]([NH2+][C@@H](C(=O)NCCCCCCNC(=O)c1ccc(-c3c4nc(c(-c5c(F)c(F)c(F)c(F)c5F)c5ccc([nH]5)c(-c5c(F)c(F)c(F)c(F)c5F)c5nc(c(-c6c(F)c(F)c(F)c(F)c6F)c6ccc3[nH]6)C=C5)C=C4)cc1)C1CC1)CC2
REMARK SMILES IDX 17 1 16 2 15 3 14 4 12 5 13 6 11 8 10 9 9 12 3 13 4 14 8 15
REMARK SMILES IDX 5 16 7 17 6 18 91 19 90 20 2 21 1 22 87 23 88 24 89 25 18 26
REMARK SMILES IDX 19 27 20 28 21 29 22 30 23 32 24 33 25 34 86 35 26 36 85 37
REMARK SMILES IDX 27 38 28 39 29 40 79 41 30 42 84 43 78 44 80 45 31 46 83 47
REMARK SMILES IDX 77 48 76 49 32 51 64 52 44 53 63 54 45 55 48 56 62 57 81 58
REMARK SMILES IDX 46 59 47 60 61 62 82 63 49 64 33 65 34 66 42 67 35 68 36 69
REMARK SMILES IDX 40 70 43 71 37 72 38 73 41 74 39 75 65 76 66 77 74 78 67 79
REMARK SMILES IDX 68 80 72 81 75 82 69 83 70 84 73 85 71 86 50 87 51 88 59 89
REMARK SMILES IDX 52 90 53 91 57 92 60 93 54 94 55 95 58 96 56 97
REMARK H PARENT 14 7 10 10 10 11 21 31 80 50 48 61
REMARK Flexibility Score: inf
ROOT
ATOM      1  C   UNL A   1      31.815  29.890  25.366  1.00  0.00     0.002 C 
ENDROOT
BRANCH   1   2
ATOM      2  C   UNL A   1      32.326  28.462  25.586  1.00  0.00     0.021 C 
BRANCH   2   3
ATOM      3  C   UNL A   1      33.738  28.218  25.065  1.00  0.00     0.116 C 
BRANCH   3   4
ATOM      4  N   UNL A   1      33.763  28.102  23.631  1.00  0.00    -0.351 N 
ATOM      5  C   UNL A   1      33.593  27.019  22.825  1.00  0.00     0.278 C 
ATOM      6  O   UNL A   1      33.658  27.284  21.619  1.00  0.00    -0.268 OA
ATOM      7  H   UNL A   1      33.930  28.946  23.154  1.00  0.00     0.163 HD
BRANCH   5   8
ATOM      8  C   UNL A   1      33.212  25.593  23.378  1.00  0.00     0.276 C 
BRANCH   8   9
ATOM      9  N   UNL A   1      34.343  24.637  23.300  1.00  0.00    -0.330 N 
ATOM     10  H   UNL A   1      33.980  23.775  22.892  1.00  0.00     0.347 HD
ATOM     11  H   UNL A   1      35.048  25.134  22.758  1.00  0.00     0.347 HD
BRANCH   9  12
ATOM     12  C   UNL A   1      35.047  24.265  24.541  1.00  0.00     0.214 C 
ATOM     13  C   UNL A   1      32.497  23.117  27.215  1.00  0.00     0.119 A 
ATOM     14  C   UNL A   1      33.252  22.074  27.764  1.00  0.00     0.047 A 
ATOM     15  C   UNL A   1      33.015  23.875  26.159  1.00  0.00     0.056 A 
ATOM     16  C   UNL A   1      34.551  21.833  27.311  1.00  0.00     0.008 A 
ATOM     17  C   UNL A   1      34.267  23.582  25.641  1.00  0.00     0.016 A 
ATOM     18  C   UNL A   1      35.049  22.607  26.273  1.00  0.00    -0.038 A 
ATOM     19  C   UNL A   1      36.452  22.620  25.757  1.00  0.00     0.042 C 
ATOM     20  C   UNL A   1      36.261  23.312  24.407  1.00  0.00     0.075 C 
BRANCH  13  21
ATOM     21  O   UNL A   1      31.233  23.469  27.608  1.00  0.00    -0.497 OA
ATOM     22  C   UNL A   1      30.174  22.947  26.814  1.00  0.00     0.278 C 
ENDBRANCH  13  21
ENDBRANCH   9  12
ENDBRANCH   8   9
BRANCH   8  23
ATOM     23  C   UNL A   1      31.932  25.045  22.748  1.00  0.00     0.057 C 
ATOM     24  C   UNL A   1      31.262  23.727  23.110  1.00  0.00     0.011 C 
ATOM     25  C   UNL A   1      30.580  25.003  23.458  1.00  0.00     0.011 C 
ENDBRANCH   8  23
ENDBRANCH   5   8
ENDBRANCH   3   4
ENDBRANCH   2   3
ENDBRANCH   1   2
BRANCH   1  26
ATOM     26  C   UNL A   1      31.414  30.639  26.642  1.00  0.00     0.002 C 
BRANCH  26  27
ATOM     27  C   UNL A   1      31.464  32.164  26.537  1.00  0.00     0.021 C 
BRANCH  27  28
ATOM     28  C   UNL A   1      32.640  32.808  27.262  1.00  0.00     0.116 C 
BRANCH  28  29
ATOM     29  N   UNL A   1      32.390  34.205  27.587  1.00  0.00    -0.352 N 
ATOM     30  C   UNL A   1      32.968  34.987  28.554  1.00  0.00     0.251 C 
ATOM     31  H   UNL A   1      31.708  34.650  27.035  1.00  0.00     0.163 HD
ATOM     32  O   UNL A   1      32.506  36.095  28.815  1.00  0.00    -0.269 OA
BRANCH  30  33
ATOM     33  C   UNL A   1      34.139  34.483  29.300  1.00  0.00     0.039 A 
ATOM     34  C   UNL A   1      33.939  33.876  30.542  1.00  0.00     0.014 A 
ATOM     35  C   UNL A   1      35.428  34.603  28.773  1.00  0.00     0.014 A 
ATOM     36  C   UNL A   1      35.026  33.329  31.225  1.00  0.00     0.010 A 
ATOM     37  C   UNL A   1      36.498  33.989  29.419  1.00  0.00     0.010 A 
ATOM     38  C   UNL A   1      36.308  33.346  30.651  1.00  0.00    -0.014 A 
BRANCH  38  39
ATOM     39  C   UNL A   1      37.460  32.687  31.317  1.00  0.00     0.031 A 
ATOM     40  C   UNL A   1      38.163  31.537  30.653  1.00  0.00     0.074 A 
ATOM     41  C   UNL A   1      37.828  33.083  32.552  1.00  0.00     0.049 A 
ATOM     42  N   UNL A   1      39.136  30.787  31.108  1.00  0.00    -0.248 NA
ATOM     43  C   UNL A   1      37.694  31.161  29.311  1.00  0.00     0.031 C 
ATOM     44  C   UNL A   1      37.195  34.157  33.319  1.00  0.00     0.029 A 
ATOM     45  N   UNL A   1      38.815  32.619  33.385  1.00  0.00    -0.354 N 
ATOM     46  C   UNL A   1      39.385  29.849  30.115  1.00  0.00     0.074 A 
ATOM     47  C   UNL A   1      38.425  30.087  29.059  1.00  0.00     0.031 C 
ATOM     48  C   UNL A   1      37.823  34.285  34.498  1.00  0.00     0.029 A 
ATOM     49  C   UNL A   1      38.871  33.274  34.591  1.00  0.00     0.049 A 
ATOM     50  H   UNL A   1      39.425  31.885  33.141  1.00  0.00     0.167 HD
ATOM     51  C   UNL A   1      40.343  28.893  30.077  1.00  0.00     0.037 A 
ATOM     52  C   UNL A   1      39.667  33.072  35.658  1.00  0.00     0.037 A 
ATOM     53  C   UNL A   1      41.306  28.670  31.127  1.00  0.00     0.049 A 
ATOM     54  C   UNL A   1      40.708  31.984  35.600  1.00  0.00     0.074 A 
ATOM     55  C   UNL A   1      42.350  27.763  31.160  1.00  0.00     0.029 A 
ATOM     56  N   UNL A   1      41.336  29.359  32.330  1.00  0.00    -0.354 N 
ATOM     57  N   UNL A   1      40.979  31.148  34.629  1.00  0.00    -0.248 NA
ATOM     58  C   UNL A   1      41.555  31.816  36.789  1.00  0.00     0.031 C 
ATOM     59  C   UNL A   1      42.973  27.861  32.408  1.00  0.00     0.029 A 
ATOM     60  C   UNL A   1      42.362  28.875  33.126  1.00  0.00     0.049 A 
ATOM     61  H   UNL A   1      40.720  30.084  32.582  1.00  0.00     0.167 HD
ATOM     62  C   UNL A   1      42.047  30.379  35.073  1.00  0.00     0.074 A 
ATOM     63  C   UNL A   1      42.383  30.859  36.397  1.00  0.00     0.031 C 
ATOM     64  C   UNL A   1      42.690  29.367  34.441  1.00  0.00     0.037 A 
BRANCH  51  65
ATOM     65  C   UNL A   1      40.398  28.007  28.865  1.00  0.00     0.064 A 
ATOM     66  C   UNL A   1      39.685  26.799  28.800  1.00  0.00     0.173 A 
ATOM     67  C   UNL A   1      41.140  28.389  27.737  1.00  0.00     0.173 A 
ATOM     68  F   UNL A   1      38.967  26.381  29.853  1.00  0.00    -0.203 F 
ATOM     69  C   UNL A   1      39.740  25.994  27.665  1.00  0.00     0.198 A 
ATOM     70  C   UNL A   1      41.163  27.598  26.591  1.00  0.00     0.198 A 
ATOM     71  F   UNL A   1      41.835  29.536  27.740  1.00  0.00    -0.203 F 
ATOM     72  F   UNL A   1      39.093  24.820  27.647  1.00  0.00    -0.200 F 
ATOM     73  C   UNL A   1      40.471  26.397  26.559  1.00  0.00     0.200 A 
ATOM     74  F   UNL A   1      41.858  27.999  25.516  1.00  0.00    -0.200 F 
ATOM     75  F   UNL A   1      40.513  25.626  25.464  1.00  0.00    -0.200 F 
ENDBRANCH  51  65
BRANCH  52  76
ATOM     76  C   UNL A   1      39.525  33.927  36.866  1.00  0.00     0.064 A 
ATOM     77  C   UNL A   1      38.757  33.506  37.962  1.00  0.00     0.173 A 
ATOM     78  C   UNL A   1      40.140  35.185  36.947  1.00  0.00     0.173 A 
ATOM     79  F   UNL A   1      38.132  32.320  37.925  1.00  0.00    -0.203 F 
ATOM     80  C   UNL A   1      38.591  34.320  39.081  1.00  0.00     0.198 A 
ATOM     81  C   UNL A   1      39.999  35.984  38.080  1.00  0.00     0.198 A 
ATOM     82  F   UNL A   1      40.888  35.635  35.929  1.00  0.00    -0.203 F 
ATOM     83  F   UNL A   1      37.809  33.915  40.090  1.00  0.00    -0.200 F 
ATOM     84  C   UNL A   1      39.217  35.555  39.141  1.00  0.00     0.200 A 
ATOM     85  F   UNL A   1      40.620  37.170  38.141  1.00  0.00    -0.200 F 
ATOM     86  F   UNL A   1      39.059  36.338  40.217  1.00  0.00    -0.200 F 
ENDBRANCH  52  76
BRANCH  64  87
ATOM     87  C   UNL A   1      43.853  28.736  35.154  1.00  0.00     0.064 A 
ATOM     88  C   UNL A   1      45.162  29.218  35.007  1.00  0.00     0.173 A 
ATOM     89  C   UNL A   1      43.647  27.658  36.029  1.00  0.00     0.173 A 
ATOM     90  F   UNL A   1      45.416  30.237  34.172  1.00  0.00    -0.203 F 
ATOM     91  C   UNL A   1      46.224  28.625  35.683  1.00  0.00     0.198 A 
ATOM     92  C   UNL A   1      44.705  27.091  36.732  1.00  0.00     0.198 A 
ATOM     93  F   UNL A   1      42.413  27.163  36.214  1.00  0.00    -0.203 F 
ATOM     94  F   UNL A   1      47.473  29.067  35.484  1.00  0.00    -0.200 F 
ATOM     95  C   UNL A   1      45.994  27.568  36.552  1.00  0.00     0.200 A 
ATOM     96  F   UNL A   1      44.478  26.081  37.583  1.00  0.00    -0.200 F 
ATOM     97  F   UNL A   1      47.017  27.004  37.210  1.00  0.00    -0.200 F 
ENDBRANCH  64  87
ENDBRANCH  38  39
ENDBRANCH  30  33
ENDBRANCH  28  29
ENDBRANCH  27  28
ENDBRANCH  26  27
ENDBRANCH   1  26
TORSDOF 17
ENDMDL
