MODEL 1
REMARK VINA RESULT:     -12.0      0.000      0.000
REMARK SMILES C[C@@]1(C(=O)NCCCCCCNC(=O)c2ccc(-c3c4nc(c(-c5c(F)c(F)c(F)c(F)c5F)c5ccc([nH]5)c(-c5c(F)c(F)c(F)c(F)c5F)c5nc(c(-c6c(F)c(F)c(F)c(F)c6F)c6ccc3[nH]6)C=C5)C=C4)cc2)COC[C@H]1NC(=O)C[C@@H]1C[NH2+]CCO1
REMARK SMILES IDX 8 1 7 2 6 3 5 4 3 5 4 6 2 8 1 9 78 10 81 11 79 12 80 13
REMARK SMILES IDX 82 14 83 15 84 17 85 18 86 19 87 20 91 21 88 22 90 23 89 24
REMARK SMILES IDX 9 27 10 28 11 29 12 30 13 31 14 33 15 34 16 35 77 36 17 37
REMARK SMILES IDX 76 38 18 39 19 40 20 41 70 42 21 43 75 44 69 45 71 46 22 47
REMARK SMILES IDX 74 48 68 49 67 50 23 52 55 53 35 54 54 55 36 56 39 57 53 58
REMARK SMILES IDX 72 59 37 60 38 61 52 63 73 64 40 65 24 66 25 67 33 68 26 69
REMARK SMILES IDX 27 70 31 71 34 72 28 73 29 74 32 75 30 76 56 77 57 78 65 79
REMARK SMILES IDX 58 80 59 81 63 82 66 83 60 84 61 85 64 86 62 87 41 88 42 89
REMARK SMILES IDX 50 90 43 91 44 92 48 93 51 94 45 95 46 96 49 97 47 98
REMARK H PARENT 5 7 82 16 88 25 88 26 12 32 71 51 39 62
REMARK Flexibility Score: inf
ROOT
ATOM      1  C   UNL A   1      32.564  29.964  27.046  1.00  0.00     0.002 C 
ENDROOT
BRANCH   1   2
ATOM      2  C   UNL A   1      33.403  28.976  26.227  1.00  0.00     0.021 C 
BRANCH   2   3
ATOM      3  C   UNL A   1      32.770  27.600  26.016  1.00  0.00     0.116 C 
BRANCH   3   4
ATOM      4  N   UNL A   1      33.745  26.564  25.752  1.00  0.00    -0.355 N 
ATOM      5  C   UNL A   1      33.810  25.537  24.868  1.00  0.00     0.230 C 
ATOM      6  O   UNL A   1      34.909  24.970  24.828  1.00  0.00    -0.274 OA
ATOM      7  H   UNL A   1      34.531  26.615  26.343  1.00  0.00     0.163 HD
BRANCH   5   8
ATOM      8  C   UNL A   1      32.661  25.086  23.937  1.00  0.00     0.092 C 
ATOM      9  C   UNL A   1      31.688  24.248  24.801  1.00  0.00     0.026 C 
ATOM     10  C   UNL A   1      33.230  24.197  22.835  1.00  0.00     0.179 C 
ATOM     11  C   UNL A   1      31.953  26.232  23.188  1.00  0.00     0.125 C 
ATOM     12  O   UNL A   1      33.276  24.965  21.630  1.00  0.00    -0.378 OA
ATOM     13  C   UNL A   1      32.264  25.969  21.708  1.00  0.00     0.186 C 
BRANCH  11  14
ATOM     14  N   UNL A   1      30.499  26.301  23.372  1.00  0.00    -0.350 N 
ATOM     15  C   UNL A   1      29.641  27.347  23.480  1.00  0.00     0.223 C 
ATOM     16  H   UNL A   1      30.062  25.420  23.428  1.00  0.00     0.163 HD
ATOM     17  O   UNL A   1      28.435  27.087  23.502  1.00  0.00    -0.275 OA
BRANCH  15  18
ATOM     18  C   UNL A   1      30.125  28.781  23.512  1.00  0.00     0.138 C 
BRANCH  18  19
ATOM     19  C   UNL A   1      29.155  29.824  22.939  1.00  0.00     0.182 C 
ATOM     20  C   UNL A   1      29.647  30.370  21.584  1.00  0.00     0.293 C 
ATOM     21  O   UNL A   1      28.937  30.886  23.875  1.00  0.00    -0.366 OA
ATOM     22  N   UNL A   1      28.778  31.411  21.015  1.00  0.00    -0.342 N 
ATOM     23  C   UNL A   1      28.063  31.893  23.347  1.00  0.00     0.222 C 
ATOM     24  C   UNL A   1      28.608  32.467  22.032  1.00  0.00     0.289 C 
ATOM     25  H   UNL A   1      27.871  31.012  20.774  1.00  0.00     0.346 HD
ATOM     26  H   UNL A   1      29.195  31.798  20.168  1.00  0.00     0.346 HD
ENDBRANCH  18  19
ENDBRANCH  15  18
ENDBRANCH  11  14
ENDBRANCH   5   8
ENDBRANCH   3   4
ENDBRANCH   2   3
ENDBRANCH   1   2
BRANCH   1  27
ATOM     27  C   UNL A   1      31.527  30.773  26.259  1.00  0.00     0.002 C 
BRANCH  27  28
ATOM     28  C   UNL A   1      31.386  32.245  26.658  1.00  0.00     0.021 C 
BRANCH  28  29
ATOM     29  C   UNL A   1      32.659  32.904  27.176  1.00  0.00     0.116 C 
BRANCH  29  30
ATOM     30  N   UNL A   1      32.431  34.265  27.625  1.00  0.00    -0.352 N 
ATOM     31  C   UNL A   1      32.982  34.933  28.686  1.00  0.00     0.251 C 
ATOM     32  H   UNL A   1      31.786  34.782  27.089  1.00  0.00     0.163 HD
ATOM     33  O   UNL A   1      32.529  36.029  29.021  1.00  0.00    -0.269 OA
BRANCH  31  34
ATOM     34  C   UNL A   1      34.113  34.353  29.443  1.00  0.00     0.039 A 
ATOM     35  C   UNL A   1      35.413  34.547  28.962  1.00  0.00     0.014 A 
ATOM     36  C   UNL A   1      33.903  33.569  30.582  1.00  0.00     0.014 A 
ATOM     37  C   UNL A   1      36.498  33.977  29.631  1.00  0.00     0.010 A 
ATOM     38  C   UNL A   1      34.991  33.051  31.284  1.00  0.00     0.010 A 
ATOM     39  C   UNL A   1      36.297  33.229  30.802  1.00  0.00    -0.014 A 
BRANCH  39  40
ATOM     40  C   UNL A   1      37.434  32.574  31.495  1.00  0.00     0.031 A 
ATOM     41  C   UNL A   1      38.153  31.429  30.833  1.00  0.00     0.074 A 
ATOM     42  C   UNL A   1      37.800  32.978  32.726  1.00  0.00     0.049 A 
ATOM     43  N   UNL A   1      39.132  30.688  31.290  1.00  0.00    -0.248 NA
ATOM     44  C   UNL A   1      37.692  31.049  29.489  1.00  0.00     0.031 C 
ATOM     45  C   UNL A   1      37.160  34.050  33.488  1.00  0.00     0.029 A 
ATOM     46  N   UNL A   1      38.794  32.526  33.556  1.00  0.00    -0.354 N 
ATOM     47  C   UNL A   1      39.386  29.747  30.301  1.00  0.00     0.074 A 
ATOM     48  C   UNL A   1      38.431  29.979  29.239  1.00  0.00     0.031 C 
ATOM     49  C   UNL A   1      37.788  34.185  34.668  1.00  0.00     0.029 A 
ATOM     50  C   UNL A   1      38.858  33.194  34.754  1.00  0.00     0.049 A 
ATOM     51  H   UNL A   1      39.406  31.793  33.315  1.00  0.00     0.167 HD
ATOM     52  C   UNL A   1      40.342  28.788  30.271  1.00  0.00     0.037 A 
ATOM     53  C   UNL A   1      39.686  33.024  35.803  1.00  0.00     0.037 A 
ATOM     54  C   UNL A   1      41.318  28.583  31.308  1.00  0.00     0.049 A 
ATOM     55  C   UNL A   1      40.760  31.973  35.730  1.00  0.00     0.074 A 
ATOM     56  C   UNL A   1      42.360  27.673  31.348  1.00  0.00     0.029 A 
ATOM     57  N   UNL A   1      41.376  29.309  32.488  1.00  0.00    -0.354 N 
ATOM     58  N   UNL A   1      41.024  31.124  34.767  1.00  0.00    -0.248 NA
ATOM     59  C   UNL A   1      41.661  31.864  36.887  1.00  0.00     0.031 C 
ATOM     60  C   UNL A   1      43.031  27.829  32.566  1.00  0.00     0.029 A 
ATOM     61  C   UNL A   1      42.431  28.862  33.267  1.00  0.00     0.049 A 
ATOM     62  H   UNL A   1      40.757  30.034  32.736  1.00  0.00     0.167 HD
ATOM     63  C   UNL A   1      42.136  30.405  35.185  1.00  0.00     0.074 A 
ATOM     64  C   UNL A   1      42.504  30.924  36.486  1.00  0.00     0.031 C 
ATOM     65  C   UNL A   1      42.794  29.405  34.550  1.00  0.00     0.037 A 
BRANCH  52  66
ATOM     66  C   UNL A   1      40.385  27.890  29.069  1.00  0.00     0.064 A 
ATOM     67  C   UNL A   1      41.167  28.203  27.946  1.00  0.00     0.173 A 
ATOM     68  C   UNL A   1      39.662  26.688  29.053  1.00  0.00     0.173 A 
ATOM     69  F   UNL A   1      41.865  29.347  27.908  1.00  0.00    -0.203 F 
ATOM     70  C   UNL A   1      41.201  27.358  26.840  1.00  0.00     0.198 A 
ATOM     71  C   UNL A   1      39.720  25.832  27.955  1.00  0.00     0.198 A 
ATOM     72  F   UNL A   1      38.903  26.340  30.102  1.00  0.00    -0.203 F 
ATOM     73  F   UNL A   1      41.917  27.701  25.759  1.00  0.00    -0.200 F 
ATOM     74  C   UNL A   1      40.483  26.171  26.848  1.00  0.00     0.200 A 
ATOM     75  F   UNL A   1      39.035  24.681  27.968  1.00  0.00    -0.200 F 
ATOM     76  F   UNL A   1      40.521  25.357  25.784  1.00  0.00    -0.200 F 
ENDBRANCH  52  66
BRANCH  53  77
ATOM     77  C   UNL A   1      39.557  33.895  36.999  1.00  0.00     0.064 A 
ATOM     78  C   UNL A   1      38.800  33.489  38.105  1.00  0.00     0.173 A 
ATOM     79  C   UNL A   1      40.178  35.151  37.057  1.00  0.00     0.173 A 
ATOM     80  F   UNL A   1      38.171  32.305  38.086  1.00  0.00    -0.203 F 
ATOM     81  C   UNL A   1      38.651  34.314  39.218  1.00  0.00     0.198 A 
ATOM     82  C   UNL A   1      40.050  35.965  38.180  1.00  0.00     0.198 A 
ATOM     83  F   UNL A   1      40.917  35.583  36.024  1.00  0.00    -0.203 F 
ATOM     84  F   UNL A   1      37.886  33.919  40.244  1.00  0.00    -0.200 F 
ATOM     85  C   UNL A   1      39.280  35.549  39.256  1.00  0.00     0.200 A 
ATOM     86  F   UNL A   1      40.667  37.153  38.218  1.00  0.00    -0.200 F 
ATOM     87  F   UNL A   1      39.137  36.342  40.327  1.00  0.00    -0.200 F 
ENDBRANCH  53  77
BRANCH  65  88
ATOM     88  C   UNL A   1      44.003  28.837  35.229  1.00  0.00     0.064 A 
ATOM     89  C   UNL A   1      45.288  29.344  34.991  1.00  0.00     0.173 A 
ATOM     90  C   UNL A   1      43.867  27.796  36.161  1.00  0.00     0.173 A 
ATOM     91  F   UNL A   1      45.469  30.328  34.097  1.00  0.00    -0.203 F 
ATOM     92  C   UNL A   1      46.398  28.814  35.642  1.00  0.00     0.198 A 
ATOM     93  C   UNL A   1      44.976  27.287  36.830  1.00  0.00     0.198 A 
ATOM     94  F   UNL A   1      42.658  27.281  36.429  1.00  0.00    -0.203 F 
ATOM     95  F   UNL A   1      47.622  29.285  35.368  1.00  0.00    -0.200 F 
ATOM     96  C   UNL A   1      46.240  27.790  36.567  1.00  0.00     0.200 A 
ATOM     97  F   UNL A   1      44.821  26.305  37.730  1.00  0.00    -0.200 F 
ATOM     98  F   UNL A   1      47.309  27.285  37.197  1.00  0.00    -0.200 F 
ENDBRANCH  65  88
ENDBRANCH  39  40
ENDBRANCH  31  34
ENDBRANCH  29  30
ENDBRANCH  28  29
ENDBRANCH  27  28
ENDBRANCH   1  27
TORSDOF 16
ENDMDL
MODEL 2
REMARK VINA RESULT:     -11.9      1.324      7.385
REMARK SMILES C[C@@]1(C(=O)NCCCCCCNC(=O)c2ccc(-c3c4nc(c(-c5c(F)c(F)c(F)c(F)c5F)c5ccc([nH]5)c(-c5c(F)c(F)c(F)c(F)c5F)c5nc(c(-c6c(F)c(F)c(F)c(F)c6F)c6ccc3[nH]6)C=C5)C=C4)cc2)COC[C@H]1NC(=O)C[C@@H]1C[NH2+]CCO1
REMARK SMILES IDX 8 1 7 2 6 3 5 4 3 5 4 6 2 8 1 9 78 10 81 11 79 12 80 13
REMARK SMILES IDX 82 14 83 15 84 17 85 18 86 19 87 20 91 21 88 22 90 23 89 24
REMARK SMILES IDX 9 27 10 28 11 29 12 30 13 31 14 33 15 34 16 35 77 36 17 37
REMARK SMILES IDX 76 38 18 39 19 40 20 41 70 42 21 43 75 44 69 45 71 46 22 47
REMARK SMILES IDX 74 48 68 49 67 50 23 52 55 53 35 54 54 55 36 56 39 57 53 58
REMARK SMILES IDX 72 59 37 60 38 61 52 63 73 64 40 65 24 66 25 67 33 68 26 69
REMARK SMILES IDX 27 70 31 71 34 72 28 73 29 74 32 75 30 76 56 77 57 78 65 79
REMARK SMILES IDX 58 80 59 81 63 82 66 83 60 84 61 85 64 86 62 87 41 88 42 89
REMARK SMILES IDX 50 90 43 91 44 92 48 93 51 94 45 95 46 96 49 97 47 98
REMARK H PARENT 5 7 82 16 88 25 88 26 12 32 71 51 39 62
REMARK Flexibility Score: inf
ROOT
ATOM      1  C   UNL A   1      32.260  29.448  26.981  1.00  0.00     0.002 C 
ENDROOT
BRANCH   1   2
ATOM      2  C   UNL A   1      31.600  28.141  27.436  1.00  0.00     0.021 C 
BRANCH   2   3
ATOM      3  C   UNL A   1      31.936  26.911  26.592  1.00  0.00     0.116 C 
BRANCH   3   4
ATOM      4  N   UNL A   1      31.077  25.781  26.874  1.00  0.00    -0.355 N 
ATOM      5  C   UNL A   1      31.144  24.456  26.591  1.00  0.00     0.230 C 
ATOM      6  O   UNL A   1      30.294  23.768  27.171  1.00  0.00    -0.274 OA
ATOM      7  H   UNL A   1      30.270  26.027  27.381  1.00  0.00     0.163 HD
BRANCH   5   8
ATOM      8  C   UNL A   1      32.187  23.793  25.661  1.00  0.00     0.092 C 
ATOM      9  C   UNL A   1      31.396  23.102  24.524  1.00  0.00     0.026 C 
ATOM     10  C   UNL A   1      32.951  22.730  26.445  1.00  0.00     0.179 C 
ATOM     11  C   UNL A   1      33.276  24.747  25.132  1.00  0.00     0.125 C 
ATOM     12  O   UNL A   1      34.247  23.253  26.748  1.00  0.00    -0.378 OA
ATOM     13  C   UNL A   1      34.578  24.216  25.747  1.00  0.00     0.186 C 
BRANCH  11  14
ATOM     14  N   UNL A   1      33.414  24.797  23.672  1.00  0.00    -0.350 N 
ATOM     15  C   UNL A   1      33.373  25.825  22.786  1.00  0.00     0.223 C 
ATOM     16  H   UNL A   1      33.566  23.917  23.256  1.00  0.00     0.163 HD
ATOM     17  O   UNL A   1      33.654  25.569  21.613  1.00  0.00    -0.275 OA
BRANCH  15  18
ATOM     18  C   UNL A   1      33.059  27.241  23.216  1.00  0.00     0.138 C 
BRANCH  18  19
ATOM     19  C   UNL A   1      31.744  27.824  22.679  1.00  0.00     0.182 C 
ATOM     20  C   UNL A   1      31.873  29.330  22.376  1.00  0.00     0.293 C 
ATOM     21  O   UNL A   1      30.666  27.571  23.589  1.00  0.00    -0.366 OA
ATOM     22  N   UNL A   1      30.624  29.948  21.906  1.00  0.00    -0.342 N 
ATOM     23  C   UNL A   1      29.433  28.139  23.126  1.00  0.00     0.222 C 
ATOM     24  C   UNL A   1      29.570  29.650  22.895  1.00  0.00     0.289 C 
ATOM     25  H   UNL A   1      30.367  29.562  20.998  1.00  0.00     0.346 HD
ATOM     26  H   UNL A   1      30.743  30.957  21.807  1.00  0.00     0.346 HD
ENDBRANCH  18  19
ENDBRANCH  15  18
ENDBRANCH  11  14
ENDBRANCH   5   8
ENDBRANCH   3   4
ENDBRANCH   2   3
ENDBRANCH   1   2
BRANCH   1  27
ATOM     27  C   UNL A   1      31.405  30.353  26.088  1.00  0.00     0.002 C 
BRANCH  27  28
ATOM     28  C   UNL A   1      31.316  31.821  26.514  1.00  0.00     0.021 C 
BRANCH  28  29
ATOM     29  C   UNL A   1      32.645  32.474  26.877  1.00  0.00     0.116 C 
BRANCH  29  30
ATOM     30  N   UNL A   1      32.476  33.828  27.371  1.00  0.00    -0.352 N 
ATOM     31  C   UNL A   1      33.094  34.451  28.423  1.00  0.00     0.251 C 
ATOM     32  H   UNL A   1      31.822  34.376  26.880  1.00  0.00     0.163 HD
ATOM     33  O   UNL A   1      32.688  35.549  28.808  1.00  0.00    -0.269 OA
BRANCH  31  34
ATOM     34  C   UNL A   1      34.242  33.820  29.111  1.00  0.00     0.039 A 
ATOM     35  C   UNL A   1      35.537  34.216  28.757  1.00  0.00     0.014 A 
ATOM     36  C   UNL A   1      34.058  32.801  30.052  1.00  0.00     0.014 A 
ATOM     37  C   UNL A   1      36.642  33.609  29.358  1.00  0.00     0.010 A 
ATOM     38  C   UNL A   1      35.160  32.239  30.696  1.00  0.00     0.010 A 
ATOM     39  C   UNL A   1      36.463  32.620  30.338  1.00  0.00    -0.014 A 
BRANCH  39  40
ATOM     40  C   UNL A   1      37.626  31.929  30.948  1.00  0.00     0.031 A 
ATOM     41  C   UNL A   1      38.068  32.297  32.339  1.00  0.00     0.074 A 
ATOM     42  C   UNL A   1      38.307  31.003  30.248  1.00  0.00     0.049 A 
ATOM     43  N   UNL A   1      39.089  31.854  33.030  1.00  0.00    -0.248 NA
ATOM     44  C   UNL A   1      37.272  33.319  33.035  1.00  0.00     0.031 C 
ATOM     45  C   UNL A   1      38.001  30.585  28.879  1.00  0.00     0.029 A 
ATOM     46  N   UNL A   1      39.403  30.251  30.589  1.00  0.00    -0.354 N 
ATOM     47  C   UNL A   1      39.067  32.557  34.228  1.00  0.00     0.074 A 
ATOM     48  C   UNL A   1      37.961  33.487  34.154  1.00  0.00     0.031 C 
ATOM     49  C   UNL A   1      38.879  29.640  28.503  1.00  0.00     0.029 A 
ATOM     50  C   UNL A   1      39.821  29.403  29.593  1.00  0.00     0.049 A 
ATOM     51  H   UNL A   1      39.846  30.313  31.466  1.00  0.00     0.167 HD
ATOM     52  C   UNL A   1      39.882  32.424  35.302  1.00  0.00     0.037 A 
ATOM     53  C   UNL A   1      40.851  28.535  29.565  1.00  0.00     0.037 A 
ATOM     54  C   UNL A   1      40.956  31.471  35.392  1.00  0.00     0.049 A 
ATOM     55  C   UNL A   1      41.721  28.385  30.783  1.00  0.00     0.074 A 
ATOM     56  C   UNL A   1      41.806  31.224  36.456  1.00  0.00     0.029 A 
ATOM     57  N   UNL A   1      41.322  30.601  34.377  1.00  0.00    -0.354 N 
ATOM     58  N   UNL A   1      41.657  29.017  31.929  1.00  0.00    -0.248 NA
ATOM     59  C   UNL A   1      42.801  27.389  30.707  1.00  0.00     0.031 C 
ATOM     60  C   UNL A   1      42.706  30.222  36.074  1.00  0.00     0.029 A 
ATOM     61  C   UNL A   1      42.390  29.819  34.786  1.00  0.00     0.049 A 
ATOM     62  H   UNL A   1      40.888  30.546  33.495  1.00  0.00     0.167 HD
ATOM     63  C   UNL A   1      42.663  28.476  32.720  1.00  0.00     0.074 A 
ATOM     64  C   UNL A   1      43.316  27.457  31.926  1.00  0.00     0.031 C 
ATOM     65  C   UNL A   1      43.014  28.796  33.990  1.00  0.00     0.037 A 
BRANCH  52  66
ATOM     66  C   UNL A   1      39.637  33.330  36.473  1.00  0.00     0.064 A 
ATOM     67  C   UNL A   1      40.266  34.580  36.578  1.00  0.00     0.173 A 
ATOM     68  C   UNL A   1      38.740  32.958  37.486  1.00  0.00     0.173 A 
ATOM     69  F   UNL A   1      41.142  34.976  35.643  1.00  0.00    -0.203 F 
ATOM     70  C   UNL A   1      40.026  35.413  37.669  1.00  0.00     0.198 A 
ATOM     71  C   UNL A   1      38.483  33.805  38.561  1.00  0.00     0.198 A 
ATOM     72  F   UNL A   1      38.111  31.775  37.431  1.00  0.00    -0.203 F 
ATOM     73  F   UNL A   1      40.674  36.582  37.772  1.00  0.00    -0.200 F 
ATOM     74  C   UNL A   1      39.131  35.028  38.655  1.00  0.00     0.200 A 
ATOM     75  F   UNL A   1      37.609  33.437  39.508  1.00  0.00    -0.200 F 
ATOM     76  F   UNL A   1      38.898  35.832  39.701  1.00  0.00    -0.200 F 
ENDBRANCH  52  66
BRANCH  53  77
ATOM     77  C   UNL A   1      41.092  27.710  28.354  1.00  0.00     0.064 A 
ATOM     78  C   UNL A   1      40.462  26.468  28.194  1.00  0.00     0.173 A 
ATOM     79  C   UNL A   1      41.959  28.139  27.339  1.00  0.00     0.173 A 
ATOM     80  F   UNL A   1      39.640  26.007  29.148  1.00  0.00    -0.203 F 
ATOM     81  C   UNL A   1      40.706  25.676  27.074  1.00  0.00     0.198 A 
ATOM     82  C   UNL A   1      42.184  27.358  26.208  1.00  0.00     0.198 A 
ATOM     83  F   UNL A   1      42.583  29.322  27.444  1.00  0.00    -0.203 F 
ATOM     84  F   UNL A   1      40.125  24.474  26.967  1.00  0.00    -0.200 F 
ATOM     85  C   UNL A   1      41.563  26.124  26.080  1.00  0.00     0.200 A 
ATOM     86  F   UNL A   1      43.004  27.797  25.244  1.00  0.00    -0.200 F 
ATOM     87  F   UNL A   1      41.798  25.362  25.003  1.00  0.00    -0.200 F 
ENDBRANCH  53  77
BRANCH  65  88
ATOM     88  C   UNL A   1      44.124  28.006  34.615  1.00  0.00     0.064 A 
ATOM     89  C   UNL A   1      45.457  28.434  34.554  1.00  0.00     0.173 A 
ATOM     90  C   UNL A   1      43.842  26.824  35.318  1.00  0.00     0.173 A 
ATOM     91  F   UNL A   1      45.777  29.549  33.880  1.00  0.00    -0.203 F 
ATOM     92  C   UNL A   1      46.473  27.694  35.153  1.00  0.00     0.198 A 
ATOM     93  C   UNL A   1      44.857  26.102  35.938  1.00  0.00     0.198 A 
ATOM     94  F   UNL A   1      42.581  26.376  35.410  1.00  0.00    -0.203 F 
ATOM     95  F   UNL A   1      47.747  28.098  35.046  1.00  0.00    -0.200 F 
ATOM     96  C   UNL A   1      46.172  26.533  35.851  1.00  0.00     0.200 A 
ATOM     97  F   UNL A   1      44.562  24.985  36.620  1.00  0.00    -0.200 F 
ATOM     98  F   UNL A   1      47.150  25.826  36.432  1.00  0.00    -0.200 F 
ENDBRANCH  65  88
ENDBRANCH  39  40
ENDBRANCH  31  34
ENDBRANCH  29  30
ENDBRANCH  28  29
ENDBRANCH  27  28
ENDBRANCH   1  27
TORSDOF 16
ENDMDL
MODEL 3
REMARK VINA RESULT:     -11.8      0.690      7.253
REMARK SMILES C[C@@]1(C(=O)NCCCCCCNC(=O)c2ccc(-c3c4nc(c(-c5c(F)c(F)c(F)c(F)c5F)c5ccc([nH]5)c(-c5c(F)c(F)c(F)c(F)c5F)c5nc(c(-c6c(F)c(F)c(F)c(F)c6F)c6ccc3[nH]6)C=C5)C=C4)cc2)COC[C@H]1NC(=O)C[C@@H]1C[NH2+]CCO1
REMARK SMILES IDX 8 1 7 2 6 3 5 4 3 5 4 6 2 8 1 9 78 10 81 11 79 12 80 13
REMARK SMILES IDX 82 14 83 15 84 17 85 18 86 19 87 20 91 21 88 22 90 23 89 24
REMARK SMILES IDX 9 27 10 28 11 29 12 30 13 31 14 33 15 34 16 35 77 36 17 37
REMARK SMILES IDX 76 38 18 39 19 40 20 41 70 42 21 43 75 44 69 45 71 46 22 47
REMARK SMILES IDX 74 48 68 49 67 50 23 52 55 53 35 54 54 55 36 56 39 57 53 58
REMARK SMILES IDX 72 59 37 60 38 61 52 63 73 64 40 65 24 66 25 67 33 68 26 69
REMARK SMILES IDX 27 70 31 71 34 72 28 73 29 74 32 75 30 76 56 77 57 78 65 79
REMARK SMILES IDX 58 80 59 81 63 82 66 83 60 84 61 85 64 86 62 87 41 88 42 89
REMARK SMILES IDX 50 90 43 91 44 92 48 93 51 94 45 95 46 96 49 97 47 98
REMARK H PARENT 5 7 82 16 88 25 88 26 12 32 71 51 39 62
REMARK Flexibility Score: inf
ROOT
ATOM      1  C   UNL A   1      32.946  30.061  26.816  1.00  0.00     0.002 C 
ENDROOT
BRANCH   1   2
ATOM      2  C   UNL A   1      32.938  28.609  27.308  1.00  0.00     0.021 C 
BRANCH   2   3
ATOM      3  C   UNL A   1      32.536  27.568  26.263  1.00  0.00     0.116 C 
BRANCH   3   4
ATOM      4  N   UNL A   1      33.595  26.628  25.964  1.00  0.00    -0.355 N 
ATOM      5  C   UNL A   1      33.749  25.647  25.040  1.00  0.00     0.230 C 
ATOM      6  O   UNL A   1      34.891  25.175  24.984  1.00  0.00    -0.274 OA
ATOM      7  H   UNL A   1      34.373  26.721  26.561  1.00  0.00     0.163 HD
BRANCH   5   8
ATOM      8  C   UNL A   1      32.643  25.138  24.086  1.00  0.00     0.092 C 
ATOM      9  C   UNL A   1      31.647  24.326  24.948  1.00  0.00     0.026 C 
ATOM     10  C   UNL A   1      33.267  24.209  23.049  1.00  0.00     0.179 C 
ATOM     11  C   UNL A   1      31.951  26.239  23.258  1.00  0.00     0.125 C 
ATOM     12  O   UNL A   1      33.352  24.922  21.812  1.00  0.00    -0.378 OA
ATOM     13  C   UNL A   1      32.325  25.915  21.806  1.00  0.00     0.186 C 
BRANCH  11  14
ATOM     14  N   UNL A   1      30.490  26.296  23.382  1.00  0.00    -0.350 N 
ATOM     15  C   UNL A   1      29.625  27.333  23.519  1.00  0.00     0.223 C 
ATOM     16  H   UNL A   1      30.055  25.413  23.361  1.00  0.00     0.163 HD
ATOM     17  O   UNL A   1      28.420  27.072  23.469  1.00  0.00    -0.275 OA
BRANCH  15  18
ATOM     18  C   UNL A   1      30.103  28.762  23.663  1.00  0.00     0.138 C 
BRANCH  18  19
ATOM     19  C   UNL A   1      29.181  29.836  23.069  1.00  0.00     0.182 C 
ATOM     20  C   UNL A   1      29.626  30.241  21.650  1.00  0.00     0.293 C 
ATOM     21  O   UNL A   1      29.106  30.977  23.932  1.00  0.00    -0.366 OA
ATOM     22  N   UNL A   1      28.803  31.305  21.054  1.00  0.00    -0.342 N 
ATOM     23  C   UNL A   1      28.280  32.011  23.379  1.00  0.00     0.222 C 
ATOM     24  C   UNL A   1      28.782  32.442  21.995  1.00  0.00     0.289 C 
ATOM     25  H   UNL A   1      27.855  30.964  20.899  1.00  0.00     0.346 HD
ATOM     26  H   UNL A   1      29.194  31.595  20.156  1.00  0.00     0.346 HD
ENDBRANCH  18  19
ENDBRANCH  15  18
ENDBRANCH  11  14
ENDBRANCH   5   8
ENDBRANCH   3   4
ENDBRANCH   2   3
ENDBRANCH   1   2
BRANCH   1  27
ATOM     27  C   UNL A   1      31.576  30.660  26.480  1.00  0.00     0.002 C 
BRANCH  27  28
ATOM     28  C   UNL A   1      31.433  32.167  26.705  1.00  0.00     0.021 C 
BRANCH  28  29
ATOM     29  C   UNL A   1      32.734  32.909  26.991  1.00  0.00     0.116 C 
BRANCH  29  30
ATOM     30  N   UNL A   1      32.505  34.210  27.591  1.00  0.00    -0.352 N 
ATOM     31  C   UNL A   1      33.076  34.764  28.707  1.00  0.00     0.251 C 
ATOM     32  H   UNL A   1      31.843  34.776  27.131  1.00  0.00     0.163 HD
ATOM     33  O   UNL A   1      32.622  35.811  29.171  1.00  0.00    -0.269 OA
BRANCH  31  34
ATOM     34  C   UNL A   1      34.230  34.117  29.370  1.00  0.00     0.039 A 
ATOM     35  C   UNL A   1      35.522  34.471  28.964  1.00  0.00     0.014 A 
ATOM     36  C   UNL A   1      34.052  33.122  30.337  1.00  0.00     0.014 A 
ATOM     37  C   UNL A   1      36.630  33.847  29.541  1.00  0.00     0.010 A 
ATOM     38  C   UNL A   1      35.160  32.543  30.955  1.00  0.00     0.010 A 
ATOM     39  C   UNL A   1      36.459  32.883  30.546  1.00  0.00    -0.014 A 
BRANCH  39  40
ATOM     40  C   UNL A   1      37.624  32.174  31.132  1.00  0.00     0.031 A 
ATOM     41  C   UNL A   1      38.101  32.534  32.513  1.00  0.00     0.074 A 
ATOM     42  C   UNL A   1      38.276  31.238  30.417  1.00  0.00     0.049 A 
ATOM     43  N   UNL A   1      39.129  32.075  33.183  1.00  0.00    -0.248 NA
ATOM     44  C   UNL A   1      37.335  33.567  33.227  1.00  0.00     0.031 C 
ATOM     45  C   UNL A   1      37.936  30.826  29.055  1.00  0.00     0.029 A 
ATOM     46  N   UNL A   1      39.368  30.469  30.735  1.00  0.00    -0.354 N 
ATOM     47  C   UNL A   1      39.143  32.777  34.381  1.00  0.00     0.074 A 
ATOM     48  C   UNL A   1      38.050  33.723  34.331  1.00  0.00     0.031 C 
ATOM     49  C   UNL A   1      38.791  29.868  28.660  1.00  0.00     0.029 A 
ATOM     50  C   UNL A   1      39.752  29.616  29.730  1.00  0.00     0.049 A 
ATOM     51  H   UNL A   1      39.830  30.524  31.602  1.00  0.00     0.167 HD
ATOM     52  C   UNL A   1      39.978  32.631  35.438  1.00  0.00     0.037 A 
ATOM     53  C   UNL A   1      40.767  28.732  29.680  1.00  0.00     0.037 A 
ATOM     54  C   UNL A   1      41.039  31.661  35.505  1.00  0.00     0.049 A 
ATOM     55  C   UNL A   1      41.661  28.567  30.880  1.00  0.00     0.074 A 
ATOM     56  C   UNL A   1      41.907  31.400  36.551  1.00  0.00     0.029 A 
ATOM     57  N   UNL A   1      41.370  30.786  34.482  1.00  0.00    -0.354 N 
ATOM     58  N   UNL A   1      41.630  29.199  32.027  1.00  0.00    -0.248 NA
ATOM     59  C   UNL A   1      42.723  27.556  30.780  1.00  0.00     0.031 C 
ATOM     60  C   UNL A   1      42.783  30.385  36.150  1.00  0.00     0.029 A 
ATOM     61  C   UNL A   1      42.435  29.988  34.869  1.00  0.00     0.049 A 
ATOM     62  H   UNL A   1      40.917  30.739  33.609  1.00  0.00     0.167 HD
ATOM     63  C   UNL A   1      42.644  28.643  32.796  1.00  0.00     0.074 A 
ATOM     64  C   UNL A   1      43.265  27.614  31.989  1.00  0.00     0.031 C 
ATOM     65  C   UNL A   1      43.026  28.956  34.059  1.00  0.00     0.037 A 
BRANCH  52  66
ATOM     66  C   UNL A   1      39.771  33.539  36.615  1.00  0.00     0.064 A 
ATOM     67  C   UNL A   1      40.436  34.770  36.717  1.00  0.00     0.173 A 
ATOM     68  C   UNL A   1      38.875  33.189  37.636  1.00  0.00     0.173 A 
ATOM     69  F   UNL A   1      41.313  35.144  35.774  1.00  0.00    -0.203 F 
ATOM     70  C   UNL A   1      40.232  35.606  37.812  1.00  0.00     0.198 A 
ATOM     71  C   UNL A   1      38.653  34.039  38.716  1.00  0.00     0.198 A 
ATOM     72  F   UNL A   1      38.211  32.025  37.584  1.00  0.00    -0.203 F 
ATOM     73  F   UNL A   1      40.914  36.756  37.912  1.00  0.00    -0.200 F 
ATOM     74  C   UNL A   1      39.336  35.243  38.807  1.00  0.00     0.200 A 
ATOM     75  F   UNL A   1      37.780  33.693  39.671  1.00  0.00    -0.200 F 
ATOM     76  F   UNL A   1      39.137  36.050  39.858  1.00  0.00    -0.200 F 
ENDBRANCH  52  66
BRANCH  53  77
ATOM     77  C   UNL A   1      40.971  27.905  28.463  1.00  0.00     0.064 A 
ATOM     78  C   UNL A   1      41.806  28.345  27.428  1.00  0.00     0.173 A 
ATOM     79  C   UNL A   1      40.331  26.667  28.307  1.00  0.00     0.173 A 
ATOM     80  F   UNL A   1      42.422  29.532  27.524  1.00  0.00    -0.203 F 
ATOM     81  C   UNL A   1      41.978  27.587  26.271  1.00  0.00     0.198 A 
ATOM     82  C   UNL A   1      40.524  25.899  27.161  1.00  0.00     0.198 A 
ATOM     83  F   UNL A   1      39.525  26.200  29.272  1.00  0.00    -0.203 F 
ATOM     84  F   UNL A   1      42.748  28.052  25.277  1.00  0.00    -0.200 F 
ATOM     85  C   UNL A   1      41.341  26.363  26.141  1.00  0.00     0.200 A 
ATOM     86  F   UNL A   1      39.915  24.710  27.043  1.00  0.00    -0.200 F 
ATOM     87  F   UNL A   1      41.507  25.634  25.029  1.00  0.00    -0.200 F 
ENDBRANCH  53  77
BRANCH  65  88
ATOM     88  C   UNL A   1      44.137  28.149  34.660  1.00  0.00     0.064 A 
ATOM     89  C   UNL A   1      45.474  28.562  34.582  1.00  0.00     0.173 A 
ATOM     90  C   UNL A   1      43.852  26.965  35.358  1.00  0.00     0.173 A 
ATOM     91  F   UNL A   1      45.796  29.679  33.912  1.00  0.00    -0.203 F 
ATOM     92  C   UNL A   1      46.491  27.807  35.159  1.00  0.00     0.198 A 
ATOM     93  C   UNL A   1      44.869  26.226  35.956  1.00  0.00     0.198 A 
ATOM     94  F   UNL A   1      42.588  26.530  35.466  1.00  0.00    -0.203 F 
ATOM     95  F   UNL A   1      47.767  28.198  35.036  1.00  0.00    -0.200 F 
ATOM     96  C   UNL A   1      46.187  26.643  35.852  1.00  0.00     0.200 A 
ATOM     97  F   UNL A   1      44.572  25.107  36.634  1.00  0.00    -0.200 F 
ATOM     98  F   UNL A   1      47.166  25.920  36.412  1.00  0.00    -0.200 F 
ENDBRANCH  65  88
ENDBRANCH  39  40
ENDBRANCH  31  34
ENDBRANCH  29  30
ENDBRANCH  28  29
ENDBRANCH  27  28
ENDBRANCH   1  27
TORSDOF 16
ENDMDL
