MODEL 1
REMARK VINA RESULT:     -11.6      0.000      0.000
REMARK SMILES CCOC(=O)[C@H](C)NC(=O)N1CC[C@H](C(=O)NCCCCCCNC(=O)c2ccc(-c3c4nc(c(-c5c(F)c(F)c(F)c(F)c5F)c5ccc([nH]5)c(-c5c(F)c(F)c(F)c(F)c5F)c5nc(c(-c6c(F)c(F)c(F)c(F)c6F)c6ccc3[nH]6)C=C5)C=C4)cc2)[C@@H]1C
REMARK SMILES IDX 19 1 18 2 17 3 15 4 16 5 14 7 11 8 12 9 90 10 13 11 91 12
REMARK SMILES IDX 9 13 8 14 10 16 6 17 7 18 4 19 5 20 3 21 2 22 1 23 20 24
REMARK SMILES IDX 21 25 22 26 23 27 24 28 25 29 26 31 27 32 28 33 89 34 29 35
REMARK SMILES IDX 88 36 30 37 31 38 32 39 82 40 33 41 87 42 81 43 83 44 34 45
REMARK SMILES IDX 86 46 80 47 79 48 35 50 67 51 47 52 66 53 48 54 51 55 65 56
REMARK SMILES IDX 84 57 49 58 50 59 64 61 85 62 52 63 36 64 37 65 45 66 38 67
REMARK SMILES IDX 39 68 43 69 46 70 40 71 41 72 44 73 42 74 68 75 69 76 77 77
REMARK SMILES IDX 70 78 71 79 75 80 78 81 72 82 73 83 76 84 74 85 53 86 54 87
REMARK SMILES IDX 62 88 55 89 56 90 60 91 63 92 57 93 58 94 61 95 59 96
REMARK H PARENT 17 6 8 15 24 30 83 49 51 60
REMARK Flexibility Score: inf
ROOT
ATOM      1  C   UNL A   1      34.991  21.665  26.136  1.00  0.00     0.021 C 
ENDROOT
BRANCH   1   2
ATOM      2  C   UNL A   1      33.597  21.224  26.553  1.00  0.00     0.116 C 
BRANCH   2   3
ATOM      3  N   UNL A   1      32.784  22.288  27.098  1.00  0.00    -0.356 N 
ATOM      4  C   UNL A   1      32.093  23.274  26.449  1.00  0.00     0.225 C 
ATOM      5  O   UNL A   1      31.487  24.071  27.163  1.00  0.00    -0.275 OA
ATOM      6  H   UNL A   1      32.719  22.306  28.081  1.00  0.00     0.163 HD
BRANCH   4   7
ATOM      7  C   UNL A   1      32.210  23.419  24.928  1.00  0.00     0.102 C 
ATOM      8  N   UNL A   1      32.424  25.140  23.284  1.00  0.00    -0.321 N 
ATOM      9  C   UNL A   1      31.029  25.090  23.610  1.00  0.00     0.122 C 
ATOM     10  C   UNL A   1      33.205  24.476  24.349  1.00  0.00     0.096 C 
ATOM     11  C   UNL A   1      30.878  23.718  24.205  1.00  0.00     0.037 C 
ATOM     12  C   UNL A   1      33.752  25.527  25.318  1.00  0.00     0.032 C 
BRANCH   8  13
ATOM     13  C   UNL A   1      32.826  26.044  22.355  1.00  0.00     0.318 C 
ATOM     14  N   UNL A   1      32.402  27.314  22.421  1.00  0.00    -0.325 N 
ATOM     15  H   UNL A   1      32.555  27.836  21.599  1.00  0.00     0.166 HD
ATOM     16  O   UNL A   1      33.656  25.766  21.488  1.00  0.00    -0.249 OA
BRANCH  14  17
ATOM     17  C   UNL A   1      31.755  28.062  23.496  1.00  0.00     0.190 C 
ATOM     18  C   UNL A   1      32.712  29.109  24.052  1.00  0.00     0.043 C 
BRANCH  17  19
ATOM     19  C   UNL A   1      30.448  28.688  22.995  1.00  0.00     0.328 C 
ATOM     20  O   UNL A   1      29.984  28.519  21.875  1.00  0.00    -0.250 OA
BRANCH  19  21
ATOM     21  O   UNL A   1      29.937  29.544  23.928  1.00  0.00    -0.464 OA
BRANCH  21  22
ATOM     22  C   UNL A   1      29.348  30.759  23.451  1.00  0.00     0.229 C 
ATOM     23  C   UNL A   1      27.832  30.687  23.438  1.00  0.00     0.049 C 
ENDBRANCH  21  22
ENDBRANCH  19  21
ENDBRANCH  17  19
ENDBRANCH  14  17
ENDBRANCH   8  13
ENDBRANCH   4   7
ENDBRANCH   2   3
ENDBRANCH   1   2
BRANCH   1  24
ATOM     24  C   UNL A   1      35.637  20.839  25.019  1.00  0.00     0.002 C 
BRANCH  24  25
ATOM     25  C   UNL A   1      37.117  21.108  24.731  1.00  0.00     0.002 C 
BRANCH  25  26
ATOM     26  C   UNL A   1      38.079  19.938  24.951  1.00  0.00     0.021 C 
BRANCH  26  27
ATOM     27  C   UNL A   1      39.173  20.169  25.982  1.00  0.00     0.116 C 
BRANCH  27  28
ATOM     28  N   UNL A   1      40.200  19.144  25.956  1.00  0.00    -0.352 N 
ATOM     29  C   UNL A   1      41.561  19.275  26.083  1.00  0.00     0.251 C 
ATOM     30  H   UNL A   1      39.875  18.223  25.830  1.00  0.00     0.163 HD
ATOM     31  O   UNL A   1      42.295  18.313  25.901  1.00  0.00    -0.269 OA
BRANCH  29  32
ATOM     32  C   UNL A   1      42.141  20.595  26.408  1.00  0.00     0.039 A 
ATOM     33  C   UNL A   1      42.537  21.428  25.359  1.00  0.00     0.014 A 
ATOM     34  C   UNL A   1      42.290  21.013  27.735  1.00  0.00     0.014 A 
ATOM     35  C   UNL A   1      43.033  22.702  25.639  1.00  0.00     0.010 A 
ATOM     36  C   UNL A   1      42.707  22.312  28.008  1.00  0.00     0.010 A 
ATOM     37  C   UNL A   1      43.089  23.168  26.963  1.00  0.00    -0.014 A 
BRANCH  37  38
ATOM     38  C   UNL A   1      43.552  24.545  27.271  1.00  0.00     0.031 A 
ATOM     39  C   UNL A   1      42.588  25.562  27.813  1.00  0.00     0.074 A 
ATOM     40  C   UNL A   1      44.827  24.890  27.012  1.00  0.00     0.049 A 
ATOM     41  N   UNL A   1      42.789  26.825  28.097  1.00  0.00    -0.248 NA
ATOM     42  C   UNL A   1      41.207  25.108  28.041  1.00  0.00     0.031 C 
ATOM     43  C   UNL A   1      45.844  24.005  26.444  1.00  0.00     0.029 A 
ATOM     44  N   UNL A   1      45.485  26.082  27.186  1.00  0.00    -0.354 N 
ATOM     45  C   UNL A   1      41.562  27.315  28.524  1.00  0.00     0.074 A 
ATOM     46  C   UNL A   1      40.608  26.233  28.405  1.00  0.00     0.031 C 
ATOM     47  C   UNL A   1      47.002  24.674  26.340  1.00  0.00     0.029 A 
ATOM     48  C   UNL A   1      46.801  26.048  26.793  1.00  0.00     0.049 A 
ATOM     49  H   UNL A   1      45.055  26.886  27.557  1.00  0.00     0.167 HD
ATOM     50  C   UNL A   1      41.263  28.548  28.997  1.00  0.00     0.037 A 
ATOM     51  C   UNL A   1      47.736  27.016  26.790  1.00  0.00     0.037 A 
ATOM     52  C   UNL A   1      42.221  29.616  29.128  1.00  0.00     0.049 A 
ATOM     53  C   UNL A   1      47.374  28.385  27.303  1.00  0.00     0.074 A 
ATOM     54  C   UNL A   1      42.034  30.884  29.650  1.00  0.00     0.029 A 
ATOM     55  N   UNL A   1      43.547  29.542  28.725  1.00  0.00    -0.354 N 
ATOM     56  N   UNL A   1      46.230  28.816  27.773  1.00  0.00    -0.248 NA
ATOM     57  C   UNL A   1      48.439  29.397  27.291  1.00  0.00     0.031 C 
ATOM     58  C   UNL A   1      43.229  31.596  29.506  1.00  0.00     0.029 A 
ATOM     59  C   UNL A   1      44.181  30.752  28.958  1.00  0.00     0.049 A 
ATOM     60  H   UNL A   1      43.974  28.746  28.332  1.00  0.00     0.167 HD
ATOM     61  C   UNL A   1      46.442  30.139  28.140  1.00  0.00     0.074 A 
ATOM     62  C   UNL A   1      47.831  30.433  27.852  1.00  0.00     0.031 C 
ATOM     63  C   UNL A   1      45.566  31.029  28.669  1.00  0.00     0.037 A 
BRANCH  50  64
ATOM     64  C   UNL A   1      39.840  28.813  29.400  1.00  0.00     0.064 A 
ATOM     65  C   UNL A   1      38.895  29.315  28.490  1.00  0.00     0.173 A 
ATOM     66  C   UNL A   1      39.405  28.536  30.705  1.00  0.00     0.173 A 
ATOM     67  F   UNL A   1      39.257  29.607  27.232  1.00  0.00    -0.203 F 
ATOM     68  C   UNL A   1      37.581  29.561  28.883  1.00  0.00     0.198 A 
ATOM     69  C   UNL A   1      38.082  28.750  31.083  1.00  0.00     0.198 A 
ATOM     70  F   UNL A   1      40.263  28.049  31.615  1.00  0.00    -0.203 F 
ATOM     71  F   UNL A   1      36.714  30.096  28.012  1.00  0.00    -0.200 F 
ATOM     72  C   UNL A   1      37.174  29.272  30.175  1.00  0.00     0.200 A 
ATOM     73  F   UNL A   1      37.687  28.455  32.330  1.00  0.00    -0.200 F 
ATOM     74  F   UNL A   1      35.909  29.504  30.550  1.00  0.00    -0.200 F 
ENDBRANCH  50  64
BRANCH  51  75
ATOM     75  C   UNL A   1      49.109  26.720  26.303  1.00  0.00     0.064 A 
ATOM     76  C   UNL A   1      49.472  26.970  24.972  1.00  0.00     0.173 A 
ATOM     77  C   UNL A   1      50.085  26.181  27.155  1.00  0.00     0.173 A 
ATOM     78  F   UNL A   1      48.569  27.466  24.114  1.00  0.00    -0.203 F 
ATOM     79  C   UNL A   1      50.752  26.673  24.506  1.00  0.00     0.198 A 
ATOM     80  C   UNL A   1      51.374  25.917  26.696  1.00  0.00     0.198 A 
ATOM     81  F   UNL A   1      49.793  25.930  28.439  1.00  0.00    -0.203 F 
ATOM     82  F   UNL A   1      51.057  26.878  23.218  1.00  0.00    -0.200 F 
ATOM     83  C   UNL A   1      51.704  26.154  25.371  1.00  0.00     0.200 A 
ATOM     84  F   UNL A   1      52.295  25.430  27.539  1.00  0.00    -0.200 F 
ATOM     85  F   UNL A   1      52.936  25.875  24.925  1.00  0.00    -0.200 F 
ENDBRANCH  51  75
BRANCH  63  86
ATOM     86  C   UNL A   1      46.091  32.396  29.006  1.00  0.00     0.064 A 
ATOM     87  C   UNL A   1      46.027  33.459  28.094  1.00  0.00     0.173 A 
ATOM     88  C   UNL A   1      46.627  32.655  30.278  1.00  0.00     0.173 A 
ATOM     89  F   UNL A   1      45.538  33.262  26.860  1.00  0.00    -0.203 F 
ATOM     90  C   UNL A   1      46.510  34.721  28.430  1.00  0.00     0.198 A 
ATOM     91  C   UNL A   1      47.075  33.927  30.623  1.00  0.00     0.198 A 
ATOM     92  F   UNL A   1      46.704  31.675  31.192  1.00  0.00    -0.203 F 
ATOM     93  F   UNL A   1      46.488  35.708  27.524  1.00  0.00    -0.200 F 
ATOM     94  C   UNL A   1      47.024  34.956  29.697  1.00  0.00     0.200 A 
ATOM     95  F   UNL A   1      47.554  34.155  31.854  1.00  0.00    -0.200 F 
ATOM     96  F   UNL A   1      47.477  36.175  30.022  1.00  0.00    -0.200 F 
ENDBRANCH  63  86
ENDBRANCH  37  38
ENDBRANCH  29  32
ENDBRANCH  27  28
ENDBRANCH  26  27
ENDBRANCH  25  26
ENDBRANCH  24  25
ENDBRANCH   1  24
TORSDOF 18
ENDMDL
MODEL 2
REMARK VINA RESULT:     -11.2      6.209     10.785
REMARK SMILES CCOC(=O)[C@H](C)NC(=O)N1CC[C@H](C(=O)NCCCCCCNC(=O)c2ccc(-c3c4nc(c(-c5c(F)c(F)c(F)c(F)c5F)c5ccc([nH]5)c(-c5c(F)c(F)c(F)c(F)c5F)c5nc(c(-c6c(F)c(F)c(F)c(F)c6F)c6ccc3[nH]6)C=C5)C=C4)cc2)[C@@H]1C
REMARK SMILES IDX 19 1 18 2 17 3 15 4 16 5 14 7 11 8 12 9 90 10 13 11 91 12
REMARK SMILES IDX 9 13 8 14 10 16 6 17 7 18 4 19 5 20 3 21 2 22 1 23 20 24
REMARK SMILES IDX 21 25 22 26 23 27 24 28 25 29 26 31 27 32 28 33 89 34 29 35
REMARK SMILES IDX 88 36 30 37 31 38 32 39 82 40 33 41 87 42 81 43 83 44 34 45
REMARK SMILES IDX 86 46 80 47 79 48 35 50 67 51 47 52 66 53 48 54 51 55 65 56
REMARK SMILES IDX 84 57 49 58 50 59 64 61 85 62 52 63 36 64 37 65 45 66 38 67
REMARK SMILES IDX 39 68 43 69 46 70 40 71 41 72 44 73 42 74 68 75 69 76 77 77
REMARK SMILES IDX 70 78 71 79 75 80 78 81 72 82 73 83 76 84 74 85 53 86 54 87
REMARK SMILES IDX 62 88 55 89 56 90 60 91 63 92 57 93 58 94 61 95 59 96
REMARK H PARENT 17 6 8 15 24 30 83 49 51 60
REMARK Flexibility Score: inf
ROOT
ATOM      1  C   UNL A   1      35.017  32.304  27.920  1.00  0.00     0.021 C 
ENDROOT
BRANCH   1   2
ATOM      2  C   UNL A   1      33.889  31.330  27.619  1.00  0.00     0.116 C 
BRANCH   2   3
ATOM      3  N   UNL A   1      34.310  29.947  27.561  1.00  0.00    -0.356 N 
ATOM      4  C   UNL A   1      33.953  28.966  26.679  1.00  0.00     0.225 C 
ATOM      5  O   UNL A   1      34.454  27.859  26.868  1.00  0.00    -0.275 OA
ATOM      6  H   UNL A   1      34.948  29.673  28.260  1.00  0.00     0.163 HD
BRANCH   4   7
ATOM      7  C   UNL A   1      32.882  29.240  25.618  1.00  0.00     0.102 C 
ATOM      8  N   UNL A   1      31.322  28.037  24.266  1.00  0.00    -0.321 N 
ATOM      9  C   UNL A   1      32.582  27.925  23.592  1.00  0.00     0.122 C 
ATOM     10  C   UNL A   1      31.546  28.431  25.672  1.00  0.00     0.096 C 
ATOM     11  C   UNL A   1      33.362  29.077  24.159  1.00  0.00     0.037 C 
ATOM     12  C   UNL A   1      31.517  27.189  26.567  1.00  0.00     0.032 C 
BRANCH   8  13
ATOM     13  C   UNL A   1      30.244  27.438  23.699  1.00  0.00     0.318 C 
ATOM     14  N   UNL A   1      29.216  28.176  23.255  1.00  0.00    -0.325 N 
ATOM     15  H   UNL A   1      28.397  27.661  23.071  1.00  0.00     0.166 HD
ATOM     16  O   UNL A   1      30.207  26.226  23.485  1.00  0.00    -0.249 OA
BRANCH  14  17
ATOM     17  C   UNL A   1      29.098  29.609  22.995  1.00  0.00     0.190 C 
ATOM     18  C   UNL A   1      29.629  29.932  21.604  1.00  0.00     0.043 C 
BRANCH  17  19
ATOM     19  C   UNL A   1      27.644  30.062  23.174  1.00  0.00     0.328 C 
ATOM     20  O   UNL A   1      26.670  29.331  23.046  1.00  0.00    -0.250 OA
BRANCH  19  21
ATOM     21  O   UNL A   1      27.583  31.410  23.381  1.00  0.00    -0.464 OA
BRANCH  21  22
ATOM     22  C   UNL A   1      28.786  32.065  23.798  1.00  0.00     0.229 C 
ATOM     23  C   UNL A   1      29.007  33.370  23.055  1.00  0.00     0.049 C 
ENDBRANCH  21  22
ENDBRANCH  19  21
ENDBRANCH  17  19
ENDBRANCH  14  17
ENDBRANCH   8  13
ENDBRANCH   4   7
ENDBRANCH   2   3
ENDBRANCH   1   2
BRANCH   1  24
ATOM     24  C   UNL A   1      34.681  33.411  28.924  1.00  0.00     0.002 C 
BRANCH  24  25
ATOM     25  C   UNL A   1      34.827  34.855  28.433  1.00  0.00     0.002 C 
BRANCH  25  26
ATOM     26  C   UNL A   1      33.737  35.837  28.864  1.00  0.00     0.021 C 
BRANCH  26  27
ATOM     27  C   UNL A   1      32.608  35.247  29.697  1.00  0.00     0.116 C 
BRANCH  27  28
ATOM     28  N   UNL A   1      32.284  36.052  30.860  1.00  0.00    -0.352 N 
ATOM     29  C   UNL A   1      32.848  36.035  32.113  1.00  0.00     0.251 C 
ATOM     30  H   UNL A   1      31.557  36.704  30.734  1.00  0.00     0.163 HD
ATOM     31  O   UNL A   1      32.359  36.693  33.020  1.00  0.00    -0.269 OA
BRANCH  29  32
ATOM     32  C   UNL A   1      34.034  35.189  32.369  1.00  0.00     0.039 A 
ATOM     33  C   UNL A   1      35.297  35.699  32.060  1.00  0.00     0.014 A 
ATOM     34  C   UNL A   1      33.905  33.907  32.911  1.00  0.00     0.014 A 
ATOM     35  C   UNL A   1      36.435  34.944  32.347  1.00  0.00     0.010 A 
ATOM     36  C   UNL A   1      35.042  33.191  33.271  1.00  0.00     0.010 A 
ATOM     37  C   UNL A   1      36.319  33.699  32.986  1.00  0.00    -0.014 A 
BRANCH  37  38
ATOM     38  C   UNL A   1      37.523  32.914  33.357  1.00  0.00     0.031 A 
ATOM     39  C   UNL A   1      38.244  33.200  34.643  1.00  0.00     0.074 A 
ATOM     40  C   UNL A   1      37.996  31.981  32.509  1.00  0.00     0.049 A 
ATOM     41  N   UNL A   1      39.339  32.658  35.119  1.00  0.00    -0.248 NA
ATOM     42  C   UNL A   1      37.677  34.254  35.499  1.00  0.00     0.031 C 
ATOM     43  C   UNL A   1      37.410  31.645  31.211  1.00  0.00     0.029 A 
ATOM     44  N   UNL A   1      39.082  31.148  32.608  1.00  0.00    -0.354 N 
ATOM     45  C   UNL A   1      39.593  33.312  36.317  1.00  0.00     0.074 A 
ATOM     46  C   UNL A   1      38.577  34.331  36.469  1.00  0.00     0.031 C 
ATOM     47  C   UNL A   1      38.126  30.662  30.646  1.00  0.00     0.029 A 
ATOM     48  C   UNL A   1      39.247  30.326  31.520  1.00  0.00     0.049 A 
ATOM     49  H   UNL A   1      39.687  31.142  33.384  1.00  0.00     0.167 HD
ATOM     50  C   UNL A   1      40.571  33.067  37.222  1.00  0.00     0.037 A 
ATOM     51  C   UNL A   1      40.198  29.411  31.254  1.00  0.00     0.037 A 
ATOM     52  C   UNL A   1      41.570  32.040  37.072  1.00  0.00     0.049 A 
ATOM     53  C   UNL A   1      41.286  29.171  32.267  1.00  0.00     0.074 A 
ATOM     54  C   UNL A   1      42.568  31.672  37.956  1.00  0.00     0.029 A 
ATOM     55  N   UNL A   1      41.701  31.222  35.959  1.00  0.00    -0.354 N 
ATOM     56  N   UNL A   1      41.475  29.743  33.430  1.00  0.00    -0.248 NA
ATOM     57  C   UNL A   1      42.288  28.150  31.931  1.00  0.00     0.031 C 
ATOM     58  C   UNL A   1      43.341  30.675  37.353  1.00  0.00     0.029 A 
ATOM     59  C   UNL A   1      42.784  30.371  36.121  1.00  0.00     0.049 A 
ATOM     60  H   UNL A   1      41.112  31.242  35.171  1.00  0.00     0.167 HD
ATOM     61  C   UNL A   1      42.596  29.135  33.979  1.00  0.00     0.074 A 
ATOM     62  C   UNL A   1      43.036  28.136  33.025  1.00  0.00     0.031 C 
ATOM     63  C   UNL A   1      43.207  29.379  35.164  1.00  0.00     0.037 A 
BRANCH  50  64
ATOM     64  C   UNL A   1      40.614  33.931  38.451  1.00  0.00     0.064 A 
ATOM     65  C   UNL A   1      39.856  33.628  39.594  1.00  0.00     0.173 A 
ATOM     66  C   UNL A   1      41.445  35.060  38.499  1.00  0.00     0.173 A 
ATOM     67  F   UNL A   1      39.037  32.565  39.600  1.00  0.00    -0.203 F 
ATOM     68  C   UNL A   1      39.902  34.443  40.722  1.00  0.00     0.198 A 
ATOM     69  C   UNL A   1      41.515  35.853  39.643  1.00  0.00     0.198 A 
ATOM     70  F   UNL A   1      42.196  35.394  37.439  1.00  0.00    -0.203 F 
ATOM     71  F   UNL A   1      39.125  34.166  41.778  1.00  0.00    -0.200 F 
ATOM     72  C   UNL A   1      40.736  35.550  40.749  1.00  0.00     0.200 A 
ATOM     73  F   UNL A   1      42.334  36.913  39.671  1.00  0.00    -0.200 F 
ATOM     74  F   UNL A   1      40.784  36.330  41.837  1.00  0.00    -0.200 F 
ENDBRANCH  50  64
BRANCH  51  75
ATOM     75  C   UNL A   1      40.152  28.641  29.983  1.00  0.00     0.064 A 
ATOM     76  C   UNL A   1      39.488  27.409  29.909  1.00  0.00     0.173 A 
ATOM     77  C   UNL A   1      40.769  29.121  28.818  1.00  0.00     0.173 A 
ATOM     78  F   UNL A   1      38.900  26.899  31.001  1.00  0.00    -0.203 F 
ATOM     79  C   UNL A   1      39.461  26.675  28.724  1.00  0.00     0.198 A 
ATOM     80  C   UNL A   1      40.713  28.401  27.625  1.00  0.00     0.198 A 
ATOM     81  F   UNL A   1      41.411  30.297  28.832  1.00  0.00    -0.203 F 
ATOM     82  F   UNL A   1      38.861  25.477  28.695  1.00  0.00    -0.200 F 
ATOM     83  C   UNL A   1      40.068  27.176  27.582  1.00  0.00     0.200 A 
ATOM     84  F   UNL A   1      41.285  28.897  26.520  1.00  0.00    -0.200 F 
ATOM     85  F   UNL A   1      40.036  26.473  26.441  1.00  0.00    -0.200 F 
ENDBRANCH  51  75
BRANCH  63  86
ATOM     86  C   UNL A   1      44.394  28.530  35.517  1.00  0.00     0.064 A 
ATOM     87  C   UNL A   1      44.258  27.316  36.207  1.00  0.00     0.173 A 
ATOM     88  C   UNL A   1      45.685  28.917  35.122  1.00  0.00     0.173 A 
ATOM     89  F   UNL A   1      43.049  26.907  36.620  1.00  0.00    -0.203 F 
ATOM     90  C   UNL A   1      45.371  26.538  36.515  1.00  0.00     0.198 A 
ATOM     91  C   UNL A   1      46.791  28.120  35.400  1.00  0.00     0.198 A 
ATOM     92  F   UNL A   1      45.871  30.065  34.453  1.00  0.00    -0.203 F 
ATOM     93  F   UNL A   1      45.223  25.410  37.222  1.00  0.00    -0.200 F 
ATOM     94  C   UNL A   1      46.635  26.936  36.103  1.00  0.00     0.200 A 
ATOM     95  F   UNL A   1      48.008  28.497  34.985  1.00  0.00    -0.200 F 
ATOM     96  F   UNL A   1      47.703  26.180  36.392  1.00  0.00    -0.200 F 
ENDBRANCH  63  86
ENDBRANCH  37  38
ENDBRANCH  29  32
ENDBRANCH  27  28
ENDBRANCH  26  27
ENDBRANCH  25  26
ENDBRANCH  24  25
ENDBRANCH   1  24
TORSDOF 18
ENDMDL
MODEL 3
REMARK VINA RESULT:     -11.2      2.333      8.181
REMARK SMILES CCOC(=O)[C@H](C)NC(=O)N1CC[C@H](C(=O)NCCCCCCNC(=O)c2ccc(-c3c4nc(c(-c5c(F)c(F)c(F)c(F)c5F)c5ccc([nH]5)c(-c5c(F)c(F)c(F)c(F)c5F)c5nc(c(-c6c(F)c(F)c(F)c(F)c6F)c6ccc3[nH]6)C=C5)C=C4)cc2)[C@@H]1C
REMARK SMILES IDX 19 1 18 2 17 3 15 4 16 5 14 7 11 8 12 9 90 10 13 11 91 12
REMARK SMILES IDX 9 13 8 14 10 16 6 17 7 18 4 19 5 20 3 21 2 22 1 23 20 24
REMARK SMILES IDX 21 25 22 26 23 27 24 28 25 29 26 31 27 32 28 33 89 34 29 35
REMARK SMILES IDX 88 36 30 37 31 38 32 39 82 40 33 41 87 42 81 43 83 44 34 45
REMARK SMILES IDX 86 46 80 47 79 48 35 50 67 51 47 52 66 53 48 54 51 55 65 56
REMARK SMILES IDX 84 57 49 58 50 59 64 61 85 62 52 63 36 64 37 65 45 66 38 67
REMARK SMILES IDX 39 68 43 69 46 70 40 71 41 72 44 73 42 74 68 75 69 76 77 77
REMARK SMILES IDX 70 78 71 79 75 80 78 81 72 82 73 83 76 84 74 85 53 86 54 87
REMARK SMILES IDX 62 88 55 89 56 90 60 91 63 92 57 93 58 94 61 95 59 96
REMARK H PARENT 17 6 8 15 24 30 83 49 51 60
REMARK Flexibility Score: inf
ROOT
ATOM      1  C   UNL A   1      40.701  22.487  27.487  1.00  0.00     0.021 C 
ENDROOT
BRANCH   1   2
ATOM      2  C   UNL A   1      39.504  22.878  26.636  1.00  0.00     0.116 C 
BRANCH   2   3
ATOM      3  N   UNL A   1      38.776  21.751  26.097  1.00  0.00    -0.356 N 
ATOM      4  C   UNL A   1      37.779  21.726  25.162  1.00  0.00     0.225 C 
ATOM      5  O   UNL A   1      37.316  20.620  24.892  1.00  0.00    -0.275 OA
ATOM      6  H   UNL A   1      39.036  20.871  26.457  1.00  0.00     0.163 HD
BRANCH   4   7
ATOM      7  C   UNL A   1      37.209  23.038  24.613  1.00  0.00     0.102 C 
ATOM      8  N   UNL A   1      35.101  24.139  24.377  1.00  0.00    -0.321 N 
ATOM      9  C   UNL A   1      35.174  23.209  23.289  1.00  0.00     0.122 C 
ATOM     10  C   UNL A   1      36.080  23.762  25.417  1.00  0.00     0.096 C 
ATOM     11  C   UNL A   1      36.649  22.948  23.176  1.00  0.00     0.037 C 
ATOM     12  C   UNL A   1      35.381  22.959  26.517  1.00  0.00     0.032 C 
BRANCH   8  13
ATOM     13  C   UNL A   1      33.990  24.911  24.478  1.00  0.00     0.318 C 
ATOM     14  N   UNL A   1      32.819  24.366  24.839  1.00  0.00    -0.325 N 
ATOM     15  H   UNL A   1      32.036  24.939  24.670  1.00  0.00     0.166 HD
ATOM     16  O   UNL A   1      34.028  26.135  24.339  1.00  0.00    -0.249 OA
BRANCH  14  17
ATOM     17  C   UNL A   1      32.501  23.074  25.441  1.00  0.00     0.190 C 
ATOM     18  C   UNL A   1      31.512  23.260  26.585  1.00  0.00     0.043 C 
BRANCH  17  19
ATOM     19  C   UNL A   1      31.969  22.109  24.374  1.00  0.00     0.328 C 
ATOM     20  O   UNL A   1      31.663  22.436  23.235  1.00  0.00    -0.250 OA
BRANCH  19  21
ATOM     21  O   UNL A   1      31.777  20.866  24.904  1.00  0.00    -0.464 OA
BRANCH  21  22
ATOM     22  C   UNL A   1      32.528  19.786  24.336  1.00  0.00     0.229 C 
ATOM     23  C   UNL A   1      32.901  18.747  25.376  1.00  0.00     0.049 C 
ENDBRANCH  21  22
ENDBRANCH  19  21
ENDBRANCH  17  19
ENDBRANCH  14  17
ENDBRANCH   8  13
ENDBRANCH   4   7
ENDBRANCH   2   3
ENDBRANCH   1   2
BRANCH   1  24
ATOM     24  C   UNL A   1      41.665  21.482  26.847  1.00  0.00     0.002 C 
BRANCH  24  25
ATOM     25  C   UNL A   1      41.915  20.181  27.615  1.00  0.00     0.002 C 
BRANCH  25  26
ATOM     26  C   UNL A   1      42.595  19.050  26.841  1.00  0.00     0.021 C 
BRANCH  26  27
ATOM     27  C   UNL A   1      42.533  19.158  25.324  1.00  0.00     0.116 C 
BRANCH  27  28
ATOM     28  N   UNL A   1      43.777  18.783  24.679  1.00  0.00    -0.352 N 
ATOM     29  C   UNL A   1      44.864  19.564  24.370  1.00  0.00     0.251 C 
ATOM     30  H   UNL A   1      43.855  17.835  24.428  1.00  0.00     0.163 HD
ATOM     31  O   UNL A   1      45.782  19.109  23.701  1.00  0.00    -0.269 OA
BRANCH  29  32
ATOM     32  C   UNL A   1      44.906  20.971  24.822  1.00  0.00     0.039 A 
ATOM     33  C   UNL A   1      45.328  21.241  26.126  1.00  0.00     0.014 A 
ATOM     34  C   UNL A   1      44.537  22.016  23.970  1.00  0.00     0.014 A 
ATOM     35  C   UNL A   1      45.433  22.564  26.558  1.00  0.00     0.010 A 
ATOM     36  C   UNL A   1      44.718  23.336  24.375  1.00  0.00     0.010 A 
ATOM     37  C   UNL A   1      45.161  23.623  25.675  1.00  0.00    -0.014 A 
BRANCH  37  38
ATOM     38  C   UNL A   1      45.332  25.035  26.100  1.00  0.00     0.031 A 
ATOM     39  C   UNL A   1      46.680  25.691  26.018  1.00  0.00     0.074 A 
ATOM     40  C   UNL A   1      44.281  25.707  26.609  1.00  0.00     0.049 A 
ATOM     41  N   UNL A   1      47.040  26.897  26.385  1.00  0.00    -0.248 NA
ATOM     42  C   UNL A   1      47.780  24.877  25.476  1.00  0.00     0.031 C 
ATOM     43  C   UNL A   1      42.934  25.163  26.782  1.00  0.00     0.029 A 
ATOM     44  N   UNL A   1      44.184  26.992  27.081  1.00  0.00    -0.354 N 
ATOM     45  C   UNL A   1      48.402  26.978  26.129  1.00  0.00     0.074 A 
ATOM     46  C   UNL A   1      48.819  25.685  25.633  1.00  0.00     0.031 C 
ATOM     47  C   UNL A   1      42.139  26.113  27.297  1.00  0.00     0.029 A 
ATOM     48  C   UNL A   1      42.928  27.320  27.531  1.00  0.00     0.049 A 
ATOM     49  H   UNL A   1      44.942  27.619  27.097  1.00  0.00     0.167 HD
ATOM     50  C   UNL A   1      49.226  28.044  26.271  1.00  0.00     0.037 A 
ATOM     51  C   UNL A   1      42.467  28.460  28.078  1.00  0.00     0.037 A 
ATOM     52  C   UNL A   1      48.801  29.335  26.750  1.00  0.00     0.049 A 
ATOM     53  C   UNL A   1      43.407  29.624  28.243  1.00  0.00     0.074 A 
ATOM     54  C   UNL A   1      49.542  30.495  26.875  1.00  0.00     0.029 A 
ATOM     55  N   UNL A   1      47.518  29.630  27.191  1.00  0.00    -0.354 N 
ATOM     56  N   UNL A   1      44.676  29.714  27.930  1.00  0.00    -0.248 NA
ATOM     57  C   UNL A   1      42.846  30.848  28.832  1.00  0.00     0.031 C 
ATOM     58  C   UNL A   1      48.727  31.475  27.449  1.00  0.00     0.029 A 
ATOM     59  C   UNL A   1      47.457  30.947  27.618  1.00  0.00     0.049 A 
ATOM     60  H   UNL A   1      46.764  28.998  27.198  1.00  0.00     0.167 HD
ATOM     61  C   UNL A   1      45.060  31.009  28.253  1.00  0.00     0.074 A 
ATOM     62  C   UNL A   1      43.882  31.674  28.774  1.00  0.00     0.031 C 
ATOM     63  C   UNL A   1      46.275  31.596  28.131  1.00  0.00     0.037 A 
BRANCH  50  64
ATOM     64  C   UNL A   1      50.673  27.858  25.911  1.00  0.00     0.064 A 
ATOM     65  C   UNL A   1      51.645  27.571  26.883  1.00  0.00     0.173 A 
ATOM     66  C   UNL A   1      51.091  27.938  24.574  1.00  0.00     0.173 A 
ATOM     67  F   UNL A   1      51.304  27.493  28.178  1.00  0.00    -0.203 F 
ATOM     68  C   UNL A   1      52.984  27.409  26.533  1.00  0.00     0.198 A 
ATOM     69  C   UNL A   1      52.425  27.739  24.225  1.00  0.00     0.198 A 
ATOM     70  F   UNL A   1      50.204  28.203  23.603  1.00  0.00    -0.203 F 
ATOM     71  F   UNL A   1      53.901  27.195  27.487  1.00  0.00    -0.200 F 
ATOM     72  C   UNL A   1      53.371  27.485  25.205  1.00  0.00     0.200 A 
ATOM     73  F   UNL A   1      52.794  27.798  22.938  1.00  0.00    -0.200 F 
ATOM     74  F   UNL A   1      54.658  27.323  24.869  1.00  0.00    -0.200 F 
ENDBRANCH  50  64
BRANCH  51  75
ATOM     75  C   UNL A   1      41.043  28.562  28.492  1.00  0.00     0.064 A 
ATOM     76  C   UNL A   1      40.644  28.230  29.794  1.00  0.00     0.173 A 
ATOM     77  C   UNL A   1      40.052  28.992  27.597  1.00  0.00     0.173 A 
ATOM     78  F   UNL A   1      41.551  27.795  30.681  1.00  0.00    -0.203 F 
ATOM     79  C   UNL A   1      39.307  28.304  30.180  1.00  0.00     0.198 A 
ATOM     80  C   UNL A   1      38.720  29.097  27.993  1.00  0.00     0.198 A 
ATOM     81  F   UNL A   1      40.380  29.328  26.341  1.00  0.00    -0.203 F 
ATOM     82  F   UNL A   1      38.947  27.934  31.417  1.00  0.00    -0.200 F 
ATOM     83  C   UNL A   1      38.347  28.744  29.280  1.00  0.00     0.200 A 
ATOM     84  F   UNL A   1      37.799  29.538  27.126  1.00  0.00    -0.200 F 
ATOM     85  F   UNL A   1      37.062  28.821  29.653  1.00  0.00    -0.200 F 
ENDBRANCH  51  75
BRANCH  63  86
ATOM     86  C   UNL A   1      46.389  33.040  28.530  1.00  0.00     0.064 A 
ATOM     87  C   UNL A   1      46.113  34.081  27.632  1.00  0.00     0.173 A 
ATOM     88  C   UNL A   1      46.740  33.385  29.845  1.00  0.00     0.173 A 
ATOM     89  F   UNL A   1      45.787  33.806  26.359  1.00  0.00    -0.203 F 
ATOM     90  C   UNL A   1      46.214  35.413  28.025  1.00  0.00     0.198 A 
ATOM     91  C   UNL A   1      46.804  34.717  30.245  1.00  0.00     0.198 A 
ATOM     92  F   UNL A   1      47.006  32.429  30.747  1.00  0.00    -0.203 F 
ATOM     93  F   UNL A   1      45.998  36.391  27.136  1.00  0.00    -0.200 F 
ATOM     94  C   UNL A   1      46.550  35.729  29.334  1.00  0.00     0.200 A 
ATOM     95  F   UNL A   1      47.112  35.019  31.514  1.00  0.00    -0.200 F 
ATOM     96  F   UNL A   1      46.636  37.011  29.713  1.00  0.00    -0.200 F 
ENDBRANCH  63  86
ENDBRANCH  37  38
ENDBRANCH  29  32
ENDBRANCH  27  28
ENDBRANCH  26  27
ENDBRANCH  25  26
ENDBRANCH  24  25
ENDBRANCH   1  24
TORSDOF 18
ENDMDL
