MODEL 1
REMARK VINA RESULT:     -12.0      0.000      0.000
REMARK SMILES COc1cccc(Cn2c(=O)c(=O)n(CC(=O)NCCCCCCNC(=O)c3ccc(-c4c5nc(c(-c6c(F)c(F)c(F)c(F)c6F)c6ccc([nH]6)c(-c6c(F)c(F)c(F)c(F)c6F)c6nc(c(-c7c(F)c(F)c(F)c(F)c7F)c7ccc4[nH]7)C=C6)C=C5)cc3)c3ccccc32)c1
REMARK SMILES IDX 20 1 19 2 18 3 16 4 17 5 15 7 14 8 9 9 10 10 96 11 11 12
REMARK SMILES IDX 12 13 91 14 95 15 13 16 92 17 94 18 93 19 8 20 7 21 3 22
REMARK SMILES IDX 4 23 97 24 5 25 6 26 2 27 1 28 21 29 22 30 23 31 24 32 25 33
REMARK SMILES IDX 26 34 27 36 28 37 29 38 90 39 30 40 89 41 31 42 32 43 33 44
REMARK SMILES IDX 83 45 34 46 88 47 82 48 84 49 35 50 87 51 81 52 80 53 36 55
REMARK SMILES IDX 68 56 48 57 67 58 49 59 52 60 66 61 85 62 50 63 51 64 65 66
REMARK SMILES IDX 86 67 53 68 37 69 38 70 46 71 39 72 40 73 44 74 47 75 41 76
REMARK SMILES IDX 42 77 45 78 43 79 69 80 70 81 78 82 71 83 72 84 76 85 79 86
REMARK SMILES IDX 73 87 74 88 77 89 75 90 54 91 55 92 63 93 56 94 57 95 61 96
REMARK SMILES IDX 64 97 58 98 59 99 62 100 60 101
REMARK H PARENT 18 6 25 35 84 54 52 65
REMARK Flexibility Score: inf
ROOT
ATOM      1  C   UNL A   1      35.716  31.956  27.968  1.00  0.00     0.021 C 
ENDROOT
BRANCH   1   2
ATOM      2  C   UNL A   1      35.110  30.563  27.813  1.00  0.00     0.116 C 
BRANCH   2   3
ATOM      3  N   UNL A   1      33.665  30.633  27.805  1.00  0.00    -0.355 N 
ATOM      4  C   UNL A   1      32.761  30.258  26.866  1.00  0.00     0.240 C 
ATOM      5  O   UNL A   1      31.571  30.467  27.145  1.00  0.00    -0.273 OA
ATOM      6  H   UNL A   1      33.271  31.020  28.619  1.00  0.00     0.163 HD
BRANCH   4   7
ATOM      7  C   UNL A   1      33.088  29.406  25.634  1.00  0.00     0.226 C 
BRANCH   7   8
ATOM      8  N   UNL A   1      32.368  28.232  25.164  1.00  0.00    -0.293 N 
ATOM      9  N   UNL A   1      30.830  25.904  24.764  1.00  0.00    -0.298 N 
ATOM     10  C   UNL A   1      31.548  26.060  25.932  1.00  0.00     0.317 A 
ATOM     11  C   UNL A   1      30.416  27.109  24.134  1.00  0.00     0.068 A 
ATOM     12  O   UNL A   1      31.350  25.459  26.983  1.00  0.00    -0.263 OA
ATOM     13  C   UNL A   1      32.698  27.043  25.802  1.00  0.00     0.317 A 
ATOM     14  C   UNL A   1      31.163  28.302  24.385  1.00  0.00     0.069 A 
ATOM     15  C   UNL A   1      29.201  27.180  23.439  1.00  0.00     0.028 A 
ATOM     16  O   UNL A   1      33.779  26.781  26.321  1.00  0.00    -0.263 OA
ATOM     17  C   UNL A   1      30.685  29.519  23.885  1.00  0.00     0.028 A 
ATOM     18  C   UNL A   1      28.709  28.418  23.018  1.00  0.00     0.002 A 
ATOM     19  C   UNL A   1      29.452  29.579  23.229  1.00  0.00     0.002 A 
BRANCH   9  20
ATOM     20  C   UNL A   1      30.486  24.542  24.365  1.00  0.00     0.162 C 
BRANCH  20  21
ATOM     21  C   UNL A   1      31.761  23.851  23.853  1.00  0.00    -0.024 A 
ATOM     22  C   UNL A   1      33.717  22.529  24.464  1.00  0.00     0.119 A 
ATOM     23  C   UNL A   1      34.435  23.119  23.431  1.00  0.00     0.046 A 
ATOM     24  C   UNL A   1      32.363  22.822  24.616  1.00  0.00     0.052 A 
ATOM     25  C   UNL A   1      33.808  24.006  22.559  1.00  0.00     0.004 A 
ATOM     26  C   UNL A   1      32.486  24.399  22.787  1.00  0.00     0.006 A 
BRANCH  22  27
ATOM     27  O   UNL A   1      34.463  21.888  25.414  1.00  0.00    -0.497 OA
ATOM     28  C   UNL A   1      33.727  21.183  26.403  1.00  0.00     0.278 C 
ENDBRANCH  22  27
ENDBRANCH  20  21
ENDBRANCH   9  20
ENDBRANCH   7   8
ENDBRANCH   4   7
ENDBRANCH   2   3
ENDBRANCH   1   2
BRANCH   1  29
ATOM     29  C   UNL A   1      34.925  32.845  28.938  1.00  0.00     0.002 C 
BRANCH  29  30
ATOM     30  C   UNL A   1      34.524  34.207  28.357  1.00  0.00     0.002 C 
BRANCH  30  31
ATOM     31  C   UNL A   1      33.243  34.807  28.946  1.00  0.00     0.021 C 
BRANCH  31  32
ATOM     32  C   UNL A   1      33.425  36.184  29.582  1.00  0.00     0.116 C 
BRANCH  32  33
ATOM     33  N   UNL A   1      32.565  36.353  30.745  1.00  0.00    -0.352 N 
ATOM     34  C   UNL A   1      32.595  35.703  31.952  1.00  0.00     0.251 C 
ATOM     35  H   UNL A   1      31.859  37.032  30.651  1.00  0.00     0.163 HD
ATOM     36  O   UNL A   1      31.628  35.747  32.705  1.00  0.00    -0.269 OA
BRANCH  34  37
ATOM     37  C   UNL A   1      33.804  34.957  32.356  1.00  0.00     0.039 A 
ATOM     38  C   UNL A   1      33.669  33.665  32.871  1.00  0.00     0.014 A 
ATOM     39  C   UNL A   1      35.063  35.559  32.276  1.00  0.00     0.014 A 
ATOM     40  C   UNL A   1      34.806  32.956  33.262  1.00  0.00     0.010 A 
ATOM     41  C   UNL A   1      36.199  34.832  32.612  1.00  0.00     0.010 A 
ATOM     42  C   UNL A   1      36.080  33.527  33.116  1.00  0.00    -0.014 A 
BRANCH  42  43
ATOM     43  C   UNL A   1      37.307  32.789  33.494  1.00  0.00     0.031 A 
ATOM     44  C   UNL A   1      38.003  33.103  34.786  1.00  0.00     0.074 A 
ATOM     45  C   UNL A   1      37.838  31.902  32.634  1.00  0.00     0.049 A 
ATOM     46  N   UNL A   1      39.140  32.648  35.248  1.00  0.00    -0.248 NA
ATOM     47  C   UNL A   1      37.345  34.083  35.665  1.00  0.00     0.031 C 
ATOM     48  C   UNL A   1      37.271  31.543  31.334  1.00  0.00     0.029 A 
ATOM     49  N   UNL A   1      38.983  31.152  32.719  1.00  0.00    -0.354 N 
ATOM     50  C   UNL A   1      39.343  33.300  36.456  1.00  0.00     0.074 A 
ATOM     51  C   UNL A   1      38.235  34.213  36.638  1.00  0.00     0.031 C 
ATOM     52  C   UNL A   1      38.063  30.629  30.749  1.00  0.00     0.029 A 
ATOM     53  C   UNL A   1      39.207  30.367  31.616  1.00  0.00     0.049 A 
ATOM     54  H   UNL A   1      39.586  31.175  33.496  1.00  0.00     0.167 HD
ATOM     55  C   UNL A   1      40.356  33.137  37.341  1.00  0.00     0.037 A 
ATOM     56  C   UNL A   1      40.228  29.536  31.334  1.00  0.00     0.037 A 
ATOM     57  C   UNL A   1      41.436  32.202  37.171  1.00  0.00     0.049 A 
ATOM     58  C   UNL A   1      41.347  29.383  32.325  1.00  0.00     0.074 A 
ATOM     59  C   UNL A   1      42.458  31.891  38.050  1.00  0.00     0.029 A 
ATOM     60  N   UNL A   1      41.635  31.428  36.036  1.00  0.00    -0.354 N 
ATOM     61  N   UNL A   1      41.498  29.954  33.495  1.00  0.00    -0.248 NA
ATOM     62  C   UNL A   1      42.440  28.474  31.953  1.00  0.00     0.031 C 
ATOM     63  C   UNL A   1      43.300  30.959  37.431  1.00  0.00     0.029 A 
ATOM     64  C   UNL A   1      42.782  30.664  36.180  1.00  0.00     0.049 A 
ATOM     65  H   UNL A   1      41.048  31.422  35.245  1.00  0.00     0.167 HD
ATOM     66  C   UNL A   1      42.691  29.466  34.007  1.00  0.00     0.074 A 
ATOM     67  C   UNL A   1      43.219  28.539  33.025  1.00  0.00     0.031 C 
ATOM     68  C   UNL A   1      43.297  29.758  35.184  1.00  0.00     0.037 A 
BRANCH  55  69
ATOM     69  C   UNL A   1      40.341  33.996  38.571  1.00  0.00     0.064 A 
ATOM     70  C   UNL A   1      39.667  33.602  39.737  1.00  0.00     0.173 A 
ATOM     71  C   UNL A   1      41.017  35.224  38.588  1.00  0.00     0.173 A 
ATOM     72  F   UNL A   1      38.993  32.441  39.767  1.00  0.00    -0.203 F 
ATOM     73  C   UNL A   1      39.642  34.421  40.862  1.00  0.00     0.198 A 
ATOM     74  C   UNL A   1      41.014  36.029  39.724  1.00  0.00     0.198 A 
ATOM     75  F   UNL A   1      41.681  35.647  37.500  1.00  0.00    -0.203 F 
ATOM     76  F   UNL A   1      38.947  34.048  41.946  1.00  0.00    -0.200 F 
ATOM     77  C   UNL A   1      40.319  35.631  40.856  1.00  0.00     0.200 A 
ATOM     78  F   UNL A   1      41.674  37.195  39.720  1.00  0.00    -0.200 F 
ATOM     79  F   UNL A   1      40.292  36.420  41.940  1.00  0.00    -0.200 F 
ENDBRANCH  55  69
BRANCH  56  80
ATOM     80  C   UNL A   1      40.217  28.768  30.065  1.00  0.00     0.064 A 
ATOM     81  C   UNL A   1      39.584  27.520  29.995  1.00  0.00     0.173 A 
ATOM     82  C   UNL A   1      40.810  29.270  28.899  1.00  0.00     0.173 A 
ATOM     83  F   UNL A   1      39.023  26.991  31.092  1.00  0.00    -0.203 F 
ATOM     84  C   UNL A   1      39.547  26.800  28.803  1.00  0.00     0.198 A 
ATOM     85  C   UNL A   1      40.754  28.559  27.702  1.00  0.00     0.198 A 
ATOM     86  F   UNL A   1      41.425  30.462  28.917  1.00  0.00    -0.203 F 
ATOM     87  F   UNL A   1      38.957  25.598  28.767  1.00  0.00    -0.200 F 
ATOM     88  C   UNL A   1      40.126  27.324  27.655  1.00  0.00     0.200 A 
ATOM     89  F   UNL A   1      41.304  29.073  26.593  1.00  0.00    -0.200 F 
ATOM     90  F   UNL A   1      40.080  26.635  26.507  1.00  0.00    -0.200 F 
ENDBRANCH  56  80
BRANCH  68  91
ATOM     91  C   UNL A   1      44.595  29.066  35.474  1.00  0.00     0.064 A 
ATOM     92  C   UNL A   1      45.823  29.656  35.145  1.00  0.00     0.173 A 
ATOM     93  C   UNL A   1      44.611  27.821  36.118  1.00  0.00     0.173 A 
ATOM     94  F   UNL A   1      45.856  30.839  34.512  1.00  0.00    -0.203 F 
ATOM     95  C   UNL A   1      47.024  29.015  35.437  1.00  0.00     0.198 A 
ATOM     96  C   UNL A   1      45.814  27.194  36.430  1.00  0.00     0.198 A 
ATOM     97  F   UNL A   1      43.461  27.218  36.455  1.00  0.00    -0.203 F 
ATOM     98  F   UNL A   1      48.186  29.580  35.080  1.00  0.00    -0.200 F 
ATOM     99  C   UNL A   1      47.019  27.790  36.085  1.00  0.00     0.200 A 
ATOM    100  F   UNL A   1      45.809  26.014  37.063  1.00  0.00    -0.200 F 
ATOM    101  F   UNL A   1      48.176  27.177  36.370  1.00  0.00    -0.200 F 
ENDBRANCH  68  91
ENDBRANCH  42  43
ENDBRANCH  34  37
ENDBRANCH  32  33
ENDBRANCH  31  32
ENDBRANCH  30  31
ENDBRANCH  29  30
ENDBRANCH   1  29
TORSDOF 17
ENDMDL
MODEL 2
REMARK VINA RESULT:     -11.9      5.906     10.623
REMARK SMILES COc1cccc(Cn2c(=O)c(=O)n(CC(=O)NCCCCCCNC(=O)c3ccc(-c4c5nc(c(-c6c(F)c(F)c(F)c(F)c6F)c6ccc([nH]6)c(-c6c(F)c(F)c(F)c(F)c6F)c6nc(c(-c7c(F)c(F)c(F)c(F)c7F)c7ccc4[nH]7)C=C6)C=C5)cc3)c3ccccc32)c1
REMARK SMILES IDX 20 1 19 2 18 3 16 4 17 5 15 7 14 8 9 9 10 10 96 11 11 12
REMARK SMILES IDX 12 13 91 14 95 15 13 16 92 17 94 18 93 19 8 20 7 21 3 22
REMARK SMILES IDX 4 23 97 24 5 25 6 26 2 27 1 28 21 29 22 30 23 31 24 32 25 33
REMARK SMILES IDX 26 34 27 36 28 37 29 38 90 39 30 40 89 41 31 42 32 43 33 44
REMARK SMILES IDX 83 45 34 46 88 47 82 48 84 49 35 50 87 51 81 52 80 53 36 55
REMARK SMILES IDX 68 56 48 57 67 58 49 59 52 60 66 61 85 62 50 63 51 64 65 66
REMARK SMILES IDX 86 67 53 68 37 69 38 70 46 71 39 72 40 73 44 74 47 75 41 76
REMARK SMILES IDX 42 77 45 78 43 79 69 80 70 81 78 82 71 83 72 84 76 85 79 86
REMARK SMILES IDX 73 87 74 88 77 89 75 90 54 91 55 92 63 93 56 94 57 95 61 96
REMARK SMILES IDX 64 97 58 98 59 99 62 100 60 101
REMARK H PARENT 18 6 25 35 84 54 52 65
REMARK Flexibility Score: inf
ROOT
ATOM      1  C   UNL A   1      36.384  22.844  25.566  1.00  0.00     0.021 C 
ENDROOT
BRANCH   1   2
ATOM      2  C   UNL A   1      34.936  23.304  25.409  1.00  0.00     0.116 C 
BRANCH   2   3
ATOM      3  N   UNL A   1      34.167  22.980  26.590  1.00  0.00    -0.355 N 
ATOM      4  C   UNL A   1      32.846  23.130  26.861  1.00  0.00     0.240 C 
ATOM      5  O   UNL A   1      32.480  22.771  27.989  1.00  0.00    -0.273 OA
ATOM      6  H   UNL A   1      34.691  22.584  27.323  1.00  0.00     0.163 HD
BRANCH   4   7
ATOM      7  C   UNL A   1      31.778  23.476  25.817  1.00  0.00     0.226 C 
BRANCH   7   8
ATOM      8  N   UNL A   1      31.685  24.696  25.029  1.00  0.00    -0.293 N 
ATOM      9  N   UNL A   1      31.922  27.218  23.795  1.00  0.00    -0.298 N 
ATOM     10  C   UNL A   1      32.196  27.085  25.140  1.00  0.00     0.317 A 
ATOM     11  C   UNL A   1      32.134  26.054  23.007  1.00  0.00     0.068 A 
ATOM     12  O   UNL A   1      32.855  27.865  25.820  1.00  0.00    -0.263 OA
ATOM     13  C   UNL A   1      31.543  25.865  25.766  1.00  0.00     0.317 A 
ATOM     14  C   UNL A   1      32.072  24.777  23.648  1.00  0.00     0.069 A 
ATOM     15  C   UNL A   1      32.582  26.149  21.682  1.00  0.00     0.028 A 
ATOM     16  O   UNL A   1      31.029  25.957  26.876  1.00  0.00    -0.263 OA
ATOM     17  C   UNL A   1      32.415  23.635  22.916  1.00  0.00     0.028 A 
ATOM     18  C   UNL A   1      32.992  25.001  21.000  1.00  0.00     0.002 A 
ATOM     19  C   UNL A   1      32.898  23.750  21.609  1.00  0.00     0.002 A 
BRANCH   9  20
ATOM     20  C   UNL A   1      31.555  28.548  23.313  1.00  0.00     0.162 C 
BRANCH  20  21
ATOM     21  C   UNL A   1      30.056  28.540  22.967  1.00  0.00    -0.024 A 
ATOM     22  C   UNL A   1      28.104  29.907  22.450  1.00  0.00     0.119 A 
ATOM     23  C   UNL A   1      27.283  28.948  23.031  1.00  0.00     0.046 A 
ATOM     24  C   UNL A   1      29.471  29.663  22.334  1.00  0.00     0.052 A 
ATOM     25  C   UNL A   1      27.824  27.754  23.504  1.00  0.00     0.004 A 
ATOM     26  C   UNL A   1      29.208  27.563  23.505  1.00  0.00     0.006 A 
BRANCH  22  27
ATOM     27  O   UNL A   1      27.536  31.136  22.257  1.00  0.00    -0.497 OA
ATOM     28  C   UNL A   1      28.033  31.878  21.154  1.00  0.00     0.278 C 
ENDBRANCH  22  27
ENDBRANCH  20  21
ENDBRANCH   9  20
ENDBRANCH   7   8
ENDBRANCH   4   7
ENDBRANCH   2   3
ENDBRANCH   1   2
BRANCH   1  29
ATOM     29  C   UNL A   1      36.795  21.798  24.520  1.00  0.00     0.002 C 
BRANCH  29  30
ATOM     30  C   UNL A   1      36.579  20.346  24.965  1.00  0.00     0.002 C 
BRANCH  30  31
ATOM     31  C   UNL A   1      37.849  19.488  25.002  1.00  0.00     0.021 C 
BRANCH  31  32
ATOM     32  C   UNL A   1      39.018  20.124  25.751  1.00  0.00     0.116 C 
BRANCH  32  33
ATOM     33  N   UNL A   1      40.111  19.180  25.934  1.00  0.00    -0.352 N 
ATOM     34  C   UNL A   1      41.457  19.416  26.053  1.00  0.00     0.251 C 
ATOM     35  H   UNL A   1      39.845  18.233  25.978  1.00  0.00     0.163 HD
ATOM     36  O   UNL A   1      42.264  18.504  25.900  1.00  0.00    -0.269 OA
BRANCH  34  37
ATOM     37  C   UNL A   1      41.939  20.772  26.380  1.00  0.00     0.039 A 
ATOM     38  C   UNL A   1      42.209  21.098  27.713  1.00  0.00     0.014 A 
ATOM     39  C   UNL A   1      42.070  21.735  25.376  1.00  0.00     0.014 A 
ATOM     40  C   UNL A   1      42.659  22.381  28.031  1.00  0.00     0.010 A 
ATOM     41  C   UNL A   1      42.572  22.994  25.686  1.00  0.00     0.010 A 
ATOM     42  C   UNL A   1      42.862  23.330  27.018  1.00  0.00    -0.014 A 
BRANCH  42  43
ATOM     43  C   UNL A   1      43.367  24.690  27.320  1.00  0.00     0.031 A 
ATOM     44  C   UNL A   1      42.440  25.724  27.890  1.00  0.00     0.074 A 
ATOM     45  C   UNL A   1      44.633  25.013  27.001  1.00  0.00     0.049 A 
ATOM     46  N   UNL A   1      42.658  26.993  28.125  1.00  0.00    -0.248 NA
ATOM     47  C   UNL A   1      41.076  25.277  28.212  1.00  0.00     0.031 C 
ATOM     48  C   UNL A   1      45.613  24.103  26.409  1.00  0.00     0.029 A 
ATOM     49  N   UNL A   1      45.306  26.202  27.116  1.00  0.00    -0.354 N 
ATOM     50  C   UNL A   1      41.456  27.499  28.600  1.00  0.00     0.074 A 
ATOM     51  C   UNL A   1      40.501  26.412  28.581  1.00  0.00     0.031 C 
ATOM     52  C   UNL A   1      46.769  24.762  26.227  1.00  0.00     0.029 A 
ATOM     53  C   UNL A   1      46.598  26.147  26.656  1.00  0.00     0.049 A 
ATOM     54  H   UNL A   1      44.902  27.017  27.492  1.00  0.00     0.167 HD
ATOM     55  C   UNL A   1      41.181  28.754  29.029  1.00  0.00     0.037 A 
ATOM     56  C   UNL A   1      47.535  27.111  26.581  1.00  0.00     0.037 A 
ATOM     57  C   UNL A   1      42.145  29.821  29.077  1.00  0.00     0.049 A 
ATOM     58  C   UNL A   1      47.202  28.499  27.050  1.00  0.00     0.074 A 
ATOM     59  C   UNL A   1      41.995  31.100  29.583  1.00  0.00     0.029 A 
ATOM     60  N   UNL A   1      43.444  29.731  28.595  1.00  0.00    -0.354 N 
ATOM     61  N   UNL A   1      46.083  28.952  27.559  1.00  0.00    -0.248 NA
ATOM     62  C   UNL A   1      48.261  29.509  26.927  1.00  0.00     0.031 C 
ATOM     63  C   UNL A   1      43.190  31.798  29.369  1.00  0.00     0.029 A 
ATOM     64  C   UNL A   1      44.095  30.942  28.763  1.00  0.00     0.049 A 
ATOM     65  H   UNL A   1      43.843  28.925  28.194  1.00  0.00     0.167 HD
ATOM     66  C   UNL A   1      46.304  30.294  27.832  1.00  0.00     0.074 A 
ATOM     67  C   UNL A   1      47.672  30.579  27.444  1.00  0.00     0.031 C 
ATOM     68  C   UNL A   1      45.453  31.209  28.357  1.00  0.00     0.037 A 
BRANCH  55  69
ATOM     69  C   UNL A   1      39.777  29.038  29.474  1.00  0.00     0.064 A 
ATOM     70  C   UNL A   1      39.376  28.856  30.806  1.00  0.00     0.173 A 
ATOM     71  C   UNL A   1      38.823  29.508  28.560  1.00  0.00     0.173 A 
ATOM     72  F   UNL A   1      40.247  28.395  31.717  1.00  0.00    -0.203 F 
ATOM     73  C   UNL A   1      38.063  29.100  31.199  1.00  0.00     0.198 A 
ATOM     74  C   UNL A   1      37.518  29.779  28.961  1.00  0.00     0.198 A 
ATOM     75  F   UNL A   1      39.156  29.703  27.274  1.00  0.00    -0.203 F 
ATOM     76  F   UNL A   1      37.689  28.868  32.465  1.00  0.00    -0.200 F 
ATOM     77  C   UNL A   1      37.137  29.566  30.278  1.00  0.00     0.200 A 
ATOM     78  F   UNL A   1      36.625  30.235  28.073  1.00  0.00    -0.200 F 
ATOM     79  F   UNL A   1      35.872  29.799  30.657  1.00  0.00    -0.200 F 
ENDBRANCH  55  69
BRANCH  56  80
ATOM     80  C   UNL A   1      48.885  26.780  26.063  1.00  0.00     0.064 A 
ATOM     81  C   UNL A   1      49.201  26.987  24.713  1.00  0.00     0.173 A 
ATOM     82  C   UNL A   1      49.890  26.278  26.902  1.00  0.00     0.173 A 
ATOM     83  F   UNL A   1      48.264  27.445  23.870  1.00  0.00    -0.203 F 
ATOM     84  C   UNL A   1      50.472  26.702  24.222  1.00  0.00     0.198 A 
ATOM     85  C   UNL A   1      51.167  26.013  26.413  1.00  0.00     0.198 A 
ATOM     86  F   UNL A   1      49.635  26.066  28.202  1.00  0.00    -0.203 F 
ATOM     87  F   UNL A   1      50.741  26.886  22.922  1.00  0.00    -0.200 F 
ATOM     88  C   UNL A   1      51.457  26.222  25.073  1.00  0.00     0.200 A 
ATOM     89  F   UNL A   1      52.119  25.560  27.241  1.00  0.00    -0.200 F 
ATOM     90  F   UNL A   1      52.682  25.958  24.601  1.00  0.00    -0.200 F 
ENDBRANCH  56  80
BRANCH  68  91
ATOM     91  C   UNL A   1      45.976  32.601  28.543  1.00  0.00     0.064 A 
ATOM     92  C   UNL A   1      45.815  33.578  27.551  1.00  0.00     0.173 A 
ATOM     93  C   UNL A   1      46.611  32.970  29.738  1.00  0.00     0.173 A 
ATOM     94  F   UNL A   1      45.230  33.266  26.385  1.00  0.00    -0.203 F 
ATOM     95  C   UNL A   1      46.287  34.874  27.742  1.00  0.00     0.198 A 
ATOM     96  C   UNL A   1      47.060  34.273  29.935  1.00  0.00     0.198 A 
ATOM     97  F   UNL A   1      46.786  32.070  30.718  1.00  0.00    -0.203 F 
ATOM     98  F   UNL A   1      46.157  35.783  26.766  1.00  0.00    -0.200 F 
ATOM     99  C   UNL A   1      46.902  35.222  28.935  1.00  0.00     0.200 A 
ATOM    100  F   UNL A   1      47.647  34.611  31.091  1.00  0.00    -0.200 F 
ATOM    101  F   UNL A   1      47.351  36.471  29.119  1.00  0.00    -0.200 F 
ENDBRANCH  68  91
ENDBRANCH  42  43
ENDBRANCH  34  37
ENDBRANCH  32  33
ENDBRANCH  31  32
ENDBRANCH  30  31
ENDBRANCH  29  30
ENDBRANCH   1  29
TORSDOF 17
ENDMDL
MODEL 3
REMARK VINA RESULT:     -11.9      0.252      1.546
REMARK SMILES COc1cccc(Cn2c(=O)c(=O)n(CC(=O)NCCCCCCNC(=O)c3ccc(-c4c5nc(c(-c6c(F)c(F)c(F)c(F)c6F)c6ccc([nH]6)c(-c6c(F)c(F)c(F)c(F)c6F)c6nc(c(-c7c(F)c(F)c(F)c(F)c7F)c7ccc4[nH]7)C=C6)C=C5)cc3)c3ccccc32)c1
REMARK SMILES IDX 20 1 19 2 18 3 16 4 17 5 15 7 14 8 9 9 10 10 96 11 11 12
REMARK SMILES IDX 12 13 91 14 95 15 13 16 92 17 94 18 93 19 8 20 7 21 3 22
REMARK SMILES IDX 4 23 97 24 5 25 6 26 2 27 1 28 21 29 22 30 23 31 24 32 25 33
REMARK SMILES IDX 26 34 27 36 28 37 29 38 90 39 30 40 89 41 31 42 32 43 33 44
REMARK SMILES IDX 83 45 34 46 88 47 82 48 84 49 35 50 87 51 81 52 80 53 36 55
REMARK SMILES IDX 68 56 48 57 67 58 49 59 52 60 66 61 85 62 50 63 51 64 65 66
REMARK SMILES IDX 86 67 53 68 37 69 38 70 46 71 39 72 40 73 44 74 47 75 41 76
REMARK SMILES IDX 42 77 45 78 43 79 69 80 70 81 78 82 71 83 72 84 76 85 79 86
REMARK SMILES IDX 73 87 74 88 77 89 75 90 54 91 55 92 63 93 56 94 57 95 61 96
REMARK SMILES IDX 64 97 58 98 59 99 62 100 60 101
REMARK H PARENT 18 6 25 35 84 54 52 65
REMARK Flexibility Score: inf
ROOT
ATOM      1  C   UNL A   1      35.636  31.865  27.920  1.00  0.00     0.021 C 
ENDROOT
BRANCH   1   2
ATOM      2  C   UNL A   1      34.870  30.545  27.850  1.00  0.00     0.116 C 
BRANCH   2   3
ATOM      3  N   UNL A   1      33.448  30.786  27.731  1.00  0.00    -0.355 N 
ATOM      4  C   UNL A   1      32.586  30.539  26.713  1.00  0.00     0.240 C 
ATOM      5  O   UNL A   1      31.410  30.882  26.904  1.00  0.00    -0.273 OA
ATOM      6  H   UNL A   1      33.037  31.201  28.522  1.00  0.00     0.163 HD
BRANCH   4   7
ATOM      7  C   UNL A   1      32.911  29.678  25.487  1.00  0.00     0.226 C 
BRANCH   7   8
ATOM      8  N   UNL A   1      32.257  28.441  25.085  1.00  0.00    -0.293 N 
ATOM      9  N   UNL A   1      30.863  26.007  24.823  1.00  0.00    -0.298 N 
ATOM     10  C   UNL A   1      31.595  26.259  25.965  1.00  0.00     0.317 A 
ATOM     11  C   UNL A   1      30.359  27.155  24.153  1.00  0.00     0.068 A 
ATOM     12  O   UNL A   1      31.458  25.694  27.046  1.00  0.00    -0.263 OA
ATOM     13  C   UNL A   1      32.677  27.305  25.765  1.00  0.00     0.317 A 
ATOM     14  C   UNL A   1      31.033  28.402  24.334  1.00  0.00     0.069 A 
ATOM     15  C   UNL A   1      29.126  27.118  23.486  1.00  0.00     0.028 A 
ATOM     16  O   UNL A   1      33.783  27.135  26.267  1.00  0.00    -0.263 OA
ATOM     17  C   UNL A   1      30.468  29.563  23.794  1.00  0.00     0.028 A 
ATOM     18  C   UNL A   1      28.547  28.303  23.025  1.00  0.00     0.002 A 
ATOM     19  C   UNL A   1      29.220  29.516  23.167  1.00  0.00     0.002 A 
BRANCH   9  20
ATOM     20  C   UNL A   1      30.597  24.609  24.492  1.00  0.00     0.162 C 
BRANCH  20  21
ATOM     21  C   UNL A   1      31.858  24.019  23.837  1.00  0.00    -0.024 A 
ATOM     22  C   UNL A   1      33.734  22.485  24.106  1.00  0.00     0.119 A 
ATOM     23  C   UNL A   1      34.510  23.296  23.287  1.00  0.00     0.046 A 
ATOM     24  C   UNL A   1      32.390  22.793  24.304  1.00  0.00     0.052 A 
ATOM     25  C   UNL A   1      33.952  24.416  22.676  1.00  0.00     0.004 A 
ATOM     26  C   UNL A   1      32.641  24.799  22.975  1.00  0.00     0.006 A 
BRANCH  22  27
ATOM     27  O   UNL A   1      34.420  21.574  24.861  1.00  0.00    -0.497 OA
ATOM     28  C   UNL A   1      33.921  20.246  24.827  1.00  0.00     0.278 C 
ENDBRANCH  22  27
ENDBRANCH  20  21
ENDBRANCH   9  20
ENDBRANCH   7   8
ENDBRANCH   4   7
ENDBRANCH   2   3
ENDBRANCH   1   2
BRANCH   1  29
ATOM     29  C   UNL A   1      35.081  32.819  28.988  1.00  0.00     0.002 C 
BRANCH  29  30
ATOM     30  C   UNL A   1      34.578  34.158  28.433  1.00  0.00     0.002 C 
BRANCH  30  31
ATOM     31  C   UNL A   1      33.296  34.686  29.087  1.00  0.00     0.021 C 
BRANCH  31  32
ATOM     32  C   UNL A   1      33.391  36.123  29.593  1.00  0.00     0.116 C 
BRANCH  32  33
ATOM     33  N   UNL A   1      32.553  36.332  30.766  1.00  0.00    -0.352 N 
ATOM     34  C   UNL A   1      32.599  35.715  31.990  1.00  0.00     0.251 C 
ATOM     35  H   UNL A   1      31.852  37.014  30.665  1.00  0.00     0.163 HD
ATOM     36  O   UNL A   1      31.645  35.789  32.759  1.00  0.00    -0.269 OA
BRANCH  34  37
ATOM     37  C   UNL A   1      33.808  34.970  32.394  1.00  0.00     0.039 A 
ATOM     38  C   UNL A   1      33.676  33.666  32.880  1.00  0.00     0.014 A 
ATOM     39  C   UNL A   1      35.063  35.582  32.342  1.00  0.00     0.014 A 
ATOM     40  C   UNL A   1      34.813  32.957  33.270  1.00  0.00     0.010 A 
ATOM     41  C   UNL A   1      36.201  34.856  32.677  1.00  0.00     0.010 A 
ATOM     42  C   UNL A   1      36.085  33.540  33.152  1.00  0.00    -0.014 A 
BRANCH  42  43
ATOM     43  C   UNL A   1      37.313  32.803  33.530  1.00  0.00     0.031 A 
ATOM     44  C   UNL A   1      38.010  33.119  34.820  1.00  0.00     0.074 A 
ATOM     45  C   UNL A   1      37.843  31.914  32.670  1.00  0.00     0.049 A 
ATOM     46  N   UNL A   1      39.147  32.664  35.282  1.00  0.00    -0.248 NA
ATOM     47  C   UNL A   1      37.353  34.099  35.698  1.00  0.00     0.031 C 
ATOM     48  C   UNL A   1      37.275  31.554  31.371  1.00  0.00     0.029 A 
ATOM     49  N   UNL A   1      38.989  31.165  32.755  1.00  0.00    -0.354 N 
ATOM     50  C   UNL A   1      39.352  33.318  36.489  1.00  0.00     0.074 A 
ATOM     51  C   UNL A   1      38.243  34.231  36.671  1.00  0.00     0.031 C 
ATOM     52  C   UNL A   1      38.066  30.640  30.786  1.00  0.00     0.029 A 
ATOM     53  C   UNL A   1      39.212  30.379  31.652  1.00  0.00     0.049 A 
ATOM     54  H   UNL A   1      39.593  31.190  33.532  1.00  0.00     0.167 HD
ATOM     55  C   UNL A   1      40.365  33.156  37.373  1.00  0.00     0.037 A 
ATOM     56  C   UNL A   1      40.233  29.548  31.371  1.00  0.00     0.037 A 
ATOM     57  C   UNL A   1      41.446  32.222  37.202  1.00  0.00     0.049 A 
ATOM     58  C   UNL A   1      41.353  29.396  32.361  1.00  0.00     0.074 A 
ATOM     59  C   UNL A   1      42.469  31.912  38.081  1.00  0.00     0.029 A 
ATOM     60  N   UNL A   1      41.644  31.446  36.068  1.00  0.00    -0.354 N 
ATOM     61  N   UNL A   1      41.505  29.969  33.530  1.00  0.00    -0.248 NA
ATOM     62  C   UNL A   1      42.445  28.487  31.989  1.00  0.00     0.031 C 
ATOM     63  C   UNL A   1      43.310  30.980  37.462  1.00  0.00     0.029 A 
ATOM     64  C   UNL A   1      42.791  30.683  36.212  1.00  0.00     0.049 A 
ATOM     65  H   UNL A   1      41.056  31.440  35.279  1.00  0.00     0.167 HD
ATOM     66  C   UNL A   1      42.699  29.482  34.041  1.00  0.00     0.074 A 
ATOM     67  C   UNL A   1      43.225  28.554  33.059  1.00  0.00     0.031 C 
ATOM     68  C   UNL A   1      43.305  29.775  35.217  1.00  0.00     0.037 A 
BRANCH  55  69
ATOM     69  C   UNL A   1      40.351  34.017  38.601  1.00  0.00     0.064 A 
ATOM     70  C   UNL A   1      41.020  35.249  38.646  1.00  0.00     0.173 A 
ATOM     71  C   UNL A   1      39.650  33.608  39.746  1.00  0.00     0.173 A 
ATOM     72  F   UNL A   1      41.716  35.678  37.582  1.00  0.00    -0.203 F 
ATOM     73  C   UNL A   1      41.017  36.025  39.802  1.00  0.00     0.198 A 
ATOM     74  C   UNL A   1      39.626  34.399  40.892  1.00  0.00     0.198 A 
ATOM     75  F   UNL A   1      38.991  32.440  39.755  1.00  0.00    -0.203 F 
ATOM     76  F   UNL A   1      41.708  37.173  39.839  1.00  0.00    -0.200 F 
ATOM     77  C   UNL A   1      40.317  35.602  40.922  1.00  0.00     0.200 A 
ATOM     78  F   UNL A   1      38.944  33.994  41.971  1.00  0.00    -0.200 F 
ATOM     79  F   UNL A   1      40.317  36.349  42.035  1.00  0.00    -0.200 F 
ENDBRANCH  55  69
BRANCH  56  80
ATOM     80  C   UNL A   1      40.221  28.778  30.103  1.00  0.00     0.064 A 
ATOM     81  C   UNL A   1      39.566  27.541  30.027  1.00  0.00     0.173 A 
ATOM     82  C   UNL A   1      40.834  29.267  28.942  1.00  0.00     0.173 A 
ATOM     83  F   UNL A   1      38.984  27.025  31.120  1.00  0.00    -0.203 F 
ATOM     84  C   UNL A   1      39.528  26.821  28.836  1.00  0.00     0.198 A 
ATOM     85  C   UNL A   1      40.778  28.555  27.745  1.00  0.00     0.198 A 
ATOM     86  F   UNL A   1      41.471  30.448  28.965  1.00  0.00    -0.203 F 
ATOM     87  F   UNL A   1      38.916  25.629  28.797  1.00  0.00    -0.200 F 
ATOM     88  C   UNL A   1      40.127  27.332  27.694  1.00  0.00     0.200 A 
ATOM     89  F   UNL A   1      41.348  29.057  26.642  1.00  0.00    -0.200 F 
ATOM     90  F   UNL A   1      40.081  26.642  26.546  1.00  0.00    -0.200 F 
ENDBRANCH  56  80
BRANCH  68  91
ATOM     91  C   UNL A   1      44.604  29.085  35.507  1.00  0.00     0.064 A 
ATOM     92  C   UNL A   1      44.639  27.840  36.149  1.00  0.00     0.173 A 
ATOM     93  C   UNL A   1      45.820  29.656  35.106  1.00  0.00     0.173 A 
ATOM     94  F   UNL A   1      43.502  27.263  36.567  1.00  0.00    -0.203 F 
ATOM     95  C   UNL A   1      45.849  27.197  36.396  1.00  0.00     0.198 A 
ATOM     96  C   UNL A   1      47.026  29.000  35.332  1.00  0.00     0.198 A 
ATOM     97  F   UNL A   1      45.837  30.845  34.484  1.00  0.00    -0.203 F 
ATOM     98  F   UNL A   1      45.863  26.025  37.045  1.00  0.00    -0.200 F 
ATOM     99  C   UNL A   1      47.040  27.773  35.981  1.00  0.00     0.200 A 
ATOM    100  F   UNL A   1      48.176  29.553  34.923  1.00  0.00    -0.200 F 
ATOM    101  F   UNL A   1      48.204  27.151  36.213  1.00  0.00    -0.200 F 
ENDBRANCH  68  91
ENDBRANCH  42  43
ENDBRANCH  34  37
ENDBRANCH  32  33
ENDBRANCH  31  32
ENDBRANCH  30  31
ENDBRANCH  29  30
ENDBRANCH   1  29
TORSDOF 17
ENDMDL
