MODEL 1
REMARK VINA RESULT:     -13.7      0.000      0.000
REMARK SMILES O=C(NCCCCCCNC(=O)c1cc(S(=O)(=O)NNC(=O)[C@H]2C=C(c3ccccc3)N=N2)ccc1F)c1ccc(-c2c3nc(c(-c4c(F)c(F)c(F)c(F)c4F)c4ccc([nH]4)c(-c4c(F)c(F)c(F)c(F)c4F)c4nc(c(-c5c(F)c(F)c(F)c(F)c5F)c5ccc2[nH]5)C=C4)C=C3)cc1
REMARK SMILES IDX 8 1 7 2 6 3 5 4 4 5 3 6 1 7 2 8 38 10 39 11 100 12 40 13
REMARK SMILES IDX 99 14 41 15 42 16 43 17 93 18 44 19 98 20 92 21 94 22 45 23
REMARK SMILES IDX 97 24 91 25 90 26 46 28 78 29 58 30 77 31 59 32 62 33 76 34
REMARK SMILES IDX 95 35 60 36 61 37 75 39 96 40 63 41 47 42 48 43 56 44 49 45
REMARK SMILES IDX 50 46 54 47 57 48 51 49 52 50 55 51 53 52 79 53 80 54 88 55
REMARK SMILES IDX 81 56 82 57 86 58 89 59 83 60 84 61 87 62 85 63 64 64 65 65
REMARK SMILES IDX 73 66 66 67 67 68 71 69 74 70 68 71 69 72 72 73 70 74 9 75
REMARK SMILES IDX 10 76 11 77 12 79 13 80 14 81 36 82 15 83 35 84 37 85 34 86
REMARK SMILES IDX 16 87 17 88 18 89 19 90 20 92 21 93 22 95 23 96 24 97 33 98
REMARK SMILES IDX 25 99 32 100 26 101 27 102 31 103 28 104 30 105 29 106
REMARK H PARENT 3 9 94 27 62 38 10 78 19 91 20 94
REMARK Flexibility Score: inf
ROOT
ATOM      1  C   UNL A   1      35.368  21.329  26.106  1.00  0.00     0.021 C 
ENDROOT
BRANCH   1   2
ATOM      2  C   UNL A   1      35.735  22.759  25.706  1.00  0.00     0.002 C 
BRANCH   2   3
ATOM      3  C   UNL A   1      37.069  22.926  24.969  1.00  0.00     0.002 C 
BRANCH   3   4
ATOM      4  C   UNL A   1      38.294  23.224  25.845  1.00  0.00     0.021 C 
BRANCH   4   5
ATOM      5  C   UNL A   1      39.105  21.998  26.265  1.00  0.00     0.116 C 
BRANCH   5   6
ATOM      6  N   UNL A   1      40.498  22.067  25.879  1.00  0.00    -0.352 N 
ATOM      7  O   UNL A   1      42.614  22.617  25.599  1.00  0.00    -0.269 OA
ATOM      8  C   UNL A   1      41.522  22.952  26.068  1.00  0.00     0.251 C 
ATOM      9  H   UNL A   1      40.777  21.284  25.349  1.00  0.00     0.163 HD
BRANCH   8  10
ATOM     10  C   UNL A   1      41.426  24.266  26.771  1.00  0.00     0.039 A 
ATOM     11  C   UNL A   1      41.811  24.528  28.085  1.00  0.00     0.014 A 
ATOM     12  C   UNL A   1      40.900  25.334  26.014  1.00  0.00     0.014 A 
ATOM     13  C   UNL A   1      41.663  25.807  28.630  1.00  0.00     0.010 A 
ATOM     14  C   UNL A   1      40.759  26.615  26.551  1.00  0.00     0.010 A 
ATOM     15  C   UNL A   1      41.131  26.854  27.870  1.00  0.00    -0.014 A 
BRANCH  15  16
ATOM     16  C   UNL A   1      41.059  28.184  28.484  1.00  0.00     0.031 A 
ATOM     17  C   UNL A   1      42.179  29.136  28.199  1.00  0.00     0.074 A 
ATOM     18  C   UNL A   1      39.996  28.664  29.159  1.00  0.00     0.049 A 
ATOM     19  N   UNL A   1      42.949  29.760  29.036  1.00  0.00    -0.248 NA
ATOM     20  C   UNL A   1      42.462  29.439  26.789  1.00  0.00     0.031 C 
ATOM     21  C   UNL A   1      38.654  28.093  29.277  1.00  0.00     0.029 A 
ATOM     22  N   UNL A   1      39.893  29.854  29.826  1.00  0.00    -0.354 N 
ATOM     23  C   UNL A   1      43.742  30.620  28.276  1.00  0.00     0.074 A 
ATOM     24  C   UNL A   1      43.431  30.349  26.894  1.00  0.00     0.031 C 
ATOM     25  C   UNL A   1      37.823  29.022  29.804  1.00  0.00     0.029 A 
ATOM     26  C   UNL A   1      38.602  30.189  30.189  1.00  0.00     0.049 A 
ATOM     27  H   UNL A   1      40.670  30.422  30.030  1.00  0.00     0.167 HD
ATOM     28  C   UNL A   1      44.534  31.586  28.819  1.00  0.00     0.037 A 
ATOM     29  C   UNL A   1      38.194  31.364  30.721  1.00  0.00     0.037 A 
ATOM     30  C   UNL A   1      44.766  31.391  30.219  1.00  0.00     0.049 A 
ATOM     31  C   UNL A   1      39.370  32.045  31.311  1.00  0.00     0.074 A 
ATOM     32  C   UNL A   1      45.400  30.429  30.979  1.00  0.00     0.029 A 
ATOM     33  N   UNL A   1      44.083  32.175  31.113  1.00  0.00    -0.354 N 
ATOM     34  N   UNL A   1      40.007  31.650  32.377  1.00  0.00    -0.248 NA
ATOM     35  C   UNL A   1      40.041  33.073  30.527  1.00  0.00     0.031 C 
ATOM     36  C   UNL A   1      44.696  30.403  32.218  1.00  0.00     0.029 A 
ATOM     37  C   UNL A   1      43.672  31.347  32.126  1.00  0.00     0.049 A 
ATOM     38  H   UNL A   1      43.920  33.143  31.041  1.00  0.00     0.167 HD
ATOM     39  C   UNL A   1      41.309  32.085  32.192  1.00  0.00     0.074 A 
ATOM     40  C   UNL A   1      41.234  33.070  31.124  1.00  0.00     0.031 C 
ATOM     41  C   UNL A   1      42.362  31.405  32.729  1.00  0.00     0.037 A 
BRANCH  28  42
ATOM     42  C   UNL A   1      44.960  32.845  28.116  1.00  0.00     0.064 A 
ATOM     43  C   UNL A   1      46.183  32.950  27.424  1.00  0.00     0.173 A 
ATOM     44  C   UNL A   1      44.039  33.889  27.901  1.00  0.00     0.173 A 
ATOM     45  F   UNL A   1      47.083  31.957  27.453  1.00  0.00    -0.203 F 
ATOM     46  C   UNL A   1      46.480  34.038  26.604  1.00  0.00     0.198 A 
ATOM     47  C   UNL A   1      44.322  34.956  27.042  1.00  0.00     0.198 A 
ATOM     48  F   UNL A   1      42.826  33.860  28.472  1.00  0.00    -0.203 F 
ATOM     49  F   UNL A   1      47.659  34.084  25.967  1.00  0.00    -0.200 F 
ATOM     50  C   UNL A   1      45.544  35.032  26.399  1.00  0.00     0.200 A 
ATOM     51  F   UNL A   1      43.386  35.885  26.802  1.00  0.00    -0.200 F 
ATOM     52  F   UNL A   1      45.803  36.036  25.550  1.00  0.00    -0.200 F 
ENDBRANCH  28  42
BRANCH  29  53
ATOM     53  C   UNL A   1      36.897  32.054  30.546  1.00  0.00     0.064 A 
ATOM     54  C   UNL A   1      36.664  32.897  29.443  1.00  0.00     0.173 A 
ATOM     55  C   UNL A   1      35.965  32.120  31.594  1.00  0.00     0.173 A 
ATOM     56  F   UNL A   1      37.543  32.965  28.432  1.00  0.00    -0.203 F 
ATOM     57  C   UNL A   1      35.575  33.766  29.397  1.00  0.00     0.198 A 
ATOM     58  C   UNL A   1      34.879  32.999  31.552  1.00  0.00     0.198 A 
ATOM     59  F   UNL A   1      36.138  31.381  32.699  1.00  0.00    -0.203 F 
ATOM     60  F   UNL A   1      35.423  34.588  28.350  1.00  0.00    -0.200 F 
ATOM     61  C   UNL A   1      34.691  33.828  30.459  1.00  0.00     0.200 A 
ATOM     62  F   UNL A   1      34.048  33.084  32.600  1.00  0.00    -0.200 F 
ATOM     63  F   UNL A   1      33.686  34.715  30.446  1.00  0.00    -0.200 F 
ENDBRANCH  29  53
BRANCH  41  64
ATOM     64  C   UNL A   1      42.074  30.401  33.807  1.00  0.00     0.064 A 
ATOM     65  C   UNL A   1      42.386  30.734  35.132  1.00  0.00     0.173 A 
ATOM     66  C   UNL A   1      41.666  29.082  33.546  1.00  0.00     0.173 A 
ATOM     67  F   UNL A   1      42.841  31.962  35.430  1.00  0.00    -0.203 F 
ATOM     68  C   UNL A   1      42.293  29.791  36.153  1.00  0.00     0.198 A 
ATOM     69  C   UNL A   1      41.540  28.152  34.575  1.00  0.00     0.198 A 
ATOM     70  F   UNL A   1      41.452  28.664  32.292  1.00  0.00    -0.203 F 
ATOM     71  F   UNL A   1      42.657  30.120  37.400  1.00  0.00    -0.200 F 
ATOM     72  C   UNL A   1      41.862  28.504  35.875  1.00  0.00     0.200 A 
ATOM     73  F   UNL A   1      41.147  26.899  34.302  1.00  0.00    -0.200 F 
ATOM     74  F   UNL A   1      41.792  27.593  36.856  1.00  0.00    -0.200 F 
ENDBRANCH  41  64
ENDBRANCH  15  16
ENDBRANCH   8  10
ENDBRANCH   5   6
ENDBRANCH   4   5
ENDBRANCH   3   4
ENDBRANCH   2   3
ENDBRANCH   1   2
BRANCH   1  75
ATOM     75  C   UNL A   1      35.352  20.316  24.965  1.00  0.00     0.116 C 
BRANCH  75  76
ATOM     76  N   UNL A   1      34.321  19.305  25.128  1.00  0.00    -0.352 N 
ATOM     77  C   UNL A   1      32.962  19.423  24.991  1.00  0.00     0.254 C 
ATOM     78  H   UNL A   1      34.645  18.407  25.371  1.00  0.00     0.163 HD
ATOM     79  O   UNL A   1      32.225  18.475  25.246  1.00  0.00    -0.269 OA
BRANCH  77  80
ATOM     80  C   UNL A   1      32.362  20.712  24.605  1.00  0.00     0.076 A 
ATOM     81  C   UNL A   1      31.996  21.604  25.616  1.00  0.00     0.038 A 
ATOM     82  C   UNL A   1      32.130  21.046  23.272  1.00  0.00     0.136 A 
ATOM     83  C   UNL A   1      31.477  22.859  25.275  1.00  0.00     0.085 A 
ATOM     84  C   UNL A   1      31.639  22.306  22.932  1.00  0.00     0.041 A 
ATOM     85  F   UNL A   1      32.395  20.177  22.286  1.00  0.00    -0.206 F 
ATOM     86  C   UNL A   1      31.335  23.231  23.934  1.00  0.00     0.025 A 
BRANCH  83  87
ATOM     87  S   UNL A   1      30.922  23.884  26.613  1.00  0.00     0.257 S 
ATOM     88  O   UNL A   1      29.570  23.464  26.924  1.00  0.00    -0.205 OA
ATOM     89  O   UNL A   1      31.977  23.894  27.596  1.00  0.00    -0.205 OA
BRANCH  87  90
ATOM     90  N   UNL A   1      30.817  25.455  25.988  1.00  0.00    -0.123 NA
ATOM     91  H   UNL A   1      31.534  25.531  25.267  1.00  0.00     0.167 HD
BRANCH  90  92
ATOM     92  N   UNL A   1      29.587  25.928  25.401  1.00  0.00    -0.275 N 
ATOM     93  C   UNL A   1      29.474  26.593  24.208  1.00  0.00     0.265 C 
ATOM     94  H   UNL A   1      28.757  25.760  25.901  1.00  0.00     0.186 HD
ATOM     95  O   UNL A   1      28.340  26.713  23.727  1.00  0.00    -0.271 OA
BRANCH  93  96
ATOM     96  C   UNL A   1      30.658  27.331  23.577  1.00  0.00     0.244 C 
ATOM     97  C   UNL A   1      31.024  28.440  24.493  1.00  0.00     0.042 C 
ATOM     98  N   UNL A   1      31.910  26.529  23.527  1.00  0.00    -0.171 NA
ATOM     99  C   UNL A   1      32.266  28.171  24.894  1.00  0.00     0.091 C 
ATOM    100  N   UNL A   1      32.781  27.053  24.285  1.00  0.00    -0.155 NA
BRANCH  99 101
ATOM    101  C   UNL A   1      33.004  28.964  25.879  1.00  0.00     0.002 A 
ATOM    102  C   UNL A   1      34.243  28.526  26.361  1.00  0.00     0.010 A 
ATOM    103  C   UNL A   1      32.480  30.175  26.357  1.00  0.00     0.010 A 
ATOM    104  C   UNL A   1      34.958  29.300  27.279  1.00  0.00     0.001 A 
ATOM    105  C   UNL A   1      33.193  30.944  27.280  1.00  0.00     0.001 A 
ATOM    106  C   UNL A   1      34.435  30.509  27.736  1.00  0.00     0.000 A 
ENDBRANCH  99 101
ENDBRANCH  93  96
ENDBRANCH  90  92
ENDBRANCH  87  90
ENDBRANCH  83  87
ENDBRANCH  77  80
ENDBRANCH  75  76
ENDBRANCH   1  75
TORSDOF 18
ENDMDL
MODEL 2
REMARK VINA RESULT:     -13.5      3.403      9.356
REMARK SMILES O=C(NCCCCCCNC(=O)c1cc(S(=O)(=O)NNC(=O)[C@H]2C=C(c3ccccc3)N=N2)ccc1F)c1ccc(-c2c3nc(c(-c4c(F)c(F)c(F)c(F)c4F)c4ccc([nH]4)c(-c4c(F)c(F)c(F)c(F)c4F)c4nc(c(-c5c(F)c(F)c(F)c(F)c5F)c5ccc2[nH]5)C=C4)C=C3)cc1
REMARK SMILES IDX 8 1 7 2 6 3 5 4 4 5 3 6 1 7 2 8 38 10 39 11 100 12 40 13
REMARK SMILES IDX 99 14 41 15 42 16 43 17 93 18 44 19 98 20 92 21 94 22 45 23
REMARK SMILES IDX 97 24 91 25 90 26 46 28 78 29 58 30 77 31 59 32 62 33 76 34
REMARK SMILES IDX 95 35 60 36 61 37 75 39 96 40 63 41 47 42 48 43 56 44 49 45
REMARK SMILES IDX 50 46 54 47 57 48 51 49 52 50 55 51 53 52 79 53 80 54 88 55
REMARK SMILES IDX 81 56 82 57 86 58 89 59 83 60 84 61 87 62 85 63 64 64 65 65
REMARK SMILES IDX 73 66 66 67 67 68 71 69 74 70 68 71 69 72 72 73 70 74 9 75
REMARK SMILES IDX 10 76 11 77 12 79 13 80 14 81 36 82 15 83 35 84 37 85 34 86
REMARK SMILES IDX 16 87 17 88 18 89 19 90 20 92 21 93 22 95 23 96 24 97 33 98
REMARK SMILES IDX 25 99 32 100 26 101 27 102 31 103 28 104 30 105 29 106
REMARK H PARENT 3 9 94 27 62 38 10 78 19 91 20 94
REMARK Flexibility Score: inf
ROOT
ATOM      1  C   UNL A   1      35.333  29.607  27.555  1.00  0.00     0.021 C 
ENDROOT
BRANCH   1   2
ATOM      2  C   UNL A   1      35.598  31.107  27.701  1.00  0.00     0.002 C 
BRANCH   2   3
ATOM      3  C   UNL A   1      34.366  31.979  27.969  1.00  0.00     0.002 C 
BRANCH   3   4
ATOM      4  C   UNL A   1      34.603  33.495  28.000  1.00  0.00     0.021 C 
BRANCH   4   5
ATOM      5  C   UNL A   1      35.362  34.008  29.224  1.00  0.00     0.116 C 
BRANCH   5   6
ATOM      6  N   UNL A   1      34.915  33.423  30.470  1.00  0.00    -0.352 N 
ATOM      7  O   UNL A   1      34.708  32.273  32.339  1.00  0.00    -0.269 OA
ATOM      8  C   UNL A   1      35.383  32.462  31.322  1.00  0.00     0.251 C 
ATOM      9  H   UNL A   1      34.064  33.811  30.779  1.00  0.00     0.163 HD
BRANCH   8  10
ATOM     10  C   UNL A   1      36.610  31.634  31.121  1.00  0.00     0.039 A 
ATOM     11  C   UNL A   1      37.905  32.114  30.934  1.00  0.00     0.014 A 
ATOM     12  C   UNL A   1      36.420  30.237  31.131  1.00  0.00     0.014 A 
ATOM     13  C   UNL A   1      38.973  31.230  30.750  1.00  0.00     0.010 A 
ATOM     14  C   UNL A   1      37.484  29.350  30.956  1.00  0.00     0.010 A 
ATOM     15  C   UNL A   1      38.768  29.846  30.753  1.00  0.00    -0.014 A 
BRANCH  15  16
ATOM     16  C   UNL A   1      39.939  28.975  30.614  1.00  0.00     0.031 A 
ATOM     17  C   UNL A   1      40.741  28.696  31.847  1.00  0.00     0.074 A 
ATOM     18  C   UNL A   1      40.263  28.291  29.498  1.00  0.00     0.049 A 
ATOM     19  N   UNL A   1      42.007  28.886  32.055  1.00  0.00    -0.248 NA
ATOM     20  C   UNL A   1      40.030  28.110  32.993  1.00  0.00     0.031 C 
ATOM     21  C   UNL A   1      39.472  28.100  28.282  1.00  0.00     0.029 A 
ATOM     22  N   UNL A   1      41.379  27.534  29.273  1.00  0.00    -0.354 N 
ATOM     23  C   UNL A   1      42.285  28.348  33.312  1.00  0.00     0.074 A 
ATOM     24  C   UNL A   1      41.022  27.922  33.864  1.00  0.00     0.031 C 
ATOM     25  C   UNL A   1      40.044  27.129  27.532  1.00  0.00     0.029 A 
ATOM     26  C   UNL A   1      41.304  26.739  28.143  1.00  0.00     0.049 A 
ATOM     27  H   UNL A   1      42.167  27.552  29.862  1.00  0.00     0.167 HD
ATOM     28  C   UNL A   1      43.548  28.179  33.792  1.00  0.00     0.037 A 
ATOM     29  C   UNL A   1      42.192  25.791  27.765  1.00  0.00     0.037 A 
ATOM     30  C   UNL A   1      44.524  28.937  33.067  1.00  0.00     0.049 A 
ATOM     31  C   UNL A   1      43.482  26.058  28.446  1.00  0.00     0.074 A 
ATOM     32  C   UNL A   1      44.767  30.281  32.872  1.00  0.00     0.029 A 
ATOM     33  N   UNL A   1      45.331  28.283  32.174  1.00  0.00    -0.354 N 
ATOM     34  N   UNL A   1      44.269  27.063  28.189  1.00  0.00    -0.248 NA
ATOM     35  C   UNL A   1      43.789  25.316  29.661  1.00  0.00     0.031 C 
ATOM     36  C   UNL A   1      45.344  30.375  31.572  1.00  0.00     0.029 A 
ATOM     37  C   UNL A   1      45.406  29.078  31.059  1.00  0.00     0.049 A 
ATOM     38  H   UNL A   1      45.772  27.412  32.306  1.00  0.00     0.167 HD
ATOM     39  C   UNL A   1      44.917  27.319  29.386  1.00  0.00     0.074 A 
ATOM     40  C   UNL A   1      44.696  26.133  30.200  1.00  0.00     0.031 C 
ATOM     41  C   UNL A   1      45.335  28.576  29.707  1.00  0.00     0.037 A 
BRANCH  28  42
ATOM     42  C   UNL A   1      43.948  27.158  34.822  1.00  0.00     0.064 A 
ATOM     43  C   UNL A   1      44.083  27.475  36.189  1.00  0.00     0.173 A 
ATOM     44  C   UNL A   1      43.951  25.786  34.505  1.00  0.00     0.173 A 
ATOM     45  F   UNL A   1      43.968  28.738  36.623  1.00  0.00    -0.203 F 
ATOM     46  C   UNL A   1      44.247  26.492  37.165  1.00  0.00     0.198 A 
ATOM     47  C   UNL A   1      44.070  24.802  35.491  1.00  0.00     0.198 A 
ATOM     48  F   UNL A   1      43.778  25.376  33.239  1.00  0.00    -0.203 F 
ATOM     49  F   UNL A   1      44.368  26.851  38.451  1.00  0.00    -0.200 F 
ATOM     50  C   UNL A   1      44.223  25.156  36.819  1.00  0.00     0.200 A 
ATOM     51  F   UNL A   1      43.987  23.507  35.154  1.00  0.00    -0.200 F 
ATOM     52  F   UNL A   1      44.304  24.214  37.768  1.00  0.00    -0.200 F 
ENDBRANCH  28  42
BRANCH  29  53
ATOM     53  C   UNL A   1      41.938  24.527  27.040  1.00  0.00     0.064 A 
ATOM     54  C   UNL A   1      41.156  23.505  27.610  1.00  0.00     0.173 A 
ATOM     55  C   UNL A   1      42.680  24.186  25.898  1.00  0.00     0.173 A 
ATOM     56  F   UNL A   1      40.478  23.713  28.749  1.00  0.00    -0.203 F 
ATOM     57  C   UNL A   1      41.131  22.215  27.081  1.00  0.00     0.198 A 
ATOM     58  C   UNL A   1      42.664  22.890  25.375  1.00  0.00     0.198 A 
ATOM     59  F   UNL A   1      43.484  25.090  25.320  1.00  0.00    -0.203 F 
ATOM     60  F   UNL A   1      40.412  21.261  27.689  1.00  0.00    -0.200 F 
ATOM     61  C   UNL A   1      41.897  21.904  25.972  1.00  0.00     0.200 A 
ATOM     62  F   UNL A   1      43.437  22.584  24.324  1.00  0.00    -0.200 F 
ATOM     63  F   UNL A   1      41.927  20.647  25.509  1.00  0.00    -0.200 F 
ENDBRANCH  29  53
BRANCH  41  64
ATOM     64  C   UNL A   1      45.406  29.596  28.608  1.00  0.00     0.064 A 
ATOM     65  C   UNL A   1      46.658  29.904  28.060  1.00  0.00     0.173 A 
ATOM     66  C   UNL A   1      44.310  30.381  28.212  1.00  0.00     0.173 A 
ATOM     67  F   UNL A   1      47.750  29.227  28.450  1.00  0.00    -0.203 F 
ATOM     68  C   UNL A   1      46.810  30.951  27.155  1.00  0.00     0.198 A 
ATOM     69  C   UNL A   1      44.459  31.404  27.278  1.00  0.00     0.198 A 
ATOM     70  F   UNL A   1      43.105  30.213  28.771  1.00  0.00    -0.203 F 
ATOM     71  F   UNL A   1      48.030  31.263  26.694  1.00  0.00    -0.200 F 
ATOM     72  C   UNL A   1      45.710  31.694  26.757  1.00  0.00     0.200 A 
ATOM     73  F   UNL A   1      43.399  32.140  26.914  1.00  0.00    -0.200 F 
ATOM     74  F   UNL A   1      45.862  32.714  25.900  1.00  0.00    -0.200 F 
ENDBRANCH  41  64
ENDBRANCH  15  16
ENDBRANCH   8  10
ENDBRANCH   5   6
ENDBRANCH   4   5
ENDBRANCH   3   4
ENDBRANCH   2   3
ENDBRANCH   1   2
BRANCH   1  75
ATOM     75  C   UNL A   1      33.982  29.238  26.952  1.00  0.00     0.116 C 
BRANCH  75  76
ATOM     76  N   UNL A   1      34.003  29.212  25.500  1.00  0.00    -0.352 N 
ATOM     77  C   UNL A   1      33.646  28.200  24.645  1.00  0.00     0.254 C 
ATOM     78  H   UNL A   1      34.319  30.039  25.067  1.00  0.00     0.163 HD
ATOM     79  O   UNL A   1      33.805  28.322  23.435  1.00  0.00    -0.269 OA
BRANCH  77  80
ATOM     80  C   UNL A   1      33.135  26.925  25.176  1.00  0.00     0.076 A 
ATOM     81  C   UNL A   1      34.049  25.903  25.445  1.00  0.00     0.038 A 
ATOM     82  C   UNL A   1      31.775  26.708  25.387  1.00  0.00     0.136 A 
ATOM     83  C   UNL A   1      33.597  24.701  26.004  1.00  0.00     0.085 A 
ATOM     84  C   UNL A   1      31.328  25.522  25.969  1.00  0.00     0.041 A 
ATOM     85  F   UNL A   1      30.868  27.639  25.060  1.00  0.00    -0.206 F 
ATOM     86  C   UNL A   1      32.242  24.521  26.305  1.00  0.00     0.025 A 
BRANCH  83  87
ATOM     87  S   UNL A   1      34.799  23.410  26.201  1.00  0.00     0.257 S 
ATOM     88  O   UNL A   1      36.094  24.006  25.942  1.00  0.00    -0.205 OA
ATOM     89  O   UNL A   1      34.487  22.735  27.435  1.00  0.00    -0.205 OA
BRANCH  87  90
ATOM     90  N   UNL A   1      34.509  22.306  24.949  1.00  0.00    -0.123 NA
ATOM     91  H   UNL A   1      33.621  21.851  25.160  1.00  0.00     0.167 HD
BRANCH  90  92
ATOM     92  N   UNL A   1      34.428  22.754  23.580  1.00  0.00    -0.275 N 
ATOM     93  C   UNL A   1      33.300  22.755  22.803  1.00  0.00     0.265 C 
ATOM     94  H   UNL A   1      35.257  23.089  23.168  1.00  0.00     0.186 HD
ATOM     95  O   UNL A   1      33.337  23.393  21.743  1.00  0.00    -0.271 OA
BRANCH  93  96
ATOM     96  C   UNL A   1      32.102  21.855  23.116  1.00  0.00     0.244 C 
ATOM     97  C   UNL A   1      32.527  20.454  22.868  1.00  0.00     0.042 C 
ATOM     98  N   UNL A   1      31.728  21.827  24.555  1.00  0.00    -0.171 NA
ATOM     99  C   UNL A   1      32.442  19.845  24.051  1.00  0.00     0.091 C 
ATOM    100  N   UNL A   1      31.937  20.669  25.027  1.00  0.00    -0.155 NA
BRANCH  99 101
ATOM    101  C   UNL A   1      32.847  18.461  24.295  1.00  0.00     0.002 A 
ATOM    102  C   UNL A   1      33.559  17.745  23.325  1.00  0.00     0.010 A 
ATOM    103  C   UNL A   1      32.529  17.826  25.506  1.00  0.00     0.010 A 
ATOM    104  C   UNL A   1      33.971  16.433  23.573  1.00  0.00     0.001 A 
ATOM    105  C   UNL A   1      32.935  16.512  25.751  1.00  0.00     0.001 A 
ATOM    106  C   UNL A   1      33.661  15.818  24.786  1.00  0.00     0.000 A 
ENDBRANCH  99 101
ENDBRANCH  93  96
ENDBRANCH  90  92
ENDBRANCH  87  90
ENDBRANCH  83  87
ENDBRANCH  77  80
ENDBRANCH  75  76
ENDBRANCH   1  75
TORSDOF 18
ENDMDL
MODEL 3
REMARK VINA RESULT:     -13.2      3.275      8.982
REMARK SMILES O=C(NCCCCCCNC(=O)c1cc(S(=O)(=O)NNC(=O)[C@H]2C=C(c3ccccc3)N=N2)ccc1F)c1ccc(-c2c3nc(c(-c4c(F)c(F)c(F)c(F)c4F)c4ccc([nH]4)c(-c4c(F)c(F)c(F)c(F)c4F)c4nc(c(-c5c(F)c(F)c(F)c(F)c5F)c5ccc2[nH]5)C=C4)C=C3)cc1
REMARK SMILES IDX 8 1 7 2 6 3 5 4 4 5 3 6 1 7 2 8 38 10 39 11 100 12 40 13
REMARK SMILES IDX 99 14 41 15 42 16 43 17 93 18 44 19 98 20 92 21 94 22 45 23
REMARK SMILES IDX 97 24 91 25 90 26 46 28 78 29 58 30 77 31 59 32 62 33 76 34
REMARK SMILES IDX 95 35 60 36 61 37 75 39 96 40 63 41 47 42 48 43 56 44 49 45
REMARK SMILES IDX 50 46 54 47 57 48 51 49 52 50 55 51 53 52 79 53 80 54 88 55
REMARK SMILES IDX 81 56 82 57 86 58 89 59 83 60 84 61 87 62 85 63 64 64 65 65
REMARK SMILES IDX 73 66 66 67 67 68 71 69 74 70 68 71 69 72 72 73 70 74 9 75
REMARK SMILES IDX 10 76 11 77 12 79 13 80 14 81 36 82 15 83 35 84 37 85 34 86
REMARK SMILES IDX 16 87 17 88 18 89 19 90 20 92 21 93 22 95 23 96 24 97 33 98
REMARK SMILES IDX 25 99 32 100 26 101 27 102 31 103 28 104 30 105 29 106
REMARK H PARENT 3 9 94 27 62 38 10 78 19 91 20 94
REMARK Flexibility Score: inf
ROOT
ATOM      1  C   UNL A   1      34.164  28.718  26.860  1.00  0.00     0.021 C 
ENDROOT
BRANCH   1   2
ATOM      2  C   UNL A   1      34.980  29.703  27.700  1.00  0.00     0.002 C 
BRANCH   2   3
ATOM      3  C   UNL A   1      34.457  31.144  27.735  1.00  0.00     0.002 C 
BRANCH   3   4
ATOM      4  C   UNL A   1      35.519  32.249  27.798  1.00  0.00     0.021 C 
BRANCH   4   5
ATOM      5  C   UNL A   1      35.219  33.385  28.776  1.00  0.00     0.116 C 
BRANCH   5   6
ATOM      6  N   UNL A   1      34.848  32.926  30.098  1.00  0.00    -0.352 N 
ATOM      7  O   UNL A   1      34.772  31.994  32.093  1.00  0.00    -0.269 OA
ATOM      8  C   UNL A   1      35.400  32.098  31.035  1.00  0.00     0.251 C 
ATOM      9  H   UNL A   1      33.987  33.301  30.394  1.00  0.00     0.163 HD
BRANCH   8  10
ATOM     10  C   UNL A   1      36.665  31.320  30.882  1.00  0.00     0.039 A 
ATOM     11  C   UNL A   1      37.938  31.850  30.674  1.00  0.00     0.014 A 
ATOM     12  C   UNL A   1      36.541  29.918  30.966  1.00  0.00     0.014 A 
ATOM     13  C   UNL A   1      39.047  31.009  30.540  1.00  0.00     0.010 A 
ATOM     14  C   UNL A   1      37.647  29.074  30.842  1.00  0.00     0.010 A 
ATOM     15  C   UNL A   1      38.907  29.619  30.616  1.00  0.00    -0.014 A 
BRANCH  15  16
ATOM     16  C   UNL A   1      40.119  28.798  30.526  1.00  0.00     0.031 A 
ATOM     17  C   UNL A   1      40.894  28.574  31.787  1.00  0.00     0.074 A 
ATOM     18  C   UNL A   1      40.506  28.112  29.432  1.00  0.00     0.049 A 
ATOM     19  N   UNL A   1      42.144  28.823  32.030  1.00  0.00    -0.248 NA
ATOM     20  C   UNL A   1      40.175  27.976  32.922  1.00  0.00     0.031 C 
ATOM     21  C   UNL A   1      39.762  27.867  28.197  1.00  0.00     0.029 A 
ATOM     22  N   UNL A   1      41.660  27.401  29.253  1.00  0.00    -0.354 N 
ATOM     23  C   UNL A   1      42.407  28.317  33.303  1.00  0.00     0.074 A 
ATOM     24  C   UNL A   1      41.147  27.846  33.824  1.00  0.00     0.031 C 
ATOM     25  C   UNL A   1      40.397  26.910  27.481  1.00  0.00     0.029 A 
ATOM     26  C   UNL A   1      41.655  26.586  28.135  1.00  0.00     0.049 A 
ATOM     27  H   UNL A   1      42.428  27.463  29.866  1.00  0.00     0.167 HD
ATOM     28  C   UNL A   1      43.661  28.212  33.824  1.00  0.00     0.037 A 
ATOM     29  C   UNL A   1      42.594  25.672  27.801  1.00  0.00     0.037 A 
ATOM     30  C   UNL A   1      44.624  29.000  33.115  1.00  0.00     0.049 A 
ATOM     31  C   UNL A   1      43.849  26.006  28.515  1.00  0.00     0.074 A 
ATOM     32  C   UNL A   1      44.814  30.351  32.904  1.00  0.00     0.029 A 
ATOM     33  N   UNL A   1      45.486  28.369  32.257  1.00  0.00    -0.354 N 
ATOM     34  N   UNL A   1      44.600  27.041  28.264  1.00  0.00    -0.248 NA
ATOM     35  C   UNL A   1      44.151  25.298  29.751  1.00  0.00     0.031 C 
ATOM     36  C   UNL A   1      45.427  30.449  31.621  1.00  0.00     0.029 A 
ATOM     37  C   UNL A   1      45.560  29.148  31.132  1.00  0.00     0.049 A 
ATOM     38  H   UNL A   1      45.960  27.520  32.417  1.00  0.00     0.167 HD
ATOM     39  C   UNL A   1      45.199  27.343  29.475  1.00  0.00     0.074 A 
ATOM     40  C   UNL A   1      45.005  26.162  30.303  1.00  0.00     0.031 C 
ATOM     41  C   UNL A   1      45.552  28.623  29.787  1.00  0.00     0.037 A 
BRANCH  28  42
ATOM     42  C   UNL A   1      44.073  27.226  34.882  1.00  0.00     0.064 A 
ATOM     43  C   UNL A   1      44.229  27.589  36.235  1.00  0.00     0.173 A 
ATOM     44  C   UNL A   1      44.068  25.843  34.613  1.00  0.00     0.173 A 
ATOM     45  F   UNL A   1      44.124  28.867  36.627  1.00  0.00    -0.203 F 
ATOM     46  C   UNL A   1      44.405  26.640  37.242  1.00  0.00     0.198 A 
ATOM     47  C   UNL A   1      44.198  24.893  35.630  1.00  0.00     0.198 A 
ATOM     48  F   UNL A   1      43.874  25.391  33.365  1.00  0.00    -0.203 F 
ATOM     49  F   UNL A   1      44.547  27.043  38.513  1.00  0.00    -0.200 F 
ATOM     50  C   UNL A   1      44.372  25.293  36.943  1.00  0.00     0.200 A 
ATOM     51  F   UNL A   1      44.106  23.588  35.339  1.00  0.00    -0.200 F 
ATOM     52  F   UNL A   1      44.464  24.384  37.922  1.00  0.00    -0.200 F 
ENDBRANCH  28  42
BRANCH  29  53
ATOM     53  C   UNL A   1      42.417  24.387  27.089  1.00  0.00     0.064 A 
ATOM     54  C   UNL A   1      42.024  23.223  27.776  1.00  0.00     0.173 A 
ATOM     55  C   UNL A   1      42.896  24.212  25.781  1.00  0.00     0.173 A 
ATOM     56  F   UNL A   1      41.632  23.281  29.058  1.00  0.00    -0.203 F 
ATOM     57  C   UNL A   1      42.119  21.959  27.197  1.00  0.00     0.198 A 
ATOM     58  C   UNL A   1      43.002  22.943  25.205  1.00  0.00     0.198 A 
ATOM     59  F   UNL A   1      43.331  25.265  25.074  1.00  0.00    -0.203 F 
ATOM     60  F   UNL A   1      41.782  20.874  27.908  1.00  0.00    -0.200 F 
ATOM     61  C   UNL A   1      42.622  21.817  25.916  1.00  0.00     0.200 A 
ATOM     62  F   UNL A   1      43.526  22.808  23.979  1.00  0.00    -0.200 F 
ATOM     63  F   UNL A   1      42.781  20.596  25.388  1.00  0.00    -0.200 F 
ENDBRANCH  29  53
BRANCH  41  64
ATOM     64  C   UNL A   1      45.612  29.627  28.673  1.00  0.00     0.064 A 
ATOM     65  C   UNL A   1      46.867  30.007  28.181  1.00  0.00     0.173 A 
ATOM     66  C   UNL A   1      44.489  30.333  28.209  1.00  0.00     0.173 A 
ATOM     67  F   UNL A   1      47.980  29.409  28.637  1.00  0.00    -0.203 F 
ATOM     68  C   UNL A   1      46.997  31.048  27.264  1.00  0.00     0.198 A 
ATOM     69  C   UNL A   1      44.619  31.349  27.265  1.00  0.00     0.198 A 
ATOM     70  F   UNL A   1      43.271  30.096  28.712  1.00  0.00    -0.203 F 
ATOM     71  F   UNL A   1      48.215  31.431  26.857  1.00  0.00    -0.200 F 
ATOM     72  C   UNL A   1      45.872  31.711  26.800  1.00  0.00     0.200 A 
ATOM     73  F   UNL A   1      43.533  32.009  26.836  1.00  0.00    -0.200 F 
ATOM     74  F   UNL A   1      46.001  32.725  25.932  1.00  0.00    -0.200 F 
ENDBRANCH  41  64
ENDBRANCH  15  16
ENDBRANCH   8  10
ENDBRANCH   5   6
ENDBRANCH   4   5
ENDBRANCH   3   4
ENDBRANCH   2   3
ENDBRANCH   1   2
BRANCH   1  75
ATOM     75  C   UNL A   1      33.249  29.352  25.817  1.00  0.00     0.116 C 
BRANCH  75  76
ATOM     76  N   UNL A   1      33.693  29.100  24.456  1.00  0.00    -0.352 N 
ATOM     77  C   UNL A   1      33.090  28.359  23.471  1.00  0.00     0.254 C 
ATOM     78  H   UNL A   1      34.547  29.522  24.205  1.00  0.00     0.163 HD
ATOM     79  O   UNL A   1      33.649  28.184  22.393  1.00  0.00    -0.269 OA
BRANCH  77  80
ATOM     80  C   UNL A   1      31.797  27.701  23.722  1.00  0.00     0.076 A 
ATOM     81  C   UNL A   1      31.735  26.708  24.704  1.00  0.00     0.038 A 
ATOM     82  C   UNL A   1      30.654  28.022  22.993  1.00  0.00     0.136 A 
ATOM     83  C   UNL A   1      30.506  26.107  25.001  1.00  0.00     0.085 A 
ATOM     84  C   UNL A   1      29.425  27.444  23.309  1.00  0.00     0.041 A 
ATOM     85  F   UNL A   1      30.702  28.911  21.991  1.00  0.00    -0.206 F 
ATOM     86  C   UNL A   1      29.340  26.500  24.335  1.00  0.00     0.025 A 
BRANCH  83  87
ATOM     87  S   UNL A   1      30.533  24.771  26.169  1.00  0.00     0.257 S 
ATOM     88  O   UNL A   1      31.795  24.863  26.876  1.00  0.00    -0.205 OA
ATOM     89  O   UNL A   1      29.261  24.783  26.847  1.00  0.00    -0.205 OA
BRANCH  87  90
ATOM     90  N   UNL A   1      30.587  23.347  25.252  1.00  0.00    -0.123 NA
ATOM     91  H   UNL A   1      29.620  23.065  25.093  1.00  0.00     0.167 HD
BRANCH  90  92
ATOM     92  N   UNL A   1      31.241  23.329  23.966  1.00  0.00    -0.275 N 
ATOM     93  C   UNL A   1      32.066  22.340  23.502  1.00  0.00     0.265 C 
ATOM     94  H   UNL A   1      31.079  24.096  23.370  1.00  0.00     0.186 HD
ATOM     95  O   UNL A   1      32.348  22.350  22.296  1.00  0.00    -0.271 OA
BRANCH  93  96
ATOM     96  C   UNL A   1      32.776  21.368  24.447  1.00  0.00     0.244 C 
ATOM     97  C   UNL A   1      34.236  21.547  24.247  1.00  0.00     0.042 C 
ATOM     98  N   UNL A   1      32.606  21.697  25.888  1.00  0.00    -0.171 NA
ATOM     99  C   UNL A   1      34.702  21.979  25.419  1.00  0.00     0.091 C 
ATOM    100  N   UNL A   1      33.725  22.030  26.383  1.00  0.00    -0.155 NA
BRANCH  99 101
ATOM    101  C   UNL A   1      36.092  22.368  25.659  1.00  0.00     0.002 A 
ATOM    102  C   UNL A   1      36.410  23.678  26.035  1.00  0.00     0.010 A 
ATOM    103  C   UNL A   1      37.130  21.433  25.517  1.00  0.00     0.010 A 
ATOM    104  C   UNL A   1      37.735  24.039  26.293  1.00  0.00     0.001 A 
ATOM    105  C   UNL A   1      38.455  21.797  25.768  1.00  0.00     0.001 A 
ATOM    106  C   UNL A   1      38.756  23.099  26.162  1.00  0.00     0.000 A 
ENDBRANCH  99 101
ENDBRANCH  93  96
ENDBRANCH  90  92
ENDBRANCH  87  90
ENDBRANCH  83  87
ENDBRANCH  77  80
ENDBRANCH  75  76
ENDBRANCH   1  75
TORSDOF 18
ENDMDL
