MODEL 1
REMARK VINA RESULT:     -11.5      0.000      0.000
REMARK SMILES CC[C@](C)(NC(=O)N[C@@H]1C[C@@H]1C)C(=O)NCCCCCCNC(=O)c1ccc(-c2c3nc(c(-c4c(F)c(F)c(F)c(F)c4F)c4ccc([nH]4)c(-c4c(F)c(F)c(F)c(F)c4F)c4nc(c(-c5c(F)c(F)c(F)c(F)c5F)c5ccc2[nH]5)C=C4)C=C3)cc1
REMARK SMILES IDX 18 1 17 2 16 3 15 4 13 5 14 6 3 8 4 9 2 10 1 11 5 12 6 13
REMARK SMILES IDX 7 15 8 16 9 18 10 19 11 20 12 21 19 22 20 23 21 24 22 25
REMARK SMILES IDX 23 26 24 28 25 29 26 30 87 31 27 32 86 33 28 34 29 35 30 36
REMARK SMILES IDX 80 37 31 38 85 39 79 40 81 41 32 42 84 43 78 44 77 45 33 47
REMARK SMILES IDX 65 48 45 49 64 50 46 51 49 52 63 53 82 54 47 55 48 56 62 58
REMARK SMILES IDX 83 59 50 60 34 61 35 62 43 63 36 64 37 65 41 66 44 67 38 68
REMARK SMILES IDX 39 69 42 70 40 71 66 72 67 73 75 74 68 75 69 76 73 77 76 78
REMARK SMILES IDX 70 79 71 80 74 81 72 82 51 83 52 84 60 85 53 86 54 87 58 88
REMARK SMILES IDX 61 89 55 90 56 91 59 92 57 93
REMARK H PARENT 15 7 5 14 8 17 22 27 81 46 49 57
REMARK Flexibility Score: inf
ROOT
ATOM      1  C   UNL A   1      31.843  29.327  27.024  1.00  0.00     0.002 C 
ENDROOT
BRANCH   1   2
ATOM      2  C   UNL A   1      32.916  28.282  26.730  1.00  0.00     0.021 C 
BRANCH   2   3
ATOM      3  C   UNL A   1      32.399  26.870  26.465  1.00  0.00     0.116 C 
BRANCH   3   4
ATOM      4  N   UNL A   1      33.209  26.087  25.552  1.00  0.00    -0.354 N 
ATOM      5  C   UNL A   1      32.838  25.190  24.586  1.00  0.00     0.245 C 
ATOM      6  O   UNL A   1      33.659  24.980  23.687  1.00  0.00    -0.272 OA
ATOM      7  H   UNL A   1      34.181  26.221  25.642  1.00  0.00     0.163 HD
BRANCH   5   8
ATOM      8  C   UNL A   1      31.389  24.664  24.491  1.00  0.00     0.117 C 
ATOM      9  C   UNL A   1      31.221  23.388  23.637  1.00  0.00     0.045 C 
BRANCH   8  10
ATOM     10  C   UNL A   1      30.585  25.813  23.784  1.00  0.00     0.035 C 
ATOM     11  C   UNL A   1      29.380  26.328  24.575  1.00  0.00     0.007 C 
ENDBRANCH   8  10
BRANCH   8  12
ATOM     12  N   UNL A   1      30.815  24.408  25.824  1.00  0.00    -0.324 N 
ATOM     13  C   UNL A   1      30.851  23.356  26.644  1.00  0.00     0.315 C 
ATOM     14  H   UNL A   1      30.302  25.168  26.182  1.00  0.00     0.166 HD
ATOM     15  O   UNL A   1      29.913  23.259  27.445  1.00  0.00    -0.249 OA
ATOM     16  N   UNL A   1      31.767  22.381  26.678  1.00  0.00    -0.335 N 
ATOM     17  H   UNL A   1      31.342  21.519  26.888  1.00  0.00     0.165 HD
BRANCH  16  18
ATOM     18  C   UNL A   1      33.180  22.209  26.505  1.00  0.00     0.087 C 
ATOM     19  C   UNL A   1      34.159  22.004  25.385  1.00  0.00     0.030 C 
ATOM     20  C   UNL A   1      33.499  20.810  25.952  1.00  0.00     0.010 C 
ATOM     21  C   UNL A   1      32.523  20.104  25.060  1.00  0.00     0.010 C 
ENDBRANCH  16  18
ENDBRANCH   8  12
ENDBRANCH   5   8
ENDBRANCH   3   4
ENDBRANCH   2   3
ENDBRANCH   1   2
BRANCH   1  22
ATOM     22  C   UNL A   1      31.847  30.540  26.093  1.00  0.00     0.002 C 
BRANCH  22  23
ATOM     23  C   UNL A   1      31.518  31.874  26.765  1.00  0.00     0.021 C 
BRANCH  23  24
ATOM     24  C   UNL A   1      32.726  32.629  27.308  1.00  0.00     0.116 C 
BRANCH  24  25
ATOM     25  N   UNL A   1      32.425  34.024  27.573  1.00  0.00    -0.352 N 
ATOM     26  C   UNL A   1      32.972  34.872  28.507  1.00  0.00     0.251 C 
ATOM     27  H   UNL A   1      31.730  34.422  26.999  1.00  0.00     0.163 HD
ATOM     28  O   UNL A   1      32.467  35.961  28.730  1.00  0.00    -0.269 OA
BRANCH  26  29
ATOM     29  C   UNL A   1      34.163  34.440  29.271  1.00  0.00     0.039 A 
ATOM     30  C   UNL A   1      33.983  33.861  30.528  1.00  0.00     0.014 A 
ATOM     31  C   UNL A   1      35.448  34.586  28.740  1.00  0.00     0.014 A 
ATOM     32  C   UNL A   1      35.085  33.355  31.219  1.00  0.00     0.010 A 
ATOM     33  C   UNL A   1      36.535  34.013  29.395  1.00  0.00     0.010 A 
ATOM     34  C   UNL A   1      36.363  33.383  30.637  1.00  0.00    -0.014 A 
BRANCH  34  35
ATOM     35  C   UNL A   1      37.520  32.724  31.294  1.00  0.00     0.031 A 
ATOM     36  C   UNL A   1      38.213  31.564  30.639  1.00  0.00     0.074 A 
ATOM     37  C   UNL A   1      37.898  33.127  32.523  1.00  0.00     0.049 A 
ATOM     38  N   UNL A   1      39.191  30.820  31.092  1.00  0.00    -0.248 NA
ATOM     39  C   UNL A   1      37.725  31.171  29.310  1.00  0.00     0.031 C 
ATOM     40  C   UNL A   1      37.270  34.205  33.287  1.00  0.00     0.029 A 
ATOM     41  N   UNL A   1      38.890  32.665  33.353  1.00  0.00    -0.354 N 
ATOM     42  C   UNL A   1      39.433  29.874  30.107  1.00  0.00     0.074 A 
ATOM     43  C   UNL A   1      38.457  30.096  29.061  1.00  0.00     0.031 C 
ATOM     44  C   UNL A   1      37.897  34.330  34.467  1.00  0.00     0.029 A 
ATOM     45  C   UNL A   1      38.939  33.314  34.563  1.00  0.00     0.049 A 
ATOM     46  H   UNL A   1      39.506  31.938  33.106  1.00  0.00     0.167 HD
ATOM     47  C   UNL A   1      40.397  28.921  30.066  1.00  0.00     0.037 A 
ATOM     48  C   UNL A   1      39.722  33.101  35.638  1.00  0.00     0.037 A 
ATOM     49  C   UNL A   1      41.363  28.702  31.113  1.00  0.00     0.049 A 
ATOM     50  C   UNL A   1      40.763  32.017  35.587  1.00  0.00     0.074 A 
ATOM     51  C   UNL A   1      42.411  27.799  31.146  1.00  0.00     0.029 A 
ATOM     52  N   UNL A   1      41.388  29.385  32.322  1.00  0.00    -0.354 N 
ATOM     53  N   UNL A   1      41.036  31.179  34.618  1.00  0.00    -0.248 NA
ATOM     54  C   UNL A   1      41.609  31.854  36.777  1.00  0.00     0.031 C 
ATOM     55  C   UNL A   1      43.030  27.891  32.397  1.00  0.00     0.029 A 
ATOM     56  C   UNL A   1      42.410  28.897  33.121  1.00  0.00     0.049 A 
ATOM     57  H   UNL A   1      40.771  30.109  32.574  1.00  0.00     0.167 HD
ATOM     58  C   UNL A   1      42.091  30.400  35.070  1.00  0.00     0.074 A 
ATOM     59  C   UNL A   1      42.424  30.882  36.395  1.00  0.00     0.031 C 
ATOM     60  C   UNL A   1      42.725  29.377  34.445  1.00  0.00     0.037 A 
BRANCH  47  61
ATOM     61  C   UNL A   1      40.443  28.038  28.850  1.00  0.00     0.064 A 
ATOM     62  C   UNL A   1      39.745  26.822  28.794  1.00  0.00     0.173 A 
ATOM     63  C   UNL A   1      41.185  28.417  27.720  1.00  0.00     0.173 A 
ATOM     64  F   UNL A   1      39.025  26.407  29.848  1.00  0.00    -0.203 F 
ATOM     65  C   UNL A   1      39.825  25.997  27.674  1.00  0.00     0.198 A 
ATOM     66  C   UNL A   1      41.233  27.607  26.588  1.00  0.00     0.198 A 
ATOM     67  F   UNL A   1      41.865  29.574  27.712  1.00  0.00    -0.203 F 
ATOM     68  F   UNL A   1      39.205  24.810  27.673  1.00  0.00    -0.200 F 
ATOM     69  C   UNL A   1      40.565  26.393  26.571  1.00  0.00     0.200 A 
ATOM     70  F   UNL A   1      41.935  28.000  25.516  1.00  0.00    -0.200 F 
ATOM     71  F   UNL A   1      40.642  25.599  25.494  1.00  0.00    -0.200 F 
ENDBRANCH  47  61
BRANCH  48  72
ATOM     72  C   UNL A   1      39.541  33.940  36.853  1.00  0.00     0.064 A 
ATOM     73  C   UNL A   1      38.761  33.499  37.929  1.00  0.00     0.173 A 
ATOM     74  C   UNL A   1      40.166  35.190  36.970  1.00  0.00     0.173 A 
ATOM     75  F   UNL A   1      38.126  32.319  37.856  1.00  0.00    -0.203 F 
ATOM     76  C   UNL A   1      38.602  34.281  39.071  1.00  0.00     0.198 A 
ATOM     77  C   UNL A   1      40.034  35.957  38.125  1.00  0.00     0.198 A 
ATOM     78  F   UNL A   1      40.931  35.657  35.971  1.00  0.00    -0.203 F 
ATOM     79  F   UNL A   1      37.819  33.851  40.070  1.00  0.00    -0.200 F 
ATOM     80  C   UNL A   1      39.246  35.505  39.173  1.00  0.00     0.200 A 
ATOM     81  F   UNL A   1      40.673  37.131  38.226  1.00  0.00    -0.200 F 
ATOM     82  F   UNL A   1      39.105  36.249  40.277  1.00  0.00    -0.200 F 
ENDBRANCH  48  72
BRANCH  60  83
ATOM     83  C   UNL A   1      43.855  28.714  35.180  1.00  0.00     0.064 A 
ATOM     84  C   UNL A   1      43.635  27.632  36.047  1.00  0.00     0.173 A 
ATOM     85  C   UNL A   1      45.179  29.135  34.983  1.00  0.00     0.173 A 
ATOM     86  F   UNL A   1      42.388  27.199  36.285  1.00  0.00    -0.203 F 
ATOM     87  C   UNL A   1      44.696  27.013  36.705  1.00  0.00     0.198 A 
ATOM     88  C   UNL A   1      46.240  28.494  35.616  1.00  0.00     0.198 A 
ATOM     89  F   UNL A   1      45.446  30.161  34.160  1.00  0.00    -0.203 F 
ATOM     90  F   UNL A   1      44.457  26.015  37.566  1.00  0.00    -0.200 F 
ATOM     91  C   UNL A   1      45.997  27.439  36.482  1.00  0.00     0.200 A 
ATOM     92  F   UNL A   1      47.498  28.896  35.387  1.00  0.00    -0.200 F 
ATOM     93  F   UNL A   1      47.018  26.836  37.108  1.00  0.00    -0.200 F 
ENDBRANCH  60  83
ENDBRANCH  34  35
ENDBRANCH  26  29
ENDBRANCH  24  25
ENDBRANCH  23  24
ENDBRANCH  22  23
ENDBRANCH   1  22
TORSDOF 16
ENDMDL
MODEL 2
REMARK VINA RESULT:     -11.5      1.033      2.861
REMARK SMILES CC[C@](C)(NC(=O)N[C@@H]1C[C@@H]1C)C(=O)NCCCCCCNC(=O)c1ccc(-c2c3nc(c(-c4c(F)c(F)c(F)c(F)c4F)c4ccc([nH]4)c(-c4c(F)c(F)c(F)c(F)c4F)c4nc(c(-c5c(F)c(F)c(F)c(F)c5F)c5ccc2[nH]5)C=C4)C=C3)cc1
REMARK SMILES IDX 18 1 17 2 16 3 15 4 13 5 14 6 3 8 4 9 2 10 1 11 5 12 6 13
REMARK SMILES IDX 7 15 8 16 9 18 10 19 11 20 12 21 19 22 20 23 21 24 22 25
REMARK SMILES IDX 23 26 24 28 25 29 26 30 87 31 27 32 86 33 28 34 29 35 30 36
REMARK SMILES IDX 80 37 31 38 85 39 79 40 81 41 32 42 84 43 78 44 77 45 33 47
REMARK SMILES IDX 65 48 45 49 64 50 46 51 49 52 63 53 82 54 47 55 48 56 62 58
REMARK SMILES IDX 83 59 50 60 34 61 35 62 43 63 36 64 37 65 41 66 44 67 38 68
REMARK SMILES IDX 39 69 42 70 40 71 66 72 67 73 75 74 68 75 69 76 73 77 76 78
REMARK SMILES IDX 70 79 71 80 74 81 72 82 51 83 52 84 60 85 53 86 54 87 58 88
REMARK SMILES IDX 61 89 55 90 56 91 59 92 57 93
REMARK H PARENT 15 7 5 14 8 17 22 27 81 46 49 57
REMARK Flexibility Score: inf
ROOT
ATOM      1  C   UNL A   1      32.443  29.652  27.253  1.00  0.00     0.002 C 
ENDROOT
BRANCH   1   2
ATOM      2  C   UNL A   1      33.832  29.114  26.916  1.00  0.00     0.021 C 
BRANCH   2   3
ATOM      3  C   UNL A   1      33.855  27.772  26.188  1.00  0.00     0.116 C 
BRANCH   3   4
ATOM      4  N   UNL A   1      32.704  26.926  26.438  1.00  0.00    -0.354 N 
ATOM      5  C   UNL A   1      32.444  25.644  26.033  1.00  0.00     0.245 C 
ATOM      6  O   UNL A   1      31.619  25.013  26.703  1.00  0.00    -0.272 OA
ATOM      7  H   UNL A   1      31.996  27.339  26.984  1.00  0.00     0.163 HD
BRANCH   5   8
ATOM      8  C   UNL A   1      33.310  24.947  24.961  1.00  0.00     0.117 C 
ATOM      9  C   UNL A   1      32.679  23.679  24.346  1.00  0.00     0.045 C 
BRANCH   8  10
ATOM     10  C   UNL A   1      34.614  24.506  25.717  1.00  0.00     0.035 C 
ATOM     11  C   UNL A   1      34.746  22.996  25.931  1.00  0.00     0.007 C 
ENDBRANCH   8  10
BRANCH   8  12
ATOM     12  N   UNL A   1      33.663  25.867  23.866  1.00  0.00    -0.324 N 
ATOM     13  C   UNL A   1      32.974  26.365  22.838  1.00  0.00     0.315 C 
ATOM     14  H   UNL A   1      34.596  26.178  23.900  1.00  0.00     0.166 HD
ATOM     15  O   UNL A   1      33.639  26.710  21.853  1.00  0.00    -0.249 OA
ATOM     16  N   UNL A   1      31.646  26.505  22.738  1.00  0.00    -0.335 N 
ATOM     17  H   UNL A   1      31.352  26.329  21.816  1.00  0.00     0.165 HD
BRANCH  16  18
ATOM     18  C   UNL A   1      30.523  26.836  23.565  1.00  0.00     0.087 C 
ATOM     19  C   UNL A   1      29.150  27.425  23.415  1.00  0.00     0.030 C 
ATOM     20  C   UNL A   1      30.285  28.355  23.588  1.00  0.00     0.010 C 
ATOM     21  C   UNL A   1      30.640  29.199  22.400  1.00  0.00     0.010 C 
ENDBRANCH  16  18
ENDBRANCH   8  12
ENDBRANCH   5   8
ENDBRANCH   3   4
ENDBRANCH   2   3
ENDBRANCH   1   2
BRANCH   1  22
ATOM     22  C   UNL A   1      31.824  30.559  26.190  1.00  0.00     0.002 C 
BRANCH  22  23
ATOM     23  C   UNL A   1      31.526  31.987  26.650  1.00  0.00     0.021 C 
BRANCH  23  24
ATOM     24  C   UNL A   1      32.678  32.677  27.371  1.00  0.00     0.116 C 
BRANCH  24  25
ATOM     25  N   UNL A   1      32.404  34.080  27.623  1.00  0.00    -0.352 N 
ATOM     26  C   UNL A   1      32.975  34.928  28.543  1.00  0.00     0.251 C 
ATOM     27  H   UNL A   1      31.710  34.484  27.052  1.00  0.00     0.163 HD
ATOM     28  O   UNL A   1      32.490  36.029  28.758  1.00  0.00    -0.269 OA
BRANCH  26  29
ATOM     29  C   UNL A   1      34.166  34.484  29.299  1.00  0.00     0.039 A 
ATOM     30  C   UNL A   1      33.987  33.911  30.560  1.00  0.00     0.014 A 
ATOM     31  C   UNL A   1      35.448  34.614  28.759  1.00  0.00     0.014 A 
ATOM     32  C   UNL A   1      35.088  33.394  31.244  1.00  0.00     0.010 A 
ATOM     33  C   UNL A   1      36.533  34.029  29.408  1.00  0.00     0.010 A 
ATOM     34  C   UNL A   1      36.362  33.405  30.653  1.00  0.00    -0.014 A 
BRANCH  34  35
ATOM     35  C   UNL A   1      37.516  32.734  31.304  1.00  0.00     0.031 A 
ATOM     36  C   UNL A   1      38.192  31.566  30.647  1.00  0.00     0.074 A 
ATOM     37  C   UNL A   1      37.906  33.134  32.531  1.00  0.00     0.049 A 
ATOM     38  N   UNL A   1      39.165  30.812  31.095  1.00  0.00    -0.248 NA
ATOM     39  C   UNL A   1      37.691  31.176  29.321  1.00  0.00     0.031 C 
ATOM     40  C   UNL A   1      37.294  34.221  33.296  1.00  0.00     0.029 A 
ATOM     41  N   UNL A   1      38.897  32.663  33.355  1.00  0.00    -0.354 N 
ATOM     42  C   UNL A   1      39.390  29.861  30.110  1.00  0.00     0.074 A 
ATOM     43  C   UNL A   1      38.410  30.092  29.070  1.00  0.00     0.031 C 
ATOM     44  C   UNL A   1      37.930  34.341  34.473  1.00  0.00     0.029 A 
ATOM     45  C   UNL A   1      38.961  33.313  34.564  1.00  0.00     0.049 A 
ATOM     46  H   UNL A   1      39.504  31.929  33.105  1.00  0.00     0.167 HD
ATOM     47  C   UNL A   1      40.343  28.898  30.065  1.00  0.00     0.037 A 
ATOM     48  C   UNL A   1      39.749  33.093  35.635  1.00  0.00     0.037 A 
ATOM     49  C   UNL A   1      41.313  28.670  31.106  1.00  0.00     0.049 A 
ATOM     50  C   UNL A   1      40.777  31.998  35.579  1.00  0.00     0.074 A 
ATOM     51  C   UNL A   1      42.351  27.756  31.134  1.00  0.00     0.029 A 
ATOM     52  N   UNL A   1      41.352  29.354  32.314  1.00  0.00    -0.354 N 
ATOM     53  N   UNL A   1      41.034  31.155  34.609  1.00  0.00    -0.248 NA
ATOM     54  C   UNL A   1      41.628  31.826  36.764  1.00  0.00     0.031 C 
ATOM     55  C   UNL A   1      42.979  27.842  32.381  1.00  0.00     0.029 A 
ATOM     56  C   UNL A   1      42.374  28.856  33.108  1.00  0.00     0.049 A 
ATOM     57  H   UNL A   1      40.745  30.085  32.568  1.00  0.00     0.167 HD
ATOM     58  C   UNL A   1      42.084  30.365  35.056  1.00  0.00     0.074 A 
ATOM     59  C   UNL A   1      42.431  30.845  36.378  1.00  0.00     0.031 C 
ATOM     60  C   UNL A   1      42.703  29.334  34.428  1.00  0.00     0.037 A 
BRANCH  47  61
ATOM     61  C   UNL A   1      40.372  28.013  28.849  1.00  0.00     0.064 A 
ATOM     62  C   UNL A   1      39.667  26.800  28.803  1.00  0.00     0.173 A 
ATOM     63  C   UNL A   1      41.104  28.386  27.711  1.00  0.00     0.173 A 
ATOM     64  F   UNL A   1      38.956  26.390  29.865  1.00  0.00    -0.203 F 
ATOM     65  C   UNL A   1      39.731  25.973  27.684  1.00  0.00     0.198 A 
ATOM     66  C   UNL A   1      41.136  27.574  26.580  1.00  0.00     0.198 A 
ATOM     67  F   UNL A   1      41.789  29.539  27.695  1.00  0.00    -0.203 F 
ATOM     68  F   UNL A   1      39.105  24.789  27.691  1.00  0.00    -0.200 F 
ATOM     69  C   UNL A   1      40.462  26.363  26.572  1.00  0.00     0.200 A 
ATOM     70  F   UNL A   1      41.829  27.962  25.500  1.00  0.00    -0.200 F 
ATOM     71  F   UNL A   1      40.524  25.567  25.496  1.00  0.00    -0.200 F 
ENDBRANCH  47  61
BRANCH  48  72
ATOM     72  C   UNL A   1      39.584  33.935  36.849  1.00  0.00     0.064 A 
ATOM     73  C   UNL A   1      40.199  35.190  36.950  1.00  0.00     0.173 A 
ATOM     74  C   UNL A   1      38.786  33.512  37.922  1.00  0.00     0.173 A 
ATOM     75  F   UNL A   1      40.988  35.631  35.959  1.00  0.00    -0.203 F 
ATOM     76  C   UNL A   1      40.033  35.983  38.084  1.00  0.00     0.198 A 
ATOM     77  C   UNL A   1      38.595  34.319  39.041  1.00  0.00     0.198 A 
ATOM     78  F   UNL A   1      38.169  32.322  37.873  1.00  0.00    -0.203 F 
ATOM     79  F   UNL A   1      40.664  37.163  38.171  1.00  0.00    -0.200 F 
ATOM     80  C   UNL A   1      39.224  35.552  39.124  1.00  0.00     0.200 A 
ATOM     81  F   UNL A   1      37.797  33.906  40.035  1.00  0.00    -0.200 F 
ATOM     82  F   UNL A   1      39.053  36.322  40.207  1.00  0.00    -0.200 F 
ENDBRANCH  48  72
BRANCH  60  83
ATOM     83  C   UNL A   1      43.830  28.659  35.158  1.00  0.00     0.064 A 
ATOM     84  C   UNL A   1      45.153  29.114  35.052  1.00  0.00     0.173 A 
ATOM     85  C   UNL A   1      43.578  27.571  36.009  1.00  0.00     0.173 A 
ATOM     86  F   UNL A   1      45.452  30.140  34.240  1.00  0.00    -0.203 F 
ATOM     87  C   UNL A   1      46.184  28.491  35.752  1.00  0.00     0.198 A 
ATOM     88  C   UNL A   1      44.605  26.972  36.732  1.00  0.00     0.198 A 
ATOM     89  F   UNL A   1      42.330  27.100  36.151  1.00  0.00    -0.203 F 
ATOM     90  F   UNL A   1      47.446  28.912  35.596  1.00  0.00    -0.200 F 
ATOM     91  C   UNL A   1      45.908  27.427  36.598  1.00  0.00     0.200 A 
ATOM     92  F   UNL A   1      44.333  25.954  37.561  1.00  0.00    -0.200 F 
ATOM     93  F   UNL A   1      46.899  26.835  37.278  1.00  0.00    -0.200 F 
ENDBRANCH  60  83
ENDBRANCH  34  35
ENDBRANCH  26  29
ENDBRANCH  24  25
ENDBRANCH  23  24
ENDBRANCH  22  23
ENDBRANCH   1  22
TORSDOF 16
ENDMDL
MODEL 3
REMARK VINA RESULT:     -11.5      1.143      2.365
REMARK SMILES CC[C@](C)(NC(=O)N[C@@H]1C[C@@H]1C)C(=O)NCCCCCCNC(=O)c1ccc(-c2c3nc(c(-c4c(F)c(F)c(F)c(F)c4F)c4ccc([nH]4)c(-c4c(F)c(F)c(F)c(F)c4F)c4nc(c(-c5c(F)c(F)c(F)c(F)c5F)c5ccc2[nH]5)C=C4)C=C3)cc1
REMARK SMILES IDX 18 1 17 2 16 3 15 4 13 5 14 6 3 8 4 9 2 10 1 11 5 12 6 13
REMARK SMILES IDX 7 15 8 16 9 18 10 19 11 20 12 21 19 22 20 23 21 24 22 25
REMARK SMILES IDX 23 26 24 28 25 29 26 30 87 31 27 32 86 33 28 34 29 35 30 36
REMARK SMILES IDX 80 37 31 38 85 39 79 40 81 41 32 42 84 43 78 44 77 45 33 47
REMARK SMILES IDX 65 48 45 49 64 50 46 51 49 52 63 53 82 54 47 55 48 56 62 58
REMARK SMILES IDX 83 59 50 60 34 61 35 62 43 63 36 64 37 65 41 66 44 67 38 68
REMARK SMILES IDX 39 69 42 70 40 71 66 72 67 73 75 74 68 75 69 76 73 77 76 78
REMARK SMILES IDX 70 79 71 80 74 81 72 82 51 83 52 84 60 85 53 86 54 87 58 88
REMARK SMILES IDX 61 89 55 90 56 91 59 92 57 93
REMARK H PARENT 15 7 5 14 8 17 22 27 81 46 49 57
REMARK Flexibility Score: inf
ROOT
ATOM      1  C   UNL A   1      31.811  29.465  27.252  1.00  0.00     0.002 C 
ENDROOT
BRANCH   1   2
ATOM      2  C   UNL A   1      32.793  28.335  26.955  1.00  0.00     0.021 C 
BRANCH   2   3
ATOM      3  C   UNL A   1      32.167  27.045  26.430  1.00  0.00     0.116 C 
BRANCH   3   4
ATOM      4  N   UNL A   1      33.034  26.250  25.583  1.00  0.00    -0.354 N 
ATOM      5  C   UNL A   1      33.311  26.363  24.246  1.00  0.00     0.245 C 
ATOM      6  O   UNL A   1      34.368  25.851  23.859  1.00  0.00    -0.272 OA
ATOM      7  H   UNL A   1      33.496  25.510  26.041  1.00  0.00     0.163 HD
BRANCH   5   8
ATOM      8  C   UNL A   1      32.480  27.285  23.327  1.00  0.00     0.117 C 
ATOM      9  C   UNL A   1      32.912  28.768  23.341  1.00  0.00     0.045 C 
BRANCH   8  10
ATOM     10  C   UNL A   1      31.019  27.215  23.898  1.00  0.00     0.035 C 
ATOM     11  C   UNL A   1      30.118  28.382  23.487  1.00  0.00     0.007 C 
ENDBRANCH   8  10
BRANCH   8  12
ATOM     12  N   UNL A   1      32.487  26.812  21.933  1.00  0.00    -0.324 N 
ATOM     13  C   UNL A   1      32.588  25.600  21.383  1.00  0.00     0.315 C 
ATOM     14  H   UNL A   1      32.401  27.536  21.272  1.00  0.00     0.166 HD
ATOM     15  O   UNL A   1      33.034  25.561  20.230  1.00  0.00    -0.249 OA
ATOM     16  N   UNL A   1      32.289  24.423  21.946  1.00  0.00    -0.335 N 
ATOM     17  H   UNL A   1      32.924  23.731  21.651  1.00  0.00     0.165 HD
BRANCH  16  18
ATOM     18  C   UNL A   1      31.325  23.861  22.847  1.00  0.00     0.087 C 
ATOM     19  C   UNL A   1      31.217  23.510  24.303  1.00  0.00     0.030 C 
ATOM     20  C   UNL A   1      31.808  22.507  23.394  1.00  0.00     0.010 C 
ATOM     21  C   UNL A   1      33.273  22.235  23.566  1.00  0.00     0.010 C 
ENDBRANCH  16  18
ENDBRANCH   8  12
ENDBRANCH   5   8
ENDBRANCH   3   4
ENDBRANCH   2   3
ENDBRANCH   1   2
BRANCH   1  22
ATOM     22  C   UNL A   1      31.808  30.606  26.235  1.00  0.00     0.002 C 
BRANCH  22  23
ATOM     23  C   UNL A   1      31.502  31.989  26.812  1.00  0.00     0.021 C 
BRANCH  23  24
ATOM     24  C   UNL A   1      32.711  32.722  27.383  1.00  0.00     0.116 C 
BRANCH  24  25
ATOM     25  N   UNL A   1      32.433  34.125  27.630  1.00  0.00    -0.352 N 
ATOM     26  C   UNL A   1      32.993  34.976  28.554  1.00  0.00     0.251 C 
ATOM     27  H   UNL A   1      31.746  34.527  27.050  1.00  0.00     0.163 HD
ATOM     28  O   UNL A   1      32.506  36.076  28.762  1.00  0.00    -0.269 OA
BRANCH  26  29
ATOM     29  C   UNL A   1      34.176  34.534  29.324  1.00  0.00     0.039 A 
ATOM     30  C   UNL A   1      33.989  34.015  30.607  1.00  0.00     0.014 A 
ATOM     31  C   UNL A   1      35.460  34.612  28.776  1.00  0.00     0.014 A 
ATOM     32  C   UNL A   1      35.080  33.500  31.308  1.00  0.00     0.010 A 
ATOM     33  C   UNL A   1      36.533  34.028  29.445  1.00  0.00     0.010 A 
ATOM     34  C   UNL A   1      36.352  33.457  30.714  1.00  0.00    -0.014 A 
BRANCH  34  35
ATOM     35  C   UNL A   1      37.492  32.786  31.388  1.00  0.00     0.031 A 
ATOM     36  C   UNL A   1      38.167  31.604  30.753  1.00  0.00     0.074 A 
ATOM     37  C   UNL A   1      37.869  33.197  32.615  1.00  0.00     0.049 A 
ATOM     38  N   UNL A   1      39.128  30.849  31.223  1.00  0.00    -0.248 NA
ATOM     39  C   UNL A   1      37.681  31.203  29.426  1.00  0.00     0.031 C 
ATOM     40  C   UNL A   1      37.256  34.297  33.359  1.00  0.00     0.029 A 
ATOM     41  N   UNL A   1      38.846  32.728  33.458  1.00  0.00    -0.354 N 
ATOM     42  C   UNL A   1      39.359  29.884  30.252  1.00  0.00     0.074 A 
ATOM     43  C   UNL A   1      38.394  30.111  29.197  1.00  0.00     0.031 C 
ATOM     44  C   UNL A   1      37.877  34.427  34.542  1.00  0.00     0.029 A 
ATOM     45  C   UNL A   1      38.899  33.392  34.659  1.00  0.00     0.049 A 
ATOM     46  H   UNL A   1      39.450  31.987  33.224  1.00  0.00     0.167 HD
ATOM     47  C   UNL A   1      40.304  28.914  30.231  1.00  0.00     0.037 A 
ATOM     48  C   UNL A   1      39.671  33.180  35.743  1.00  0.00     0.037 A 
ATOM     49  C   UNL A   1      41.259  28.690  31.287  1.00  0.00     0.049 A 
ATOM     50  C   UNL A   1      40.691  32.076  35.713  1.00  0.00     0.074 A 
ATOM     51  C   UNL A   1      42.290  27.769  31.340  1.00  0.00     0.029 A 
ATOM     52  N   UNL A   1      41.288  29.389  32.487  1.00  0.00    -0.354 N 
ATOM     53  N   UNL A   1      40.955  31.219  34.756  1.00  0.00    -0.248 NA
ATOM     54  C   UNL A   1      41.526  31.912  36.911  1.00  0.00     0.031 C 
ATOM     55  C   UNL A   1      42.902  27.866  32.594  1.00  0.00     0.029 A 
ATOM     56  C   UNL A   1      42.296  28.893  33.300  1.00  0.00     0.049 A 
ATOM     57  H   UNL A   1      40.683  30.128  32.725  1.00  0.00     0.167 HD
ATOM     58  C   UNL A   1      41.992  30.427  35.227  1.00  0.00     0.074 A 
ATOM     59  C   UNL A   1      42.325  30.920  36.547  1.00  0.00     0.031 C 
ATOM     60  C   UNL A   1      42.611  29.384  34.619  1.00  0.00     0.037 A 
BRANCH  47  61
ATOM     61  C   UNL A   1      40.342  28.014  29.026  1.00  0.00     0.064 A 
ATOM     62  C   UNL A   1      41.092  28.340  27.885  1.00  0.00     0.173 A 
ATOM     63  C   UNL A   1      39.630  26.805  29.016  1.00  0.00     0.173 A 
ATOM     64  F   UNL A   1      41.787  29.488  27.838  1.00  0.00    -0.203 F 
ATOM     65  C   UNL A   1      41.090  27.514  26.764  1.00  0.00     0.198 A 
ATOM     66  C   UNL A   1      39.660  25.964  27.906  1.00  0.00     0.198 A 
ATOM     67  F   UNL A   1      38.904  26.436  30.082  1.00  0.00    -0.203 F 
ATOM     68  F   UNL A   1      41.759  27.882  25.662  1.00  0.00    -0.200 F 
ATOM     69  C   UNL A   1      40.378  26.325  26.777  1.00  0.00     0.200 A 
ATOM     70  F   UNL A   1      38.985  24.806  27.927  1.00  0.00    -0.200 F 
ATOM     71  F   UNL A   1      40.376  25.531  25.697  1.00  0.00    -0.200 F 
ENDBRANCH  47  61
BRANCH  48  72
ATOM     72  C   UNL A   1      39.497  34.037  36.944  1.00  0.00     0.064 A 
ATOM     73  C   UNL A   1      38.749  33.601  38.045  1.00  0.00     0.173 A 
ATOM     74  C   UNL A   1      40.098  35.302  37.025  1.00  0.00     0.173 A 
ATOM     75  F   UNL A   1      38.138  32.407  38.008  1.00  0.00    -0.203 F 
ATOM     76  C   UNL A   1      38.597  34.401  39.176  1.00  0.00     0.198 A 
ATOM     77  C   UNL A   1      39.973  36.089  38.168  1.00  0.00     0.198 A 
ATOM     78  F   UNL A   1      40.831  35.766  36.001  1.00  0.00    -0.203 F 
ATOM     79  F   UNL A   1      37.845  33.975  40.199  1.00  0.00    -0.200 F 
ATOM     80  C   UNL A   1      39.217  35.640  39.240  1.00  0.00     0.200 A 
ATOM     81  F   UNL A   1      40.589  37.277  38.232  1.00  0.00    -0.200 F 
ATOM     82  F   UNL A   1      39.083  36.403  40.333  1.00  0.00    -0.200 F 
ENDBRANCH  48  72
BRANCH  60  83
ATOM     83  C   UNL A   1      43.723  28.709  35.372  1.00  0.00     0.064 A 
ATOM     84  C   UNL A   1      45.063  29.096  35.210  1.00  0.00     0.173 A 
ATOM     85  C   UNL A   1      43.443  27.693  36.299  1.00  0.00     0.173 A 
ATOM     86  F   UNL A   1      45.388  30.051  34.325  1.00  0.00    -0.203 F 
ATOM     87  C   UNL A   1      46.080  28.475  35.931  1.00  0.00     0.198 A 
ATOM     88  C   UNL A   1      44.458  27.098  37.041  1.00  0.00     0.198 A 
ATOM     89  F   UNL A   1      42.179  27.289  36.496  1.00  0.00    -0.203 F 
ATOM     90  F   UNL A   1      47.356  28.828  35.724  1.00  0.00    -0.200 F 
ATOM     91  C   UNL A   1      45.776  27.484  36.852  1.00  0.00     0.200 A 
ATOM     92  F   UNL A   1      44.161  26.151  37.943  1.00  0.00    -0.200 F 
ATOM     93  F   UNL A   1      46.756  26.895  37.552  1.00  0.00    -0.200 F 
ENDBRANCH  60  83
ENDBRANCH  34  35
ENDBRANCH  26  29
ENDBRANCH  24  25
ENDBRANCH  23  24
ENDBRANCH  22  23
ENDBRANCH   1  22
TORSDOF 16
ENDMDL
