MODEL 1
REMARK VINA RESULT:     -12.1      0.000      0.000
REMARK SMILES CC[C@@H]1CCC[C@@](Cc2cccc(O)c2)(C(=O)NCCCCCCNC(=O)c2ccc(-c3c4nc(c(-c5c(F)c(F)c(F)c(F)c5F)c5ccc([nH]5)c(-c5c(F)c(F)c(F)c(F)c5F)c5nc(c(-c6c(F)c(F)c(F)c(F)c6F)c6ccc3[nH]6)C=C5)C=C4)cc2)C1
REMARK SMILES IDX 21 1 20 2 19 3 18 4 16 5 17 6 7 8 3 9 4 10 91 11 5 12 6 13
REMARK SMILES IDX 2 14 1 15 8 16 9 17 10 18 15 19 11 20 13 21 12 22 14 23
REMARK SMILES IDX 22 25 23 26 24 27 25 28 26 29 27 31 28 32 29 33 90 34 30 35
REMARK SMILES IDX 89 36 31 37 32 38 33 39 83 40 34 41 88 42 82 43 84 44 35 45
REMARK SMILES IDX 87 46 81 47 80 48 36 50 68 51 48 52 67 53 49 54 52 55 66 56
REMARK SMILES IDX 85 57 50 58 51 59 65 61 86 62 53 63 37 64 38 65 46 66 39 67
REMARK SMILES IDX 40 68 44 69 47 70 41 71 42 72 45 73 43 74 69 75 70 76 78 77
REMARK SMILES IDX 71 78 72 79 76 80 79 81 73 82 74 83 77 84 75 85 54 86 55 87
REMARK SMILES IDX 63 88 56 89 57 90 61 91 64 92 58 93 59 94 62 95 60 96
REMARK H PARENT 18 7 14 24 25 30 84 49 52 60
REMARK Flexibility Score: inf
ROOT
ATOM      1  C   UNL A   1      37.497  22.028  24.646  1.00  0.00     0.002 C 
ENDROOT
BRANCH   1   2
ATOM      2  C   UNL A   1      36.755  22.976  25.595  1.00  0.00     0.021 C 
BRANCH   2   3
ATOM      3  C   UNL A   1      35.619  22.324  26.370  1.00  0.00     0.116 C 
BRANCH   3   4
ATOM      4  N   UNL A   1      34.484  23.192  26.585  1.00  0.00    -0.356 N 
ATOM      5  C   UNL A   1      33.200  23.113  26.149  1.00  0.00     0.226 C 
ATOM      6  O   UNL A   1      32.385  23.764  26.818  1.00  0.00    -0.274 OA
ATOM      7  H   UNL A   1      34.675  23.978  27.146  1.00  0.00     0.163 HD
BRANCH   5   8
ATOM      8  C   UNL A   1      32.733  22.264  24.933  1.00  0.00     0.053 C 
ATOM      9  C   UNL A   1      31.610  24.329  23.769  1.00  0.00    -0.010 C 
ATOM     10  C   UNL A   1      32.728  24.330  22.716  1.00  0.00     0.003 C 
ATOM     11  C   UNL A   1      31.413  22.925  24.385  1.00  0.00     0.020 C 
ATOM     12  C   UNL A   1      33.997  23.648  23.205  1.00  0.00     0.001 C 
ATOM     13  C   UNL A   1      33.696  22.244  23.725  1.00  0.00     0.017 C 
BRANCH   9  14
ATOM     14  C   UNL A   1      30.314  24.867  23.127  1.00  0.00     0.000 C 
ATOM     15  C   UNL A   1      29.660  25.999  23.905  1.00  0.00     0.004 C 
ENDBRANCH   9  14
BRANCH   8  16
ATOM     16  C   UNL A   1      32.309  20.837  25.406  1.00  0.00     0.052 C 
BRANCH  16  17
ATOM     17  C   UNL A   1      32.778  19.631  24.629  1.00  0.00    -0.043 A 
ATOM     18  C   UNL A   1      33.955  18.960  25.003  1.00  0.00     0.004 A 
ATOM     19  C   UNL A   1      32.056  19.160  23.525  1.00  0.00     0.049 A 
ATOM     20  C   UNL A   1      34.422  17.873  24.258  1.00  0.00     0.004 A 
ATOM     21  C   UNL A   1      32.531  18.076  22.790  1.00  0.00     0.115 A 
ATOM     22  C   UNL A   1      33.714  17.434  23.140  1.00  0.00     0.046 A 
BRANCH  21  23
ATOM     23  O   UNL A   1      31.806  17.681  21.705  1.00  0.00    -0.508 OA
ATOM     24  H   UNL A   1      31.700  16.768  21.519  1.00  0.00     0.293 HD
ENDBRANCH  21  23
ENDBRANCH  16  17
ENDBRANCH   8  16
ENDBRANCH   5   8
ENDBRANCH   3   4
ENDBRANCH   2   3
ENDBRANCH   1   2
BRANCH   1  25
ATOM     25  C   UNL A   1      37.008  20.573  24.631  1.00  0.00     0.002 C 
BRANCH  25  26
ATOM     26  C   UNL A   1      38.050  19.512  24.998  1.00  0.00     0.021 C 
BRANCH  26  27
ATOM     27  C   UNL A   1      39.218  20.016  25.837  1.00  0.00     0.116 C 
BRANCH  27  28
ATOM     28  N   UNL A   1      40.292  19.042  25.928  1.00  0.00    -0.352 N 
ATOM     29  C   UNL A   1      41.636  19.241  26.102  1.00  0.00     0.251 C 
ATOM     30  H   UNL A   1      40.013  18.101  25.854  1.00  0.00     0.163 HD
ATOM     31  O   UNL A   1      42.416  18.296  25.982  1.00  0.00    -0.269 OA
BRANCH  29  32
ATOM     32  C   UNL A   1      42.159  20.586  26.412  1.00  0.00     0.039 A 
ATOM     33  C   UNL A   1      42.470  21.446  25.356  1.00  0.00     0.014 A 
ATOM     34  C   UNL A   1      42.367  20.997  27.733  1.00  0.00     0.014 A 
ATOM     35  C   UNL A   1      42.941  22.733  25.624  1.00  0.00     0.010 A 
ATOM     36  C   UNL A   1      42.762  22.304  28.000  1.00  0.00     0.010 A 
ATOM     37  C   UNL A   1      43.064  23.182  26.948  1.00  0.00    -0.014 A 
BRANCH  37  38
ATOM     38  C   UNL A   1      43.520  24.561  27.251  1.00  0.00     0.031 A 
ATOM     39  C   UNL A   1      42.554  25.571  27.807  1.00  0.00     0.074 A 
ATOM     40  C   UNL A   1      44.788  24.918  26.975  1.00  0.00     0.049 A 
ATOM     41  N   UNL A   1      42.747  26.835  28.090  1.00  0.00    -0.248 NA
ATOM     42  C   UNL A   1      41.181  25.104  28.054  1.00  0.00     0.031 C 
ATOM     43  C   UNL A   1      45.806  24.039  26.399  1.00  0.00     0.029 A 
ATOM     44  N   UNL A   1      45.436  26.118  27.136  1.00  0.00    -0.354 N 
ATOM     45  C   UNL A   1      41.520  27.316  28.530  1.00  0.00     0.074 A 
ATOM     46  C   UNL A   1      40.577  26.224  28.424  1.00  0.00     0.031 C 
ATOM     47  C   UNL A   1      46.959  24.718  26.284  1.00  0.00     0.029 A 
ATOM     48  C   UNL A   1      46.751  26.089  26.739  1.00  0.00     0.049 A 
ATOM     49  H   UNL A   1      45.001  26.920  27.501  1.00  0.00     0.167 HD
ATOM     50  C   UNL A   1      41.215  28.547  29.004  1.00  0.00     0.037 A 
ATOM     51  C   UNL A   1      47.681  27.063  26.739  1.00  0.00     0.037 A 
ATOM     52  C   UNL A   1      42.165  29.622  29.127  1.00  0.00     0.049 A 
ATOM     53  C   UNL A   1      47.309  28.430  27.249  1.00  0.00     0.074 A 
ATOM     54  C   UNL A   1      41.974  30.887  29.653  1.00  0.00     0.029 A 
ATOM     55  N   UNL A   1      43.488  29.557  28.712  1.00  0.00    -0.354 N 
ATOM     56  N   UNL A   1      46.167  28.852  27.734  1.00  0.00    -0.248 NA
ATOM     57  C   UNL A   1      48.362  29.455  27.214  1.00  0.00     0.031 C 
ATOM     58  C   UNL A   1      43.164  31.607  29.505  1.00  0.00     0.029 A 
ATOM     59  C   UNL A   1      44.116  30.772  28.941  1.00  0.00     0.049 A 
ATOM     60  H   UNL A   1      43.916  28.766  28.313  1.00  0.00     0.167 HD
ATOM     61  C   UNL A   1      46.370  30.177  28.093  1.00  0.00     0.074 A 
ATOM     62  C   UNL A   1      47.751  30.486  27.781  1.00  0.00     0.031 C 
ATOM     63  C   UNL A   1      45.494  31.060  28.633  1.00  0.00     0.037 A 
BRANCH  50  64
ATOM     64  C   UNL A   1      39.793  28.798  29.417  1.00  0.00     0.064 A 
ATOM     65  C   UNL A   1      39.347  28.546  30.725  1.00  0.00     0.173 A 
ATOM     66  C   UNL A   1      38.865  29.314  28.500  1.00  0.00     0.173 A 
ATOM     67  F   UNL A   1      40.190  28.043  31.639  1.00  0.00    -0.203 F 
ATOM     68  C   UNL A   1      38.020  28.765  31.086  1.00  0.00     0.198 A 
ATOM     69  C   UNL A   1      37.547  29.565  28.874  1.00  0.00     0.198 A 
ATOM     70  F   UNL A   1      39.237  29.580  27.239  1.00  0.00    -0.203 F 
ATOM     71  F   UNL A   1      37.606  28.459  32.324  1.00  0.00    -0.200 F 
ATOM     72  C   UNL A   1      37.123  29.280  30.163  1.00  0.00     0.200 A 
ATOM     73  F   UNL A   1      36.685  30.076  27.984  1.00  0.00    -0.200 F 
ATOM     74  F   UNL A   1      35.847  29.492  30.512  1.00  0.00    -0.200 F 
ENDBRANCH  50  64
BRANCH  51  75
ATOM     75  C   UNL A   1      49.063  26.773  26.274  1.00  0.00     0.064 A 
ATOM     76  C   UNL A   1      49.433  27.003  24.941  1.00  0.00     0.173 A 
ATOM     77  C   UNL A   1      50.037  26.261  27.143  1.00  0.00     0.173 A 
ATOM     78  F   UNL A   1      48.531  27.475  24.068  1.00  0.00    -0.203 F 
ATOM     79  C   UNL A   1      50.718  26.710  24.491  1.00  0.00     0.198 A 
ATOM     80  C   UNL A   1      51.331  25.997  26.697  1.00  0.00     0.198 A 
ATOM     81  F   UNL A   1      49.737  26.031  28.429  1.00  0.00    -0.203 F 
ATOM     82  F   UNL A   1      51.030  26.895  23.200  1.00  0.00    -0.200 F 
ATOM     83  C   UNL A   1      51.667  26.213  25.370  1.00  0.00     0.200 A 
ATOM     84  F   UNL A   1      52.250  25.532  27.554  1.00  0.00    -0.200 F 
ATOM     85  F   UNL A   1      52.905  25.935  24.937  1.00  0.00    -0.200 F 
ENDBRANCH  51  75
BRANCH  63  86
ATOM     86  C   UNL A   1      46.012  32.431  28.961  1.00  0.00     0.064 A 
ATOM     87  C   UNL A   1      46.627  32.713  30.189  1.00  0.00     0.173 A 
ATOM     88  C   UNL A   1      45.922  33.466  28.017  1.00  0.00     0.173 A 
ATOM     89  F   UNL A   1      46.723  31.762  31.131  1.00  0.00    -0.203 F 
ATOM     90  C   UNL A   1      47.109  33.990  30.471  1.00  0.00     0.198 A 
ATOM     91  C   UNL A   1      46.435  34.731  28.291  1.00  0.00     0.198 A 
ATOM     92  F   UNL A   1      45.349  33.247  26.825  1.00  0.00    -0.203 F 
ATOM     93  F   UNL A   1      47.646  34.250  31.671  1.00  0.00    -0.200 F 
ATOM     94  C   UNL A   1      47.020  34.994  29.520  1.00  0.00     0.200 A 
ATOM     95  F   UNL A   1      46.362  35.697  27.364  1.00  0.00    -0.200 F 
ATOM     96  F   UNL A   1      47.491  36.219  29.791  1.00  0.00    -0.200 F 
ENDBRANCH  63  86
ENDBRANCH  37  38
ENDBRANCH  29  32
ENDBRANCH  27  28
ENDBRANCH  26  27
ENDBRANCH  25  26
ENDBRANCH   1  25
TORSDOF 17
ENDMDL
MODEL 2
REMARK VINA RESULT:     -12.0      3.328      8.958
REMARK SMILES CC[C@@H]1CCC[C@@](Cc2cccc(O)c2)(C(=O)NCCCCCCNC(=O)c2ccc(-c3c4nc(c(-c5c(F)c(F)c(F)c(F)c5F)c5ccc([nH]5)c(-c5c(F)c(F)c(F)c(F)c5F)c5nc(c(-c6c(F)c(F)c(F)c(F)c6F)c6ccc3[nH]6)C=C5)C=C4)cc2)C1
REMARK SMILES IDX 21 1 20 2 19 3 18 4 16 5 17 6 7 8 3 9 4 10 91 11 5 12 6 13
REMARK SMILES IDX 2 14 1 15 8 16 9 17 10 18 15 19 11 20 13 21 12 22 14 23
REMARK SMILES IDX 22 25 23 26 24 27 25 28 26 29 27 31 28 32 29 33 90 34 30 35
REMARK SMILES IDX 89 36 31 37 32 38 33 39 83 40 34 41 88 42 82 43 84 44 35 45
REMARK SMILES IDX 87 46 81 47 80 48 36 50 68 51 48 52 67 53 49 54 52 55 66 56
REMARK SMILES IDX 85 57 50 58 51 59 65 61 86 62 53 63 37 64 38 65 46 66 39 67
REMARK SMILES IDX 40 68 44 69 47 70 41 71 42 72 45 73 43 74 69 75 70 76 78 77
REMARK SMILES IDX 71 78 72 79 76 80 79 81 73 82 74 83 77 84 75 85 54 86 55 87
REMARK SMILES IDX 63 88 56 89 57 90 61 91 64 92 58 93 59 94 62 95 60 96
REMARK H PARENT 18 7 14 24 25 30 84 49 52 60
REMARK Flexibility Score: inf
ROOT
ATOM      1  C   UNL A   1      34.017  22.960  22.886  1.00  0.00     0.002 C 
ENDROOT
BRANCH   1   2
ATOM      2  C   UNL A   1      32.991  22.112  23.645  1.00  0.00     0.021 C 
BRANCH   2   3
ATOM      3  C   UNL A   1      31.686  22.832  23.951  1.00  0.00     0.116 C 
BRANCH   3   4
ATOM      4  N   UNL A   1      31.647  23.443  25.259  1.00  0.00    -0.356 N 
ATOM      5  C   UNL A   1      31.297  24.696  25.653  1.00  0.00     0.226 C 
ATOM      6  O   UNL A   1      30.980  24.793  26.846  1.00  0.00    -0.274 OA
ATOM      7  H   UNL A   1      31.923  22.849  25.993  1.00  0.00     0.163 HD
BRANCH   5   8
ATOM      8  C   UNL A   1      31.252  25.934  24.714  1.00  0.00     0.053 C 
ATOM      9  C   UNL A   1      32.517  27.444  26.446  1.00  0.00    -0.010 C 
ATOM     10  C   UNL A   1      33.760  27.418  25.545  1.00  0.00     0.003 C 
ATOM     11  C   UNL A   1      31.223  27.212  25.634  1.00  0.00     0.020 C 
ATOM     12  C   UNL A   1      33.784  26.218  24.609  1.00  0.00     0.001 C 
ATOM     13  C   UNL A   1      32.487  26.128  23.807  1.00  0.00     0.017 C 
BRANCH   9  14
ATOM     14  C   UNL A   1      32.484  28.779  27.219  1.00  0.00     0.000 C 
ATOM     15  C   UNL A   1      33.856  29.395  27.453  1.00  0.00     0.004 C 
ENDBRANCH   9  14
BRANCH   8  16
ATOM     16  C   UNL A   1      29.901  25.964  23.930  1.00  0.00     0.052 C 
BRANCH  16  17
ATOM     17  C   UNL A   1      29.399  27.274  23.373  1.00  0.00    -0.043 A 
ATOM     18  C   UNL A   1      28.065  27.666  23.575  1.00  0.00     0.004 A 
ATOM     19  C   UNL A   1      30.246  28.120  22.647  1.00  0.00     0.049 A 
ATOM     20  C   UNL A   1      27.579  28.854  23.019  1.00  0.00     0.004 A 
ATOM     21  C   UNL A   1      29.752  29.301  22.097  1.00  0.00     0.115 A 
ATOM     22  C   UNL A   1      28.422  29.672  22.269  1.00  0.00     0.046 A 
BRANCH  21  23
ATOM     23  O   UNL A   1      30.613  30.070  21.371  1.00  0.00    -0.508 OA
ATOM     24  H   UNL A   1      31.261  30.588  21.807  1.00  0.00     0.293 HD
ENDBRANCH  21  23
ENDBRANCH  16  17
ENDBRANCH   8  16
ENDBRANCH   5   8
ENDBRANCH   3   4
ENDBRANCH   2   3
ENDBRANCH   1   2
BRANCH   1  25
ATOM     25  C   UNL A   1      35.421  23.029  23.503  1.00  0.00     0.002 C 
BRANCH  25  26
ATOM     26  C   UNL A   1      35.495  22.848  25.022  1.00  0.00     0.021 C 
BRANCH  26  27
ATOM     27  C   UNL A   1      36.689  23.512  25.694  1.00  0.00     0.116 C 
BRANCH  27  28
ATOM     28  N   UNL A   1      37.761  22.570  25.971  1.00  0.00    -0.352 N 
ATOM     29  C   UNL A   1      39.019  22.800  26.457  1.00  0.00     0.251 C 
ATOM     30  H   UNL A   1      37.550  21.627  25.781  1.00  0.00     0.163 HD
ATOM     31  O   UNL A   1      39.851  21.891  26.463  1.00  0.00    -0.269 OA
BRANCH  29  32
ATOM     32  C   UNL A   1      39.396  24.138  26.955  1.00  0.00     0.039 A 
ATOM     33  C   UNL A   1      39.140  24.454  28.292  1.00  0.00     0.014 A 
ATOM     34  C   UNL A   1      39.978  25.088  26.111  1.00  0.00     0.014 A 
ATOM     35  C   UNL A   1      39.512  25.703  28.794  1.00  0.00     0.010 A 
ATOM     36  C   UNL A   1      40.418  26.302  26.630  1.00  0.00     0.010 A 
ATOM     37  C   UNL A   1      40.180  26.626  27.974  1.00  0.00    -0.014 A 
BRANCH  37  38
ATOM     38  C   UNL A   1      40.623  27.940  28.503  1.00  0.00     0.031 A 
ATOM     39  C   UNL A   1      42.075  28.181  28.809  1.00  0.00     0.074 A 
ATOM     40  C   UNL A   1      39.710  28.896  28.757  1.00  0.00     0.049 A 
ATOM     41  N   UNL A   1      42.651  29.240  29.320  1.00  0.00    -0.248 NA
ATOM     42  C   UNL A   1      43.001  27.073  28.526  1.00  0.00     0.031 C 
ATOM     43  C   UNL A   1      38.269  28.767  28.538  1.00  0.00     0.029 A 
ATOM     44  N   UNL A   1      39.858  30.165  29.261  1.00  0.00    -0.354 N 
ATOM     45  C   UNL A   1      43.997  28.920  29.435  1.00  0.00     0.074 A 
ATOM     46  C   UNL A   1      44.145  27.551  28.993  1.00  0.00     0.031 C 
ATOM     47  C   UNL A   1      37.668  29.920  28.875  1.00  0.00     0.029 A 
ATOM     48  C   UNL A   1      38.675  30.854  29.372  1.00  0.00     0.049 A 
ATOM     49  H   UNL A   1      40.728  30.543  29.519  1.00  0.00     0.167 HD
ATOM     50  C   UNL A   1      45.021  29.706  29.847  1.00  0.00     0.037 A 
ATOM     51  C   UNL A   1      38.432  32.097  29.828  1.00  0.00     0.037 A 
ATOM     52  C   UNL A   1      44.869  31.075  30.264  1.00  0.00     0.049 A 
ATOM     53  C   UNL A   1      39.584  32.941  30.302  1.00  0.00     0.074 A 
ATOM     54  C   UNL A   1      45.849  31.977  30.639  1.00  0.00     0.029 A 
ATOM     55  N   UNL A   1      43.654  31.739  30.367  1.00  0.00    -0.354 N 
ATOM     56  N   UNL A   1      40.863  32.656  30.335  1.00  0.00    -0.248 NA
ATOM     57  C   UNL A   1      39.257  34.285  30.800  1.00  0.00     0.031 C 
ATOM     58  C   UNL A   1      45.223  33.169  31.022  1.00  0.00     0.029 A 
ATOM     59  C   UNL A   1      43.858  33.029  30.829  1.00  0.00     0.049 A 
ATOM     60  H   UNL A   1      42.778  31.350  30.144  1.00  0.00     0.167 HD
ATOM     61  C   UNL A   1      41.495  33.790  30.822  1.00  0.00     0.074 A 
ATOM     62  C   UNL A   1      40.460  34.776  31.060  1.00  0.00     0.031 C 
ATOM     63  C   UNL A   1      42.815  34.001  31.052  1.00  0.00     0.037 A 
BRANCH  50  64
ATOM     64  C   UNL A   1      46.395  29.098  29.872  1.00  0.00     0.064 A 
ATOM     65  C   UNL A   1      47.221  29.091  28.738  1.00  0.00     0.173 A 
ATOM     66  C   UNL A   1      46.900  28.529  31.051  1.00  0.00     0.173 A 
ATOM     67  F   UNL A   1      46.784  29.612  27.581  1.00  0.00    -0.203 F 
ATOM     68  C   UNL A   1      48.484  28.506  28.772  1.00  0.00     0.198 A 
ATOM     69  C   UNL A   1      48.177  27.976  31.092  1.00  0.00     0.198 A 
ATOM     70  F   UNL A   1      46.157  28.514  32.168  1.00  0.00    -0.203 F 
ATOM     71  F   UNL A   1      49.229  28.458  27.659  1.00  0.00    -0.200 F 
ATOM     72  C   UNL A   1      48.963  27.954  29.951  1.00  0.00     0.200 A 
ATOM     73  F   UNL A   1      48.644  27.456  32.236  1.00  0.00    -0.200 F 
ATOM     74  F   UNL A   1      50.180  27.393  29.983  1.00  0.00    -0.200 F 
ENDBRANCH  50  64
BRANCH  51  75
ATOM     75  C   UNL A   1      37.045  32.633  29.826  1.00  0.00     0.064 A 
ATOM     76  C   UNL A   1      36.543  33.318  28.710  1.00  0.00     0.173 A 
ATOM     77  C   UNL A   1      36.197  32.478  30.932  1.00  0.00     0.173 A 
ATOM     78  F   UNL A   1      37.323  33.508  27.636  1.00  0.00    -0.203 F 
ATOM     79  C   UNL A   1      35.255  33.846  28.709  1.00  0.00     0.198 A 
ATOM     80  C   UNL A   1      34.897  32.981  30.918  1.00  0.00     0.198 A 
ATOM     81  F   UNL A   1      36.624  31.824  32.021  1.00  0.00    -0.203 F 
ATOM     82  F   UNL A   1      34.818  34.537  27.647  1.00  0.00    -0.200 F 
ATOM     83  C   UNL A   1      34.431  33.672  29.810  1.00  0.00     0.200 A 
ATOM     84  F   UNL A   1      34.098  32.795  31.978  1.00  0.00    -0.200 F 
ATOM     85  F   UNL A   1      33.189  34.176  29.808  1.00  0.00    -0.200 F 
ENDBRANCH  51  75
BRANCH  63  86
ATOM     86  C   UNL A   1      43.221  35.360  31.546  1.00  0.00     0.064 A 
ATOM     87  C   UNL A   1      43.205  35.684  32.910  1.00  0.00     0.173 A 
ATOM     88  C   UNL A   1      43.665  36.338  30.643  1.00  0.00     0.173 A 
ATOM     89  F   UNL A   1      42.773  34.789  33.812  1.00  0.00    -0.203 F 
ATOM     90  C   UNL A   1      43.593  36.948  33.350  1.00  0.00     0.198 A 
ATOM     91  C   UNL A   1      44.083  37.588  31.090  1.00  0.00     0.198 A 
ATOM     92  F   UNL A   1      43.706  36.077  29.328  1.00  0.00    -0.203 F 
ATOM     93  F   UNL A   1      43.519  37.252  34.653  1.00  0.00    -0.200 F 
ATOM     94  C   UNL A   1      44.039  37.895  32.441  1.00  0.00     0.200 A 
ATOM     95  F   UNL A   1      44.529  38.498  30.211  1.00  0.00    -0.200 F 
ATOM     96  F   UNL A   1      44.419  39.108  32.867  1.00  0.00    -0.200 F 
ENDBRANCH  63  86
ENDBRANCH  37  38
ENDBRANCH  29  32
ENDBRANCH  27  28
ENDBRANCH  26  27
ENDBRANCH  25  26
ENDBRANCH   1  25
TORSDOF 17
ENDMDL
MODEL 3
REMARK VINA RESULT:     -11.9      3.346      9.003
REMARK SMILES CC[C@@H]1CCC[C@@](Cc2cccc(O)c2)(C(=O)NCCCCCCNC(=O)c2ccc(-c3c4nc(c(-c5c(F)c(F)c(F)c(F)c5F)c5ccc([nH]5)c(-c5c(F)c(F)c(F)c(F)c5F)c5nc(c(-c6c(F)c(F)c(F)c(F)c6F)c6ccc3[nH]6)C=C5)C=C4)cc2)C1
REMARK SMILES IDX 21 1 20 2 19 3 18 4 16 5 17 6 7 8 3 9 4 10 91 11 5 12 6 13
REMARK SMILES IDX 2 14 1 15 8 16 9 17 10 18 15 19 11 20 13 21 12 22 14 23
REMARK SMILES IDX 22 25 23 26 24 27 25 28 26 29 27 31 28 32 29 33 90 34 30 35
REMARK SMILES IDX 89 36 31 37 32 38 33 39 83 40 34 41 88 42 82 43 84 44 35 45
REMARK SMILES IDX 87 46 81 47 80 48 36 50 68 51 48 52 67 53 49 54 52 55 66 56
REMARK SMILES IDX 85 57 50 58 51 59 65 61 86 62 53 63 37 64 38 65 46 66 39 67
REMARK SMILES IDX 40 68 44 69 47 70 41 71 42 72 45 73 43 74 69 75 70 76 78 77
REMARK SMILES IDX 71 78 72 79 76 80 79 81 73 82 74 83 77 84 75 85 54 86 55 87
REMARK SMILES IDX 63 88 56 89 57 90 61 91 64 92 58 93 59 94 62 95 60 96
REMARK H PARENT 18 7 14 24 25 30 84 49 52 60
REMARK Flexibility Score: inf
ROOT
ATOM      1  C   UNL A   1      34.070  22.891  23.277  1.00  0.00     0.002 C 
ENDROOT
BRANCH   1   2
ATOM      2  C   UNL A   1      32.769  22.081  23.289  1.00  0.00     0.021 C 
BRANCH   2   3
ATOM      3  C   UNL A   1      31.529  22.892  23.637  1.00  0.00     0.116 C 
BRANCH   3   4
ATOM      4  N   UNL A   1      31.509  23.375  24.999  1.00  0.00    -0.356 N 
ATOM      5  C   UNL A   1      31.177  24.587  25.514  1.00  0.00     0.226 C 
ATOM      6  O   UNL A   1      30.872  24.573  26.714  1.00  0.00    -0.274 OA
ATOM      7  H   UNL A   1      31.784  22.709  25.669  1.00  0.00     0.163 HD
BRANCH   5   8
ATOM      8  C   UNL A   1      31.139  25.911  24.699  1.00  0.00     0.053 C 
ATOM      9  C   UNL A   1      32.193  27.293  26.664  1.00  0.00    -0.010 C 
ATOM     10  C   UNL A   1      33.499  27.412  25.865  1.00  0.00     0.003 C 
ATOM     11  C   UNL A   1      30.976  27.087  25.733  1.00  0.00     0.020 C 
ATOM     12  C   UNL A   1      33.654  26.314  24.822  1.00  0.00     0.001 C 
ATOM     13  C   UNL A   1      32.426  26.249  23.915  1.00  0.00     0.017 C 
BRANCH   9  14
ATOM     14  C   UNL A   1      32.035  28.541  27.558  1.00  0.00     0.000 C 
ATOM     15  C   UNL A   1      33.038  29.646  27.264  1.00  0.00     0.004 C 
ENDBRANCH   9  14
BRANCH   8  16
ATOM     16  C   UNL A   1      29.850  25.961  23.817  1.00  0.00     0.052 C 
BRANCH  16  17
ATOM     17  C   UNL A   1      29.361  27.291  23.298  1.00  0.00    -0.043 A 
ATOM     18  C   UNL A   1      28.041  27.705  23.539  1.00  0.00     0.004 A 
ATOM     19  C   UNL A   1      30.208  28.134  22.567  1.00  0.00     0.049 A 
ATOM     20  C   UNL A   1      27.566  28.913  23.018  1.00  0.00     0.004 A 
ATOM     21  C   UNL A   1      29.725  29.335  22.053  1.00  0.00     0.115 A 
ATOM     22  C   UNL A   1      28.407  29.729  22.263  1.00  0.00     0.046 A 
BRANCH  21  23
ATOM     23  O   UNL A   1      30.583  30.101  21.320  1.00  0.00    -0.508 OA
ATOM     24  H   UNL A   1      31.509  30.013  21.440  1.00  0.00     0.293 HD
ENDBRANCH  21  23
ENDBRANCH  16  17
ENDBRANCH   8  16
ENDBRANCH   5   8
ENDBRANCH   3   4
ENDBRANCH   2   3
ENDBRANCH   1   2
BRANCH   1  25
ATOM     25  C   UNL A   1      35.157  22.431  24.259  1.00  0.00     0.002 C 
BRANCH  25  26
ATOM     26  C   UNL A   1      35.168  23.129  25.622  1.00  0.00     0.021 C 
BRANCH  26  27
ATOM     27  C   UNL A   1      36.509  23.724  26.032  1.00  0.00     0.116 C 
BRANCH  27  28
ATOM     28  N   UNL A   1      37.567  22.729  26.065  1.00  0.00    -0.352 N 
ATOM     29  C   UNL A   1      38.889  22.873  26.388  1.00  0.00     0.251 C 
ATOM     30  H   UNL A   1      37.293  21.816  25.817  1.00  0.00     0.163 HD
ATOM     31  O   UNL A   1      39.675  21.945  26.191  1.00  0.00    -0.269 OA
BRANCH  29  32
ATOM     32  C   UNL A   1      39.387  24.144  26.954  1.00  0.00     0.039 A 
ATOM     33  C   UNL A   1      40.037  25.046  26.109  1.00  0.00     0.014 A 
ATOM     34  C   UNL A   1      39.238  24.440  28.312  1.00  0.00     0.014 A 
ATOM     35  C   UNL A   1      40.493  26.266  26.614  1.00  0.00     0.010 A 
ATOM     36  C   UNL A   1      39.622  25.686  28.798  1.00  0.00     0.010 A 
ATOM     37  C   UNL A   1      40.263  26.607  27.957  1.00  0.00    -0.014 A 
BRANCH  37  38
ATOM     38  C   UNL A   1      40.700  27.918  28.500  1.00  0.00     0.031 A 
ATOM     39  C   UNL A   1      42.148  28.154  28.826  1.00  0.00     0.074 A 
ATOM     40  C   UNL A   1      39.784  28.873  28.750  1.00  0.00     0.049 A 
ATOM     41  N   UNL A   1      42.718  29.209  29.353  1.00  0.00    -0.248 NA
ATOM     42  C   UNL A   1      43.077  27.048  28.547  1.00  0.00     0.031 C 
ATOM     43  C   UNL A   1      38.346  28.747  28.511  1.00  0.00     0.029 A 
ATOM     44  N   UNL A   1      39.927  30.137  29.265  1.00  0.00    -0.354 N 
ATOM     45  C   UNL A   1      44.063  28.888  29.483  1.00  0.00     0.074 A 
ATOM     46  C   UNL A   1      44.215  27.521  29.033  1.00  0.00     0.031 C 
ATOM     47  C   UNL A   1      37.742  29.898  28.849  1.00  0.00     0.029 A 
ATOM     48  C   UNL A   1      38.743  30.827  29.365  1.00  0.00     0.049 A 
ATOM     49  H   UNL A   1      40.794  30.513  29.536  1.00  0.00     0.167 HD
ATOM     50  C   UNL A   1      45.082  29.670  29.914  1.00  0.00     0.037 A 
ATOM     51  C   UNL A   1      38.495  32.067  29.827  1.00  0.00     0.037 A 
ATOM     52  C   UNL A   1      44.925  31.036  30.338  1.00  0.00     0.049 A 
ATOM     53  C   UNL A   1      39.642  32.907  30.322  1.00  0.00     0.074 A 
ATOM     54  C   UNL A   1      45.901  31.935  30.732  1.00  0.00     0.029 A 
ATOM     55  N   UNL A   1      43.710  31.700  30.430  1.00  0.00    -0.354 N 
ATOM     56  N   UNL A   1      40.920  32.620  30.369  1.00  0.00    -0.248 NA
ATOM     57  C   UNL A   1      39.309  34.247  30.824  1.00  0.00     0.031 C 
ATOM     58  C   UNL A   1      45.271  33.124  31.115  1.00  0.00     0.029 A 
ATOM     59  C   UNL A   1      43.909  32.987  30.904  1.00  0.00     0.049 A 
ATOM     60  H   UNL A   1      42.836  31.313  30.193  1.00  0.00     0.167 HD
ATOM     61  C   UNL A   1      41.548  33.750  30.872  1.00  0.00     0.074 A 
ATOM     62  C   UNL A   1      40.510  34.735  31.103  1.00  0.00     0.031 C 
ATOM     63  C   UNL A   1      42.865  33.958  31.120  1.00  0.00     0.037 A 
BRANCH  50  64
ATOM     64  C   UNL A   1      46.454  29.060  29.952  1.00  0.00     0.064 A 
ATOM     65  C   UNL A   1      46.949  28.422  31.100  1.00  0.00     0.173 A 
ATOM     66  C   UNL A   1      47.281  29.097  28.819  1.00  0.00     0.173 A 
ATOM     67  F   UNL A   1      46.205  28.367  32.215  1.00  0.00    -0.203 F 
ATOM     68  C   UNL A   1      48.231  27.880  31.125  1.00  0.00     0.198 A 
ATOM     69  C   UNL A   1      48.550  28.523  28.835  1.00  0.00     0.198 A 
ATOM     70  F   UNL A   1      46.857  29.687  27.691  1.00  0.00    -0.203 F 
ATOM     71  F   UNL A   1      48.703  27.331  32.253  1.00  0.00    -0.200 F 
ATOM     72  C   UNL A   1      49.028  27.925  29.991  1.00  0.00     0.200 A 
ATOM     73  F   UNL A   1      49.313  28.555  27.734  1.00  0.00    -0.200 F 
ATOM     74  F   UNL A   1      50.261  27.401  30.015  1.00  0.00    -0.200 F 
ENDBRANCH  50  64
BRANCH  51  75
ATOM     75  C   UNL A   1      37.109  32.604  29.811  1.00  0.00     0.064 A 
ATOM     76  C   UNL A   1      36.258  32.423  30.909  1.00  0.00     0.173 A 
ATOM     77  C   UNL A   1      36.606  33.303  28.704  1.00  0.00     0.173 A 
ATOM     78  F   UNL A   1      36.687  31.745  31.984  1.00  0.00    -0.203 F 
ATOM     79  C   UNL A   1      34.950  32.901  30.893  1.00  0.00     0.198 A 
ATOM     80  C   UNL A   1      35.307  33.806  28.701  1.00  0.00     0.198 A 
ATOM     81  F   UNL A   1      37.382  33.511  27.630  1.00  0.00    -0.203 F 
ATOM     82  F   UNL A   1      34.142  32.672  31.938  1.00  0.00    -0.200 F 
ATOM     83  C   UNL A   1      34.477  33.597  29.791  1.00  0.00     0.200 A 
ATOM     84  F   UNL A   1      34.860  34.493  27.640  1.00  0.00    -0.200 F 
ATOM     85  F   UNL A   1      33.219  34.060  29.777  1.00  0.00    -0.200 F 
ENDBRANCH  51  75
BRANCH  63  86
ATOM     86  C   UNL A   1      43.265  35.313  31.629  1.00  0.00     0.064 A 
ATOM     87  C   UNL A   1      43.694  36.330  30.765  1.00  0.00     0.173 A 
ATOM     88  C   UNL A   1      43.182  35.606  33.000  1.00  0.00     0.173 A 
ATOM     89  F   UNL A   1      43.806  36.094  29.449  1.00  0.00    -0.203 F 
ATOM     90  C   UNL A   1      44.053  37.583  31.256  1.00  0.00     0.198 A 
ATOM     91  C   UNL A   1      43.509  36.870  33.483  1.00  0.00     0.198 A 
ATOM     92  F   UNL A   1      42.770  34.672  33.869  1.00  0.00    -0.203 F 
ATOM     93  F   UNL A   1      44.510  38.522  30.417  1.00  0.00    -0.200 F 
ATOM     94  C   UNL A   1      43.952  37.854  32.612  1.00  0.00     0.200 A 
ATOM     95  F   UNL A   1      43.396  37.136  34.792  1.00  0.00    -0.200 F 
ATOM     96  F   UNL A   1      44.290  39.063  33.082  1.00  0.00    -0.200 F 
ENDBRANCH  63  86
ENDBRANCH  37  38
ENDBRANCH  29  32
ENDBRANCH  27  28
ENDBRANCH  26  27
ENDBRANCH  25  26
ENDBRANCH   1  25
TORSDOF 17
ENDMDL
