MODEL 1
REMARK VINA RESULT:     -13.5      0.000      0.000
REMARK SMILES Cc1ccccc1C(=O)Nc1ccc(N2CCCCC2)cc1C(=O)NCCCCCCNC(=O)c1ccc(-c2c3nc(c(-c4c(F)c(F)c(F)c(F)c4F)c4ccc([nH]4)c(-c4c(F)c(F)c(F)c(F)c4F)c4nc(c(-c5c(F)c(F)c(F)c(F)c5F)c5ccc2[nH]5)C=C4)C=C3)cc1
REMARK SMILES IDX 28 1 27 2 26 3 25 4 23 5 24 6 22 8 11 9 12 10 13 11 21 12
REMARK SMILES IDX 14 13 10 14 8 15 9 16 7 18 1 19 2 20 3 21 4 22 6 23 5 24
REMARK SMILES IDX 15 25 16 26 20 27 17 28 19 29 18 30 29 31 30 32 31 33 32 34
REMARK SMILES IDX 33 35 34 37 35 38 36 39 97 40 37 41 96 42 38 43 39 44 40 45
REMARK SMILES IDX 90 46 41 47 95 48 89 49 91 50 42 51 94 52 88 53 87 54 43 56
REMARK SMILES IDX 75 57 55 58 74 59 56 60 59 61 73 62 92 63 57 64 58 65 72 67
REMARK SMILES IDX 93 68 60 69 44 70 45 71 53 72 46 73 47 74 51 75 54 76 48 77
REMARK SMILES IDX 49 78 52 79 50 80 76 81 77 82 85 83 78 84 79 85 83 86 86 87
REMARK SMILES IDX 80 88 81 89 84 90 82 91 61 92 62 93 70 94 63 95 64 96 68 97
REMARK SMILES IDX 71 98 65 99 66 100 69 101 67 102
REMARK H PARENT 25 7 10 17 32 36 91 55 59 66
REMARK Flexibility Score: inf
ROOT
ATOM      1  C   UNL A   1      32.557  28.818  27.367  1.00  0.00     0.002 C 
ENDROOT
BRANCH   1   2
ATOM      2  C   UNL A   1      33.596  28.160  26.456  1.00  0.00     0.021 C 
BRANCH   2   3
ATOM      3  C   UNL A   1      33.423  26.681  26.117  1.00  0.00     0.116 C 
BRANCH   3   4
ATOM      4  N   UNL A   1      32.241  26.048  26.663  1.00  0.00    -0.352 N 
ATOM      5  C   UNL A   1      31.774  24.760  26.505  1.00  0.00     0.253 C 
ATOM      6  O   UNL A   1      30.795  24.407  27.158  1.00  0.00    -0.269 OA
ATOM      7  H   UNL A   1      31.685  26.625  27.235  1.00  0.00     0.163 HD
BRANCH   5   8
ATOM      8  C   UNL A   1      32.422  23.802  25.568  1.00  0.00     0.065 A 
ATOM      9  C   UNL A   1      31.773  23.355  24.403  1.00  0.00     0.054 A 
ATOM     10  C   UNL A   1      32.359  22.330  23.646  1.00  0.00     0.029 A 
ATOM     11  C   UNL A   1      33.652  21.899  23.925  1.00  0.00     0.028 A 
ATOM     12  C   UNL A   1      33.673  23.244  25.904  1.00  0.00     0.042 A 
ATOM     13  C   UNL A   1      34.351  22.391  25.028  1.00  0.00     0.038 A 
BRANCH   9  14
ATOM     14  N   UNL A   1      30.596  23.862  23.833  1.00  0.00    -0.321 N 
ATOM     15  C   UNL A   1      30.227  25.108  23.396  1.00  0.00     0.255 C 
ATOM     16  O   UNL A   1      29.056  25.262  23.032  1.00  0.00    -0.269 OA
ATOM     17  H   UNL A   1      29.890  23.183  23.724  1.00  0.00     0.170 HD
BRANCH  15  18
ATOM     18  C   UNL A   1      31.162  26.251  23.209  1.00  0.00     0.043 A 
ATOM     19  C   UNL A   1      32.810  25.098  21.587  1.00  0.00     0.045 C 
ATOM     20  C   UNL A   1      32.303  26.268  22.379  1.00  0.00    -0.038 A 
ATOM     21  C   UNL A   1      33.023  27.474  22.246  1.00  0.00     0.004 A 
ATOM     22  C   UNL A   1      32.585  28.653  22.847  1.00  0.00     0.000 A 
ATOM     23  C   UNL A   1      30.729  27.457  23.797  1.00  0.00     0.014 A 
ATOM     24  C   UNL A   1      31.429  28.649  23.613  1.00  0.00     0.001 A 
ENDBRANCH  15  18
ENDBRANCH   9  14
BRANCH  13  25
ATOM     25  N   UNL A   1      35.699  22.082  25.158  1.00  0.00    -0.372 N 
ATOM     26  C   UNL A   1      36.456  23.018  26.003  1.00  0.00     0.116 C 
ATOM     27  C   UNL A   1      36.147  20.692  25.202  1.00  0.00     0.116 C 
ATOM     28  C   UNL A   1      37.930  22.991  25.614  1.00  0.00     0.021 C 
ATOM     29  C   UNL A   1      37.614  20.635  24.775  1.00  0.00     0.021 C 
ATOM     30  C   UNL A   1      38.483  21.568  25.618  1.00  0.00     0.004 C 
ENDBRANCH  13  25
ENDBRANCH   5   8
ENDBRANCH   3   4
ENDBRANCH   2   3
ENDBRANCH   1   2
BRANCH   1  31
ATOM     31  C   UNL A   1      31.849  30.081  26.860  1.00  0.00     0.002 C 
BRANCH  31  32
ATOM     32  C   UNL A   1      32.470  31.423  27.238  1.00  0.00     0.021 C 
BRANCH  32  33
ATOM     33  C   UNL A   1      33.976  31.408  27.459  1.00  0.00     0.116 C 
BRANCH  33  34
ATOM     34  N   UNL A   1      34.416  32.082  28.676  1.00  0.00    -0.352 N 
ATOM     35  C   UNL A   1      35.406  31.702  29.569  1.00  0.00     0.251 C 
ATOM     36  H   UNL A   1      33.948  32.921  28.891  1.00  0.00     0.163 HD
ATOM     37  O   UNL A   1      35.662  32.380  30.550  1.00  0.00    -0.269 OA
BRANCH  35  38
ATOM     38  C   UNL A   1      36.243  30.522  29.240  1.00  0.00     0.039 A 
ATOM     39  C   UNL A   1      36.566  29.642  30.279  1.00  0.00     0.014 A 
ATOM     40  C   UNL A   1      36.882  30.427  28.008  1.00  0.00     0.014 A 
ATOM     41  C   UNL A   1      37.708  28.855  30.167  1.00  0.00     0.010 A 
ATOM     42  C   UNL A   1      38.069  29.725  27.932  1.00  0.00     0.010 A 
ATOM     43  C   UNL A   1      38.521  29.005  29.044  1.00  0.00    -0.014 A 
BRANCH  43  44
ATOM     44  C   UNL A   1      39.913  28.572  29.011  1.00  0.00     0.031 A 
ATOM     45  C   UNL A   1      40.264  27.180  28.657  1.00  0.00     0.074 A 
ATOM     46  C   UNL A   1      40.892  29.478  29.243  1.00  0.00     0.049 A 
ATOM     47  N   UNL A   1      41.401  26.634  28.931  1.00  0.00    -0.248 NA
ATOM     48  C   UNL A   1      39.321  26.251  28.043  1.00  0.00     0.031 C 
ATOM     49  C   UNL A   1      42.319  29.325  28.967  1.00  0.00     0.029 A 
ATOM     50  N   UNL A   1      40.806  30.676  29.978  1.00  0.00    -0.354 N 
ATOM     51  C   UNL A   1      41.451  25.415  28.299  1.00  0.00     0.074 A 
ATOM     52  C   UNL A   1      40.092  25.168  27.888  1.00  0.00     0.031 C 
ATOM     53  C   UNL A   1      43.005  30.183  29.736  1.00  0.00     0.029 A 
ATOM     54  C   UNL A   1      42.052  30.814  30.631  1.00  0.00     0.049 A 
ATOM     55  H   UNL A   1      40.037  31.289  30.027  1.00  0.00     0.167 HD
ATOM     56  C   UNL A   1      42.670  24.839  28.092  1.00  0.00     0.037 A 
ATOM     57  C   UNL A   1      42.159  30.822  31.990  1.00  0.00     0.037 A 
ATOM     58  C   UNL A   1      43.700  25.510  28.890  1.00  0.00     0.049 A 
ATOM     59  C   UNL A   1      43.033  29.730  32.556  1.00  0.00     0.074 A 
ATOM     60  C   UNL A   1      44.728  26.383  28.579  1.00  0.00     0.029 A 
ATOM     61  N   UNL A   1      43.595  25.502  30.280  1.00  0.00    -0.354 N 
ATOM     62  N   UNL A   1      43.376  28.662  31.893  1.00  0.00    -0.248 NA
ATOM     63  C   UNL A   1      43.554  29.735  33.919  1.00  0.00     0.031 C 
ATOM     64  C   UNL A   1      45.192  26.958  29.792  1.00  0.00     0.029 A 
ATOM     65  C   UNL A   1      44.473  26.408  30.840  1.00  0.00     0.049 A 
ATOM     66  H   UNL A   1      42.979  24.929  30.792  1.00  0.00     0.167 HD
ATOM     67  C   UNL A   1      44.102  27.833  32.708  1.00  0.00     0.074 A 
ATOM     68  C   UNL A   1      44.211  28.563  33.957  1.00  0.00     0.031 C 
ATOM     69  C   UNL A   1      44.530  26.608  32.283  1.00  0.00     0.037 A 
BRANCH  56  70
ATOM     70  C   UNL A   1      43.007  23.812  27.018  1.00  0.00     0.064 A 
ATOM     71  C   UNL A   1      42.667  22.450  27.210  1.00  0.00     0.173 A 
ATOM     72  C   UNL A   1      43.767  24.050  25.853  1.00  0.00     0.173 A 
ATOM     73  F   UNL A   1      41.926  22.057  28.256  1.00  0.00    -0.203 F 
ATOM     74  C   UNL A   1      43.092  21.430  26.349  1.00  0.00     0.198 A 
ATOM     75  C   UNL A   1      44.160  23.035  24.972  1.00  0.00     0.198 A 
ATOM     76  F   UNL A   1      44.214  25.262  25.520  1.00  0.00    -0.203 F 
ATOM     77  F   UNL A   1      42.789  20.154  26.626  1.00  0.00    -0.200 F 
ATOM     78  C   UNL A   1      43.840  21.723  25.229  1.00  0.00     0.200 A 
ATOM     79  F   UNL A   1      44.882  23.349  23.886  1.00  0.00    -0.200 F 
ATOM     80  F   UNL A   1      44.259  20.751  24.408  1.00  0.00    -0.200 F 
ENDBRANCH  56  70
BRANCH  57  81
ATOM     81  C   UNL A   1      40.986  31.416  32.674  1.00  0.00     0.064 A 
ATOM     82  C   UNL A   1      40.870  32.817  32.695  1.00  0.00     0.173 A 
ATOM     83  C   UNL A   1      39.835  30.665  32.939  1.00  0.00     0.173 A 
ATOM     84  F   UNL A   1      41.948  33.579  32.444  1.00  0.00    -0.203 F 
ATOM     85  C   UNL A   1      39.636  33.440  32.862  1.00  0.00     0.198 A 
ATOM     86  C   UNL A   1      38.598  31.292  33.108  1.00  0.00     0.198 A 
ATOM     87  F   UNL A   1      39.879  29.326  32.910  1.00  0.00    -0.203 F 
ATOM     88  F   UNL A   1      39.543  34.774  32.773  1.00  0.00    -0.200 F 
ATOM     89  C   UNL A   1      38.496  32.675  33.037  1.00  0.00     0.200 A 
ATOM     90  F   UNL A   1      37.489  30.552  33.249  1.00  0.00    -0.200 F 
ATOM     91  F   UNL A   1      37.293  33.264  33.095  1.00  0.00    -0.200 F 
ENDBRANCH  57  81
BRANCH  69  92
ATOM     92  C   UNL A   1      45.116  25.522  33.157  1.00  0.00     0.064 A 
ATOM     93  C   UNL A   1      46.480  25.187  33.192  1.00  0.00     0.173 A 
ATOM     94  C   UNL A   1      44.307  24.863  34.117  1.00  0.00     0.173 A 
ATOM     95  F   UNL A   1      47.376  25.827  32.430  1.00  0.00    -0.203 F 
ATOM     96  C   UNL A   1      46.985  24.218  34.067  1.00  0.00     0.198 A 
ATOM     97  C   UNL A   1      44.824  23.940  35.026  1.00  0.00     0.198 A 
ATOM     98  F   UNL A   1      42.994  25.117  34.217  1.00  0.00    -0.203 F 
ATOM     99  F   UNL A   1      48.288  23.906  34.028  1.00  0.00    -0.200 F 
ATOM    100  C   UNL A   1      46.160  23.603  34.989  1.00  0.00     0.200 A 
ATOM    101  F   UNL A   1      44.021  23.395  35.951  1.00  0.00    -0.200 F 
ATOM    102  F   UNL A   1      46.656  22.709  35.854  1.00  0.00    -0.200 F 
ENDBRANCH  69  92
ENDBRANCH  43  44
ENDBRANCH  35  38
ENDBRANCH  33  34
ENDBRANCH  32  33
ENDBRANCH  31  32
ENDBRANCH   1  31
TORSDOF 16
ENDMDL
MODEL 2
REMARK VINA RESULT:     -13.4      1.341      3.862
REMARK SMILES Cc1ccccc1C(=O)Nc1ccc(N2CCCCC2)cc1C(=O)NCCCCCCNC(=O)c1ccc(-c2c3nc(c(-c4c(F)c(F)c(F)c(F)c4F)c4ccc([nH]4)c(-c4c(F)c(F)c(F)c(F)c4F)c4nc(c(-c5c(F)c(F)c(F)c(F)c5F)c5ccc2[nH]5)C=C4)C=C3)cc1
REMARK SMILES IDX 28 1 27 2 26 3 25 4 23 5 24 6 22 8 11 9 12 10 13 11 21 12
REMARK SMILES IDX 14 13 10 14 8 15 9 16 7 18 1 19 2 20 3 21 4 22 6 23 5 24
REMARK SMILES IDX 15 25 16 26 20 27 17 28 19 29 18 30 29 31 30 32 31 33 32 34
REMARK SMILES IDX 33 35 34 37 35 38 36 39 97 40 37 41 96 42 38 43 39 44 40 45
REMARK SMILES IDX 90 46 41 47 95 48 89 49 91 50 42 51 94 52 88 53 87 54 43 56
REMARK SMILES IDX 75 57 55 58 74 59 56 60 59 61 73 62 92 63 57 64 58 65 72 67
REMARK SMILES IDX 93 68 60 69 44 70 45 71 53 72 46 73 47 74 51 75 54 76 48 77
REMARK SMILES IDX 49 78 52 79 50 80 76 81 77 82 85 83 78 84 79 85 83 86 86 87
REMARK SMILES IDX 80 88 81 89 84 90 82 91 61 92 62 93 70 94 63 95 64 96 68 97
REMARK SMILES IDX 71 98 65 99 66 100 69 101 67 102
REMARK H PARENT 25 7 10 17 32 36 91 55 59 66
REMARK Flexibility Score: inf
ROOT
ATOM      1  C   UNL A   1      34.030  28.165  25.892  1.00  0.00     0.002 C 
ENDROOT
BRANCH   1   2
ATOM      2  C   UNL A   1      33.276  26.884  26.261  1.00  0.00     0.021 C 
BRANCH   2   3
ATOM      3  C   UNL A   1      31.923  27.019  26.954  1.00  0.00     0.116 C 
BRANCH   3   4
ATOM      4  N   UNL A   1      31.032  25.886  26.815  1.00  0.00    -0.352 N 
ATOM      5  C   UNL A   1      30.417  25.376  25.692  1.00  0.00     0.253 C 
ATOM      6  O   UNL A   1      29.783  24.328  25.794  1.00  0.00    -0.269 OA
ATOM      7  H   UNL A   1      30.836  25.405  27.652  1.00  0.00     0.163 HD
BRANCH   5   8
ATOM      8  C   UNL A   1      30.502  26.062  24.373  1.00  0.00     0.065 A 
ATOM      9  C   UNL A   1      30.940  25.390  23.218  1.00  0.00     0.054 A 
ATOM     10  C   UNL A   1      31.158  26.125  22.043  1.00  0.00     0.029 A 
ATOM     11  C   UNL A   1      30.759  27.454  21.959  1.00  0.00     0.028 A 
ATOM     12  C   UNL A   1      30.239  27.446  24.294  1.00  0.00     0.042 A 
ATOM     13  C   UNL A   1      30.241  28.121  23.070  1.00  0.00     0.038 A 
BRANCH   9  14
ATOM     14  N   UNL A   1      31.136  24.011  23.055  1.00  0.00    -0.321 N 
ATOM     15  C   UNL A   1      32.152  23.160  23.409  1.00  0.00     0.255 C 
ATOM     16  O   UNL A   1      32.076  21.989  23.023  1.00  0.00    -0.269 OA
ATOM     17  H   UNL A   1      30.393  23.562  22.590  1.00  0.00     0.170 HD
BRANCH  15  18
ATOM     18  C   UNL A   1      33.268  23.512  24.330  1.00  0.00     0.043 A 
ATOM     19  C   UNL A   1      32.380  22.312  26.439  1.00  0.00     0.045 C 
ATOM     20  C   UNL A   1      33.395  23.112  25.677  1.00  0.00    -0.038 A 
ATOM     21  C   UNL A   1      34.572  23.456  26.374  1.00  0.00     0.004 A 
ATOM     22  C   UNL A   1      35.631  24.104  25.740  1.00  0.00     0.000 A 
ATOM     23  C   UNL A   1      34.355  24.153  23.703  1.00  0.00     0.014 A 
ATOM     24  C   UNL A   1      35.529  24.441  24.398  1.00  0.00     0.001 A 
ENDBRANCH  15  18
ENDBRANCH   9  14
BRANCH  13  25
ATOM     25  N   UNL A   1      29.680  29.380  22.895  1.00  0.00    -0.372 N 
ATOM     26  C   UNL A   1      30.108  30.378  23.887  1.00  0.00     0.116 C 
ATOM     27  C   UNL A   1      29.414  29.899  21.555  1.00  0.00     0.116 C 
ATOM     28  C   UNL A   1      29.050  31.468  24.013  1.00  0.00     0.021 C 
ATOM     29  C   UNL A   1      28.325  30.968  21.651  1.00  0.00     0.021 C 
ATOM     30  C   UNL A   1      28.696  32.063  22.652  1.00  0.00     0.004 C 
ENDBRANCH  13  25
ENDBRANCH   5   8
ENDBRANCH   3   4
ENDBRANCH   2   3
ENDBRANCH   1   2
BRANCH   1  31
ATOM     31  C   UNL A   1      33.225  29.331  25.304  1.00  0.00     0.002 C 
BRANCH  31  32
ATOM     32  C   UNL A   1      32.992  30.538  26.209  1.00  0.00     0.021 C 
BRANCH  32  33
ATOM     33  C   UNL A   1      33.306  30.322  27.683  1.00  0.00     0.116 C 
BRANCH  33  34
ATOM     34  N   UNL A   1      33.970  31.446  28.332  1.00  0.00    -0.352 N 
ATOM     35  C   UNL A   1      35.231  31.494  28.909  1.00  0.00     0.251 C 
ATOM     36  H   UNL A   1      33.455  32.284  28.364  1.00  0.00     0.163 HD
ATOM     37  O   UNL A   1      35.651  32.521  29.416  1.00  0.00    -0.269 OA
BRANCH  35  38
ATOM     38  C   UNL A   1      36.114  30.311  28.781  1.00  0.00     0.039 A 
ATOM     39  C   UNL A   1      36.471  29.633  29.952  1.00  0.00     0.014 A 
ATOM     40  C   UNL A   1      36.759  30.032  27.580  1.00  0.00     0.014 A 
ATOM     41  C   UNL A   1      37.645  28.886  29.970  1.00  0.00     0.010 A 
ATOM     42  C   UNL A   1      37.973  29.376  27.618  1.00  0.00     0.010 A 
ATOM     43  C   UNL A   1      38.453  28.874  28.834  1.00  0.00    -0.014 A 
BRANCH  43  44
ATOM     44  C   UNL A   1      39.861  28.498  28.867  1.00  0.00     0.031 A 
ATOM     45  C   UNL A   1      40.284  27.121  28.532  1.00  0.00     0.074 A 
ATOM     46  C   UNL A   1      40.791  29.443  29.144  1.00  0.00     0.049 A 
ATOM     47  N   UNL A   1      41.428  26.622  28.860  1.00  0.00    -0.248 NA
ATOM     48  C   UNL A   1      39.409  26.155  27.875  1.00  0.00     0.031 C 
ATOM     49  C   UNL A   1      42.234  29.348  28.936  1.00  0.00     0.029 A 
ATOM     50  N   UNL A   1      40.621  30.635  29.873  1.00  0.00    -0.354 N 
ATOM     51  C   UNL A   1      41.557  25.406  28.233  1.00  0.00     0.074 A 
ATOM     52  C   UNL A   1      40.231  25.104  27.758  1.00  0.00     0.031 C 
ATOM     53  C   UNL A   1      42.847  30.232  29.736  1.00  0.00     0.029 A 
ATOM     54  C   UNL A   1      41.829  30.823  30.584  1.00  0.00     0.049 A 
ATOM     55  H   UNL A   1      39.826  31.217  29.885  1.00  0.00     0.167 HD
ATOM     56  C   UNL A   1      42.807  24.880  28.084  1.00  0.00     0.037 A 
ATOM     57  C   UNL A   1      41.870  30.835  31.947  1.00  0.00     0.037 A 
ATOM     58  C   UNL A   1      43.770  25.591  28.930  1.00  0.00     0.049 A 
ATOM     59  C   UNL A   1      42.760  29.779  32.554  1.00  0.00     0.074 A 
ATOM     60  C   UNL A   1      44.775  26.505  28.667  1.00  0.00     0.029 A 
ATOM     61  N   UNL A   1      43.600  25.579  30.314  1.00  0.00    -0.354 N 
ATOM     62  N   UNL A   1      43.177  28.726  31.910  1.00  0.00    -0.248 NA
ATOM     63  C   UNL A   1      43.215  29.804  33.941  1.00  0.00     0.031 C 
ATOM     64  C   UNL A   1      45.158  27.098  29.899  1.00  0.00     0.029 A 
ATOM     65  C   UNL A   1      44.413  26.519  30.913  1.00  0.00     0.049 A 
ATOM     66  H   UNL A   1      42.984  24.981  30.796  1.00  0.00     0.167 HD
ATOM     67  C   UNL A   1      43.897  27.927  32.759  1.00  0.00     0.074 A 
ATOM     68  C   UNL A   1      43.916  28.659  34.012  1.00  0.00     0.031 C 
ATOM     69  C   UNL A   1      44.393  26.720  32.357  1.00  0.00     0.037 A 
BRANCH  56  70
ATOM     70  C   UNL A   1      43.236  23.868  27.029  1.00  0.00     0.064 A 
ATOM     71  C   UNL A   1      42.847  22.511  27.151  1.00  0.00     0.173 A 
ATOM     72  C   UNL A   1      44.123  24.113  25.959  1.00  0.00     0.173 A 
ATOM     73  F   UNL A   1      41.988  22.114  28.101  1.00  0.00    -0.203 F 
ATOM     74  C   UNL A   1      43.340  21.499  26.316  1.00  0.00     0.198 A 
ATOM     75  C   UNL A   1      44.586  23.108  25.102  1.00  0.00     0.198 A 
ATOM     76  F   UNL A   1      44.630  25.320  25.706  1.00  0.00    -0.203 F 
ATOM     77  F   UNL A   1      42.981  20.226  26.529  1.00  0.00    -0.200 F 
ATOM     78  C   UNL A   1      44.212  21.798  25.291  1.00  0.00     0.200 A 
ATOM     79  F   UNL A   1      45.429  23.426  24.108  1.00  0.00    -0.200 F 
ATOM     80  F   UNL A   1      44.696  20.834  24.498  1.00  0.00    -0.200 F 
ENDBRANCH  56  70
BRANCH  57  81
ATOM     81  C   UNL A   1      40.643  31.380  32.573  1.00  0.00     0.064 A 
ATOM     82  C   UNL A   1      40.445  32.773  32.541  1.00  0.00     0.173 A 
ATOM     83  C   UNL A   1      39.530  30.572  32.829  1.00  0.00     0.173 A 
ATOM     84  F   UNL A   1      41.484  33.589  32.297  1.00  0.00    -0.203 F 
ATOM     85  C   UNL A   1      39.172  33.326  32.649  1.00  0.00     0.198 A 
ATOM     86  C   UNL A   1      38.254  31.129  32.939  1.00  0.00     0.198 A 
ATOM     87  F   UNL A   1      39.653  29.237  32.849  1.00  0.00    -0.203 F 
ATOM     88  F   UNL A   1      39.004  34.648  32.511  1.00  0.00    -0.200 F 
ATOM     89  C   UNL A   1      38.073  32.500  32.816  1.00  0.00     0.200 A 
ATOM     90  F   UNL A   1      37.186  30.330  33.071  1.00  0.00    -0.200 F 
ATOM     91  F   UNL A   1      36.837  33.019  32.817  1.00  0.00    -0.200 F 
ENDBRANCH  57  81
BRANCH  69  92
ATOM     92  C   UNL A   1      44.980  25.658  33.259  1.00  0.00     0.064 A 
ATOM     93  C   UNL A   1      44.219  24.838  34.110  1.00  0.00     0.173 A 
ATOM     94  C   UNL A   1      46.358  25.336  33.182  1.00  0.00     0.173 A 
ATOM     95  F   UNL A   1      42.887  24.949  34.179  1.00  0.00    -0.203 F 
ATOM     96  C   UNL A   1      44.801  23.824  34.879  1.00  0.00     0.198 A 
ATOM     97  C   UNL A   1      46.924  24.287  33.907  1.00  0.00     0.198 A 
ATOM     98  F   UNL A   1      47.191  26.015  32.380  1.00  0.00    -0.203 F 
ATOM     99  F   UNL A   1      44.035  23.099  35.708  1.00  0.00    -0.200 F 
ATOM    100  C   UNL A   1      46.149  23.542  34.770  1.00  0.00     0.200 A 
ATOM    101  F   UNL A   1      48.221  23.991  33.746  1.00  0.00    -0.200 F 
ATOM    102  F   UNL A   1      46.693  22.541  35.474  1.00  0.00    -0.200 F 
ENDBRANCH  69  92
ENDBRANCH  43  44
ENDBRANCH  35  38
ENDBRANCH  33  34
ENDBRANCH  32  33
ENDBRANCH  31  32
ENDBRANCH   1  31
TORSDOF 16
ENDMDL
MODEL 3
REMARK VINA RESULT:     -13.2      3.025      5.767
REMARK SMILES Cc1ccccc1C(=O)Nc1ccc(N2CCCCC2)cc1C(=O)NCCCCCCNC(=O)c1ccc(-c2c3nc(c(-c4c(F)c(F)c(F)c(F)c4F)c4ccc([nH]4)c(-c4c(F)c(F)c(F)c(F)c4F)c4nc(c(-c5c(F)c(F)c(F)c(F)c5F)c5ccc2[nH]5)C=C4)C=C3)cc1
REMARK SMILES IDX 28 1 27 2 26 3 25 4 23 5 24 6 22 8 11 9 12 10 13 11 21 12
REMARK SMILES IDX 14 13 10 14 8 15 9 16 7 18 1 19 2 20 3 21 4 22 6 23 5 24
REMARK SMILES IDX 15 25 16 26 20 27 17 28 19 29 18 30 29 31 30 32 31 33 32 34
REMARK SMILES IDX 33 35 34 37 35 38 36 39 97 40 37 41 96 42 38 43 39 44 40 45
REMARK SMILES IDX 90 46 41 47 95 48 89 49 91 50 42 51 94 52 88 53 87 54 43 56
REMARK SMILES IDX 75 57 55 58 74 59 56 60 59 61 73 62 92 63 57 64 58 65 72 67
REMARK SMILES IDX 93 68 60 69 44 70 45 71 53 72 46 73 47 74 51 75 54 76 48 77
REMARK SMILES IDX 49 78 52 79 50 80 76 81 77 82 85 83 78 84 79 85 83 86 86 87
REMARK SMILES IDX 80 88 81 89 84 90 82 91 61 92 62 93 70 94 63 95 64 96 68 97
REMARK SMILES IDX 71 98 65 99 66 100 69 101 67 102
REMARK H PARENT 25 7 10 17 32 36 91 55 59 66
REMARK Flexibility Score: inf
ROOT
ATOM      1  C   UNL A   1      34.655  31.046  27.480  1.00  0.00     0.002 C 
ENDROOT
BRANCH   1   2
ATOM      2  C   UNL A   1      33.130  31.149  27.393  1.00  0.00     0.021 C 
BRANCH   2   3
ATOM      3  C   UNL A   1      32.335  29.870  27.140  1.00  0.00     0.116 C 
BRANCH   3   4
ATOM      4  N   UNL A   1      33.115  28.718  26.740  1.00  0.00    -0.352 N 
ATOM      5  C   UNL A   1      32.819  27.719  25.837  1.00  0.00     0.253 C 
ATOM      6  O   UNL A   1      33.687  26.890  25.573  1.00  0.00    -0.269 OA
ATOM      7  H   UNL A   1      33.992  28.634  27.181  1.00  0.00     0.163 HD
BRANCH   5   8
ATOM      8  C   UNL A   1      31.484  27.623  25.185  1.00  0.00     0.065 A 
ATOM      9  C   UNL A   1      30.635  26.523  25.398  1.00  0.00     0.054 A 
ATOM     10  C   UNL A   1      29.465  26.405  24.633  1.00  0.00     0.029 A 
ATOM     11  C   UNL A   1      29.046  27.454  23.821  1.00  0.00     0.028 A 
ATOM     12  C   UNL A   1      31.099  28.605  24.248  1.00  0.00     0.042 A 
ATOM     13  C   UNL A   1      29.832  28.595  23.659  1.00  0.00     0.038 A 
BRANCH   9  14
ATOM     14  N   UNL A   1      30.771  25.513  26.362  1.00  0.00    -0.321 N 
ATOM     15  C   UNL A   1      31.265  24.234  26.316  1.00  0.00     0.255 C 
ATOM     16  O   UNL A   1      31.149  23.541  27.333  1.00  0.00    -0.269 OA
ATOM     17  H   UNL A   1      30.446  25.776  27.254  1.00  0.00     0.170 HD
BRANCH  15  18
ATOM     18  C   UNL A   1      32.041  23.666  25.180  1.00  0.00     0.043 A 
ATOM     19  C   UNL A   1      34.364  23.646  26.312  1.00  0.00     0.045 C 
ATOM     20  C   UNL A   1      33.421  23.371  25.177  1.00  0.00    -0.038 A 
ATOM     21  C   UNL A   1      33.974  22.742  24.042  1.00  0.00     0.004 A 
ATOM     22  C   UNL A   1      33.177  22.339  22.972  1.00  0.00     0.000 A 
ATOM     23  C   UNL A   1      31.250  23.238  24.095  1.00  0.00     0.014 A 
ATOM     24  C   UNL A   1      31.810  22.575  23.003  1.00  0.00     0.001 A 
ENDBRANCH  15  18
ENDBRANCH   9  14
BRANCH  13  25
ATOM     25  N   UNL A   1      29.291  29.691  22.998  1.00  0.00    -0.372 N 
ATOM     26  C   UNL A   1      29.244  30.921  23.804  1.00  0.00     0.116 C 
ATOM     27  C   UNL A   1      29.513  29.885  21.567  1.00  0.00     0.116 C 
ATOM     28  C   UNL A   1      28.144  31.839  23.283  1.00  0.00     0.021 C 
ATOM     29  C   UNL A   1      28.397  30.772  21.013  1.00  0.00     0.021 C 
ATOM     30  C   UNL A   1      28.287  32.088  21.783  1.00  0.00     0.004 C 
ENDBRANCH  13  25
ENDBRANCH   5   8
ENDBRANCH   3   4
ENDBRANCH   2   3
ENDBRANCH   1   2
BRANCH   1  31
ATOM     31  C   UNL A   1      35.395  32.041  28.384  1.00  0.00     0.002 C 
BRANCH  31  32
ATOM     32  C   UNL A   1      34.643  32.558  29.607  1.00  0.00     0.021 C 
BRANCH  32  33
ATOM     33  C   UNL A   1      34.528  34.072  29.714  1.00  0.00     0.116 C 
BRANCH  33  34
ATOM     34  N   UNL A   1      33.567  34.538  30.707  1.00  0.00    -0.352 N 
ATOM     35  C   UNL A   1      33.680  34.541  32.090  1.00  0.00     0.251 C 
ATOM     36  H   UNL A   1      32.725  34.901  30.348  1.00  0.00     0.163 HD
ATOM     37  O   UNL A   1      32.781  34.971  32.792  1.00  0.00    -0.269 OA
BRANCH  35  38
ATOM     38  C   UNL A   1      34.970  34.134  32.696  1.00  0.00     0.039 A 
ATOM     39  C   UNL A   1      36.069  34.981  32.521  1.00  0.00     0.014 A 
ATOM     40  C   UNL A   1      35.141  32.850  33.206  1.00  0.00     0.014 A 
ATOM     41  C   UNL A   1      37.353  34.448  32.599  1.00  0.00     0.010 A 
ATOM     42  C   UNL A   1      36.405  32.295  33.187  1.00  0.00     0.010 A 
ATOM     43  C   UNL A   1      37.500  33.076  32.802  1.00  0.00    -0.014 A 
BRANCH  43  44
ATOM     44  C   UNL A   1      38.728  32.356  32.486  1.00  0.00     0.031 A 
ATOM     45  C   UNL A   1      38.690  31.109  31.692  1.00  0.00     0.074 A 
ATOM     46  C   UNL A   1      39.917  32.877  32.870  1.00  0.00     0.049 A 
ATOM     47  N   UNL A   1      39.652  30.249  31.661  1.00  0.00    -0.248 NA
ATOM     48  C   UNL A   1      37.519  30.680  30.934  1.00  0.00     0.031 C 
ATOM     49  C   UNL A   1      41.244  32.483  32.405  1.00  0.00     0.029 A 
ATOM     50  N   UNL A   1      40.170  33.760  33.938  1.00  0.00    -0.354 N 
ATOM     51  C   UNL A   1      39.361  29.322  30.689  1.00  0.00     0.074 A 
ATOM     52  C   UNL A   1      37.974  29.553  30.375  1.00  0.00     0.031 C 
ATOM     53  C   UNL A   1      42.154  32.858  33.317  1.00  0.00     0.029 A 
ATOM     54  C   UNL A   1      41.427  33.379  34.460  1.00  0.00     0.049 A 
ATOM     55  H   UNL A   1      39.590  34.491  34.255  1.00  0.00     0.167 HD
ATOM     56  C   UNL A   1      40.379  28.568  30.184  1.00  0.00     0.037 A 
ATOM     57  C   UNL A   1      41.571  32.926  35.738  1.00  0.00     0.037 A 
ATOM     58  C   UNL A   1      41.573  28.679  31.029  1.00  0.00     0.049 A 
ATOM     59  C   UNL A   1      42.144  31.534  35.847  1.00  0.00     0.074 A 
ATOM     60  C   UNL A   1      42.784  29.333  30.883  1.00  0.00     0.029 A 
ATOM     61  N   UNL A   1      41.510  28.253  32.354  1.00  0.00    -0.354 N 
ATOM     62  N   UNL A   1      42.175  30.685  34.859  1.00  0.00    -0.248 NA
ATOM     63  C   UNL A   1      42.688  30.977  37.082  1.00  0.00     0.031 C 
ATOM     64  C   UNL A   1      43.418  29.360  32.154  1.00  0.00     0.029 A 
ATOM     65  C   UNL A   1      42.611  28.693  33.061  1.00  0.00     0.049 A 
ATOM     66  H   UNL A   1      40.780  27.712  32.734  1.00  0.00     0.167 HD
ATOM     67  C   UNL A   1      42.682  29.490  35.300  1.00  0.00     0.074 A 
ATOM     68  C   UNL A   1      43.015  29.733  36.691  1.00  0.00     0.031 C 
ATOM     69  C   UNL A   1      42.760  28.401  34.480  1.00  0.00     0.037 A 
BRANCH  56  70
ATOM     70  C   UNL A   1      40.404  27.889  28.820  1.00  0.00     0.064 A 
ATOM     71  C   UNL A   1      39.804  26.616  28.653  1.00  0.00     0.173 A 
ATOM     72  C   UNL A   1      41.097  28.347  27.679  1.00  0.00     0.173 A 
ATOM     73  F   UNL A   1      39.088  26.048  29.633  1.00  0.00    -0.203 F 
ATOM     74  C   UNL A   1      39.933  25.862  27.478  1.00  0.00     0.198 A 
ATOM     75  C   UNL A   1      41.194  27.610  26.493  1.00  0.00     0.198 A 
ATOM     76  F   UNL A   1      41.757  29.506  27.655  1.00  0.00    -0.203 F 
ATOM     77  F   UNL A   1      39.395  24.636  27.411  1.00  0.00    -0.200 F 
ATOM     78  C   UNL A   1      40.629  26.359  26.398  1.00  0.00     0.200 A 
ATOM     79  F   UNL A   1      41.872  28.120  25.454  1.00  0.00    -0.200 F 
ATOM     80  F   UNL A   1      40.767  25.638  25.277  1.00  0.00    -0.200 F 
ENDBRANCH  56  70
BRANCH  57  81
ATOM     81  C   UNL A   1      40.616  33.533  36.694  1.00  0.00     0.064 A 
ATOM     82  C   UNL A   1      39.453  32.811  37.017  1.00  0.00     0.173 A 
ATOM     83  C   UNL A   1      40.999  34.566  37.556  1.00  0.00     0.173 A 
ATOM     84  F   UNL A   1      39.046  31.809  36.220  1.00  0.00    -0.203 F 
ATOM     85  C   UNL A   1      38.766  33.038  38.207  1.00  0.00     0.198 A 
ATOM     86  C   UNL A   1      40.308  34.793  38.748  1.00  0.00     0.198 A 
ATOM     87  F   UNL A   1      42.112  35.273  37.312  1.00  0.00    -0.203 F 
ATOM     88  F   UNL A   1      37.722  32.264  38.535  1.00  0.00    -0.200 F 
ATOM     89  C   UNL A   1      39.214  34.008  39.087  1.00  0.00     0.200 A 
ATOM     90  F   UNL A   1      40.758  35.712  39.615  1.00  0.00    -0.200 F 
ATOM     91  F   UNL A   1      38.619  34.161  40.278  1.00  0.00    -0.200 F 
ENDBRANCH  57  81
BRANCH  69  92
ATOM     92  C   UNL A   1      43.065  26.985  34.916  1.00  0.00     0.064 A 
ATOM     93  C   UNL A   1      42.097  25.976  35.051  1.00  0.00     0.173 A 
ATOM     94  C   UNL A   1      44.407  26.561  35.079  1.00  0.00     0.173 A 
ATOM     95  F   UNL A   1      40.803  26.210  34.797  1.00  0.00    -0.203 F 
ATOM     96  C   UNL A   1      42.437  24.662  35.394  1.00  0.00     0.198 A 
ATOM     97  C   UNL A   1      44.746  25.238  35.364  1.00  0.00     0.198 A 
ATOM     98  F   UNL A   1      45.432  27.415  34.940  1.00  0.00    -0.203 F 
ATOM     99  F   UNL A   1      41.468  23.748  35.554  1.00  0.00    -0.200 F 
ATOM    100  C   UNL A   1      43.759  24.292  35.541  1.00  0.00     0.200 A 
ATOM    101  F   UNL A   1      46.036  24.884  35.446  1.00  0.00    -0.200 F 
ATOM    102  F   UNL A   1      44.082  23.023  35.825  1.00  0.00    -0.200 F 
ENDBRANCH  69  92
ENDBRANCH  43  44
ENDBRANCH  35  38
ENDBRANCH  33  34
ENDBRANCH  32  33
ENDBRANCH  31  32
ENDBRANCH   1  31
TORSDOF 16
ENDMDL
