MODEL 1
REMARK VINA RESULT:     -11.4      0.000      0.000
REMARK SMILES O=C(NCCCCCCNC(=O)c1ccc(S(=O)(=O)Nc2ccccc2I)cc1)c1ccc(-c2c3nc(c(-c4c(F)c(F)c(F)c(F)c4F)c4ccc([nH]4)c(-c4c(F)c(F)c(F)c(F)c4F)c4nc(c(-c5c(F)c(F)c(F)c(F)c5F)c5ccc2[nH]5)C=C4)C=C3)cc1
REMARK SMILES IDX 7 1 6 2 5 3 4 4 3 5 1 6 2 7 30 9 31 10 92 11 32 12 91 13
REMARK SMILES IDX 33 14 34 15 35 16 85 17 36 18 90 19 84 20 86 21 37 22 89 23
REMARK SMILES IDX 83 24 82 25 38 27 70 28 50 29 69 30 51 31 54 32 68 33 87 34
REMARK SMILES IDX 52 35 53 36 67 38 88 39 55 40 39 41 40 42 48 43 41 44 42 45
REMARK SMILES IDX 46 46 49 47 43 48 44 49 47 50 45 51 71 52 72 53 80 54 73 55
REMARK SMILES IDX 74 56 78 57 81 58 75 59 76 60 79 61 77 62 56 63 57 64 65 65
REMARK SMILES IDX 58 66 59 67 63 68 66 69 60 70 61 71 64 72 62 73 8 74 9 75
REMARK SMILES IDX 10 76 11 77 12 79 13 80 14 81 29 82 15 83 28 84 16 85 17 86
REMARK SMILES IDX 18 87 19 88 20 89 21 91 22 92 26 93 23 94 25 95 27 96 24 97
REMARK H PARENT 3 8 86 26 54 37 10 78 20 90
REMARK Flexibility Score: inf
ROOT
ATOM      1  C   UNL A   1      31.212  28.020  24.515  1.00  0.00     0.002 C 
ENDROOT
BRANCH   1   2
ATOM      2  C   UNL A   1      31.615  28.164  25.985  1.00  0.00     0.002 C 
BRANCH   2   3
ATOM      3  C   UNL A   1      32.816  27.329  26.435  1.00  0.00     0.021 C 
BRANCH   3   4
ATOM      4  C   UNL A   1      34.094  28.116  26.702  1.00  0.00     0.116 C 
BRANCH   4   5
ATOM      5  N   UNL A   1      33.832  29.509  27.013  1.00  0.00    -0.352 N 
ATOM      6  O   UNL A   1      34.127  31.493  28.042  1.00  0.00    -0.269 OA
ATOM      7  C   UNL A   1      34.584  30.395  27.741  1.00  0.00     0.251 C 
ATOM      8  H   UNL A   1      32.992  29.871  26.649  1.00  0.00     0.163 HD
BRANCH   7   9
ATOM      9  C   UNL A   1      35.943  30.020  28.182  1.00  0.00     0.039 A 
ATOM     10  C   UNL A   1      36.172  29.525  29.471  1.00  0.00     0.014 A 
ATOM     11  C   UNL A   1      36.999  30.135  27.275  1.00  0.00     0.014 A 
ATOM     12  C   UNL A   1      37.470  29.248  29.886  1.00  0.00     0.010 A 
ATOM     13  C   UNL A   1      38.292  29.789  27.670  1.00  0.00     0.010 A 
ATOM     14  C   UNL A   1      38.540  29.362  28.984  1.00  0.00    -0.014 A 
BRANCH  14  15
ATOM     15  C   UNL A   1      39.906  28.960  29.397  1.00  0.00     0.031 A 
ATOM     16  C   UNL A   1      40.760  29.874  30.224  1.00  0.00     0.074 A 
ATOM     17  C   UNL A   1      40.387  27.775  28.979  1.00  0.00     0.049 A 
ATOM     18  N   UNL A   1      42.002  29.721  30.611  1.00  0.00    -0.248 NA
ATOM     19  C   UNL A   1      40.143  31.132  30.668  1.00  0.00     0.031 C 
ATOM     20  C   UNL A   1      39.652  26.815  28.154  1.00  0.00     0.029 A 
ATOM     21  N   UNL A   1      41.609  27.182  29.174  1.00  0.00    -0.354 N 
ATOM     22  C   UNL A   1      42.323  30.869  31.322  1.00  0.00     0.074 A 
ATOM     23  C   UNL A   1      41.152  31.722  31.294  1.00  0.00     0.031 C 
ATOM     24  C   UNL A   1      40.433  25.753  27.915  1.00  0.00     0.029 A 
ATOM     25  C   UNL A   1      41.742  25.984  28.518  1.00  0.00     0.049 A 
ATOM     26  H   UNL A   1      42.320  27.578  29.728  1.00  0.00     0.167 HD
ATOM     27  C   UNL A   1      43.488  31.176  31.942  1.00  0.00     0.037 A 
ATOM     28  C   UNL A   1      42.809  25.176  28.383  1.00  0.00     0.037 A 
ATOM     29  C   UNL A   1      44.643  30.314  31.965  1.00  0.00     0.049 A 
ATOM     30  C   UNL A   1      44.099  25.550  29.055  1.00  0.00     0.074 A 
ATOM     31  C   UNL A   1      45.850  30.506  32.616  1.00  0.00     0.029 A 
ATOM     32  N   UNL A   1      44.739  29.103  31.294  1.00  0.00    -0.354 N 
ATOM     33  N   UNL A   1      44.375  26.610  29.774  1.00  0.00    -0.248 NA
ATOM     34  C   UNL A   1      45.224  24.619  28.897  1.00  0.00     0.031 C 
ATOM     35  C   UNL A   1      46.696  29.441  32.290  1.00  0.00     0.029 A 
ATOM     36  C   UNL A   1      45.998  28.555  31.485  1.00  0.00     0.049 A 
ATOM     37  H   UNL A   1      44.020  28.695  30.760  1.00  0.00     0.167 HD
ATOM     38  C   UNL A   1      45.697  26.468  30.172  1.00  0.00     0.074 A 
ATOM     39  C   UNL A   1      46.164  25.212  29.621  1.00  0.00     0.031 C 
ATOM     40  C   UNL A   1      46.450  27.302  30.929  1.00  0.00     0.037 A 
BRANCH  27  41
ATOM     41  C   UNL A   1      43.581  32.514  32.619  1.00  0.00     0.064 A 
ATOM     42  C   UNL A   1      44.039  33.657  31.945  1.00  0.00     0.173 A 
ATOM     43  C   UNL A   1      43.187  32.658  33.958  1.00  0.00     0.173 A 
ATOM     44  F   UNL A   1      44.437  33.574  30.666  1.00  0.00    -0.203 F 
ATOM     45  C   UNL A   1      44.134  34.884  32.598  1.00  0.00     0.198 A 
ATOM     46  C   UNL A   1      43.254  33.894  34.598  1.00  0.00     0.198 A 
ATOM     47  F   UNL A   1      42.733  31.602  34.648  1.00  0.00    -0.203 F 
ATOM     48  F   UNL A   1      44.630  35.948  31.950  1.00  0.00    -0.200 F 
ATOM     49  C   UNL A   1      43.737  35.003  33.922  1.00  0.00     0.200 A 
ATOM     50  F   UNL A   1      42.859  34.008  35.874  1.00  0.00    -0.200 F 
ATOM     51  F   UNL A   1      43.832  36.183  34.548  1.00  0.00    -0.200 F 
ENDBRANCH  27  41
BRANCH  28  52
ATOM     52  C   UNL A   1      42.683  23.947  27.562  1.00  0.00     0.064 A 
ATOM     53  C   UNL A   1      43.000  23.952  26.198  1.00  0.00     0.173 A 
ATOM     54  C   UNL A   1      42.304  22.727  28.142  1.00  0.00     0.173 A 
ATOM     55  F   UNL A   1      43.353  25.097  25.597  1.00  0.00    -0.203 F 
ATOM     56  C   UNL A   1      42.942  22.781  25.444  1.00  0.00     0.198 A 
ATOM     57  C   UNL A   1      42.273  21.553  27.394  1.00  0.00     0.198 A 
ATOM     58  F   UNL A   1      42.001  22.669  29.447  1.00  0.00    -0.203 F 
ATOM     59  F   UNL A   1      43.229  22.816  24.136  1.00  0.00    -0.200 F 
ATOM     60  C   UNL A   1      42.588  21.582  26.044  1.00  0.00     0.200 A 
ATOM     61  F   UNL A   1      41.952  20.393  27.983  1.00  0.00    -0.200 F 
ATOM     62  F   UNL A   1      42.555  20.454  25.322  1.00  0.00    -0.200 F 
ENDBRANCH  28  52
BRANCH  40  63
ATOM     63  C   UNL A   1      47.855  26.876  31.235  1.00  0.00     0.064 A 
ATOM     64  C   UNL A   1      48.941  27.314  30.464  1.00  0.00     0.173 A 
ATOM     65  C   UNL A   1      48.122  26.072  32.355  1.00  0.00     0.173 A 
ATOM     66  F   UNL A   1      48.735  28.069  29.375  1.00  0.00    -0.203 F 
ATOM     67  C   UNL A   1      50.244  26.954  30.797  1.00  0.00     0.198 A 
ATOM     68  C   UNL A   1      49.428  25.737  32.700  1.00  0.00     0.198 A 
ATOM     69  F   UNL A   1      47.116  25.631  33.125  1.00  0.00    -0.203 F 
ATOM     70  F   UNL A   1      51.266  27.356  30.029  1.00  0.00    -0.200 F 
ATOM     71  C   UNL A   1      50.487  26.175  31.920  1.00  0.00     0.200 A 
ATOM     72  F   UNL A   1      49.661  24.997  33.792  1.00  0.00    -0.200 F 
ATOM     73  F   UNL A   1      51.744  25.844  32.249  1.00  0.00    -0.200 F 
ENDBRANCH  40  63
ENDBRANCH  14  15
ENDBRANCH   7   9
ENDBRANCH   4   5
ENDBRANCH   3   4
ENDBRANCH   2   3
ENDBRANCH   1   2
BRANCH   1  74
ATOM     74  C   UNL A   1      30.246  26.880  24.198  1.00  0.00     0.021 C 
BRANCH  74  75
ATOM     75  C   UNL A   1      30.856  25.699  23.459  1.00  0.00     0.116 C 
BRANCH  75  76
ATOM     76  N   UNL A   1      31.588  26.076  22.261  1.00  0.00    -0.352 N 
ATOM     77  C   UNL A   1      32.899  25.828  21.917  1.00  0.00     0.251 C 
ATOM     78  H   UNL A   1      31.069  26.585  21.596  1.00  0.00     0.163 HD
ATOM     79  O   UNL A   1      33.373  26.344  20.909  1.00  0.00    -0.269 OA
BRANCH  77  80
ATOM     80  C   UNL A   1      33.747  24.955  22.767  1.00  0.00     0.039 A 
ATOM     81  C   UNL A   1      34.290  25.450  23.959  1.00  0.00     0.015 A 
ATOM     82  C   UNL A   1      33.994  23.636  22.401  1.00  0.00     0.015 A 
ATOM     83  C   UNL A   1      35.047  24.610  24.791  1.00  0.00     0.023 A 
ATOM     84  C   UNL A   1      34.612  22.773  23.293  1.00  0.00     0.023 A 
ATOM     85  C   UNL A   1      35.206  23.260  24.453  1.00  0.00     0.087 A 
BRANCH  85  86
ATOM     86  S   UNL A   1      36.062  22.148  25.547  1.00  0.00     0.261 S 
ATOM     87  O   UNL A   1      36.579  21.055  24.745  1.00  0.00    -0.201 OA
ATOM     88  O   UNL A   1      36.958  22.957  26.342  1.00  0.00    -0.201 OA
BRANCH  86  89
ATOM     89  N   UNL A   1      34.963  21.425  26.643  1.00  0.00    -0.279 N 
ATOM     90  H   UNL A   1      35.277  20.745  27.280  1.00  0.00     0.180 HD
BRANCH  89  91
ATOM     91  C   UNL A   1      33.578  21.818  26.627  1.00  0.00     0.062 A 
ATOM     92  C   UNL A   1      33.171  22.964  27.327  1.00  0.00     0.028 A 
ATOM     93  C   UNL A   1      32.648  21.134  25.825  1.00  0.00     0.037 A 
ATOM     94  C   UNL A   1      31.861  23.440  27.195  1.00  0.00     0.002 A 
ATOM     95  C   UNL A   1      31.341  21.620  25.691  1.00  0.00     0.017 A 
ATOM     96  I   UNL A   1      33.145  19.390  24.770  1.00  0.00    -0.042 I 
ATOM     97  C   UNL A   1      30.953  22.777  26.368  1.00  0.00     0.001 A 
ENDBRANCH  89  91
ENDBRANCH  86  89
ENDBRANCH  85  86
ENDBRANCH  77  80
ENDBRANCH  75  76
ENDBRANCH  74  75
ENDBRANCH   1  74
TORSDOF 16
ENDMDL
MODEL 2
REMARK VINA RESULT:     -11.3      3.723      8.824
REMARK SMILES O=C(NCCCCCCNC(=O)c1ccc(S(=O)(=O)Nc2ccccc2I)cc1)c1ccc(-c2c3nc(c(-c4c(F)c(F)c(F)c(F)c4F)c4ccc([nH]4)c(-c4c(F)c(F)c(F)c(F)c4F)c4nc(c(-c5c(F)c(F)c(F)c(F)c5F)c5ccc2[nH]5)C=C4)C=C3)cc1
REMARK SMILES IDX 7 1 6 2 5 3 4 4 3 5 1 6 2 7 30 9 31 10 92 11 32 12 91 13
REMARK SMILES IDX 33 14 34 15 35 16 85 17 36 18 90 19 84 20 86 21 37 22 89 23
REMARK SMILES IDX 83 24 82 25 38 27 70 28 50 29 69 30 51 31 54 32 68 33 87 34
REMARK SMILES IDX 52 35 53 36 67 38 88 39 55 40 39 41 40 42 48 43 41 44 42 45
REMARK SMILES IDX 46 46 49 47 43 48 44 49 47 50 45 51 71 52 72 53 80 54 73 55
REMARK SMILES IDX 74 56 78 57 81 58 75 59 76 60 79 61 77 62 56 63 57 64 65 65
REMARK SMILES IDX 58 66 59 67 63 68 66 69 60 70 61 71 64 72 62 73 8 74 9 75
REMARK SMILES IDX 10 76 11 77 12 79 13 80 14 81 29 82 15 83 28 84 16 85 17 86
REMARK SMILES IDX 18 87 19 88 20 89 21 91 22 92 26 93 23 94 25 95 27 96 24 97
REMARK H PARENT 3 8 86 26 54 37 10 78 20 90
REMARK Flexibility Score: inf
ROOT
ATOM      1  C   UNL A   1      40.344  22.398  26.185  1.00  0.00     0.002 C 
ENDROOT
BRANCH   1   2
ATOM      2  C   UNL A   1      40.702  21.150  26.997  1.00  0.00     0.002 C 
BRANCH   2   3
ATOM      3  C   UNL A   1      41.002  19.887  26.186  1.00  0.00     0.021 C 
BRANCH   3   4
ATOM      4  C   UNL A   1      42.239  19.110  26.625  1.00  0.00     0.116 C 
BRANCH   4   5
ATOM      5  N   UNL A   1      43.115  18.788  25.514  1.00  0.00    -0.352 N 
ATOM      6  O   UNL A   1      44.470  19.192  23.759  1.00  0.00    -0.269 OA
ATOM      7  C   UNL A   1      43.920  19.612  24.771  1.00  0.00     0.251 C 
ATOM      8  H   UNL A   1      43.133  17.838  25.255  1.00  0.00     0.163 HD
BRANCH   7   9
ATOM      9  C   UNL A   1      44.112  21.019  25.181  1.00  0.00     0.039 A 
ATOM     10  C   UNL A   1      44.588  21.340  26.456  1.00  0.00     0.014 A 
ATOM     11  C   UNL A   1      43.840  22.030  24.256  1.00  0.00     0.014 A 
ATOM     12  C   UNL A   1      44.691  22.672  26.843  1.00  0.00     0.010 A 
ATOM     13  C   UNL A   1      44.011  23.366  24.621  1.00  0.00     0.010 A 
ATOM     14  C   UNL A   1      44.420  23.697  25.922  1.00  0.00    -0.014 A 
BRANCH  14  15
ATOM     15  C   UNL A   1      44.636  25.114  26.303  1.00  0.00     0.031 A 
ATOM     16  C   UNL A   1      46.001  25.730  26.234  1.00  0.00     0.074 A 
ATOM     17  C   UNL A   1      43.591  25.830  26.755  1.00  0.00     0.049 A 
ATOM     18  N   UNL A   1      46.389  26.926  26.598  1.00  0.00    -0.248 NA
ATOM     19  C   UNL A   1      47.079  24.888  25.694  1.00  0.00     0.031 C 
ATOM     20  C   UNL A   1      42.222  25.328  26.882  1.00  0.00     0.029 A 
ATOM     21  N   UNL A   1      43.515  27.124  27.206  1.00  0.00    -0.354 N 
ATOM     22  C   UNL A   1      47.754  26.975  26.356  1.00  0.00     0.074 A 
ATOM     23  C   UNL A   1      48.135  25.678  25.833  1.00  0.00     0.031 C 
ATOM     24  C   UNL A   1      41.441  26.299  27.374  1.00  0.00     0.029 A 
ATOM     25  C   UNL A   1      42.265  27.472  27.653  1.00  0.00     0.049 A 
ATOM     26  H   UNL A   1      44.282  27.741  27.208  1.00  0.00     0.167 HD
ATOM     27  C   UNL A   1      48.607  28.010  26.550  1.00  0.00     0.037 A 
ATOM     28  C   UNL A   1      41.834  28.594  28.256  1.00  0.00     0.037 A 
ATOM     29  C   UNL A   1      48.213  29.296  27.066  1.00  0.00     0.049 A 
ATOM     30  C   UNL A   1      42.802  29.718  28.487  1.00  0.00     0.074 A 
ATOM     31  C   UNL A   1      48.988  30.429  27.243  1.00  0.00     0.029 A 
ATOM     32  N   UNL A   1      46.935  29.614  27.504  1.00  0.00    -0.354 N 
ATOM     33  N   UNL A   1      44.080  29.775  28.200  1.00  0.00    -0.248 NA
ATOM     34  C   UNL A   1      42.273  30.930  29.124  1.00  0.00     0.031 C 
ATOM     35  C   UNL A   1      48.193  31.413  27.842  1.00  0.00     0.029 A 
ATOM     36  C   UNL A   1      46.908  30.915  27.985  1.00  0.00     0.049 A 
ATOM     37  H   UNL A   1      46.161  29.006  27.478  1.00  0.00     0.167 HD
ATOM     38  C   UNL A   1      44.506  31.033  28.603  1.00  0.00     0.074 A 
ATOM     39  C   UNL A   1      43.346  31.710  29.145  1.00  0.00     0.031 C 
ATOM     40  C   UNL A   1      45.745  31.576  28.523  1.00  0.00     0.037 A 
BRANCH  27  41
ATOM     41  C   UNL A   1      50.057  27.782  26.231  1.00  0.00     0.064 A 
ATOM     42  C   UNL A   1      50.544  27.822  24.915  1.00  0.00     0.173 A 
ATOM     43  C   UNL A   1      50.979  27.541  27.262  1.00  0.00     0.173 A 
ATOM     44  F   UNL A   1      49.705  28.041  23.891  1.00  0.00    -0.203 F 
ATOM     45  C   UNL A   1      51.891  27.592  24.642  1.00  0.00     0.198 A 
ATOM     46  C   UNL A   1      52.330  27.341  26.987  1.00  0.00     0.198 A 
ATOM     47  F   UNL A   1      50.571  27.500  28.539  1.00  0.00    -0.203 F 
ATOM     48  F   UNL A   1      52.320  27.577  23.371  1.00  0.00    -0.200 F 
ATOM     49  C   UNL A   1      52.783  27.356  25.677  1.00  0.00     0.200 A 
ATOM     50  F   UNL A   1      53.192  27.125  27.990  1.00  0.00    -0.200 F 
ATOM     51  F   UNL A   1      54.076  27.131  25.411  1.00  0.00    -0.200 F 
ENDBRANCH  27  41
BRANCH  28  52
ATOM     52  C   UNL A   1      40.417  28.682  28.688  1.00  0.00     0.064 A 
ATOM     53  C   UNL A   1      40.042  28.383  30.003  1.00  0.00     0.173 A 
ATOM     54  C   UNL A   1      39.420  29.129  27.808  1.00  0.00     0.173 A 
ATOM     55  F   UNL A   1      40.958  27.938  30.876  1.00  0.00    -0.203 F 
ATOM     56  C   UNL A   1      38.721  28.528  30.423  1.00  0.00     0.198 A 
ATOM     57  C   UNL A   1      38.106  29.299  28.235  1.00  0.00     0.198 A 
ATOM     58  F   UNL A   1      39.733  29.436  26.540  1.00  0.00    -0.203 F 
ATOM     59  F   UNL A   1      38.383  28.215  31.681  1.00  0.00    -0.200 F 
ATOM     60  C   UNL A   1      37.757  28.995  29.542  1.00  0.00     0.200 A 
ATOM     61  F   UNL A   1      37.183  29.771  27.386  1.00  0.00    -0.200 F 
ATOM     62  F   UNL A   1      36.492  29.155  29.953  1.00  0.00    -0.200 F 
ENDBRANCH  28  52
BRANCH  40  63
ATOM     63  C   UNL A   1      45.913  32.985  29.009  1.00  0.00     0.064 A 
ATOM     64  C   UNL A   1      45.722  34.084  28.160  1.00  0.00     0.173 A 
ATOM     65  C   UNL A   1      46.204  33.237  30.359  1.00  0.00     0.173 A 
ATOM     66  F   UNL A   1      45.459  33.893  26.859  1.00  0.00    -0.203 F 
ATOM     67  C   UNL A   1      45.826  35.386  28.643  1.00  0.00     0.198 A 
ATOM     68  C   UNL A   1      46.280  34.540  30.843  1.00  0.00     0.198 A 
ATOM     69  F   UNL A   1      46.391  32.219  31.212  1.00  0.00    -0.203 F 
ATOM     70  F   UNL A   1      45.672  36.423  27.808  1.00  0.00    -0.200 F 
ATOM     71  C   UNL A   1      46.094  35.612  29.985  1.00  0.00     0.200 A 
ATOM     72  F   UNL A   1      46.526  34.756  32.143  1.00  0.00    -0.200 F 
ATOM     73  F   UNL A   1      46.177  36.866  30.451  1.00  0.00    -0.200 F 
ENDBRANCH  40  63
ENDBRANCH  14  15
ENDBRANCH   7   9
ENDBRANCH   4   5
ENDBRANCH   3   4
ENDBRANCH   2   3
ENDBRANCH   1   2
BRANCH   1  74
ATOM     74  C   UNL A   1      38.900  22.880  26.307  1.00  0.00     0.021 C 
BRANCH  74  75
ATOM     75  C   UNL A   1      37.893  22.144  25.435  1.00  0.00     0.116 C 
BRANCH  75  76
ATOM     76  N   UNL A   1      36.747  21.638  26.172  1.00  0.00    -0.352 N 
ATOM     77  C   UNL A   1      35.416  21.980  26.071  1.00  0.00     0.251 C 
ATOM     78  H   UNL A   1      36.952  20.946  26.843  1.00  0.00     0.163 HD
ATOM     79  O   UNL A   1      34.607  21.529  26.876  1.00  0.00    -0.269 OA
BRANCH  77  80
ATOM     80  C   UNL A   1      34.957  22.908  25.007  1.00  0.00     0.039 A 
ATOM     81  C   UNL A   1      34.488  22.401  23.788  1.00  0.00     0.015 A 
ATOM     82  C   UNL A   1      34.967  24.284  25.214  1.00  0.00     0.015 A 
ATOM     83  C   UNL A   1      34.002  23.274  22.802  1.00  0.00     0.023 A 
ATOM     84  C   UNL A   1      34.350  25.127  24.302  1.00  0.00     0.023 A 
ATOM     85  C   UNL A   1      33.932  24.647  23.065  1.00  0.00     0.087 A 
BRANCH  85  86
ATOM     86  S   UNL A   1      33.214  25.761  21.878  1.00  0.00     0.261 S 
ATOM     87  O   UNL A   1      33.886  27.040  22.013  1.00  0.00    -0.201 OA
ATOM     88  O   UNL A   1      33.212  25.069  20.608  1.00  0.00    -0.201 OA
BRANCH  86  89
ATOM     89  N   UNL A   1      31.574  26.067  22.262  1.00  0.00    -0.279 N 
ATOM     90  H   UNL A   1      30.984  26.495  21.602  1.00  0.00     0.180 HD
BRANCH  89  91
ATOM     91  C   UNL A   1      31.064  25.697  23.557  1.00  0.00     0.062 A 
ATOM     92  C   UNL A   1      30.772  24.352  23.831  1.00  0.00     0.028 A 
ATOM     93  C   UNL A   1      30.965  26.647  24.588  1.00  0.00     0.037 A 
ATOM     94  C   UNL A   1      30.422  23.959  25.129  1.00  0.00     0.002 A 
ATOM     95  C   UNL A   1      30.622  26.247  25.885  1.00  0.00     0.017 A 
ATOM     96  I   UNL A   1      31.341  28.687  24.273  1.00  0.00    -0.042 I 
ATOM     97  C   UNL A   1      30.360  24.902  26.155  1.00  0.00     0.001 A 
ENDBRANCH  89  91
ENDBRANCH  86  89
ENDBRANCH  85  86
ENDBRANCH  77  80
ENDBRANCH  75  76
ENDBRANCH  74  75
ENDBRANCH   1  74
TORSDOF 16
ENDMDL
MODEL 3
REMARK VINA RESULT:     -11.2      4.037      9.264
REMARK SMILES O=C(NCCCCCCNC(=O)c1ccc(S(=O)(=O)Nc2ccccc2I)cc1)c1ccc(-c2c3nc(c(-c4c(F)c(F)c(F)c(F)c4F)c4ccc([nH]4)c(-c4c(F)c(F)c(F)c(F)c4F)c4nc(c(-c5c(F)c(F)c(F)c(F)c5F)c5ccc2[nH]5)C=C4)C=C3)cc1
REMARK SMILES IDX 7 1 6 2 5 3 4 4 3 5 1 6 2 7 30 9 31 10 92 11 32 12 91 13
REMARK SMILES IDX 33 14 34 15 35 16 85 17 36 18 90 19 84 20 86 21 37 22 89 23
REMARK SMILES IDX 83 24 82 25 38 27 70 28 50 29 69 30 51 31 54 32 68 33 87 34
REMARK SMILES IDX 52 35 53 36 67 38 88 39 55 40 39 41 40 42 48 43 41 44 42 45
REMARK SMILES IDX 46 46 49 47 43 48 44 49 47 50 45 51 71 52 72 53 80 54 73 55
REMARK SMILES IDX 74 56 78 57 81 58 75 59 76 60 79 61 77 62 56 63 57 64 65 65
REMARK SMILES IDX 58 66 59 67 63 68 66 69 60 70 61 71 64 72 62 73 8 74 9 75
REMARK SMILES IDX 10 76 11 77 12 79 13 80 14 81 29 82 15 83 28 84 16 85 17 86
REMARK SMILES IDX 18 87 19 88 20 89 21 91 22 92 26 93 23 94 25 95 27 96 24 97
REMARK H PARENT 3 8 86 26 54 37 10 78 20 90
REMARK Flexibility Score: inf
ROOT
ATOM      1  C   UNL A   1      41.040  21.970  26.170  1.00  0.00     0.002 C 
ENDROOT
BRANCH   1   2
ATOM      2  C   UNL A   1      41.593  20.763  26.933  1.00  0.00     0.002 C 
BRANCH   2   3
ATOM      3  C   UNL A   1      41.822  19.496  26.105  1.00  0.00     0.021 C 
BRANCH   3   4
ATOM      4  C   UNL A   1      43.159  18.800  26.336  1.00  0.00     0.116 C 
BRANCH   4   5
ATOM      5  N   UNL A   1      43.882  18.563  25.100  1.00  0.00    -0.352 N 
ATOM      6  O   UNL A   1      44.948  19.099  23.188  1.00  0.00    -0.269 OA
ATOM      7  C   UNL A   1      44.527  19.455  24.284  1.00  0.00     0.251 C 
ATOM      8  H   UNL A   1      43.912  17.624  24.804  1.00  0.00     0.163 HD
BRANCH   7   9
ATOM      9  C   UNL A   1      44.702  20.857  24.716  1.00  0.00     0.039 A 
ATOM     10  C   UNL A   1      45.288  21.164  25.949  1.00  0.00     0.014 A 
ATOM     11  C   UNL A   1      44.301  21.880  23.854  1.00  0.00     0.014 A 
ATOM     12  C   UNL A   1      45.375  22.488  26.365  1.00  0.00     0.010 A 
ATOM     13  C   UNL A   1      44.453  23.212  24.242  1.00  0.00     0.010 A 
ATOM     14  C   UNL A   1      44.973  23.525  25.508  1.00  0.00    -0.014 A 
BRANCH  14  15
ATOM     15  C   UNL A   1      45.169  24.939  25.909  1.00  0.00     0.031 A 
ATOM     16  C   UNL A   1      46.521  25.581  25.832  1.00  0.00     0.074 A 
ATOM     17  C   UNL A   1      44.117  25.628  26.388  1.00  0.00     0.049 A 
ATOM     18  N   UNL A   1      46.892  26.779  26.212  1.00  0.00    -0.248 NA
ATOM     19  C   UNL A   1      47.607  24.769  25.263  1.00  0.00     0.031 C 
ATOM     20  C   UNL A   1      42.759  25.098  26.525  1.00  0.00     0.029 A 
ATOM     21  N   UNL A   1      44.024  26.912  26.862  1.00  0.00    -0.354 N 
ATOM     22  C   UNL A   1      48.252  26.857  25.951  1.00  0.00     0.074 A 
ATOM     23  C   UNL A   1      48.649  25.577  25.401  1.00  0.00     0.031 C 
ATOM     24  C   UNL A   1      41.968  26.046  27.045  1.00  0.00     0.029 A 
ATOM     25  C   UNL A   1      42.774  27.229  27.332  1.00  0.00     0.049 A 
ATOM     26  H   UNL A   1      44.779  27.543  26.865  1.00  0.00     0.167 HD
ATOM     27  C   UNL A   1      49.088  27.904  26.151  1.00  0.00     0.037 A 
ATOM     28  C   UNL A   1      42.331  28.333  27.961  1.00  0.00     0.037 A 
ATOM     29  C   UNL A   1      48.678  29.174  26.694  1.00  0.00     0.049 A 
ATOM     30  C   UNL A   1      43.281  29.470  28.198  1.00  0.00     0.074 A 
ATOM     31  C   UNL A   1      49.435  30.319  26.880  1.00  0.00     0.029 A 
ATOM     32  N   UNL A   1      47.400  29.461  27.155  1.00  0.00    -0.354 N 
ATOM     33  N   UNL A   1      44.554  29.556  27.894  1.00  0.00    -0.248 NA
ATOM     34  C   UNL A   1      42.738  30.661  28.863  1.00  0.00     0.031 C 
ATOM     35  C   UNL A   1      48.631  31.277  27.507  1.00  0.00     0.029 A 
ATOM     36  C   UNL A   1      47.357  30.752  27.659  1.00  0.00     0.049 A 
ATOM     37  H   UNL A   1      46.638  28.838  27.130  1.00  0.00     0.167 HD
ATOM     38  C   UNL A   1      44.961  30.815  28.312  1.00  0.00     0.074 A 
ATOM     39  C   UNL A   1      43.797  31.461  28.882  1.00  0.00     0.031 C 
ATOM     40  C   UNL A   1      46.189  31.382  28.225  1.00  0.00     0.037 A 
BRANCH  27  41
ATOM     41  C   UNL A   1      50.538  27.709  25.808  1.00  0.00     0.064 A 
ATOM     42  C   UNL A   1      51.488  27.348  26.776  1.00  0.00     0.173 A 
ATOM     43  C   UNL A   1      50.980  27.867  24.486  1.00  0.00     0.173 A 
ATOM     44  F   UNL A   1      51.121  27.192  28.058  1.00  0.00    -0.203 F 
ATOM     45  C   UNL A   1      52.830  27.189  26.439  1.00  0.00     0.198 A 
ATOM     46  C   UNL A   1      52.319  27.678  24.147  1.00  0.00     0.198 A 
ATOM     47  F   UNL A   1      50.115  28.203  23.518  1.00  0.00    -0.203 F 
ATOM     48  F   UNL A   1      53.728  26.901  27.393  1.00  0.00    -0.200 F 
ATOM     49  C   UNL A   1      53.244  27.349  25.126  1.00  0.00     0.200 A 
ATOM     50  F   UNL A   1      52.713  27.821  22.875  1.00  0.00    -0.200 F 
ATOM     51  F   UNL A   1      54.536  27.199  24.805  1.00  0.00    -0.200 F 
ENDBRANCH  27  41
BRANCH  28  52
ATOM     52  C   UNL A   1      40.919  28.386  28.414  1.00  0.00     0.064 A 
ATOM     53  C   UNL A   1      40.556  27.975  29.702  1.00  0.00     0.173 A 
ATOM     54  C   UNL A   1      39.915  28.912  27.586  1.00  0.00     0.173 A 
ATOM     55  F   UNL A   1      41.479  27.453  30.523  1.00  0.00    -0.203 F 
ATOM     56  C   UNL A   1      39.240  28.087  30.146  1.00  0.00     0.198 A 
ATOM     57  C   UNL A   1      38.606  29.048  28.041  1.00  0.00     0.198 A 
ATOM     58  F   UNL A   1      40.215  29.328  26.347  1.00  0.00    -0.203 F 
ATOM     59  F   UNL A   1      38.914  27.666  31.376  1.00  0.00    -0.200 F 
ATOM     60  C   UNL A   1      38.269  28.632  29.320  1.00  0.00     0.200 A 
ATOM     61  F   UNL A   1      37.676  29.595  27.246  1.00  0.00    -0.200 F 
ATOM     62  F   UNL A   1      37.009  28.759  29.756  1.00  0.00    -0.200 F 
ENDBRANCH  28  52
BRANCH  40  63
ATOM     63  C   UNL A   1      46.338  32.786  28.733  1.00  0.00     0.064 A 
ATOM     64  C   UNL A   1      46.738  33.053  30.050  1.00  0.00     0.173 A 
ATOM     65  C   UNL A   1      46.141  33.875  27.869  1.00  0.00     0.173 A 
ATOM     66  F   UNL A   1      46.921  32.047  30.917  1.00  0.00    -0.203 F 
ATOM     67  C   UNL A   1      46.925  34.362  30.487  1.00  0.00     0.198 A 
ATOM     68  C   UNL A   1      46.357  35.180  28.302  1.00  0.00     0.198 A 
ATOM     69  F   UNL A   1      45.762  33.670  26.599  1.00  0.00    -0.203 F 
ATOM     70  F   UNL A   1      47.277  34.598  31.758  1.00  0.00    -0.200 F 
ATOM     71  C   UNL A   1      46.746  35.423  29.610  1.00  0.00     0.200 A 
ATOM     72  F   UNL A   1      46.195  36.201  27.450  1.00  0.00    -0.200 F 
ATOM     73  F   UNL A   1      46.944  36.680  30.028  1.00  0.00    -0.200 F 
ENDBRANCH  40  63
ENDBRANCH  14  15
ENDBRANCH   7   9
ENDBRANCH   4   5
ENDBRANCH   3   4
ENDBRANCH   2   3
ENDBRANCH   1   2
BRANCH   1  74
ATOM     74  C   UNL A   1      39.948  22.766  26.884  1.00  0.00     0.021 C 
BRANCH  74  75
ATOM     75  C   UNL A   1      38.638  22.897  26.123  1.00  0.00     0.116 C 
BRANCH  75  76
ATOM     76  N   UNL A   1      38.095  21.624  25.675  1.00  0.00    -0.352 N 
ATOM     77  C   UNL A   1      36.833  21.321  25.213  1.00  0.00     0.251 C 
ATOM     78  H   UNL A   1      38.724  20.866  25.707  1.00  0.00     0.163 HD
ATOM     79  O   UNL A   1      36.525  20.152  25.001  1.00  0.00    -0.269 OA
BRANCH  77  80
ATOM     80  C   UNL A   1      35.836  22.398  24.987  1.00  0.00     0.039 A 
ATOM     81  C   UNL A   1      35.737  23.011  23.731  1.00  0.00     0.015 A 
ATOM     82  C   UNL A   1      34.979  22.794  26.009  1.00  0.00     0.015 A 
ATOM     83  C   UNL A   1      34.758  23.990  23.501  1.00  0.00     0.023 A 
ATOM     84  C   UNL A   1      33.922  23.649  25.735  1.00  0.00     0.023 A 
ATOM     85  C   UNL A   1      33.843  24.308  24.512  1.00  0.00     0.087 A 
BRANCH  85  86
ATOM     86  S   UNL A   1      32.523  25.461  24.208  1.00  0.00     0.261 S 
ATOM     87  O   UNL A   1      31.904  25.097  22.947  1.00  0.00    -0.201 OA
ATOM     88  O   UNL A   1      31.734  25.517  25.418  1.00  0.00    -0.201 OA
BRANCH  86  89
ATOM     89  N   UNL A   1      33.149  27.036  23.967  1.00  0.00    -0.279 N 
ATOM     90  H   UNL A   1      33.614  27.260  23.130  1.00  0.00     0.180 HD
BRANCH  89  91
ATOM     91  C   UNL A   1      32.993  28.030  24.998  1.00  0.00     0.062 A 
ATOM     92  C   UNL A   1      33.930  28.105  26.040  1.00  0.00     0.028 A 
ATOM     93  C   UNL A   1      31.981  29.001  24.910  1.00  0.00     0.037 A 
ATOM     94  C   UNL A   1      33.876  29.160  26.960  1.00  0.00     0.002 A 
ATOM     95  C   UNL A   1      31.936  30.057  25.829  1.00  0.00     0.017 A 
ATOM     96  I   UNL A   1      30.510  28.956  23.415  1.00  0.00    -0.042 I 
ATOM     97  C   UNL A   1      32.889  30.140  26.845  1.00  0.00     0.001 A 
ENDBRANCH  89  91
ENDBRANCH  86  89
ENDBRANCH  85  86
ENDBRANCH  77  80
ENDBRANCH  75  76
ENDBRANCH  74  75
ENDBRANCH   1  74
TORSDOF 16
ENDMDL
