MODEL 1
REMARK VINA RESULT:     -11.9      0.000      0.000
REMARK SMILES CC(C)(C)OC(=O)N1C[C@@H](Oc2cccnc2)C[C@H]1C(=O)NCCCCCCNC(=O)c1ccc(-c2c3nc(c(-c4c(F)c(F)c(F)c(F)c4F)c4ccc([nH]4)c(-c4c(F)c(F)c(F)c(F)c4F)c4nc(c(-c5c(F)c(F)c(F)c(F)c5F)c5ccc2[nH]5)C=C4)C=C3)cc1
REMARK SMILES IDX 25 1 24 2 23 3 22 4 20 5 21 6 19 8 8 9 9 10 10 11 18 12 6 13
REMARK SMILES IDX 7 14 5 15 2 16 1 17 3 18 4 19 11 20 12 21 13 22 17 23 14 24
REMARK SMILES IDX 16 25 15 26 26 27 27 28 28 29 29 30 30 31 31 33 32 34 33 35
REMARK SMILES IDX 94 36 34 37 93 38 35 39 36 40 37 41 87 42 38 43 92 44 86 45
REMARK SMILES IDX 88 46 39 47 91 48 85 49 84 50 40 52 72 53 52 54 71 55 53 56
REMARK SMILES IDX 56 57 70 58 89 59 54 60 55 61 69 63 90 64 57 65 41 66 42 67
REMARK SMILES IDX 50 68 43 69 44 70 48 71 51 72 45 73 46 74 49 75 47 76 73 77
REMARK SMILES IDX 74 78 82 79 75 80 76 81 80 82 83 83 77 84 78 85 81 86 79 87
REMARK SMILES IDX 58 88 59 89 67 90 60 91 61 92 65 93 68 94 62 95 63 96 66 97
REMARK SMILES IDX 64 98
REMARK H PARENT 22 7 29 32 88 51 56 62
REMARK Flexibility Score: inf
ROOT
ATOM      1  C   UNL A   1      30.569  27.746  23.929  1.00  0.00     0.002 C 
ENDROOT
BRANCH   1   2
ATOM      2  C   UNL A   1      31.149  26.558  24.702  1.00  0.00     0.021 C 
BRANCH   2   3
ATOM      3  C   UNL A   1      30.086  25.641  25.307  1.00  0.00     0.116 C 
BRANCH   3   4
ATOM      4  N   UNL A   1      30.615  24.927  26.448  1.00  0.00    -0.354 N 
ATOM      5  C   UNL A   1      31.476  23.885  26.566  1.00  0.00     0.243 C 
ATOM      6  O   UNL A   1      31.537  23.374  27.693  1.00  0.00    -0.273 OA
ATOM      7  H   UNL A   1      30.284  25.264  27.311  1.00  0.00     0.163 HD
BRANCH   5   8
ATOM      8  C   UNL A   1      32.413  23.363  25.446  1.00  0.00     0.181 C 
ATOM      9  N   UNL A   1      33.717  22.808  25.776  1.00  0.00    -0.292 N 
ATOM     10  C   UNL A   1      33.684  21.358  25.818  1.00  0.00     0.169 C 
ATOM     11  C   UNL A   1      32.591  20.997  24.819  1.00  0.00     0.195 C 
ATOM     12  C   UNL A   1      31.680  22.227  24.699  1.00  0.00     0.082 C 
BRANCH   9  13
ATOM     13  C   UNL A   1      34.812  23.619  25.972  1.00  0.00     0.411 C 
ATOM     14  O   UNL A   1      34.720  24.834  26.011  1.00  0.00    -0.224 OA
BRANCH  13  15
ATOM     15  O   UNL A   1      35.947  22.907  26.185  1.00  0.00    -0.444 OA
BRANCH  15  16
ATOM     16  C   UNL A   1      37.084  22.898  25.269  1.00  0.00     0.106 C 
ATOM     17  C   UNL A   1      37.696  21.495  25.379  1.00  0.00     0.056 C 
ATOM     18  C   UNL A   1      38.104  23.917  25.792  1.00  0.00     0.056 C 
ATOM     19  C   UNL A   1      36.773  23.178  23.793  1.00  0.00     0.056 C 
ENDBRANCH  15  16
ENDBRANCH  13  15
ENDBRANCH   9  13
BRANCH  11  20
ATOM     20  O   UNL A   1      31.971  19.729  24.994  1.00  0.00    -0.487 OA
BRANCH  20  21
ATOM     21  C   UNL A   1      32.545  18.542  24.671  1.00  0.00     0.138 A 
ATOM     22  C   UNL A   1      32.996  18.123  23.427  1.00  0.00     0.050 A 
ATOM     23  C   UNL A   1      32.688  17.641  25.724  1.00  0.00     0.157 A 
ATOM     24  C   UNL A   1      33.590  16.865  23.290  1.00  0.00     0.024 A 
ATOM     25  N   UNL A   1      33.246  16.408  25.625  1.00  0.00    -0.261 NA
ATOM     26  C   UNL A   1      33.693  16.052  24.405  1.00  0.00     0.111 A 
ENDBRANCH  20  21
ENDBRANCH  11  20
ENDBRANCH   5   8
ENDBRANCH   3   4
ENDBRANCH   2   3
ENDBRANCH   1   2
BRANCH   1  27
ATOM     27  C   UNL A   1      31.556  28.890  23.657  1.00  0.00     0.002 C 
BRANCH  27  28
ATOM     28  C   UNL A   1      33.039  28.515  23.748  1.00  0.00     0.021 C 
BRANCH  28  29
ATOM     29  C   UNL A   1      33.757  29.081  24.969  1.00  0.00     0.116 C 
BRANCH  29  30
ATOM     30  N   UNL A   1      33.075  30.256  25.490  1.00  0.00    -0.352 N 
ATOM     31  C   UNL A   1      33.254  30.922  26.674  1.00  0.00     0.251 C 
ATOM     32  H   UNL A   1      32.378  30.629  24.903  1.00  0.00     0.163 HD
ATOM     33  O   UNL A   1      32.412  31.725  27.062  1.00  0.00    -0.269 OA
BRANCH  31  34
ATOM     34  C   UNL A   1      34.463  30.674  27.487  1.00  0.00     0.039 A 
ATOM     35  C   UNL A   1      34.603  29.444  28.133  1.00  0.00     0.014 A 
ATOM     36  C   UNL A   1      35.435  31.666  27.649  1.00  0.00     0.014 A 
ATOM     37  C   UNL A   1      35.741  29.189  28.900  1.00  0.00     0.010 A 
ATOM     38  C   UNL A   1      36.602  31.386  28.352  1.00  0.00     0.010 A 
ATOM     39  C   UNL A   1      36.765  30.148  28.991  1.00  0.00    -0.014 A 
BRANCH  39  40
ATOM     40  C   UNL A   1      38.007  29.871  29.753  1.00  0.00     0.031 A 
ATOM     41  C   UNL A   1      39.035  28.918  29.210  1.00  0.00     0.074 A 
ATOM     42  C   UNL A   1      38.181  30.437  30.964  1.00  0.00     0.049 A 
ATOM     43  N   UNL A   1      40.150  28.503  29.756  1.00  0.00    -0.248 NA
ATOM     44  C   UNL A   1      38.763  28.334  27.888  1.00  0.00     0.031 C 
ATOM     45  C   UNL A   1      37.237  31.346  31.615  1.00  0.00     0.029 A 
ATOM     46  N   UNL A   1      39.209  30.323  31.867  1.00  0.00    -0.354 N 
ATOM     47  C   UNL A   1      40.703  27.605  28.853  1.00  0.00     0.074 A 
ATOM     48  C   UNL A   1      39.775  27.491  27.749  1.00  0.00     0.031 C 
ATOM     49  C   UNL A   1      37.738  31.726  32.801  1.00  0.00     0.029 A 
ATOM     50  C   UNL A   1      39.016  31.055  33.014  1.00  0.00     0.049 A 
ATOM     51  H   UNL A   1      40.007  29.769  31.709  1.00  0.00     0.167 HD
ATOM     52  C   UNL A   1      41.888  26.952  28.928  1.00  0.00     0.037 A 
ATOM     53  C   UNL A   1      39.781  31.163  34.118  1.00  0.00     0.037 A 
ATOM     54  C   UNL A   1      42.816  27.084  30.022  1.00  0.00     0.049 A 
ATOM     55  C   UNL A   1      41.081  30.408  34.184  1.00  0.00     0.074 A 
ATOM     56  C   UNL A   1      44.067  26.510  30.166  1.00  0.00     0.029 A 
ATOM     57  N   UNL A   1      42.589  27.839  31.163  1.00  0.00    -0.354 N 
ATOM     58  N   UNL A   1      41.627  29.616  33.293  1.00  0.00    -0.248 NA
ATOM     59  C   UNL A   1      41.876  30.567  35.409  1.00  0.00     0.031 C 
ATOM     60  C   UNL A   1      44.571  26.869  31.420  1.00  0.00     0.029 A 
ATOM     61  C   UNL A   1      43.664  27.720  32.030  1.00  0.00     0.049 A 
ATOM     62  H   UNL A   1      41.784  28.380  31.333  1.00  0.00     0.167 HD
ATOM     63  C   UNL A   1      42.839  29.210  33.833  1.00  0.00     0.074 A 
ATOM     64  C   UNL A   1      42.957  29.856  35.123  1.00  0.00     0.031 C 
ATOM     65  C   UNL A   1      43.771  28.377  33.308  1.00  0.00     0.037 A 
BRANCH  52  66
ATOM     66  C   UNL A   1      42.252  26.032  27.797  1.00  0.00     0.064 A 
ATOM     67  C   UNL A   1      41.669  24.762  27.661  1.00  0.00     0.173 A 
ATOM     68  C   UNL A   1      43.163  26.442  26.811  1.00  0.00     0.173 A 
ATOM     69  F   UNL A   1      40.801  24.315  28.581  1.00  0.00    -0.203 F 
ATOM     70  C   UNL A   1      42.007  23.928  26.598  1.00  0.00     0.198 A 
ATOM     71  C   UNL A   1      43.471  25.620  25.731  1.00  0.00     0.198 A 
ATOM     72  F   UNL A   1      43.744  27.649  26.887  1.00  0.00    -0.203 F 
ATOM     73  F   UNL A   1      41.475  22.700  26.518  1.00  0.00    -0.200 F 
ATOM     74  C   UNL A   1      42.900  24.361  25.629  1.00  0.00     0.200 A 
ATOM     75  F   UNL A   1      44.322  26.046  24.787  1.00  0.00    -0.200 F 
ATOM     76  F   UNL A   1      43.214  23.561  24.600  1.00  0.00    -0.200 F 
ENDBRANCH  52  66
BRANCH  53  77
ATOM     77  C   UNL A   1      39.346  32.031  35.243  1.00  0.00     0.064 A 
ATOM     78  C   UNL A   1      38.560  31.521  36.286  1.00  0.00     0.173 A 
ATOM     79  C   UNL A   1      39.691  33.390  35.294  1.00  0.00     0.173 A 
ATOM     80  F   UNL A   1      38.187  30.232  36.273  1.00  0.00    -0.203 F 
ATOM     81  C   UNL A   1      38.113  32.340  37.321  1.00  0.00     0.198 A 
ATOM     82  C   UNL A   1      39.272  34.202  36.347  1.00  0.00     0.198 A 
ATOM     83  F   UNL A   1      40.447  33.929  34.326  1.00  0.00    -0.203 F 
ATOM     84  F   UNL A   1      37.317  31.838  38.274  1.00  0.00    -0.200 F 
ATOM     85  C   UNL A   1      38.474  33.679  37.353  1.00  0.00     0.200 A 
ATOM     86  F   UNL A   1      39.638  35.490  36.384  1.00  0.00    -0.200 F 
ATOM     87  F   UNL A   1      38.045  34.467  38.349  1.00  0.00    -0.200 F 
ENDBRANCH  53  77
BRANCH  65  88
ATOM     88  C   UNL A   1      45.023  28.150  34.108  1.00  0.00     0.064 A 
ATOM     89  C   UNL A   1      46.148  28.978  33.974  1.00  0.00     0.173 A 
ATOM     90  C   UNL A   1      45.082  27.111  35.050  1.00  0.00     0.173 A 
ATOM     91  F   UNL A   1      46.148  29.976  33.078  1.00  0.00    -0.203 F 
ATOM     92  C   UNL A   1      47.295  28.754  34.731  1.00  0.00     0.198 A 
ATOM     93  C   UNL A   1      46.218  26.913  35.830  1.00  0.00     0.198 A 
ATOM     94  F   UNL A   1      44.033  26.294  35.224  1.00  0.00    -0.203 F 
ATOM     95  F   UNL A   1      48.377  29.525  34.547  1.00  0.00    -0.200 F 
ATOM     96  C   UNL A   1      47.326  27.729  35.665  1.00  0.00     0.200 A 
ATOM     97  F   UNL A   1      46.239  25.933  36.743  1.00  0.00    -0.200 F 
ATOM     98  F   UNL A   1      48.427  27.522  36.398  1.00  0.00    -0.200 F 
ENDBRANCH  65  88
ENDBRANCH  39  40
ENDBRANCH  31  34
ENDBRANCH  29  30
ENDBRANCH  28  29
ENDBRANCH  27  28
ENDBRANCH   1  27
TORSDOF 18
ENDMDL
MODEL 2
REMARK VINA RESULT:     -11.8      2.864      8.926
REMARK SMILES CC(C)(C)OC(=O)N1C[C@@H](Oc2cccnc2)C[C@H]1C(=O)NCCCCCCNC(=O)c1ccc(-c2c3nc(c(-c4c(F)c(F)c(F)c(F)c4F)c4ccc([nH]4)c(-c4c(F)c(F)c(F)c(F)c4F)c4nc(c(-c5c(F)c(F)c(F)c(F)c5F)c5ccc2[nH]5)C=C4)C=C3)cc1
REMARK SMILES IDX 25 1 24 2 23 3 22 4 20 5 21 6 19 8 8 9 9 10 10 11 18 12 6 13
REMARK SMILES IDX 7 14 5 15 2 16 1 17 3 18 4 19 11 20 12 21 13 22 17 23 14 24
REMARK SMILES IDX 16 25 15 26 26 27 27 28 28 29 29 30 30 31 31 33 32 34 33 35
REMARK SMILES IDX 94 36 34 37 93 38 35 39 36 40 37 41 87 42 38 43 92 44 86 45
REMARK SMILES IDX 88 46 39 47 91 48 85 49 84 50 40 52 72 53 52 54 71 55 53 56
REMARK SMILES IDX 56 57 70 58 89 59 54 60 55 61 69 63 90 64 57 65 41 66 42 67
REMARK SMILES IDX 50 68 43 69 44 70 48 71 51 72 45 73 46 74 49 75 47 76 73 77
REMARK SMILES IDX 74 78 82 79 75 80 76 81 80 82 83 83 77 84 78 85 81 86 79 87
REMARK SMILES IDX 58 88 59 89 67 90 60 91 61 92 65 93 68 94 62 95 63 96 66 97
REMARK SMILES IDX 64 98
REMARK H PARENT 22 7 29 32 88 51 56 62
REMARK Flexibility Score: inf
ROOT
ATOM      1  C   UNL A   1      34.944  32.996  28.002  1.00  0.00     0.002 C 
ENDROOT
BRANCH   1   2
ATOM      2  C   UNL A   1      34.677  31.517  28.293  1.00  0.00     0.021 C 
BRANCH   2   3
ATOM      3  C   UNL A   1      33.474  30.950  27.538  1.00  0.00     0.116 C 
BRANCH   3   4
ATOM      4  N   UNL A   1      33.906  30.158  26.408  1.00  0.00    -0.354 N 
ATOM      5  C   UNL A   1      33.291  29.208  25.659  1.00  0.00     0.243 C 
ATOM      6  O   UNL A   1      34.035  28.567  24.903  1.00  0.00    -0.273 OA
ATOM      7  H   UNL A   1      34.830  30.345  26.126  1.00  0.00     0.163 HD
BRANCH   5   8
ATOM      8  C   UNL A   1      31.765  28.935  25.630  1.00  0.00     0.181 C 
ATOM      9  N   UNL A   1      31.142  28.364  24.445  1.00  0.00    -0.292 N 
ATOM     10  C   UNL A   1      30.949  26.933  24.582  1.00  0.00     0.169 C 
ATOM     11  C   UNL A   1      30.770  26.739  26.083  1.00  0.00     0.195 C 
ATOM     12  C   UNL A   1      31.433  27.943  26.766  1.00  0.00     0.082 C 
BRANCH   9  13
ATOM     13  C   UNL A   1      30.771  29.153  23.380  1.00  0.00     0.411 C 
ATOM     14  O   UNL A   1      31.267  29.024  22.273  1.00  0.00    -0.224 OA
BRANCH  13  15
ATOM     15  O   UNL A   1      29.763  30.004  23.698  1.00  0.00    -0.444 OA
BRANCH  15  16
ATOM     16  C   UNL A   1      28.528  30.124  22.929  1.00  0.00     0.106 C 
ATOM     17  C   UNL A   1      27.674  31.159  23.672  1.00  0.00     0.056 C 
ATOM     18  C   UNL A   1      27.815  28.768  22.991  1.00  0.00     0.056 C 
ATOM     19  C   UNL A   1      28.675  30.573  21.469  1.00  0.00     0.056 C 
ENDBRANCH  15  16
ENDBRANCH  13  15
ENDBRANCH   9  13
BRANCH  11  20
ATOM     20  O   UNL A   1      31.066  25.444  26.591  1.00  0.00    -0.487 OA
BRANCH  20  21
ATOM     21  C   UNL A   1      32.069  24.650  26.135  1.00  0.00     0.138 A 
ATOM     22  C   UNL A   1      33.431  24.918  26.124  1.00  0.00     0.050 A 
ATOM     23  C   UNL A   1      31.668  23.423  25.611  1.00  0.00     0.157 A 
ATOM     24  C   UNL A   1      34.323  23.960  25.635  1.00  0.00     0.024 A 
ATOM     25  N   UNL A   1      32.504  22.477  25.115  1.00  0.00    -0.261 NA
ATOM     26  C   UNL A   1      33.819  22.766  25.148  1.00  0.00     0.111 A 
ENDBRANCH  20  21
ENDBRANCH  11  20
ENDBRANCH   5   8
ENDBRANCH   3   4
ENDBRANCH   2   3
ENDBRANCH   1   2
BRANCH   1  27
ATOM     27  C   UNL A   1      34.626  33.954  29.159  1.00  0.00     0.002 C 
BRANCH  27  28
ATOM     28  C   UNL A   1      33.318  34.740  29.021  1.00  0.00     0.021 C 
BRANCH  28  29
ATOM     29  C   UNL A   1      33.376  36.161  29.574  1.00  0.00     0.116 C 
BRANCH  29  30
ATOM     30  N   UNL A   1      32.510  36.317  30.733  1.00  0.00    -0.352 N 
ATOM     31  C   UNL A   1      32.569  35.710  31.960  1.00  0.00     0.251 C 
ATOM     32  H   UNL A   1      31.771  36.956  30.618  1.00  0.00     0.163 HD
ATOM     33  O   UNL A   1      31.605  35.761  32.718  1.00  0.00    -0.269 OA
BRANCH  31  34
ATOM     34  C   UNL A   1      33.791  34.990  32.373  1.00  0.00     0.039 A 
ATOM     35  C   UNL A   1      33.684  33.666  32.803  1.00  0.00     0.014 A 
ATOM     36  C   UNL A   1      35.034  35.631  32.377  1.00  0.00     0.014 A 
ATOM     37  C   UNL A   1      34.829  32.968  33.191  1.00  0.00     0.010 A 
ATOM     38  C   UNL A   1      36.184  34.913  32.692  1.00  0.00     0.010 A 
ATOM     39  C   UNL A   1      36.093  33.577  33.110  1.00  0.00    -0.014 A 
BRANCH  39  40
ATOM     40  C   UNL A   1      37.327  32.831  33.461  1.00  0.00     0.031 A 
ATOM     41  C   UNL A   1      38.063  33.139  34.735  1.00  0.00     0.074 A 
ATOM     42  C   UNL A   1      37.815  31.915  32.601  1.00  0.00     0.049 A 
ATOM     43  N   UNL A   1      39.187  32.641  35.183  1.00  0.00    -0.248 NA
ATOM     44  C   UNL A   1      37.471  34.161  35.611  1.00  0.00     0.031 C 
ATOM     45  C   UNL A   1      37.212  31.558  31.316  1.00  0.00     0.029 A 
ATOM     46  N   UNL A   1      38.934  31.124  32.675  1.00  0.00    -0.354 N 
ATOM     47  C   UNL A   1      39.441  33.294  36.382  1.00  0.00     0.074 A 
ATOM     48  C   UNL A   1      38.384  34.265  36.565  1.00  0.00     0.031 C 
ATOM     49  C   UNL A   1      37.954  30.603  30.733  1.00  0.00     0.029 A 
ATOM     50  C   UNL A   1      39.106  30.312  31.580  1.00  0.00     0.049 A 
ATOM     51  H   UNL A   1      39.555  31.138  33.438  1.00  0.00     0.167 HD
ATOM     52  C   UNL A   1      40.451  33.087  37.260  1.00  0.00     0.037 A 
ATOM     53  C   UNL A   1      40.089  29.439  31.288  1.00  0.00     0.037 A 
ATOM     54  C   UNL A   1      41.490  32.106  37.080  1.00  0.00     0.049 A 
ATOM     55  C   UNL A   1      41.212  29.246  32.272  1.00  0.00     0.074 A 
ATOM     56  C   UNL A   1      42.526  31.779  37.938  1.00  0.00     0.029 A 
ATOM     57  N   UNL A   1      41.629  31.298  35.962  1.00  0.00    -0.354 N 
ATOM     58  N   UNL A   1      41.404  29.820  33.435  1.00  0.00    -0.248 NA
ATOM     59  C   UNL A   1      42.254  28.278  31.903  1.00  0.00     0.031 C 
ATOM     60  C   UNL A   1      43.325  30.817  37.313  1.00  0.00     0.029 A 
ATOM     61  C   UNL A   1      42.750  30.495  36.094  1.00  0.00     0.049 A 
ATOM     62  H   UNL A   1      41.019  31.294  35.188  1.00  0.00     0.167 HD
ATOM     63  C   UNL A   1      42.564  29.260  33.951  1.00  0.00     0.074 A 
ATOM     64  C   UNL A   1      43.025  28.290  32.981  1.00  0.00     0.031 C 
ATOM     65  C   UNL A   1      43.192  29.526  35.123  1.00  0.00     0.037 A 
BRANCH  52  66
ATOM     66  C   UNL A   1      40.487  33.938  38.499  1.00  0.00     0.064 A 
ATOM     67  C   UNL A   1      41.203  35.144  38.545  1.00  0.00     0.173 A 
ATOM     68  C   UNL A   1      39.759  33.565  39.639  1.00  0.00     0.173 A 
ATOM     69  F   UNL A   1      41.925  35.543  37.486  1.00  0.00    -0.203 F 
ATOM     70  C   UNL A   1      41.213  35.929  39.696  1.00  0.00     0.198 A 
ATOM     71  C   UNL A   1      39.743  34.369  40.775  1.00  0.00     0.198 A 
ATOM     72  F   UNL A   1      39.051  32.426  39.647  1.00  0.00    -0.203 F 
ATOM     73  F   UNL A   1      41.945  37.051  39.733  1.00  0.00    -0.200 F 
ATOM     74  C   UNL A   1      40.476  35.546  40.806  1.00  0.00     0.200 A 
ATOM     75  F   UNL A   1      39.018  34.005  41.842  1.00  0.00    -0.200 F 
ATOM     76  F   UNL A   1      40.477  36.308  41.909  1.00  0.00    -0.200 F 
ENDBRANCH  52  66
BRANCH  53  77
ATOM     77  C   UNL A   1      40.049  28.669  30.017  1.00  0.00     0.064 A 
ATOM     78  C   UNL A   1      39.447  27.404  29.958  1.00  0.00     0.173 A 
ATOM     79  C   UNL A   1      40.624  29.171  28.840  1.00  0.00     0.173 A 
ATOM     80  F   UNL A   1      38.901  26.872  31.062  1.00  0.00    -0.203 F 
ATOM     81  C   UNL A   1      39.445  26.660  28.781  1.00  0.00     0.198 A 
ATOM     82  C   UNL A   1      40.592  28.440  27.653  1.00  0.00     0.198 A 
ATOM     83  F   UNL A   1      41.207  30.379  28.839  1.00  0.00    -0.203 F 
ATOM     84  F   UNL A   1      38.912  25.431  28.768  1.00  0.00    -0.200 F 
ATOM     85  C   UNL A   1      40.013  27.181  27.628  1.00  0.00     0.200 A 
ATOM     86  F   UNL A   1      41.126  28.955  26.538  1.00  0.00    -0.200 F 
ATOM     87  F   UNL A   1      40.011  26.465  26.495  1.00  0.00    -0.200 F 
ENDBRANCH  53  77
BRANCH  65  88
ATOM     88  C   UNL A   1      44.423  28.726  35.443  1.00  0.00     0.064 A 
ATOM     89  C   UNL A   1      44.354  27.505  36.131  1.00  0.00     0.173 A 
ATOM     90  C   UNL A   1      45.687  29.171  35.023  1.00  0.00     0.173 A 
ATOM     91  F   UNL A   1      43.174  27.042  36.567  1.00  0.00    -0.203 F 
ATOM     92  C   UNL A   1      45.507  26.775  36.411  1.00  0.00     0.198 A 
ATOM     93  C   UNL A   1      46.832  28.421  35.273  1.00  0.00     0.198 A 
ATOM     94  F   UNL A   1      45.809  30.328  34.355  1.00  0.00    -0.203 F 
ATOM     95  F   UNL A   1      45.422  25.638  37.116  1.00  0.00    -0.200 F 
ATOM     96  C   UNL A   1      46.743  27.228  35.974  1.00  0.00     0.200 A 
ATOM     97  F   UNL A   1      48.022  28.852  34.835  1.00  0.00    -0.200 F 
ATOM     98  F   UNL A   1      47.849  26.520  36.237  1.00  0.00    -0.200 F 
ENDBRANCH  65  88
ENDBRANCH  39  40
ENDBRANCH  31  34
ENDBRANCH  29  30
ENDBRANCH  28  29
ENDBRANCH  27  28
ENDBRANCH   1  27
TORSDOF 18
ENDMDL
MODEL 3
REMARK VINA RESULT:     -11.7      0.495      7.165
REMARK SMILES CC(C)(C)OC(=O)N1C[C@@H](Oc2cccnc2)C[C@H]1C(=O)NCCCCCCNC(=O)c1ccc(-c2c3nc(c(-c4c(F)c(F)c(F)c(F)c4F)c4ccc([nH]4)c(-c4c(F)c(F)c(F)c(F)c4F)c4nc(c(-c5c(F)c(F)c(F)c(F)c5F)c5ccc2[nH]5)C=C4)C=C3)cc1
REMARK SMILES IDX 25 1 24 2 23 3 22 4 20 5 21 6 19 8 8 9 9 10 10 11 18 12 6 13
REMARK SMILES IDX 7 14 5 15 2 16 1 17 3 18 4 19 11 20 12 21 13 22 17 23 14 24
REMARK SMILES IDX 16 25 15 26 26 27 27 28 28 29 29 30 30 31 31 33 32 34 33 35
REMARK SMILES IDX 94 36 34 37 93 38 35 39 36 40 37 41 87 42 38 43 92 44 86 45
REMARK SMILES IDX 88 46 39 47 91 48 85 49 84 50 40 52 72 53 52 54 71 55 53 56
REMARK SMILES IDX 56 57 70 58 89 59 54 60 55 61 69 63 90 64 57 65 41 66 42 67
REMARK SMILES IDX 50 68 43 69 44 70 48 71 51 72 45 73 46 74 49 75 47 76 73 77
REMARK SMILES IDX 74 78 82 79 75 80 76 81 80 82 83 83 77 84 78 85 81 86 79 87
REMARK SMILES IDX 58 88 59 89 67 90 60 91 61 92 65 93 68 94 62 95 63 96 66 97
REMARK SMILES IDX 64 98
REMARK H PARENT 22 7 29 32 88 51 56 62
REMARK Flexibility Score: inf
ROOT
ATOM      1  C   UNL A   1      30.759  27.593  24.067  1.00  0.00     0.002 C 
ENDROOT
BRANCH   1   2
ATOM      2  C   UNL A   1      30.455  26.433  25.020  1.00  0.00     0.021 C 
BRANCH   2   3
ATOM      3  C   UNL A   1      31.464  26.295  26.160  1.00  0.00     0.116 C 
BRANCH   3   4
ATOM      4  N   UNL A   1      31.245  25.068  26.892  1.00  0.00    -0.354 N 
ATOM      5  C   UNL A   1      31.480  23.764  26.598  1.00  0.00     0.243 C 
ATOM      6  O   UNL A   1      30.959  22.945  27.368  1.00  0.00    -0.273 OA
ATOM      7  H   UNL A   1      30.846  25.205  27.781  1.00  0.00     0.163 HD
BRANCH   5   8
ATOM      8  C   UNL A   1      32.388  23.252  25.450  1.00  0.00     0.181 C 
ATOM      9  N   UNL A   1      33.715  22.729  25.740  1.00  0.00    -0.292 N 
ATOM     10  C   UNL A   1      33.717  21.280  25.795  1.00  0.00     0.169 C 
ATOM     11  C   UNL A   1      32.597  20.885  24.838  1.00  0.00     0.195 C 
ATOM     12  C   UNL A   1      31.656  22.093  24.739  1.00  0.00     0.082 C 
BRANCH   9  13
ATOM     13  C   UNL A   1      34.797  23.566  25.889  1.00  0.00     0.411 C 
ATOM     14  O   UNL A   1      34.703  24.777  25.772  1.00  0.00    -0.224 OA
BRANCH  13  15
ATOM     15  O   UNL A   1      35.920  22.895  26.249  1.00  0.00    -0.444 OA
BRANCH  15  16
ATOM     16  C   UNL A   1      37.121  22.816  25.421  1.00  0.00     0.106 C 
ATOM     17  C   UNL A   1      38.045  23.933  25.922  1.00  0.00     0.056 C 
ATOM     18  C   UNL A   1      36.706  23.136  23.980  1.00  0.00     0.056 C 
ATOM     19  C   UNL A   1      37.892  21.491  25.463  1.00  0.00     0.056 C 
ENDBRANCH  15  16
ENDBRANCH  13  15
ENDBRANCH   9  13
BRANCH  11  20
ATOM     20  O   UNL A   1      32.013  19.605  25.047  1.00  0.00    -0.487 OA
BRANCH  20  21
ATOM     21  C   UNL A   1      32.614  18.426  24.741  1.00  0.00     0.138 A 
ATOM     22  C   UNL A   1      33.158  18.036  23.525  1.00  0.00     0.050 A 
ATOM     23  C   UNL A   1      32.683  17.503  25.782  1.00  0.00     0.157 A 
ATOM     24  C   UNL A   1      33.766  16.784  23.405  1.00  0.00     0.024 A 
ATOM     25  N   UNL A   1      33.251  16.274  25.698  1.00  0.00    -0.261 NA
ATOM     26  C   UNL A   1      33.790  15.946  24.507  1.00  0.00     0.111 A 
ENDBRANCH  20  21
ENDBRANCH  11  20
ENDBRANCH   5   8
ENDBRANCH   3   4
ENDBRANCH   2   3
ENDBRANCH   1   2
BRANCH   1  27
ATOM     27  C   UNL A   1      32.230  27.722  23.647  1.00  0.00     0.002 C 
BRANCH  27  28
ATOM     28  C   UNL A   1      32.878  29.081  23.930  1.00  0.00     0.021 C 
BRANCH  28  29
ATOM     29  C   UNL A   1      33.270  29.301  25.388  1.00  0.00     0.116 C 
BRANCH  29  30
ATOM     30  N   UNL A   1      32.916  30.638  25.838  1.00  0.00    -0.352 N 
ATOM     31  C   UNL A   1      33.385  31.357  26.906  1.00  0.00     0.251 C 
ATOM     32  H   UNL A   1      32.237  31.096  25.292  1.00  0.00     0.163 HD
ATOM     33  O   UNL A   1      32.783  32.356  27.288  1.00  0.00    -0.269 OA
BRANCH  31  34
ATOM     34  C   UNL A   1      34.616  30.931  27.603  1.00  0.00     0.039 A 
ATOM     35  C   UNL A   1      35.616  31.874  27.848  1.00  0.00     0.014 A 
ATOM     36  C   UNL A   1      34.804  29.597  27.978  1.00  0.00     0.014 A 
ATOM     37  C   UNL A   1      36.783  31.492  28.512  1.00  0.00     0.010 A 
ATOM     38  C   UNL A   1      35.933  29.232  28.704  1.00  0.00     0.010 A 
ATOM     39  C   UNL A   1      36.938  30.173  28.972  1.00  0.00    -0.014 A 
BRANCH  39  40
ATOM     40  C   UNL A   1      38.146  29.764  29.731  1.00  0.00     0.031 A 
ATOM     41  C   UNL A   1      38.398  30.310  31.108  1.00  0.00     0.074 A 
ATOM     42  C   UNL A   1      39.044  28.943  29.152  1.00  0.00     0.049 A 
ATOM     43  N   UNL A   1      39.424  30.120  31.900  1.00  0.00    -0.248 NA
ATOM     44  C   UNL A   1      37.375  31.210  31.661  1.00  0.00     0.031 C 
ATOM     45  C   UNL A   1      38.931  28.380  27.806  1.00  0.00     0.029 A 
ATOM     46  N   UNL A   1      40.236  28.446  29.620  1.00  0.00    -0.354 N 
ATOM     47  C   UNL A   1      39.174  30.882  33.033  1.00  0.00     0.074 A 
ATOM     48  C   UNL A   1      37.929  31.582  32.805  1.00  0.00     0.031 C 
ATOM     49  C   UNL A   1      39.994  27.597  27.565  1.00  0.00     0.029 A 
ATOM     50  C   UNL A   1      40.885  27.638  28.720  1.00  0.00     0.049 A 
ATOM     51  H   UNL A   1      40.590  28.651  30.515  1.00  0.00     0.167 HD
ATOM     52  C   UNL A   1      39.906  30.971  34.170  1.00  0.00     0.037 A 
ATOM     53  C   UNL A   1      42.073  27.008  28.812  1.00  0.00     0.037 A 
ATOM     54  C   UNL A   1      41.136  30.257  34.397  1.00  0.00     0.049 A 
ATOM     55  C   UNL A   1      42.877  27.145  30.077  1.00  0.00     0.074 A 
ATOM     56  C   UNL A   1      41.923  30.236  35.535  1.00  0.00     0.029 A 
ATOM     57  N   UNL A   1      41.761  29.443  33.464  1.00  0.00    -0.354 N 
ATOM     58  N   UNL A   1      42.597  27.812  31.170  1.00  0.00    -0.248 NA
ATOM     59  C   UNL A   1      44.161  26.433  30.124  1.00  0.00     0.031 C 
ATOM     60  C   UNL A   1      43.054  29.457  35.270  1.00  0.00     0.029 A 
ATOM     61  C   UNL A   1      42.940  28.939  33.991  1.00  0.00     0.049 A 
ATOM     62  H   UNL A   1      41.417  29.251  32.561  1.00  0.00     0.167 HD
ATOM     63  C   UNL A   1      43.649  27.576  32.044  1.00  0.00     0.074 A 
ATOM     64  C   UNL A   1      44.566  26.689  31.359  1.00  0.00     0.031 C 
ATOM     65  C   UNL A   1      43.839  28.049  33.300  1.00  0.00     0.037 A 
BRANCH  52  66
ATOM     66  C   UNL A   1      39.400  31.876  35.258  1.00  0.00     0.064 A 
ATOM     67  C   UNL A   1      38.574  31.400  36.288  1.00  0.00     0.173 A 
ATOM     68  C   UNL A   1      39.782  33.225  35.297  1.00  0.00     0.173 A 
ATOM     69  F   UNL A   1      38.169  30.121  36.294  1.00  0.00    -0.203 F 
ATOM     70  C   UNL A   1      38.127  32.248  37.299  1.00  0.00     0.198 A 
ATOM     71  C   UNL A   1      39.362  34.061  36.327  1.00  0.00     0.198 A 
ATOM     72  F   UNL A   1      40.577  33.731  34.342  1.00  0.00    -0.203 F 
ATOM     73  F   UNL A   1      37.298  31.782  38.243  1.00  0.00    -0.200 F 
ATOM     74  C   UNL A   1      38.529  33.575  37.323  1.00  0.00     0.200 A 
ATOM     75  F   UNL A   1      39.764  35.340  36.358  1.00  0.00    -0.200 F 
ATOM     76  F   UNL A   1      38.107  34.387  38.303  1.00  0.00    -0.200 F 
ENDBRANCH  52  66
BRANCH  53  77
ATOM     77  C   UNL A   1      42.567  26.180  27.681  1.00  0.00     0.064 A 
ATOM     78  C   UNL A   1      42.126  24.861  27.506  1.00  0.00     0.173 A 
ATOM     79  C   UNL A   1      43.501  26.681  26.762  1.00  0.00     0.173 A 
ATOM     80  F   UNL A   1      41.248  24.329  28.370  1.00  0.00    -0.203 F 
ATOM     81  C   UNL A   1      42.619  24.066  26.473  1.00  0.00     0.198 A 
ATOM     82  C   UNL A   1      43.969  25.896  25.709  1.00  0.00     0.198 A 
ATOM     83  F   UNL A   1      43.952  27.938  26.879  1.00  0.00    -0.203 F 
ATOM     84  F   UNL A   1      42.221  22.791  26.364  1.00  0.00    -0.200 F 
ATOM     85  C   UNL A   1      43.536  24.586  25.572  1.00  0.00     0.200 A 
ATOM     86  F   UNL A   1      44.840  26.408  24.830  1.00  0.00    -0.200 F 
ATOM     87  F   UNL A   1      44.009  23.822  24.579  1.00  0.00    -0.200 F 
ENDBRANCH  53  77
BRANCH  65  88
ATOM     88  C   UNL A   1      45.064  27.585  34.035  1.00  0.00     0.064 A 
ATOM     89  C   UNL A   1      45.066  26.412  34.805  1.00  0.00     0.173 A 
ATOM     90  C   UNL A   1      46.265  28.305  33.935  1.00  0.00     0.173 A 
ATOM     91  F   UNL A   1      43.941  25.695  34.945  1.00  0.00    -0.203 F 
ATOM     92  C   UNL A   1      46.215  25.995  35.472  1.00  0.00     0.198 A 
ATOM     93  C   UNL A   1      47.421  27.865  34.574  1.00  0.00     0.198 A 
ATOM     94  F   UNL A   1      46.322  29.429  33.206  1.00  0.00    -0.203 F 
ATOM     95  F   UNL A   1      46.177  24.901  36.246  1.00  0.00    -0.200 F 
ATOM     96  C   UNL A   1      47.393  26.716  35.349  1.00  0.00     0.200 A 
ATOM     97  F   UNL A   1      48.563  28.554  34.439  1.00  0.00    -0.200 F 
ATOM     98  F   UNL A   1      48.499  26.307  35.984  1.00  0.00    -0.200 F 
ENDBRANCH  65  88
ENDBRANCH  39  40
ENDBRANCH  31  34
ENDBRANCH  29  30
ENDBRANCH  28  29
ENDBRANCH  27  28
ENDBRANCH   1  27
TORSDOF 18
ENDMDL
