MODEL 1
REMARK VINA RESULT:     -12.5      0.000      0.000
REMARK SMILES O=C(NCCCCCCNC(=O)[C@H]1C[C@](O)(c2ccc(F)cc2)[C@@H](c2ccc(F)cc2)O1)c1ccc(-c2c3nc(c(-c4c(F)c(F)c(F)c(F)c4F)c4ccc([nH]4)c(-c4c(F)c(F)c(F)c(F)c4F)c4nc(c(-c5c(F)c(F)c(F)c(F)c5F)c5ccc2[nH]5)C=C4)C=C3)cc1
REMARK SMILES IDX 6 1 5 2 4 3 3 4 1 5 2 6 33 8 34 9 95 10 35 11 94 12 36 13
REMARK SMILES IDX 37 14 38 15 88 16 39 17 93 18 87 19 89 20 40 21 92 22 86 23
REMARK SMILES IDX 85 24 41 26 73 27 53 28 72 29 54 30 57 31 71 32 90 33 55 34
REMARK SMILES IDX 56 35 70 37 91 38 58 39 42 40 43 41 51 42 44 43 45 44 49 45
REMARK SMILES IDX 52 46 46 47 47 48 50 49 48 50 74 51 75 52 83 53 76 54 77 55
REMARK SMILES IDX 81 56 84 57 78 58 79 59 82 60 80 61 59 62 60 63 68 64 61 65
REMARK SMILES IDX 62 66 66 67 69 68 63 69 64 70 67 71 65 72 7 73 8 74 9 75
REMARK SMILES IDX 10 76 11 77 12 79 13 80 14 81 32 82 15 83 24 84 17 85 18 86
REMARK SMILES IDX 23 87 19 88 22 89 20 90 21 91 16 92 25 94 26 95 31 96 27 97
REMARK SMILES IDX 30 98 28 99 29 100
REMARK H PARENT 3 7 89 25 57 36 10 78 16 93
REMARK Flexibility Score: inf
ROOT
ATOM      1  C   UNL A   1      34.581  34.270  28.558  1.00  0.00     0.002 C 
ENDROOT
BRANCH   1   2
ATOM      2  C   UNL A   1      33.270  34.998  28.835  1.00  0.00     0.021 C 
BRANCH   2   3
ATOM      3  C   UNL A   1      33.402  36.261  29.672  1.00  0.00     0.116 C 
BRANCH   3   4
ATOM      4  N   UNL A   1      32.434  36.327  30.753  1.00  0.00    -0.352 N 
ATOM      5  O   UNL A   1      31.521  35.772  32.746  1.00  0.00    -0.269 OA
ATOM      6  C   UNL A   1      32.487  35.731  31.990  1.00  0.00     0.251 C 
ATOM      7  H   UNL A   1      31.633  36.871  30.576  1.00  0.00     0.163 HD
BRANCH   6   8
ATOM      8  C   UNL A   1      33.712  35.011  32.398  1.00  0.00     0.039 A 
ATOM      9  C   UNL A   1      34.962  35.628  32.302  1.00  0.00     0.014 A 
ATOM     10  C   UNL A   1      33.608  33.701  32.874  1.00  0.00     0.014 A 
ATOM     11  C   UNL A   1      36.114  34.892  32.551  1.00  0.00     0.010 A 
ATOM     12  C   UNL A   1      34.764  32.992  33.209  1.00  0.00     0.010 A 
ATOM     13  C   UNL A   1      36.028  33.574  33.029  1.00  0.00    -0.014 A 
BRANCH  13  14
ATOM     14  C   UNL A   1      37.270  32.859  33.413  1.00  0.00     0.031 A 
ATOM     15  C   UNL A   1      37.893  31.833  32.511  1.00  0.00     0.074 A 
ATOM     16  C   UNL A   1      37.847  33.170  34.589  1.00  0.00     0.049 A 
ATOM     17  N   UNL A   1      38.978  31.123  32.701  1.00  0.00    -0.248 NA
ATOM     18  C   UNL A   1      37.216  31.563  31.233  1.00  0.00     0.031 C 
ATOM     19  C   UNL A   1      37.324  34.149  35.545  1.00  0.00     0.029 A 
ATOM     20  N   UNL A   1      39.000  32.717  35.176  1.00  0.00    -0.354 N 
ATOM     21  C   UNL A   1      39.105  30.315  31.579  1.00  0.00     0.074 A 
ATOM     22  C   UNL A   1      37.976  30.603  30.721  1.00  0.00     0.031 C 
ATOM     23  C   UNL A   1      38.177  34.260  36.572  1.00  0.00     0.029 A 
ATOM     24  C   UNL A   1      39.270  33.314  36.382  1.00  0.00     0.049 A 
ATOM     25  H   UNL A   1      39.579  32.031  34.771  1.00  0.00     0.167 HD
ATOM     26  C   UNL A   1      40.083  29.422  31.296  1.00  0.00     0.037 A 
ATOM     27  C   UNL A   1      40.276  33.110  37.253  1.00  0.00     0.037 A 
ATOM     28  C   UNL A   1      41.211  29.154  32.151  1.00  0.00     0.049 A 
ATOM     29  C   UNL A   1      41.324  32.088  36.928  1.00  0.00     0.074 A 
ATOM     30  C   UNL A   1      42.270  28.289  31.935  1.00  0.00     0.029 A 
ATOM     31  N   UNL A   1      41.426  29.745  33.388  1.00  0.00    -0.354 N 
ATOM     32  N   UNL A   1      41.443  31.343  35.856  1.00  0.00    -0.248 NA
ATOM     33  C   UNL A   1      42.372  31.869  37.933  1.00  0.00     0.031 C 
ATOM     34  C   UNL A   1      43.099  28.320  33.059  1.00  0.00     0.029 A 
ATOM     35  C   UNL A   1      42.587  29.244  33.956  1.00  0.00     0.049 A 
ATOM     36  H   UNL A   1      40.840  30.420  33.802  1.00  0.00     0.167 HD
ATOM     37  C   UNL A   1      42.581  30.575  36.051  1.00  0.00     0.074 A 
ATOM     38  C   UNL A   1      43.129  30.959  37.337  1.00  0.00     0.031 C 
ATOM     39  C   UNL A   1      43.118  29.634  35.237  1.00  0.00     0.037 A 
BRANCH  26  40
ATOM     40  C   UNL A   1      39.988  28.655  30.009  1.00  0.00     0.064 A 
ATOM     41  C   UNL A   1      39.403  27.378  29.984  1.00  0.00     0.173 A 
ATOM     42  C   UNL A   1      40.555  29.139  28.821  1.00  0.00     0.173 A 
ATOM     43  F   UNL A   1      38.854  26.866  31.095  1.00  0.00    -0.203 F 
ATOM     44  C   UNL A   1      39.406  26.611  28.823  1.00  0.00     0.198 A 
ATOM     45  C   UNL A   1      40.534  28.378  27.654  1.00  0.00     0.198 A 
ATOM     46  F   UNL A   1      41.119  30.356  28.790  1.00  0.00    -0.203 F 
ATOM     47  F   UNL A   1      38.873  25.381  28.833  1.00  0.00    -0.200 F 
ATOM     48  C   UNL A   1      39.968  27.111  27.659  1.00  0.00     0.200 A 
ATOM     49  F   UNL A   1      41.061  28.871  26.525  1.00  0.00    -0.200 F 
ATOM     50  F   UNL A   1      39.966  26.372  26.541  1.00  0.00    -0.200 F 
ENDBRANCH  26  40
BRANCH  27  51
ATOM     51  C   UNL A   1      40.323  33.902  38.508  1.00  0.00     0.064 A 
ATOM     52  C   UNL A   1      39.593  33.515  39.641  1.00  0.00     0.173 A 
ATOM     53  C   UNL A   1      41.055  35.095  38.577  1.00  0.00     0.173 A 
ATOM     54  F   UNL A   1      38.871  32.385  39.622  1.00  0.00    -0.203 F 
ATOM     55  C   UNL A   1      39.570  34.306  40.787  1.00  0.00     0.198 A 
ATOM     56  C   UNL A   1      41.054  35.870  39.734  1.00  0.00     0.198 A 
ATOM     57  F   UNL A   1      41.781  35.497  37.523  1.00  0.00    -0.203 F 
ATOM     58  F   UNL A   1      38.827  33.937  41.839  1.00  0.00    -0.200 F 
ATOM     59  C   UNL A   1      40.303  35.481  40.833  1.00  0.00     0.200 A 
ATOM     60  F   UNL A   1      41.779  36.996  39.783  1.00  0.00    -0.200 F 
ATOM     61  F   UNL A   1      40.286  36.240  41.938  1.00  0.00    -0.200 F 
ENDBRANCH  27  51
BRANCH  39  62
ATOM     62  C   UNL A   1      44.373  28.957  35.702  1.00  0.00     0.064 A 
ATOM     63  C   UNL A   1      44.305  27.806  36.501  1.00  0.00     0.173 A 
ATOM     64  C   UNL A   1      45.639  29.486  35.413  1.00  0.00     0.173 A 
ATOM     65  F   UNL A   1      43.116  27.265  36.808  1.00  0.00    -0.203 F 
ATOM     66  C   UNL A   1      45.460  27.220  37.010  1.00  0.00     0.198 A 
ATOM     67  C   UNL A   1      46.793  28.881  35.902  1.00  0.00     0.198 A 
ATOM     68  F   UNL A   1      45.755  30.576  34.640  1.00  0.00    -0.203 F 
ATOM     69  F   UNL A   1      45.369  26.141  37.799  1.00  0.00    -0.200 F 
ATOM     70  C   UNL A   1      46.702  27.755  36.708  1.00  0.00     0.200 A 
ATOM     71  F   UNL A   1      47.995  29.384  35.589  1.00  0.00    -0.200 F 
ATOM     72  F   UNL A   1      47.815  27.184  37.191  1.00  0.00    -0.200 F 
ENDBRANCH  39  62
ENDBRANCH  13  14
ENDBRANCH   6   8
ENDBRANCH   3   4
ENDBRANCH   2   3
ENDBRANCH   1   2
BRANCH   1  73
ATOM     73  C   UNL A   1      34.593  32.769  28.866  1.00  0.00     0.002 C 
BRANCH  73  74
ATOM     74  C   UNL A   1      35.576  31.901  28.069  1.00  0.00     0.021 C 
BRANCH  74  75
ATOM     75  C   UNL A   1      35.160  30.454  27.822  1.00  0.00     0.116 C 
BRANCH  75  76
ATOM     76  N   UNL A   1      33.737  30.303  27.621  1.00  0.00    -0.354 N 
ATOM     77  C   UNL A   1      33.035  29.347  26.958  1.00  0.00     0.249 C 
ATOM     78  H   UNL A   1      33.186  31.008  28.033  1.00  0.00     0.163 HD
ATOM     79  O   UNL A   1      31.823  29.308  27.182  1.00  0.00    -0.272 OA
BRANCH  77  80
ATOM     80  C   UNL A   1      33.740  28.384  25.984  1.00  0.00     0.211 C 
ATOM     81  C   UNL A   1      33.414  26.935  26.304  1.00  0.00     0.085 C 
ATOM     82  O   UNL A   1      33.374  28.655  24.632  1.00  0.00    -0.357 OA
ATOM     83  C   UNL A   1      32.818  26.322  25.036  1.00  0.00     0.123 C 
ATOM     84  C   UNL A   1      32.591  27.559  24.111  1.00  0.00     0.186 C 
BRANCH  83  85
ATOM     85  C   UNL A   1      33.727  25.184  24.536  1.00  0.00    -0.013 A 
ATOM     86  C   UNL A   1      34.877  24.869  25.302  1.00  0.00     0.010 A 
ATOM     87  C   UNL A   1      33.489  24.411  23.388  1.00  0.00     0.010 A 
ATOM     88  C   UNL A   1      35.752  23.848  24.931  1.00  0.00     0.039 A 
ATOM     89  C   UNL A   1      34.362  23.380  23.021  1.00  0.00     0.039 A 
ATOM     90  C   UNL A   1      35.484  23.110  23.791  1.00  0.00     0.123 A 
ATOM     91  F   UNL A   1      36.314  22.123  23.430  1.00  0.00    -0.207 F 
ENDBRANCH  83  85
BRANCH  83  92
ATOM     92  O   UNL A   1      31.583  25.681  25.390  1.00  0.00    -0.382 OA
ATOM     93  H   UNL A   1      31.771  24.847  25.849  1.00  0.00     0.212 HD
ENDBRANCH  83  92
BRANCH  84  94
ATOM     94  C   UNL A   1      31.176  28.068  23.858  1.00  0.00    -0.016 A 
ATOM     95  C   UNL A   1      30.855  29.435  23.865  1.00  0.00     0.009 A 
ATOM     96  C   UNL A   1      30.153  27.153  23.536  1.00  0.00     0.009 A 
ATOM     97  C   UNL A   1      29.577  29.880  23.519  1.00  0.00     0.039 A 
ATOM     98  C   UNL A   1      28.868  27.597  23.210  1.00  0.00     0.039 A 
ATOM     99  C   UNL A   1      28.596  28.958  23.190  1.00  0.00     0.123 A 
ATOM    100  F   UNL A   1      27.373  29.384  22.846  1.00  0.00    -0.207 F 
ENDBRANCH  84  94
ENDBRANCH  77  80
ENDBRANCH  75  76
ENDBRANCH  74  75
ENDBRANCH  73  74
ENDBRANCH   1  73
TORSDOF 16
ENDMDL
MODEL 2
REMARK VINA RESULT:     -12.4      6.935     12.452
REMARK SMILES O=C(NCCCCCCNC(=O)[C@H]1C[C@](O)(c2ccc(F)cc2)[C@@H](c2ccc(F)cc2)O1)c1ccc(-c2c3nc(c(-c4c(F)c(F)c(F)c(F)c4F)c4ccc([nH]4)c(-c4c(F)c(F)c(F)c(F)c4F)c4nc(c(-c5c(F)c(F)c(F)c(F)c5F)c5ccc2[nH]5)C=C4)C=C3)cc1
REMARK SMILES IDX 6 1 5 2 4 3 3 4 1 5 2 6 33 8 34 9 95 10 35 11 94 12 36 13
REMARK SMILES IDX 37 14 38 15 88 16 39 17 93 18 87 19 89 20 40 21 92 22 86 23
REMARK SMILES IDX 85 24 41 26 73 27 53 28 72 29 54 30 57 31 71 32 90 33 55 34
REMARK SMILES IDX 56 35 70 37 91 38 58 39 42 40 43 41 51 42 44 43 45 44 49 45
REMARK SMILES IDX 52 46 46 47 47 48 50 49 48 50 74 51 75 52 83 53 76 54 77 55
REMARK SMILES IDX 81 56 84 57 78 58 79 59 82 60 80 61 59 62 60 63 68 64 61 65
REMARK SMILES IDX 62 66 66 67 69 68 63 69 64 70 67 71 65 72 7 73 8 74 9 75
REMARK SMILES IDX 10 76 11 77 12 79 13 80 14 81 32 82 15 83 24 84 17 85 18 86
REMARK SMILES IDX 23 87 19 88 22 89 20 90 21 91 16 92 25 94 26 95 31 96 27 97
REMARK SMILES IDX 30 98 28 99 29 100
REMARK H PARENT 3 7 89 25 57 36 10 78 16 93
REMARK Flexibility Score: inf
ROOT
ATOM      1  C   UNL A   1      42.216  20.574  27.613  1.00  0.00     0.002 C 
ENDROOT
BRANCH   1   2
ATOM      2  C   UNL A   1      42.482  19.301  26.817  1.00  0.00     0.021 C 
BRANCH   2   3
ATOM      3  C   UNL A   1      42.487  19.477  25.307  1.00  0.00     0.116 C 
BRANCH   3   4
ATOM      4  N   UNL A   1      43.682  18.940  24.680  1.00  0.00    -0.352 N 
ATOM      5  O   UNL A   1      45.721  19.024  23.705  1.00  0.00    -0.269 OA
ATOM      6  C   UNL A   1      44.850  19.589  24.361  1.00  0.00     0.251 C 
ATOM      7  H   UNL A   1      43.651  17.982  24.451  1.00  0.00     0.163 HD
BRANCH   6   8
ATOM      8  C   UNL A   1      45.043  20.991  24.790  1.00  0.00     0.039 A 
ATOM      9  C   UNL A   1      45.498  21.281  26.079  1.00  0.00     0.014 A 
ATOM     10  C   UNL A   1      44.757  22.024  23.894  1.00  0.00     0.014 A 
ATOM     11  C   UNL A   1      45.537  22.600  26.514  1.00  0.00     0.010 A 
ATOM     12  C   UNL A   1      44.882  23.353  24.307  1.00  0.00     0.010 A 
ATOM     13  C   UNL A   1      45.251  23.651  25.628  1.00  0.00    -0.014 A 
BRANCH  13  14
ATOM     14  C   UNL A   1      45.429  25.052  26.083  1.00  0.00     0.031 A 
ATOM     15  C   UNL A   1      44.293  25.833  26.676  1.00  0.00     0.074 A 
ATOM     16  C   UNL A   1      46.651  25.607  25.974  1.00  0.00     0.049 A 
ATOM     17  N   UNL A   1      44.287  27.065  27.123  1.00  0.00    -0.248 NA
ATOM     18  C   UNL A   1      42.993  25.151  26.781  1.00  0.00     0.031 C 
ATOM     19  C   UNL A   1      47.827  24.940  25.409  1.00  0.00     0.029 A 
ATOM     20  N   UNL A   1      47.117  26.841  26.345  1.00  0.00    -0.354 N 
ATOM     21  C   UNL A   1      42.988  27.310  27.547  1.00  0.00     0.074 A 
ATOM     22  C   UNL A   1      42.224  26.109  27.284  1.00  0.00     0.031 C 
ATOM     23  C   UNL A   1      48.887  25.751  25.517  1.00  0.00     0.029 A 
ATOM     24  C   UNL A   1      48.456  27.018  26.095  1.00  0.00     0.049 A 
ATOM     25  H   UNL A   1      46.548  27.534  26.754  1.00  0.00     0.167 HD
ATOM     26  C   UNL A   1      42.489  28.436  28.110  1.00  0.00     0.037 A 
ATOM     27  C   UNL A   1      49.248  28.088  26.289  1.00  0.00     0.037 A 
ATOM     28  C   UNL A   1      43.262  29.621  28.380  1.00  0.00     0.049 A 
ATOM     29  C   UNL A   1      48.658  29.333  26.882  1.00  0.00     0.074 A 
ATOM     30  C   UNL A   1      42.851  30.801  28.977  1.00  0.00     0.029 A 
ATOM     31  N   UNL A   1      44.605  29.779  28.069  1.00  0.00    -0.354 N 
ATOM     32  N   UNL A   1      47.432  29.547  27.294  1.00  0.00    -0.248 NA
ATOM     33  C   UNL A   1      49.552  30.488  27.026  1.00  0.00     0.031 C 
ATOM     34  C   UNL A   1      43.931  31.688  28.984  1.00  0.00     0.029 A 
ATOM     35  C   UNL A   1      45.031  31.045  28.440  1.00  0.00     0.049 A 
ATOM     36  H   UNL A   1      45.173  29.093  27.648  1.00  0.00     0.167 HD
ATOM     37  C   UNL A   1      47.409  30.854  27.757  1.00  0.00     0.074 A 
ATOM     38  C   UNL A   1      48.750  31.379  27.592  1.00  0.00     0.031 C 
ATOM     39  C   UNL A   1      46.368  31.554  28.268  1.00  0.00     0.037 A 
BRANCH  26  40
ATOM     40  C   UNL A   1      41.033  28.458  28.474  1.00  0.00     0.064 A 
ATOM     41  C   UNL A   1      40.084  28.980  27.580  1.00  0.00     0.173 A 
ATOM     42  C   UNL A   1      40.585  28.049  29.739  1.00  0.00     0.173 A 
ATOM     43  F   UNL A   1      40.461  29.392  26.360  1.00  0.00    -0.203 F 
ATOM     44  C   UNL A   1      38.747  29.107  27.945  1.00  0.00     0.198 A 
ATOM     45  C   UNL A   1      39.241  28.155  30.092  1.00  0.00     0.198 A 
ATOM     46  F   UNL A   1      41.449  27.536  30.627  1.00  0.00    -0.203 F 
ATOM     47  F   UNL A   1      37.867  29.641  27.087  1.00  0.00    -0.200 F 
ATOM     48  C   UNL A   1      38.326  28.693  29.199  1.00  0.00     0.200 A 
ATOM     49  F   UNL A   1      38.833  27.737  31.298  1.00  0.00    -0.200 F 
ATOM     50  F   UNL A   1      37.037  28.812  29.549  1.00  0.00    -0.200 F 
ENDBRANCH  26  40
BRANCH  27  51
ATOM     51  C   UNL A   1      50.683  28.008  25.916  1.00  0.00     0.064 A 
ATOM     52  C   UNL A   1      51.678  27.820  26.886  1.00  0.00     0.173 A 
ATOM     53  C   UNL A   1      51.090  28.177  24.586  1.00  0.00     0.173 A 
ATOM     54  F   UNL A   1      51.339  27.661  28.175  1.00  0.00    -0.203 F 
ATOM     55  C   UNL A   1      53.028  27.833  26.545  1.00  0.00     0.198 A 
ATOM     56  C   UNL A   1      52.439  28.161  24.242  1.00  0.00     0.198 A 
ATOM     57  F   UNL A   1      50.173  28.344  23.622  1.00  0.00    -0.203 F 
ATOM     58  F   UNL A   1      53.960  27.698  27.498  1.00  0.00    -0.200 F 
ATOM     59  C   UNL A   1      53.407  28.001  25.222  1.00  0.00     0.200 A 
ATOM     60  F   UNL A   1      52.803  28.303  22.960  1.00  0.00    -0.200 F 
ATOM     61  F   UNL A   1      54.706  28.007  24.892  1.00  0.00    -0.200 F 
ENDBRANCH  27  51
BRANCH  39  62
ATOM     62  C   UNL A   1      46.632  32.965  28.701  1.00  0.00     0.064 A 
ATOM     63  C   UNL A   1      46.492  34.026  27.794  1.00  0.00     0.173 A 
ATOM     64  C   UNL A   1      47.091  33.259  29.994  1.00  0.00     0.173 A 
ATOM     65  F   UNL A   1      46.061  33.794  26.544  1.00  0.00    -0.203 F 
ATOM     66  C   UNL A   1      46.819  35.328  28.160  1.00  0.00     0.198 A 
ATOM     67  C   UNL A   1      47.391  34.567  30.364  1.00  0.00     0.198 A 
ATOM     68  F   UNL A   1      47.226  32.280  30.901  1.00  0.00    -0.203 F 
ATOM     69  F   UNL A   1      46.709  36.320  27.266  1.00  0.00    -0.200 F 
ATOM     70  C   UNL A   1      47.265  35.598  29.444  1.00  0.00     0.200 A 
ATOM     71  F   UNL A   1      47.799  34.830  31.613  1.00  0.00    -0.200 F 
ATOM     72  F   UNL A   1      47.570  36.854  29.798  1.00  0.00    -0.200 F 
ENDBRANCH  39  62
ENDBRANCH  13  14
ENDBRANCH   6   8
ENDBRANCH   3   4
ENDBRANCH   2   3
ENDBRANCH   1   2
BRANCH   1  73
ATOM     73  C   UNL A   1      41.593  21.737  26.832  1.00  0.00     0.002 C 
BRANCH  73  74
ATOM     74  C   UNL A   1      40.455  22.506  27.515  1.00  0.00     0.021 C 
BRANCH  74  75
ATOM     75  C   UNL A   1      39.398  23.114  26.597  1.00  0.00     0.116 C 
BRANCH  75  76
ATOM     76  N   UNL A   1      38.808  22.147  25.700  1.00  0.00    -0.354 N 
ATOM     77  C   UNL A   1      37.536  22.035  25.235  1.00  0.00     0.249 C 
ATOM     78  H   UNL A   1      39.429  21.457  25.371  1.00  0.00     0.163 HD
ATOM     79  O   UNL A   1      37.374  21.290  24.267  1.00  0.00    -0.272 OA
BRANCH  77  80
ATOM     80  C   UNL A   1      36.381  22.805  25.904  1.00  0.00     0.211 C 
ATOM     81  C   UNL A   1      35.703  23.749  24.925  1.00  0.00     0.085 C 
ATOM     82  O   UNL A   1      35.405  21.912  26.440  1.00  0.00    -0.357 OA
ATOM     83  C   UNL A   1      34.221  23.373  24.898  1.00  0.00     0.123 C 
ATOM     84  C   UNL A   1      34.175  22.029  25.693  1.00  0.00     0.186 C 
BRANCH  83  85
ATOM     85  C   UNL A   1      33.379  24.559  25.405  1.00  0.00    -0.013 A 
ATOM     86  C   UNL A   1      33.971  25.845  25.393  1.00  0.00     0.010 A 
ATOM     87  C   UNL A   1      32.052  24.466  25.856  1.00  0.00     0.010 A 
ATOM     88  C   UNL A   1      33.281  26.978  25.826  1.00  0.00     0.039 A 
ATOM     89  C   UNL A   1      31.355  25.605  26.280  1.00  0.00     0.039 A 
ATOM     90  C   UNL A   1      31.974  26.846  26.264  1.00  0.00     0.123 A 
ATOM     91  F   UNL A   1      31.301  27.929  26.674  1.00  0.00    -0.207 F 
ENDBRANCH  83  85
BRANCH  83  92
ATOM     92  O   UNL A   1      33.830  23.201  23.527  1.00  0.00    -0.382 OA
ATOM     93  H   UNL A   1      34.621  23.175  22.966  1.00  0.00     0.212 HD
ENDBRANCH  83  92
BRANCH  84  94
ATOM     94  C   UNL A   1      33.947  20.716  24.951  1.00  0.00    -0.016 A 
ATOM     95  C   UNL A   1      34.870  19.660  24.989  1.00  0.00     0.009 A 
ATOM     96  C   UNL A   1      32.739  20.511  24.255  1.00  0.00     0.009 A 
ATOM     97  C   UNL A   1      34.585  18.428  24.396  1.00  0.00     0.039 A 
ATOM     98  C   UNL A   1      32.462  19.285  23.643  1.00  0.00     0.039 A 
ATOM     99  C   UNL A   1      33.382  18.249  23.732  1.00  0.00     0.123 A 
ATOM    100  F   UNL A   1      33.102  17.065  23.172  1.00  0.00    -0.207 F 
ENDBRANCH  84  94
ENDBRANCH  77  80
ENDBRANCH  75  76
ENDBRANCH  74  75
ENDBRANCH  73  74
ENDBRANCH   1  73
TORSDOF 16
ENDMDL
MODEL 3
REMARK VINA RESULT:     -12.4      6.160     11.549
REMARK SMILES O=C(NCCCCCCNC(=O)[C@H]1C[C@](O)(c2ccc(F)cc2)[C@@H](c2ccc(F)cc2)O1)c1ccc(-c2c3nc(c(-c4c(F)c(F)c(F)c(F)c4F)c4ccc([nH]4)c(-c4c(F)c(F)c(F)c(F)c4F)c4nc(c(-c5c(F)c(F)c(F)c(F)c5F)c5ccc2[nH]5)C=C4)C=C3)cc1
REMARK SMILES IDX 6 1 5 2 4 3 3 4 1 5 2 6 33 8 34 9 95 10 35 11 94 12 36 13
REMARK SMILES IDX 37 14 38 15 88 16 39 17 93 18 87 19 89 20 40 21 92 22 86 23
REMARK SMILES IDX 85 24 41 26 73 27 53 28 72 29 54 30 57 31 71 32 90 33 55 34
REMARK SMILES IDX 56 35 70 37 91 38 58 39 42 40 43 41 51 42 44 43 45 44 49 45
REMARK SMILES IDX 52 46 46 47 47 48 50 49 48 50 74 51 75 52 83 53 76 54 77 55
REMARK SMILES IDX 81 56 84 57 78 58 79 59 82 60 80 61 59 62 60 63 68 64 61 65
REMARK SMILES IDX 62 66 66 67 69 68 63 69 64 70 67 71 65 72 7 73 8 74 9 75
REMARK SMILES IDX 10 76 11 77 12 79 13 80 14 81 32 82 15 83 24 84 17 85 18 86
REMARK SMILES IDX 23 87 19 88 22 89 20 90 21 91 16 92 25 94 26 95 31 96 27 97
REMARK SMILES IDX 30 98 28 99 29 100
REMARK H PARENT 3 7 89 25 57 36 10 78 16 93
REMARK Flexibility Score: inf
ROOT
ATOM      1  C   UNL A   1      41.634  19.380  26.200  1.00  0.00     0.002 C 
ENDROOT
BRANCH   1   2
ATOM      2  C   UNL A   1      41.728  20.892  26.374  1.00  0.00     0.021 C 
BRANCH   2   3
ATOM      3  C   UNL A   1      40.619  21.513  27.208  1.00  0.00     0.116 C 
BRANCH   3   4
ATOM      4  N   UNL A   1      39.398  21.732  26.453  1.00  0.00    -0.352 N 
ATOM      5  O   UNL A   1      37.586  22.884  25.741  1.00  0.00    -0.269 OA
ATOM      6  C   UNL A   1      38.678  22.893  26.303  1.00  0.00     0.251 C 
ATOM      7  H   UNL A   1      39.038  20.944  25.985  1.00  0.00     0.163 HD
BRANCH   6   8
ATOM      8  C   UNL A   1      39.214  24.157  26.851  1.00  0.00     0.039 A 
ATOM      9  C   UNL A   1      38.976  24.510  28.181  1.00  0.00     0.014 A 
ATOM     10  C   UNL A   1      39.958  25.000  26.020  1.00  0.00     0.014 A 
ATOM     11  C   UNL A   1      39.361  25.764  28.640  1.00  0.00     0.010 A 
ATOM     12  C   UNL A   1      40.421  26.223  26.511  1.00  0.00     0.010 A 
ATOM     13  C   UNL A   1      40.107  26.624  27.819  1.00  0.00    -0.014 A 
BRANCH  13  14
ATOM     14  C   UNL A   1      40.619  27.900  28.379  1.00  0.00     0.031 A 
ATOM     15  C   UNL A   1      42.090  28.144  28.552  1.00  0.00     0.074 A 
ATOM     16  C   UNL A   1      39.728  28.853  28.710  1.00  0.00     0.049 A 
ATOM     17  N   UNL A   1      42.697  29.204  29.024  1.00  0.00    -0.248 NA
ATOM     18  C   UNL A   1      43.001  27.062  28.148  1.00  0.00     0.031 C 
ATOM     19  C   UNL A   1      38.274  28.721  28.587  1.00  0.00     0.029 A 
ATOM     20  N   UNL A   1      39.905  30.123  29.197  1.00  0.00    -0.354 N 
ATOM     21  C   UNL A   1      44.054  28.915  28.989  1.00  0.00     0.074 A 
ATOM     22  C   UNL A   1      44.185  27.570  28.470  1.00  0.00     0.031 C 
ATOM     23  C   UNL A   1      37.696  29.877  28.939  1.00  0.00     0.029 A 
ATOM     24  C   UNL A   1      38.729  30.808  29.376  1.00  0.00     0.049 A 
ATOM     25  H   UNL A   1      40.790  30.506  29.398  1.00  0.00     0.167 HD
ATOM     26  C   UNL A   1      45.090  29.708  29.350  1.00  0.00     0.037 A 
ATOM     27  C   UNL A   1      38.502  32.044  29.857  1.00  0.00     0.037 A 
ATOM     28  C   UNL A   1      44.949  31.051  29.852  1.00  0.00     0.049 A 
ATOM     29  C   UNL A   1      39.668  32.885  30.284  1.00  0.00     0.074 A 
ATOM     30  C   UNL A   1      45.942  31.945  30.216  1.00  0.00     0.029 A 
ATOM     31  N   UNL A   1      43.738  31.695  30.064  1.00  0.00    -0.354 N 
ATOM     32  N   UNL A   1      40.947  32.607  30.229  1.00  0.00    -0.248 NA
ATOM     33  C   UNL A   1      39.362  34.206  30.848  1.00  0.00     0.031 C 
ATOM     34  C   UNL A   1      45.333  33.109  30.691  1.00  0.00     0.029 A 
ATOM     35  C   UNL A   1      43.959  32.964  30.575  1.00  0.00     0.049 A 
ATOM     36  H   UNL A   1      42.851  31.308  29.877  1.00  0.00     0.167 HD
ATOM     37  C   UNL A   1      41.601  33.717  30.740  1.00  0.00     0.074 A 
ATOM     38  C   UNL A   1      40.576  34.684  31.082  1.00  0.00     0.031 C 
ATOM     39  C   UNL A   1      42.930  33.914  30.913  1.00  0.00     0.037 A 
BRANCH  26  40
ATOM     40  C   UNL A   1      46.480  29.155  29.227  1.00  0.00     0.064 A 
ATOM     41  C   UNL A   1      47.149  29.182  27.992  1.00  0.00     0.173 A 
ATOM     42  C   UNL A   1      47.115  28.517  30.302  1.00  0.00     0.173 A 
ATOM     43  F   UNL A   1      46.582  29.772  26.930  1.00  0.00    -0.203 F 
ATOM     44  C   UNL A   1      48.392  28.575  27.837  1.00  0.00     0.198 A 
ATOM     45  C   UNL A   1      48.371  27.933  30.149  1.00  0.00     0.198 A 
ATOM     46  F   UNL A   1      46.523  28.471  31.505  1.00  0.00    -0.203 F 
ATOM     47  F   UNL A   1      48.995  28.583  26.639  1.00  0.00    -0.200 F 
ATOM     48  C   UNL A   1      49.003  27.954  28.914  1.00  0.00     0.200 A 
ATOM     49  F   UNL A   1      48.969  27.349  31.197  1.00  0.00    -0.200 F 
ATOM     50  F   UNL A   1      50.202  27.374  28.764  1.00  0.00    -0.200 F 
ENDBRANCH  26  40
BRANCH  27  51
ATOM     51  C   UNL A   1      37.106  32.543  29.951  1.00  0.00     0.064 A 
ATOM     52  C   UNL A   1      36.513  33.249  28.894  1.00  0.00     0.173 A 
ATOM     53  C   UNL A   1      36.359  32.372  31.124  1.00  0.00     0.173 A 
ATOM     54  F   UNL A   1      37.190  33.445  27.753  1.00  0.00    -0.203 F 
ATOM     55  C   UNL A   1      35.236  33.791  29.017  1.00  0.00     0.198 A 
ATOM     56  C   UNL A   1      35.071  32.890  31.235  1.00  0.00     0.198 A 
ATOM     57  F   UNL A   1      36.879  31.690  32.155  1.00  0.00    -0.203 F 
ATOM     58  F   UNL A   1      34.712  34.502  28.010  1.00  0.00    -0.200 F 
ATOM     59  C   UNL A   1      34.515  33.608  30.187  1.00  0.00     0.200 A 
ATOM     60  F   UNL A   1      34.369  32.695  32.360  1.00  0.00    -0.200 F 
ATOM     61  F   UNL A   1      33.284  34.125  30.305  1.00  0.00    -0.200 F 
ENDBRANCH  27  51
BRANCH  39  62
ATOM     62  C   UNL A   1      43.364  35.229  31.488  1.00  0.00     0.064 A 
ATOM     63  C   UNL A   1      43.346  35.439  32.875  1.00  0.00     0.173 A 
ATOM     64  C   UNL A   1      43.729  36.303  30.662  1.00  0.00     0.173 A 
ATOM     65  F   UNL A   1      42.998  34.444  33.705  1.00  0.00    -0.203 F 
ATOM     66  C   UNL A   1      43.662  36.683  33.413  1.00  0.00     0.198 A 
ATOM     67  C   UNL A   1      44.071  37.537  31.207  1.00  0.00     0.198 A 
ATOM     68  F   UNL A   1      43.776  36.145  29.331  1.00  0.00    -0.203 F 
ATOM     69  F   UNL A   1      43.605  36.870  34.739  1.00  0.00    -0.200 F 
ATOM     70  C   UNL A   1      44.027  37.729  32.580  1.00  0.00     0.200 A 
ATOM     71  F   UNL A   1      44.447  38.541  30.403  1.00  0.00    -0.200 F 
ATOM     72  F   UNL A   1      44.340  38.924  33.101  1.00  0.00    -0.200 F 
ENDBRANCH  39  62
ENDBRANCH  13  14
ENDBRANCH   6   8
ENDBRANCH   3   4
ENDBRANCH   2   3
ENDBRANCH   1   2
BRANCH   1  73
ATOM     73  C   UNL A   1      42.967  18.631  26.103  1.00  0.00     0.002 C 
BRANCH  73  74
ATOM     74  C   UNL A   1      43.840  18.915  24.874  1.00  0.00     0.021 C 
BRANCH  74  75
ATOM     75  C   UNL A   1      44.998  19.889  25.073  1.00  0.00     0.116 C 
BRANCH  75  76
ATOM     76  N   UNL A   1      45.016  20.949  24.091  1.00  0.00    -0.354 N 
ATOM     77  C   UNL A   1      44.925  22.296  24.244  1.00  0.00     0.249 C 
ATOM     78  H   UNL A   1      45.112  20.646  23.159  1.00  0.00     0.163 HD
ATOM     79  O   UNL A   1      45.250  22.978  23.270  1.00  0.00    -0.272 OA
BRANCH  77  80
ATOM     80  C   UNL A   1      44.433  22.908  25.570  1.00  0.00     0.211 C 
ATOM     81  C   UNL A   1      45.409  22.637  26.702  1.00  0.00     0.085 C 
ATOM     82  O   UNL A   1      44.239  24.317  25.450  1.00  0.00    -0.357 OA
ATOM     83  C   UNL A   1      45.806  23.995  27.282  1.00  0.00     0.123 C 
ATOM     84  C   UNL A   1      45.216  25.012  26.255  1.00  0.00     0.186 C 
BRANCH  83  85
ATOM     85  C   UNL A   1      45.349  24.081  28.751  1.00  0.00    -0.013 A 
ATOM     86  C   UNL A   1      45.981  25.036  29.586  1.00  0.00     0.010 A 
ATOM     87  C   UNL A   1      44.330  23.302  29.322  1.00  0.00     0.010 A 
ATOM     88  C   UNL A   1      45.626  25.191  30.927  1.00  0.00     0.039 A 
ATOM     89  C   UNL A   1      43.967  23.465  30.665  1.00  0.00     0.039 A 
ATOM     90  C   UNL A   1      44.618  24.403  31.454  1.00  0.00     0.123 A 
ATOM     91  F   UNL A   1      44.265  24.549  32.737  1.00  0.00    -0.207 F 
ENDBRANCH  83  85
BRANCH  83  92
ATOM     92  O   UNL A   1      47.240  24.054  27.336  1.00  0.00    -0.382 OA
ATOM     93  H   UNL A   1      47.566  24.628  26.626  1.00  0.00     0.212 HD
ENDBRANCH  83  92
BRANCH  84  94
ATOM     94  C   UNL A   1      46.150  25.768  25.315  1.00  0.00    -0.016 A 
ATOM     95  C   UNL A   1      45.936  27.109  24.960  1.00  0.00     0.009 A 
ATOM     96  C   UNL A   1      47.312  25.136  24.829  1.00  0.00     0.009 A 
ATOM     97  C   UNL A   1      46.866  27.811  24.191  1.00  0.00     0.039 A 
ATOM     98  C   UNL A   1      48.233  25.831  24.041  1.00  0.00     0.039 A 
ATOM     99  C   UNL A   1      48.008  27.168  23.741  1.00  0.00     0.123 A 
ATOM    100  F   UNL A   1      48.907  27.843  23.012  1.00  0.00    -0.207 F 
ENDBRANCH  84  94
ENDBRANCH  77  80
ENDBRANCH  75  76
ENDBRANCH  74  75
ENDBRANCH  73  74
ENDBRANCH   1  73
TORSDOF 16
ENDMDL
