MODEL 1
REMARK VINA RESULT:     -11.4      0.000      0.000
REMARK SMILES CCC(CC)([NH2+]Cc1ccc(I)cc1)C(=O)NCCCCCCNC(=O)c1ccc(-c2c3nc(c(-c4c(F)c(F)c(F)c(F)c4F)c4ccc([nH]4)c(-c4c(F)c(F)c(F)c(F)c4F)c4nc(c(-c5c(F)c(F)c(F)c(F)c5F)c5ccc2[nH]5)C=C4)C=C3)cc1
REMARK SMILES IDX 20 1 19 2 18 3 17 4 15 5 16 6 3 8 2 9 1 10 4 11 5 12 6 13
REMARK SMILES IDX 7 16 8 17 9 18 14 19 10 20 13 21 11 22 12 23 21 24 22 25
REMARK SMILES IDX 23 26 24 27 25 28 26 30 27 31 28 32 89 33 29 34 88 35 30 36
REMARK SMILES IDX 31 37 32 38 82 39 33 40 87 41 81 42 83 43 34 44 86 45 80 46
REMARK SMILES IDX 79 47 35 49 67 50 47 51 66 52 48 53 51 54 65 55 84 56 49 57
REMARK SMILES IDX 50 58 64 60 85 61 52 62 36 63 37 64 45 65 38 66 39 67 43 68
REMARK SMILES IDX 46 69 40 70 41 71 44 72 42 73 68 74 69 75 77 76 70 77 71 78
REMARK SMILES IDX 75 79 78 80 72 81 73 82 76 83 74 84 53 85 54 86 62 87 55 88
REMARK SMILES IDX 56 89 60 90 63 91 57 92 58 93 61 94 59 95
REMARK H PARENT 17 7 6 14 6 15 24 29 83 48 51 59
REMARK Flexibility Score: inf
ROOT
ATOM      1  C   UNL A   1      32.547  29.904  26.902  1.00  0.00     0.002 C 
ENDROOT
BRANCH   1   2
ATOM      2  C   UNL A   1      31.948  28.630  27.500  1.00  0.00     0.021 C 
BRANCH   2   3
ATOM      3  C   UNL A   1      31.393  27.645  26.458  1.00  0.00     0.116 C 
BRANCH   3   4
ATOM      4  N   UNL A   1      31.458  26.296  26.967  1.00  0.00    -0.351 N 
ATOM      5  C   UNL A   1      31.717  25.084  26.412  1.00  0.00     0.281 C 
ATOM      6  O   UNL A   1      31.378  24.148  27.153  1.00  0.00    -0.268 OA
ATOM      7  H   UNL A   1      31.273  26.241  27.932  1.00  0.00     0.163 HD
BRANCH   5   8
ATOM      8  C   UNL A   1      32.471  24.812  25.042  1.00  0.00     0.175 C 
BRANCH   8   9
ATOM      9  C   UNL A   1      33.666  25.864  25.020  1.00  0.00     0.076 C 
ATOM     10  C   UNL A   1      33.726  26.801  23.807  1.00  0.00     0.011 C 
ENDBRANCH   8   9
BRANCH   8  11
ATOM     11  C   UNL A   1      31.565  25.102  23.821  1.00  0.00     0.076 C 
ATOM     12  C   UNL A   1      30.670  23.927  23.405  1.00  0.00     0.011 C 
ENDBRANCH   8  11
BRANCH   8  13
ATOM     13  N   UNL A   1      33.205  23.520  24.965  1.00  0.00    -0.330 N 
ATOM     14  H   UNL A   1      32.471  22.816  24.875  1.00  0.00     0.347 HD
ATOM     15  H   UNL A   1      33.808  23.647  25.777  1.00  0.00     0.347 HD
BRANCH  13  16
ATOM     16  C   UNL A   1      34.219  23.105  24.018  1.00  0.00     0.298 C 
BRANCH  16  17
ATOM     17  C   UNL A   1      35.614  22.686  24.482  1.00  0.00     0.006 A 
ATOM     18  C   UNL A   1      36.532  23.684  24.860  1.00  0.00     0.010 A 
ATOM     19  C   UNL A   1      36.023  21.366  24.702  1.00  0.00     0.010 A 
ATOM     20  C   UNL A   1      37.789  23.367  25.405  1.00  0.00     0.015 A 
ATOM     21  C   UNL A   1      37.273  21.033  25.235  1.00  0.00     0.015 A 
ATOM     22  C   UNL A   1      38.155  22.038  25.590  1.00  0.00     0.013 A 
ATOM     23  I   UNL A   1      39.993  21.549  26.422  1.00  0.00    -0.044 I 
ENDBRANCH  16  17
ENDBRANCH  13  16
ENDBRANCH   8  13
ENDBRANCH   5   8
ENDBRANCH   3   4
ENDBRANCH   2   3
ENDBRANCH   1   2
BRANCH   1  24
ATOM     24  C   UNL A   1      31.556  30.748  26.096  1.00  0.00     0.002 C 
BRANCH  24  25
ATOM     25  C   UNL A   1      31.389  32.197  26.566  1.00  0.00     0.021 C 
BRANCH  25  26
ATOM     26  C   UNL A   1      32.586  32.777  27.317  1.00  0.00     0.116 C 
BRANCH  26  27
ATOM     27  N   UNL A   1      32.392  34.179  27.653  1.00  0.00    -0.352 N 
ATOM     28  C   UNL A   1      32.980  34.944  28.629  1.00  0.00     0.251 C 
ATOM     29  H   UNL A   1      31.736  34.654  27.092  1.00  0.00     0.163 HD
ATOM     30  O   UNL A   1      32.526  36.048  28.907  1.00  0.00    -0.269 OA
BRANCH  28  31
ATOM     31  C   UNL A   1      34.160  34.435  29.360  1.00  0.00     0.039 A 
ATOM     32  C   UNL A   1      33.974  33.841  30.611  1.00  0.00     0.014 A 
ATOM     33  C   UNL A   1      35.445  34.567  28.827  1.00  0.00     0.014 A 
ATOM     34  C   UNL A   1      35.071  33.316  31.298  1.00  0.00     0.010 A 
ATOM     35  C   UNL A   1      36.529  33.989  29.484  1.00  0.00     0.010 A 
ATOM     36  C   UNL A   1      36.351  33.353  30.721  1.00  0.00    -0.014 A 
BRANCH  36  37
ATOM     37  C   UNL A   1      37.510  32.702  31.381  1.00  0.00     0.031 A 
ATOM     38  C   UNL A   1      38.180  31.517  30.748  1.00  0.00     0.074 A 
ATOM     39  C   UNL A   1      37.900  33.129  32.597  1.00  0.00     0.049 A 
ATOM     40  N   UNL A   1      39.143  30.764  31.214  1.00  0.00    -0.248 NA
ATOM     41  C   UNL A   1      37.683  31.110  29.426  1.00  0.00     0.031 C 
ATOM     42  C   UNL A   1      37.289  34.235  33.337  1.00  0.00     0.029 A 
ATOM     43  N   UNL A   1      38.887  32.671  33.433  1.00  0.00    -0.354 N 
ATOM     44  C   UNL A   1      39.362  29.790  30.249  1.00  0.00     0.074 A 
ATOM     45  C   UNL A   1      38.394  30.015  29.196  1.00  0.00     0.031 C 
ATOM     46  C   UNL A   1      37.916  34.372  34.516  1.00  0.00     0.029 A 
ATOM     47  C   UNL A   1      38.946  33.344  34.628  1.00  0.00     0.049 A 
ATOM     48  H   UNL A   1      39.493  31.932  33.199  1.00  0.00     0.167 HD
ATOM     49  C   UNL A   1      40.299  28.811  30.235  1.00  0.00     0.037 A 
ATOM     50  C   UNL A   1      39.732  33.143  35.704  1.00  0.00     0.037 A 
ATOM     51  C   UNL A   1      41.265  28.597  31.283  1.00  0.00     0.049 A 
ATOM     52  C   UNL A   1      40.758  32.046  35.670  1.00  0.00     0.074 A 
ATOM     53  C   UNL A   1      42.295  27.675  31.333  1.00  0.00     0.029 A 
ATOM     54  N   UNL A   1      41.310  29.314  32.470  1.00  0.00    -0.354 N 
ATOM     55  N   UNL A   1      41.006  31.177  34.721  1.00  0.00    -0.248 NA
ATOM     56  C   UNL A   1      41.617  31.904  36.854  1.00  0.00     0.031 C 
ATOM     57  C   UNL A   1      42.934  27.801  32.571  1.00  0.00     0.029 A 
ATOM     58  C   UNL A   1      42.333  28.834  33.274  1.00  0.00     0.049 A 
ATOM     59  H   UNL A   1      40.705  30.053  32.708  1.00  0.00     0.167 HD
ATOM     60  C   UNL A   1      42.054  30.394  35.184  1.00  0.00     0.074 A 
ATOM     61  C   UNL A   1      42.410  30.905  36.492  1.00  0.00     0.031 C 
ATOM     62  C   UNL A   1      42.665  29.345  34.580  1.00  0.00     0.037 A 
BRANCH  49  63
ATOM     63  C   UNL A   1      40.319  27.895  29.044  1.00  0.00     0.064 A 
ATOM     64  C   UNL A   1      39.596  26.692  29.030  1.00  0.00     0.173 A 
ATOM     65  C   UNL A   1      41.056  28.231  27.898  1.00  0.00     0.173 A 
ATOM     66  F   UNL A   1      38.883  26.321  30.104  1.00  0.00    -0.203 F 
ATOM     67  C   UNL A   1      39.640  25.841  27.929  1.00  0.00     0.198 A 
ATOM     68  C   UNL A   1      41.073  27.391  26.787  1.00  0.00     0.198 A 
ATOM     69  F   UNL A   1      41.759  29.372  27.855  1.00  0.00    -0.203 F 
ATOM     70  F   UNL A   1      38.988  24.671  27.963  1.00  0.00    -0.200 F 
ATOM     71  C   UNL A   1      40.375  26.194  26.807  1.00  0.00     0.200 A 
ATOM     72  F   UNL A   1      41.773  27.738  25.698  1.00  0.00    -0.200 F 
ATOM     73  F   UNL A   1      40.417  25.373  25.748  1.00  0.00    -0.200 F 
ENDBRANCH  49  63
BRANCH  50  74
ATOM     74  C   UNL A   1      39.575  34.017  36.895  1.00  0.00     0.064 A 
ATOM     75  C   UNL A   1      40.171  35.283  36.944  1.00  0.00     0.173 A 
ATOM     76  C   UNL A   1      38.799  33.615  37.992  1.00  0.00     0.173 A 
ATOM     77  F   UNL A   1      40.937  35.702  35.926  1.00  0.00    -0.203 F 
ATOM     78  C   UNL A   1      40.004  36.113  38.050  1.00  0.00     0.198 A 
ATOM     79  C   UNL A   1      38.611  34.457  39.086  1.00  0.00     0.198 A 
ATOM     80  F   UNL A   1      38.202  32.414  37.989  1.00  0.00    -0.203 F 
ATOM     81  F   UNL A   1      40.611  37.308  38.085  1.00  0.00    -0.200 F 
ATOM     82  C   UNL A   1      39.219  35.703  39.117  1.00  0.00     0.200 A 
ATOM     83  F   UNL A   1      37.839  34.063  40.108  1.00  0.00    -0.200 F 
ATOM     84  F   UNL A   1      39.048  36.509  40.174  1.00  0.00    -0.200 F 
ENDBRANCH  50  74
BRANCH  62  85
ATOM     85  C   UNL A   1      43.783  28.680  35.328  1.00  0.00     0.064 A 
ATOM     86  C   UNL A   1      45.118  29.071  35.150  1.00  0.00     0.173 A 
ATOM     87  C   UNL A   1      43.513  27.669  36.264  1.00  0.00     0.173 A 
ATOM     88  F   UNL A   1      45.429  30.021  34.254  1.00  0.00    -0.203 F 
ATOM     89  C   UNL A   1      46.144  28.461  35.866  1.00  0.00     0.198 A 
ATOM     90  C   UNL A   1      44.539  27.080  36.999  1.00  0.00     0.198 A 
ATOM     91  F   UNL A   1      42.252  27.261  36.474  1.00  0.00    -0.203 F 
ATOM     92  F   UNL A   1      47.416  28.822  35.650  1.00  0.00    -0.200 F 
ATOM     93  C   UNL A   1      45.854  27.473  36.795  1.00  0.00     0.200 A 
ATOM     94  F   UNL A   1      44.255  26.134  37.904  1.00  0.00    -0.200 F 
ATOM     95  F   UNL A   1      46.841  26.893  37.490  1.00  0.00    -0.200 F 
ENDBRANCH  62  85
ENDBRANCH  36  37
ENDBRANCH  28  31
ENDBRANCH  26  27
ENDBRANCH  25  26
ENDBRANCH  24  25
ENDBRANCH   1  24
TORSDOF 18
ENDMDL
MODEL 2
REMARK VINA RESULT:     -11.4      5.829     11.191
REMARK SMILES CCC(CC)([NH2+]Cc1ccc(I)cc1)C(=O)NCCCCCCNC(=O)c1ccc(-c2c3nc(c(-c4c(F)c(F)c(F)c(F)c4F)c4ccc([nH]4)c(-c4c(F)c(F)c(F)c(F)c4F)c4nc(c(-c5c(F)c(F)c(F)c(F)c5F)c5ccc2[nH]5)C=C4)C=C3)cc1
REMARK SMILES IDX 20 1 19 2 18 3 17 4 15 5 16 6 3 8 2 9 1 10 4 11 5 12 6 13
REMARK SMILES IDX 7 16 8 17 9 18 14 19 10 20 13 21 11 22 12 23 21 24 22 25
REMARK SMILES IDX 23 26 24 27 25 28 26 30 27 31 28 32 89 33 29 34 88 35 30 36
REMARK SMILES IDX 31 37 32 38 82 39 33 40 87 41 81 42 83 43 34 44 86 45 80 46
REMARK SMILES IDX 79 47 35 49 67 50 47 51 66 52 48 53 51 54 65 55 84 56 49 57
REMARK SMILES IDX 50 58 64 60 85 61 52 62 36 63 37 64 45 65 38 66 39 67 43 68
REMARK SMILES IDX 46 69 40 70 41 71 44 72 42 73 68 74 69 75 77 76 70 77 71 78
REMARK SMILES IDX 75 79 78 80 72 81 73 82 76 83 74 84 53 85 54 86 62 87 55 88
REMARK SMILES IDX 56 89 60 90 63 91 57 92 58 93 61 94 59 95
REMARK H PARENT 17 7 6 14 6 15 24 29 83 48 51 59
REMARK Flexibility Score: inf
ROOT
ATOM      1  C   UNL A   1      37.026  21.996  24.284  1.00  0.00     0.002 C 
ENDROOT
BRANCH   1   2
ATOM      2  C   UNL A   1      35.789  22.654  23.668  1.00  0.00     0.021 C 
BRANCH   2   3
ATOM      3  C   UNL A   1      35.170  23.763  24.534  1.00  0.00     0.116 C 
BRANCH   3   4
ATOM      4  N   UNL A   1      34.424  24.680  23.705  1.00  0.00    -0.351 N 
ATOM      5  C   UNL A   1      33.106  24.846  23.422  1.00  0.00     0.281 C 
ATOM      6  O   UNL A   1      32.929  25.568  22.428  1.00  0.00    -0.268 OA
ATOM      7  H   UNL A   1      34.998  25.330  23.240  1.00  0.00     0.163 HD
BRANCH   5   8
ATOM      8  C   UNL A   1      31.880  24.318  24.279  1.00  0.00     0.175 C 
BRANCH   8   9
ATOM      9  C   UNL A   1      30.589  24.829  23.500  1.00  0.00     0.076 C 
ATOM     10  C   UNL A   1      29.841  26.014  24.123  1.00  0.00     0.011 C 
ENDBRANCH   8   9
BRANCH   8  11
ATOM     11  C   UNL A   1      31.855  24.946  25.694  1.00  0.00     0.076 C 
ATOM     12  C   UNL A   1      32.098  23.947  26.833  1.00  0.00     0.011 C 
ENDBRANCH   8  11
BRANCH   8  13
ATOM     13  N   UNL A   1      31.679  22.844  24.262  1.00  0.00    -0.330 N 
ATOM     14  H   UNL A   1      30.666  22.725  24.246  1.00  0.00     0.347 HD
ATOM     15  H   UNL A   1      32.292  22.606  25.042  1.00  0.00     0.347 HD
BRANCH  13  16
ATOM     16  C   UNL A   1      32.170  21.869  23.310  1.00  0.00     0.298 C 
BRANCH  16  17
ATOM     17  C   UNL A   1      32.477  20.433  23.732  1.00  0.00     0.006 A 
ATOM     18  C   UNL A   1      32.728  20.163  25.090  1.00  0.00     0.010 A 
ATOM     19  C   UNL A   1      32.393  19.316  22.894  1.00  0.00     0.010 A 
ATOM     20  C   UNL A   1      32.903  18.851  25.567  1.00  0.00     0.015 A 
ATOM     21  C   UNL A   1      32.573  18.004  23.348  1.00  0.00     0.015 A 
ATOM     22  C   UNL A   1      32.825  17.774  24.689  1.00  0.00     0.013 A 
ATOM     23  I   UNL A   1      33.049  15.828  25.376  1.00  0.00    -0.044 I 
ENDBRANCH  16  17
ENDBRANCH  13  16
ENDBRANCH   8  13
ENDBRANCH   5   8
ENDBRANCH   3   4
ENDBRANCH   2   3
ENDBRANCH   1   2
BRANCH   1  24
ATOM     24  C   UNL A   1      36.755  20.643  24.949  1.00  0.00     0.002 C 
BRANCH  24  25
ATOM     25  C   UNL A   1      37.949  19.684  25.003  1.00  0.00     0.021 C 
BRANCH  25  26
ATOM     26  C   UNL A   1      39.170  20.212  25.752  1.00  0.00     0.116 C 
BRANCH  26  27
ATOM     27  N   UNL A   1      40.186  19.186  25.932  1.00  0.00    -0.352 N 
ATOM     28  C   UNL A   1      41.540  19.305  26.122  1.00  0.00     0.251 C 
ATOM     29  H   UNL A   1      39.849  18.260  25.914  1.00  0.00     0.163 HD
ATOM     30  O   UNL A   1      42.266  18.322  26.028  1.00  0.00    -0.269 OA
BRANCH  28  31
ATOM     31  C   UNL A   1      42.132  20.625  26.430  1.00  0.00     0.039 A 
ATOM     32  C   UNL A   1      42.575  21.428  25.376  1.00  0.00     0.014 A 
ATOM     33  C   UNL A   1      42.276  21.054  27.751  1.00  0.00     0.014 A 
ATOM     34  C   UNL A   1      43.098  22.694  25.644  1.00  0.00     0.010 A 
ATOM     35  C   UNL A   1      42.740  22.341  28.014  1.00  0.00     0.010 A 
ATOM     36  C   UNL A   1      43.149  23.175  26.962  1.00  0.00    -0.014 A 
BRANCH  36  37
ATOM     37  C   UNL A   1      43.595  24.558  27.259  1.00  0.00     0.031 A 
ATOM     38  C   UNL A   1      42.618  25.584  27.754  1.00  0.00     0.074 A 
ATOM     39  C   UNL A   1      44.868  24.910  26.997  1.00  0.00     0.049 A 
ATOM     40  N   UNL A   1      42.800  26.860  27.981  1.00  0.00    -0.248 NA
ATOM     41  C   UNL A   1      41.245  25.119  28.003  1.00  0.00     0.031 C 
ATOM     42  C   UNL A   1      45.895  24.015  26.461  1.00  0.00     0.029 A 
ATOM     43  N   UNL A   1      45.509  26.117  27.123  1.00  0.00    -0.354 N 
ATOM     44  C   UNL A   1      41.568  27.351  28.390  1.00  0.00     0.074 A 
ATOM     45  C   UNL A   1      40.633  26.248  28.327  1.00  0.00     0.031 C 
ATOM     46  C   UNL A   1      47.038  24.702  26.307  1.00  0.00     0.029 A 
ATOM     47  C   UNL A   1      46.814  26.090  26.699  1.00  0.00     0.049 A 
ATOM     48  H   UNL A   1      45.075  26.923  27.483  1.00  0.00     0.167 HD
ATOM     49  C   UNL A   1      41.252  28.604  28.798  1.00  0.00     0.037 A 
ATOM     50  C   UNL A   1      47.726  27.078  26.618  1.00  0.00     0.037 A 
ATOM     51  C   UNL A   1      42.189  29.696  28.866  1.00  0.00     0.049 A 
ATOM     52  C   UNL A   1      47.351  28.462  27.069  1.00  0.00     0.074 A 
ATOM     53  C   UNL A   1      41.983  30.985  29.327  1.00  0.00     0.029 A 
ATOM     54  N   UNL A   1      43.511  29.627  28.450  1.00  0.00    -0.354 N 
ATOM     55  N   UNL A   1      46.202  28.898  27.524  1.00  0.00    -0.248 NA
ATOM     56  C   UNL A   1      48.400  29.488  27.000  1.00  0.00     0.031 C 
ATOM     57  C   UNL A   1      43.167  31.708  29.146  1.00  0.00     0.029 A 
ATOM     58  C   UNL A   1      44.125  30.859  28.615  1.00  0.00     0.049 A 
ATOM     59  H   UNL A   1      43.948  28.821  28.089  1.00  0.00     0.167 HD
ATOM     60  C   UNL A   1      46.390  30.245  27.807  1.00  0.00     0.074 A 
ATOM     61  C   UNL A   1      47.771  30.547  27.492  1.00  0.00     0.031 C 
ATOM     62  C   UNL A   1      45.498  31.147  28.283  1.00  0.00     0.037 A 
BRANCH  49  63
ATOM     63  C   UNL A   1      39.827  28.857  29.204  1.00  0.00     0.064 A 
ATOM     64  C   UNL A   1      38.866  29.292  28.278  1.00  0.00     0.173 A 
ATOM     65  C   UNL A   1      39.414  28.646  30.528  1.00  0.00     0.173 A 
ATOM     66  F   UNL A   1      39.212  29.518  27.002  1.00  0.00    -0.203 F 
ATOM     67  C   UNL A   1      37.554  29.544  28.671  1.00  0.00     0.198 A 
ATOM     68  C   UNL A   1      38.093  28.869  30.910  1.00  0.00     0.198 A 
ATOM     69  F   UNL A   1      40.288  28.223  31.452  1.00  0.00    -0.203 F 
ATOM     70  F   UNL A   1      36.670  30.015  27.781  1.00  0.00    -0.200 F 
ATOM     71  C   UNL A   1      37.168  29.328  29.985  1.00  0.00     0.200 A 
ATOM     72  F   UNL A   1      37.717  28.648  32.177  1.00  0.00    -0.200 F 
ATOM     73  F   UNL A   1      35.905  29.571  30.361  1.00  0.00    -0.200 F 
ENDBRANCH  49  63
BRANCH  50  74
ATOM     74  C   UNL A   1      49.083  26.778  26.096  1.00  0.00     0.064 A 
ATOM     75  C   UNL A   1      50.061  26.205  26.918  1.00  0.00     0.173 A 
ATOM     76  C   UNL A   1      49.417  27.027  24.756  1.00  0.00     0.173 A 
ATOM     77  F   UNL A   1      49.794  25.966  28.210  1.00  0.00    -0.203 F 
ATOM     78  C   UNL A   1      51.328  25.900  26.423  1.00  0.00     0.198 A 
ATOM     79  C   UNL A   1      50.674  26.697  24.255  1.00  0.00     0.198 A 
ATOM     80  F   UNL A   1      48.512  27.568  23.928  1.00  0.00    -0.203 F 
ATOM     81  F   UNL A   1      52.256  25.381  27.238  1.00  0.00    -0.200 F 
ATOM     82  C   UNL A   1      51.631  26.139  25.091  1.00  0.00     0.200 A 
ATOM     83  F   UNL A   1      50.958  26.916  22.965  1.00  0.00    -0.200 F 
ATOM     84  F   UNL A   1      52.844  25.832  24.613  1.00  0.00    -0.200 F 
ENDBRANCH  50  74
BRANCH  62  85
ATOM     85  C   UNL A   1      45.988  32.550  28.494  1.00  0.00     0.064 A 
ATOM     86  C   UNL A   1      46.581  32.944  29.702  1.00  0.00     0.173 A 
ATOM     87  C   UNL A   1      45.903  33.498  27.463  1.00  0.00     0.173 A 
ATOM     88  F   UNL A   1      46.670  32.079  30.724  1.00  0.00    -0.203 F 
ATOM     89  C   UNL A   1      47.052  34.243  29.878  1.00  0.00     0.198 A 
ATOM     90  C   UNL A   1      46.400  34.787  27.632  1.00  0.00     0.198 A 
ATOM     91  F   UNL A   1      45.348  33.169  26.287  1.00  0.00    -0.203 F 
ATOM     92  F   UNL A   1      47.577  34.609  31.055  1.00  0.00    -0.200 F 
ATOM     93  C   UNL A   1      46.969  35.160  28.842  1.00  0.00     0.200 A 
ATOM     94  F   UNL A   1      46.329  35.669  26.626  1.00  0.00    -0.200 F 
ATOM     95  F   UNL A   1      47.431  36.406  29.009  1.00  0.00    -0.200 F 
ENDBRANCH  62  85
ENDBRANCH  36  37
ENDBRANCH  28  31
ENDBRANCH  26  27
ENDBRANCH  25  26
ENDBRANCH  24  25
ENDBRANCH   1  24
TORSDOF 18
ENDMDL
MODEL 3
REMARK VINA RESULT:     -11.2      1.974      3.081
REMARK SMILES CCC(CC)([NH2+]Cc1ccc(I)cc1)C(=O)NCCCCCCNC(=O)c1ccc(-c2c3nc(c(-c4c(F)c(F)c(F)c(F)c4F)c4ccc([nH]4)c(-c4c(F)c(F)c(F)c(F)c4F)c4nc(c(-c5c(F)c(F)c(F)c(F)c5F)c5ccc2[nH]5)C=C4)C=C3)cc1
REMARK SMILES IDX 20 1 19 2 18 3 17 4 15 5 16 6 3 8 2 9 1 10 4 11 5 12 6 13
REMARK SMILES IDX 7 16 8 17 9 18 14 19 10 20 13 21 11 22 12 23 21 24 22 25
REMARK SMILES IDX 23 26 24 27 25 28 26 30 27 31 28 32 89 33 29 34 88 35 30 36
REMARK SMILES IDX 31 37 32 38 82 39 33 40 87 41 81 42 83 43 34 44 86 45 80 46
REMARK SMILES IDX 79 47 35 49 67 50 47 51 66 52 48 53 51 54 65 55 84 56 49 57
REMARK SMILES IDX 50 58 64 60 85 61 52 62 36 63 37 64 45 65 38 66 39 67 43 68
REMARK SMILES IDX 46 69 40 70 41 71 44 72 42 73 68 74 69 75 77 76 70 77 71 78
REMARK SMILES IDX 75 79 78 80 72 81 73 82 76 83 74 84 53 85 54 86 62 87 55 88
REMARK SMILES IDX 56 89 60 90 63 91 57 92 58 93 61 94 59 95
REMARK H PARENT 17 7 6 14 6 15 24 29 83 48 51 59
REMARK Flexibility Score: inf
ROOT
ATOM      1  C   UNL A   1      32.322  29.648  27.190  1.00  0.00     0.002 C 
ENDROOT
BRANCH   1   2
ATOM      2  C   UNL A   1      31.643  28.325  27.550  1.00  0.00     0.021 C 
BRANCH   2   3
ATOM      3  C   UNL A   1      32.026  27.151  26.634  1.00  0.00     0.116 C 
BRANCH   3   4
ATOM      4  N   UNL A   1      31.209  26.000  26.936  1.00  0.00    -0.351 N 
ATOM      5  C   UNL A   1      31.048  24.776  26.371  1.00  0.00     0.281 C 
ATOM      6  O   UNL A   1      30.024  24.204  26.778  1.00  0.00    -0.268 OA
ATOM      7  H   UNL A   1      30.639  26.132  27.729  1.00  0.00     0.163 HD
BRANCH   5   8
ATOM      8  C   UNL A   1      32.063  24.043  25.396  1.00  0.00     0.175 C 
BRANCH   8   9
ATOM      9  C   UNL A   1      31.486  22.567  25.244  1.00  0.00     0.076 C 
ATOM     10  C   UNL A   1      32.510  21.461  24.959  1.00  0.00     0.011 C 
ENDBRANCH   8   9
BRANCH   8  11
ATOM     11  C   UNL A   1      33.477  23.934  26.016  1.00  0.00     0.076 C 
ATOM     12  C   UNL A   1      34.561  24.714  25.259  1.00  0.00     0.011 C 
ENDBRANCH   8  11
BRANCH   8  13
ATOM     13  N   UNL A   1      32.049  24.519  23.987  1.00  0.00    -0.330 N 
ATOM     14  H   UNL A   1      31.079  24.407  23.691  1.00  0.00     0.347 HD
ATOM     15  H   UNL A   1      32.840  23.976  23.643  1.00  0.00     0.347 HD
BRANCH  13  16
ATOM     16  C   UNL A   1      32.439  25.810  23.459  1.00  0.00     0.298 C 
BRANCH  16  17
ATOM     17  C   UNL A   1      31.404  26.900  23.182  1.00  0.00     0.006 A 
ATOM     18  C   UNL A   1      30.053  26.646  23.483  1.00  0.00     0.010 A 
ATOM     19  C   UNL A   1      31.703  28.206  22.780  1.00  0.00     0.010 A 
ATOM     20  C   UNL A   1      29.065  27.640  23.362  1.00  0.00     0.015 A 
ATOM     21  C   UNL A   1      30.733  29.206  22.647  1.00  0.00     0.015 A 
ATOM     22  C   UNL A   1      29.412  28.920  22.943  1.00  0.00     0.013 A 
ATOM     23  I   UNL A   1      27.976  30.412  22.789  1.00  0.00    -0.044 I 
ENDBRANCH  16  17
ENDBRANCH  13  16
ENDBRANCH   8  13
ENDBRANCH   5   8
ENDBRANCH   3   4
ENDBRANCH   2   3
ENDBRANCH   1   2
BRANCH   1  24
ATOM     24  C   UNL A   1      31.555  30.492  26.167  1.00  0.00     0.002 C 
BRANCH  24  25
ATOM     25  C   UNL A   1      31.425  31.981  26.506  1.00  0.00     0.021 C 
BRANCH  25  26
ATOM     26  C   UNL A   1      32.640  32.598  27.194  1.00  0.00     0.116 C 
BRANCH  26  27
ATOM     27  N   UNL A   1      32.419  33.993  27.543  1.00  0.00    -0.352 N 
ATOM     28  C   UNL A   1      32.999  34.763  28.520  1.00  0.00     0.251 C 
ATOM     29  H   UNL A   1      31.748  34.458  26.991  1.00  0.00     0.163 HD
ATOM     30  O   UNL A   1      32.523  35.854  28.810  1.00  0.00    -0.269 OA
BRANCH  28  31
ATOM     31  C   UNL A   1      34.196  34.273  29.237  1.00  0.00     0.039 A 
ATOM     32  C   UNL A   1      34.026  33.577  30.437  1.00  0.00     0.014 A 
ATOM     33  C   UNL A   1      35.479  34.523  28.744  1.00  0.00     0.014 A 
ATOM     34  C   UNL A   1      35.142  33.071  31.107  1.00  0.00     0.010 A 
ATOM     35  C   UNL A   1      36.585  33.965  29.379  1.00  0.00     0.010 A 
ATOM     36  C   UNL A   1      36.426  33.229  30.562  1.00  0.00    -0.014 A 
BRANCH  36  37
ATOM     37  C   UNL A   1      37.612  32.602  31.197  1.00  0.00     0.031 A 
ATOM     38  C   UNL A   1      38.322  31.462  30.526  1.00  0.00     0.074 A 
ATOM     39  C   UNL A   1      37.993  33.008  32.423  1.00  0.00     0.049 A 
ATOM     40  N   UNL A   1      39.315  30.732  30.966  1.00  0.00    -0.248 NA
ATOM     41  C   UNL A   1      37.833  31.075  29.195  1.00  0.00     0.031 C 
ATOM     42  C   UNL A   1      37.346  34.068  33.198  1.00  0.00     0.029 A 
ATOM     43  N   UNL A   1      39.000  32.562  33.241  1.00  0.00    -0.354 N 
ATOM     44  C   UNL A   1      39.565  29.796  29.972  1.00  0.00     0.074 A 
ATOM     45  C   UNL A   1      38.583  30.015  28.931  1.00  0.00     0.031 C 
ATOM     46  C   UNL A   1      37.974  34.193  34.378  1.00  0.00     0.029 A 
ATOM     47  C   UNL A   1      39.042  33.202  34.455  1.00  0.00     0.049 A 
ATOM     48  H   UNL A   1      39.632  31.854  32.983  1.00  0.00     0.167 HD
ATOM     49  C   UNL A   1      40.537  28.853  29.925  1.00  0.00     0.037 A 
ATOM     50  C   UNL A   1      39.840  32.999  35.522  1.00  0.00     0.037 A 
ATOM     51  C   UNL A   1      41.515  28.645  30.961  1.00  0.00     0.049 A 
ATOM     52  C   UNL A   1      40.906  31.943  35.451  1.00  0.00     0.074 A 
ATOM     53  C   UNL A   1      42.579  27.760  30.980  1.00  0.00     0.029 A 
ATOM     54  N   UNL A   1      41.541  29.327  32.169  1.00  0.00    -0.354 N 
ATOM     55  N   UNL A   1      41.181  31.112  34.475  1.00  0.00    -0.248 NA
ATOM     56  C   UNL A   1      41.776  31.798  36.626  1.00  0.00     0.031 C 
ATOM     57  C   UNL A   1      43.221  27.874  32.219  1.00  0.00     0.029 A 
ATOM     58  C   UNL A   1      42.586  28.862  32.954  1.00  0.00     0.049 A 
ATOM     59  H   UNL A   1      40.911  30.037  32.432  1.00  0.00     0.167 HD
ATOM     60  C   UNL A   1      42.260  30.354  34.910  1.00  0.00     0.074 A 
ATOM     61  C   UNL A   1      42.603  30.840  36.231  1.00  0.00     0.031 C 
ATOM     62  C   UNL A   1      42.906  29.347  34.273  1.00  0.00     0.037 A 
BRANCH  49  63
ATOM     63  C   UNL A   1      40.584  27.974  28.708  1.00  0.00     0.064 A 
ATOM     64  C   UNL A   1      39.887  26.757  28.653  1.00  0.00     0.173 A 
ATOM     65  C   UNL A   1      41.321  28.359  27.578  1.00  0.00     0.173 A 
ATOM     66  F   UNL A   1      39.175  26.339  29.710  1.00  0.00    -0.203 F 
ATOM     67  C   UNL A   1      39.957  25.940  27.527  1.00  0.00     0.198 A 
ATOM     68  C   UNL A   1      41.363  27.553  26.442  1.00  0.00     0.198 A 
ATOM     69  F   UNL A   1      42.000  29.515  27.573  1.00  0.00    -0.203 F 
ATOM     70  F   UNL A   1      39.329  24.756  27.521  1.00  0.00    -0.200 F 
ATOM     71  C   UNL A   1      40.691  26.341  26.421  1.00  0.00     0.200 A 
ATOM     72  F   UNL A   1      42.063  27.947  25.369  1.00  0.00    -0.200 F 
ATOM     73  F   UNL A   1      40.757  25.554  25.339  1.00  0.00    -0.200 F 
ENDBRANCH  49  63
BRANCH  50  74
ATOM     74  C   UNL A   1      39.658  33.831  36.738  1.00  0.00     0.064 A 
ATOM     75  C   UNL A   1      40.254  35.093  36.844  1.00  0.00     0.173 A 
ATOM     76  C   UNL A   1      38.857  33.394  37.803  1.00  0.00     0.173 A 
ATOM     77  F   UNL A   1      41.044  35.546  35.860  1.00  0.00    -0.203 F 
ATOM     78  C   UNL A   1      40.064  35.885  37.975  1.00  0.00     0.198 A 
ATOM     79  C   UNL A   1      38.645  34.197  38.921  1.00  0.00     0.198 A 
ATOM     80  F   UNL A   1      38.258  32.195  37.745  1.00  0.00    -0.203 F 
ATOM     81  F   UNL A   1      40.671  37.077  38.066  1.00  0.00    -0.200 F 
ATOM     82  C   UNL A   1      39.254  35.440  39.009  1.00  0.00     0.200 A 
ATOM     83  F   UNL A   1      37.849  33.770  39.911  1.00  0.00    -0.200 F 
ATOM     84  F   UNL A   1      39.060  36.209  40.089  1.00  0.00    -0.200 F 
ENDBRANCH  50  74
BRANCH  62  85
ATOM     85  C   UNL A   1      44.051  28.702  34.997  1.00  0.00     0.064 A 
ATOM     86  C   UNL A   1      45.358  29.201  34.891  1.00  0.00     0.173 A 
ATOM     87  C   UNL A   1      43.835  27.599  35.837  1.00  0.00     0.173 A 
ATOM     88  F   UNL A   1      45.619  30.243  34.086  1.00  0.00    -0.203 F 
ATOM     89  C   UNL A   1      46.409  28.607  35.584  1.00  0.00     0.198 A 
ATOM     90  C   UNL A   1      44.883  27.025  36.550  1.00  0.00     0.198 A 
ATOM     91  F   UNL A   1      42.603  27.087  35.975  1.00  0.00    -0.203 F 
ATOM     92  F   UNL A   1      47.656  29.075  35.436  1.00  0.00    -0.200 F 
ATOM     93  C   UNL A   1      46.171  27.526  36.419  1.00  0.00     0.200 A 
ATOM     94  F   UNL A   1      44.649  25.988  37.365  1.00  0.00    -0.200 F 
ATOM     95  F   UNL A   1      47.181  26.962  37.092  1.00  0.00    -0.200 F 
ENDBRANCH  62  85
ENDBRANCH  36  37
ENDBRANCH  28  31
ENDBRANCH  26  27
ENDBRANCH  25  26
ENDBRANCH  24  25
ENDBRANCH   1  24
TORSDOF 18
ENDMDL
