MODEL 1
REMARK VINA RESULT:     -12.0      0.000      0.000
REMARK SMILES O=C(NCCCCCCNC(=O)[C@@H]1C[NH2+]C[C@H]1c1ccncc1)c1ccc(-c2c3nc(c(-c4c(F)c(F)c(F)c(F)c4F)c4ccc([nH]4)c(-c4c(F)c(F)c(F)c(F)c4F)c4nc(c(-c5c(F)c(F)c(F)c(F)c5F)c5ccc2[nH]5)C=C4)C=C3)cc1
REMARK SMILES IDX 6 1 5 2 4 3 3 4 1 5 2 6 24 8 25 9 86 10 26 11 85 12 27 13
REMARK SMILES IDX 28 14 29 15 79 16 30 17 84 18 78 19 80 20 31 21 83 22 77 23
REMARK SMILES IDX 76 24 32 26 64 27 44 28 63 29 45 30 48 31 62 32 81 33 46 34
REMARK SMILES IDX 47 35 61 37 82 38 49 39 33 40 34 41 42 42 35 43 36 44 40 45
REMARK SMILES IDX 43 46 37 47 38 48 41 49 39 50 65 51 66 52 74 53 67 54 68 55
REMARK SMILES IDX 72 56 75 57 69 58 70 59 73 60 71 61 50 62 51 63 59 64 52 65
REMARK SMILES IDX 53 66 57 67 60 68 54 69 55 70 58 71 56 72 7 73 8 74 9 75
REMARK SMILES IDX 10 76 11 77 12 79 13 80 14 81 17 82 15 83 16 84 18 87 19 88
REMARK SMILES IDX 23 89 20 90 22 91 21 92
REMARK H PARENT 3 7 80 25 48 36 10 78 15 85 15 86
REMARK Flexibility Score: inf
ROOT
ATOM      1  C   UNL A   1      31.651  30.371  25.948  1.00  0.00     0.002 C 
ENDROOT
BRANCH   1   2
ATOM      2  C   UNL A   1      31.403  31.770  26.509  1.00  0.00     0.021 C 
BRANCH   2   3
ATOM      3  C   UNL A   1      32.614  32.433  27.152  1.00  0.00     0.116 C 
BRANCH   3   4
ATOM      4  N   UNL A   1      32.379  33.821  27.513  1.00  0.00    -0.352 N 
ATOM      5  O   UNL A   1      32.614  35.718  28.717  1.00  0.00    -0.269 OA
ATOM      6  C   UNL A   1      33.027  34.594  28.447  1.00  0.00     0.251 C 
ATOM      7  H   UNL A   1      31.656  34.271  27.020  1.00  0.00     0.163 HD
BRANCH   6   8
ATOM      8  C   UNL A   1      34.208  34.054  29.153  1.00  0.00     0.039 A 
ATOM      9  C   UNL A   1      35.495  34.495  28.835  1.00  0.00     0.014 A 
ATOM     10  C   UNL A   1      34.026  33.081  30.142  1.00  0.00     0.014 A 
ATOM     11  C   UNL A   1      36.599  33.855  29.386  1.00  0.00     0.010 A 
ATOM     12  C   UNL A   1      35.137  32.500  30.760  1.00  0.00     0.010 A 
ATOM     13  C   UNL A   1      36.434  32.854  30.358  1.00  0.00    -0.014 A 
BRANCH  13  14
ATOM     14  C   UNL A   1      37.637  32.224  30.960  1.00  0.00     0.031 A 
ATOM     15  C   UNL A   1      38.078  32.562  32.357  1.00  0.00     0.074 A 
ATOM     16  C   UNL A   1      38.310  31.302  30.245  1.00  0.00     0.049 A 
ATOM     17  N   UNL A   1      39.070  32.062  33.052  1.00  0.00    -0.248 NA
ATOM     18  C   UNL A   1      37.317  33.600  33.066  1.00  0.00     0.031 C 
ATOM     19  C   UNL A   1      37.986  30.904  28.873  1.00  0.00     0.029 A 
ATOM     20  N   UNL A   1      39.384  30.517  30.575  1.00  0.00    -0.354 N 
ATOM     21  C   UNL A   1      39.067  32.740  34.264  1.00  0.00     0.074 A 
ATOM     22  C   UNL A   1      37.988  33.703  34.204  1.00  0.00     0.031 C 
ATOM     23  C   UNL A   1      38.803  29.908  28.501  1.00  0.00     0.029 A 
ATOM     24  C   UNL A   1      39.743  29.637  29.583  1.00  0.00     0.049 A 
ATOM     25  H   UNL A   1      39.853  30.578  31.438  1.00  0.00     0.167 HD
ATOM     26  C   UNL A   1      39.887  32.568  35.331  1.00  0.00     0.037 A 
ATOM     27  C   UNL A   1      40.723  28.715  29.546  1.00  0.00     0.037 A 
ATOM     28  C   UNL A   1      40.941  31.589  35.397  1.00  0.00     0.049 A 
ATOM     29  C   UNL A   1      41.615  28.550  30.743  1.00  0.00     0.074 A 
ATOM     30  C   UNL A   1      41.788  31.301  36.454  1.00  0.00     0.029 A 
ATOM     31  N   UNL A   1      41.296  30.737  34.360  1.00  0.00    -0.354 N 
ATOM     32  N   UNL A   1      41.571  29.166  31.898  1.00  0.00    -0.248 NA
ATOM     33  C   UNL A   1      42.695  27.562  30.625  1.00  0.00     0.031 C 
ATOM     34  C   UNL A   1      42.684  30.307  36.041  1.00  0.00     0.029 A 
ATOM     35  C   UNL A   1      42.365  29.942  34.744  1.00  0.00     0.049 A 
ATOM     36  H   UNL A   1      40.854  30.703  33.481  1.00  0.00     0.167 HD
ATOM     37  C   UNL A   1      42.604  28.629  32.653  1.00  0.00     0.074 A 
ATOM     38  C   UNL A   1      43.244  27.623  31.829  1.00  0.00     0.031 C 
ATOM     39  C   UNL A   1      42.989  28.944  33.914  1.00  0.00     0.037 A 
BRANCH  26  40
ATOM     40  C   UNL A   1      39.691  33.472  36.514  1.00  0.00     0.064 A 
ATOM     41  C   UNL A   1      40.340  34.712  36.613  1.00  0.00     0.173 A 
ATOM     42  C   UNL A   1      38.805  33.111  37.541  1.00  0.00     0.173 A 
ATOM     43  F   UNL A   1      41.204  35.100  35.663  1.00  0.00    -0.203 F 
ATOM     44  C   UNL A   1      40.126  35.546  37.709  1.00  0.00     0.198 A 
ATOM     45  C   UNL A   1      38.575  33.959  38.622  1.00  0.00     0.198 A 
ATOM     46  F   UNL A   1      38.153  31.941  37.491  1.00  0.00    -0.203 F 
ATOM     47  F   UNL A   1      40.789  36.708  37.803  1.00  0.00    -0.200 F 
ATOM     48  C   UNL A   1      39.241  35.172  38.708  1.00  0.00     0.200 A 
ATOM     49  F   UNL A   1      37.709  33.602  39.580  1.00  0.00    -0.200 F 
ATOM     50  F   UNL A   1      39.032  35.979  39.757  1.00  0.00    -0.200 F 
ENDBRANCH  26  40
BRANCH  27  51
ATOM     51  C   UNL A   1      40.891  27.869  28.339  1.00  0.00     0.064 A 
ATOM     52  C   UNL A   1      41.692  28.293  27.271  1.00  0.00     0.173 A 
ATOM     53  C   UNL A   1      40.272  26.615  28.236  1.00  0.00     0.173 A 
ATOM     54  F   UNL A   1      42.290  29.493  27.317  1.00  0.00    -0.203 F 
ATOM     55  C   UNL A   1      41.859  27.499  26.137  1.00  0.00     0.198 A 
ATOM     56  C   UNL A   1      40.462  25.810  27.115  1.00  0.00     0.198 A 
ATOM     57  F   UNL A   1      39.500  26.162  29.234  1.00  0.00    -0.203 F 
ATOM     58  F   UNL A   1      42.601  27.943  25.115  1.00  0.00    -0.200 F 
ATOM     59  C   UNL A   1      41.249  26.255  26.064  1.00  0.00     0.200 A 
ATOM     60  F   UNL A   1      39.884  24.602  27.055  1.00  0.00    -0.200 F 
ATOM     61  F   UNL A   1      41.418  25.487  24.979  1.00  0.00    -0.200 F 
ENDBRANCH  27  51
BRANCH  39  62
ATOM     62  C   UNL A   1      44.138  28.168  34.486  1.00  0.00     0.064 A 
ATOM     63  C   UNL A   1      45.459  28.628  34.383  1.00  0.00     0.173 A 
ATOM     64  C   UNL A   1      43.913  26.958  35.160  1.00  0.00     0.173 A 
ATOM     65  F   UNL A   1      45.728  29.770  33.731  1.00  0.00    -0.203 F 
ATOM     66  C   UNL A   1      46.516  27.888  34.906  1.00  0.00     0.198 A 
ATOM     67  C   UNL A   1      44.969  26.236  35.707  1.00  0.00     0.198 A 
ATOM     68  F   UNL A   1      42.666  26.478  35.289  1.00  0.00    -0.203 F 
ATOM     69  F   UNL A   1      47.776  28.319  34.749  1.00  0.00    -0.200 F 
ATOM     70  C   UNL A   1      46.270  26.696  35.571  1.00  0.00     0.200 A 
ATOM     71  F   UNL A   1      44.729  25.089  36.357  1.00  0.00    -0.200 F 
ATOM     72  F   UNL A   1      47.289  25.985  36.074  1.00  0.00    -0.200 F 
ENDBRANCH  39  62
ENDBRANCH  13  14
ENDBRANCH   6   8
ENDBRANCH   3   4
ENDBRANCH   2   3
ENDBRANCH   1   2
BRANCH   1  73
ATOM     73  C   UNL A   1      31.918  29.280  26.989  1.00  0.00     0.002 C 
BRANCH  73  74
ATOM     74  C   UNL A   1      33.007  28.263  26.624  1.00  0.00     0.021 C 
BRANCH  74  75
ATOM     75  C   UNL A   1      32.519  27.048  25.838  1.00  0.00     0.116 C 
BRANCH  75  76
ATOM     76  N   UNL A   1      31.315  26.489  26.419  1.00  0.00    -0.356 N 
ATOM     77  C   UNL A   1      30.233  25.929  25.811  1.00  0.00     0.229 C 
ATOM     78  H   UNL A   1      31.272  26.519  27.402  1.00  0.00     0.163 HD
ATOM     79  O   UNL A   1      29.319  25.517  26.525  1.00  0.00    -0.275 OA
BRANCH  77  80
ATOM     80  C   UNL A   1      30.193  25.849  24.299  1.00  0.00     0.146 C 
ATOM     81  C   UNL A   1      31.219  24.833  23.829  1.00  0.00     0.274 C 
ATOM     82  C   UNL A   1      30.631  27.143  23.589  1.00  0.00     0.092 C 
ATOM     83  N   UNL A   1      31.407  25.144  22.411  1.00  0.00    -0.345 N 
ATOM     84  C   UNL A   1      31.350  26.617  22.326  1.00  0.00     0.269 C 
ATOM     85  H   UNL A   1      30.666  24.724  21.851  1.00  0.00     0.346 HD
ATOM     86  H   UNL A   1      32.290  24.777  22.054  1.00  0.00     0.346 HD
BRANCH  82  87
ATOM     87  C   UNL A   1      29.472  28.119  23.433  1.00  0.00    -0.035 A 
ATOM     88  C   UNL A   1      28.158  27.625  23.504  1.00  0.00     0.024 A 
ATOM     89  C   UNL A   1      29.618  29.491  23.222  1.00  0.00     0.024 A 
ATOM     90  C   UNL A   1      27.086  28.487  23.328  1.00  0.00     0.111 A 
ATOM     91  C   UNL A   1      28.481  30.279  23.070  1.00  0.00     0.111 A 
ATOM     92  N   UNL A   1      27.220  29.807  23.106  1.00  0.00    -0.265 NA
ENDBRANCH  82  87
ENDBRANCH  77  80
ENDBRANCH  75  76
ENDBRANCH  74  75
ENDBRANCH  73  74
ENDBRANCH   1  73
TORSDOF 14
ENDMDL
MODEL 2
REMARK VINA RESULT:     -12.0      1.828      3.311
REMARK SMILES O=C(NCCCCCCNC(=O)[C@@H]1C[NH2+]C[C@H]1c1ccncc1)c1ccc(-c2c3nc(c(-c4c(F)c(F)c(F)c(F)c4F)c4ccc([nH]4)c(-c4c(F)c(F)c(F)c(F)c4F)c4nc(c(-c5c(F)c(F)c(F)c(F)c5F)c5ccc2[nH]5)C=C4)C=C3)cc1
REMARK SMILES IDX 6 1 5 2 4 3 3 4 1 5 2 6 24 8 25 9 86 10 26 11 85 12 27 13
REMARK SMILES IDX 28 14 29 15 79 16 30 17 84 18 78 19 80 20 31 21 83 22 77 23
REMARK SMILES IDX 76 24 32 26 64 27 44 28 63 29 45 30 48 31 62 32 81 33 46 34
REMARK SMILES IDX 47 35 61 37 82 38 49 39 33 40 34 41 42 42 35 43 36 44 40 45
REMARK SMILES IDX 43 46 37 47 38 48 41 49 39 50 65 51 66 52 74 53 67 54 68 55
REMARK SMILES IDX 72 56 75 57 69 58 70 59 73 60 71 61 50 62 51 63 59 64 52 65
REMARK SMILES IDX 53 66 57 67 60 68 54 69 55 70 58 71 56 72 7 73 8 74 9 75
REMARK SMILES IDX 10 76 11 77 12 79 13 80 14 81 17 82 15 83 16 84 18 87 19 88
REMARK SMILES IDX 23 89 20 90 22 91 21 92
REMARK H PARENT 3 7 80 25 48 36 10 78 15 85 15 86
REMARK Flexibility Score: inf
ROOT
ATOM      1  C   UNL A   1      30.892  29.022  24.403  1.00  0.00     0.002 C 
ENDROOT
BRANCH   1   2
ATOM      2  C   UNL A   1      31.822  28.608  25.543  1.00  0.00     0.021 C 
BRANCH   2   3
ATOM      3  C   UNL A   1      33.017  29.525  25.767  1.00  0.00     0.116 C 
BRANCH   3   4
ATOM      4  N   UNL A   1      32.637  30.860  26.197  1.00  0.00    -0.352 N 
ATOM      5  O   UNL A   1      32.709  32.728  27.466  1.00  0.00    -0.269 OA
ATOM      6  C   UNL A   1      33.240  31.674  27.127  1.00  0.00     0.251 C 
ATOM      7  H   UNL A   1      31.837  31.234  25.762  1.00  0.00     0.163 HD
BRANCH   6   8
ATOM      8  C   UNL A   1      34.516  31.259  27.747  1.00  0.00     0.039 A 
ATOM      9  C   UNL A   1      34.718  29.937  28.151  1.00  0.00     0.014 A 
ATOM     10  C   UNL A   1      35.522  32.211  27.938  1.00  0.00     0.014 A 
ATOM     11  C   UNL A   1      35.853  29.606  28.883  1.00  0.00     0.010 A 
ATOM     12  C   UNL A   1      36.702  31.854  28.598  1.00  0.00     0.010 A 
ATOM     13  C   UNL A   1      36.860  30.558  29.111  1.00  0.00    -0.014 A 
BRANCH  13  14
ATOM     14  C   UNL A   1      38.080  30.157  29.858  1.00  0.00     0.031 A 
ATOM     15  C   UNL A   1      38.312  30.607  31.273  1.00  0.00     0.074 A 
ATOM     16  C   UNL A   1      38.966  29.339  29.256  1.00  0.00     0.049 A 
ATOM     17  N   UNL A   1      39.294  30.301  32.085  1.00  0.00    -0.248 NA
ATOM     18  C   UNL A   1      37.321  31.525  31.854  1.00  0.00     0.031 C 
ATOM     19  C   UNL A   1      38.856  28.850  27.880  1.00  0.00     0.029 A 
ATOM     20  N   UNL A   1      40.113  28.755  29.727  1.00  0.00    -0.354 N 
ATOM     21  C   UNL A   1      39.054  31.006  33.258  1.00  0.00     0.074 A 
ATOM     22  C   UNL A   1      37.844  31.773  33.046  1.00  0.00     0.031 C 
ATOM     23  C   UNL A   1      39.859  27.994  27.637  1.00  0.00     0.029 A 
ATOM     24  C   UNL A   1      40.711  27.917  28.818  1.00  0.00     0.049 A 
ATOM     25  H   UNL A   1      40.472  28.919  30.628  1.00  0.00     0.167 HD
ATOM     26  C   UNL A   1      39.774  31.006  34.406  1.00  0.00     0.037 A 
ATOM     27  C   UNL A   1      41.827  27.171  28.921  1.00  0.00     0.037 A 
ATOM     28  C   UNL A   1      40.961  30.219  34.622  1.00  0.00     0.049 A 
ATOM     29  C   UNL A   1      42.604  27.194  30.206  1.00  0.00     0.074 A 
ATOM     30  C   UNL A   1      41.729  30.109  35.769  1.00  0.00     0.029 A 
ATOM     31  N   UNL A   1      41.557  29.407  33.667  1.00  0.00    -0.354 N 
ATOM     32  N   UNL A   1      42.340  27.829  31.321  1.00  0.00    -0.248 NA
ATOM     33  C   UNL A   1      43.837  26.397  30.242  1.00  0.00     0.031 C 
ATOM     34  C   UNL A   1      42.813  29.267  35.494  1.00  0.00     0.029 A 
ATOM     35  C   UNL A   1      42.695  28.814  34.190  1.00  0.00     0.049 A 
ATOM     36  H   UNL A   1      41.220  29.272  32.751  1.00  0.00     0.167 HD
ATOM     37  C   UNL A   1      43.362  27.495  32.198  1.00  0.00     0.074 A 
ATOM     38  C   UNL A   1      44.240  26.585  31.490  1.00  0.00     0.031 C 
ATOM     39  C   UNL A   1      43.557  27.909  33.474  1.00  0.00     0.037 A 
BRANCH  26  40
ATOM     40  C   UNL A   1      39.311  31.901  35.520  1.00  0.00     0.064 A 
ATOM     41  C   UNL A   1      38.446  31.444  36.525  1.00  0.00     0.173 A 
ATOM     42  C   UNL A   1      39.777  33.222  35.606  1.00  0.00     0.173 A 
ATOM     43  F   UNL A   1      37.963  30.193  36.483  1.00  0.00    -0.203 F 
ATOM     44  C   UNL A   1      38.046  32.284  37.562  1.00  0.00     0.198 A 
ATOM     45  C   UNL A   1      39.396  34.051  36.659  1.00  0.00     0.198 A 
ATOM     46  F   UNL A   1      40.613  33.706  34.676  1.00  0.00    -0.203 F 
ATOM     47  F   UNL A   1      37.185  31.839  38.489  1.00  0.00    -0.200 F 
ATOM     48  C   UNL A   1      38.526  33.584  37.631  1.00  0.00     0.200 A 
ATOM     49  F   UNL A   1      39.871  35.302  36.731  1.00  0.00    -0.200 F 
ATOM     50  F   UNL A   1      38.146  34.387  38.634  1.00  0.00    -0.200 F 
ENDBRANCH  26  40
BRANCH  27  51
ATOM     51  C   UNL A   1      42.256  26.328  27.778  1.00  0.00     0.064 A 
ATOM     52  C   UNL A   1      43.232  26.779  26.880  1.00  0.00     0.173 A 
ATOM     53  C   UNL A   1      41.715  25.051  27.570  1.00  0.00     0.173 A 
ATOM     54  F   UNL A   1      43.765  28.000  27.028  1.00  0.00    -0.203 F 
ATOM     55  C   UNL A   1      43.643  25.988  25.808  1.00  0.00     0.198 A 
ATOM     56  C   UNL A   1      42.147  24.250  26.515  1.00  0.00     0.198 A 
ATOM     57  F   UNL A   1      40.782  24.573  28.406  1.00  0.00    -0.203 F 
ATOM     58  F   UNL A   1      44.552  26.457  24.943  1.00  0.00    -0.200 F 
ATOM     59  C   UNL A   1      43.105  24.722  25.632  1.00  0.00     0.200 A 
ATOM     60  F   UNL A   1      41.637  23.021  26.358  1.00  0.00    -0.200 F 
ATOM     61  F   UNL A   1      43.509  23.958  24.607  1.00  0.00    -0.200 F 
ENDBRANCH  27  51
BRANCH  39  62
ATOM     62  C   UNL A   1      44.751  27.354  34.192  1.00  0.00     0.064 A 
ATOM     63  C   UNL A   1      44.696  26.129  34.873  1.00  0.00     0.173 A 
ATOM     64  C   UNL A   1      45.970  28.050  34.186  1.00  0.00     0.173 A 
ATOM     65  F   UNL A   1      43.548  25.436  34.924  1.00  0.00    -0.203 F 
ATOM     66  C   UNL A   1      45.810  25.636  35.548  1.00  0.00     0.198 A 
ATOM     67  C   UNL A   1      47.088  27.540  34.838  1.00  0.00     0.198 A 
ATOM     68  F   UNL A   1      46.074  29.224  33.545  1.00  0.00    -0.203 F 
ATOM     69  F   UNL A   1      45.720  24.490  36.238  1.00  0.00    -0.200 F 
ATOM     70  C   UNL A   1      47.005  26.340  35.526  1.00  0.00     0.200 A 
ATOM     71  F   UNL A   1      48.245  28.216  34.808  1.00  0.00    -0.200 F 
ATOM     72  F   UNL A   1      48.075  25.863  36.177  1.00  0.00    -0.200 F 
ENDBRANCH  39  62
ENDBRANCH  13  14
ENDBRANCH   6   8
ENDBRANCH   3   4
ENDBRANCH   2   3
ENDBRANCH   1   2
BRANCH   1  73
ATOM     73  C   UNL A   1      30.495  27.903  23.436  1.00  0.00     0.002 C 
BRANCH  73  74
ATOM     74  C   UNL A   1      29.296  27.047  23.863  1.00  0.00     0.021 C 
BRANCH  74  75
ATOM     75  C   UNL A   1      29.600  25.565  24.067  1.00  0.00     0.116 C 
BRANCH  75  76
ATOM     76  N   UNL A   1      29.893  25.269  25.455  1.00  0.00    -0.356 N 
ATOM     77  C   UNL A   1      30.684  24.301  25.992  1.00  0.00     0.229 C 
ATOM     78  H   UNL A   1      29.453  25.860  26.110  1.00  0.00     0.163 HD
ATOM     79  O   UNL A   1      30.780  24.247  27.218  1.00  0.00    -0.275 OA
BRANCH  77  80
ATOM     80  C   UNL A   1      31.393  23.330  25.070  1.00  0.00     0.146 C 
ATOM     81  C   UNL A   1      31.416  21.958  25.718  1.00  0.00     0.274 C 
ATOM     82  C   UNL A   1      32.886  23.641  24.856  1.00  0.00     0.092 C 
ATOM     83  N   UNL A   1      32.462  21.236  24.992  1.00  0.00    -0.345 N 
ATOM     84  C   UNL A   1      33.517  22.236  24.736  1.00  0.00     0.269 C 
ATOM     85  H   UNL A   1      32.098  20.866  24.114  1.00  0.00     0.346 HD
ATOM     86  H   UNL A   1      32.814  20.438  25.523  1.00  0.00     0.346 HD
BRANCH  82  87
ATOM     87  C   UNL A   1      33.095  24.650  23.734  1.00  0.00    -0.035 A 
ATOM     88  C   UNL A   1      32.702  24.303  22.430  1.00  0.00     0.024 A 
ATOM     89  C   UNL A   1      33.658  25.916  23.906  1.00  0.00     0.024 A 
ATOM     90  C   UNL A   1      32.916  25.188  21.386  1.00  0.00     0.111 A 
ATOM     91  C   UNL A   1      33.822  26.742  22.798  1.00  0.00     0.111 A 
ATOM     92  N   UNL A   1      33.476  26.402  21.540  1.00  0.00    -0.265 NA
ENDBRANCH  82  87
ENDBRANCH  77  80
ENDBRANCH  75  76
ENDBRANCH  74  75
ENDBRANCH  73  74
ENDBRANCH   1  73
TORSDOF 14
ENDMDL
MODEL 3
REMARK VINA RESULT:     -12.0      0.948      1.977
REMARK SMILES O=C(NCCCCCCNC(=O)[C@@H]1C[NH2+]C[C@H]1c1ccncc1)c1ccc(-c2c3nc(c(-c4c(F)c(F)c(F)c(F)c4F)c4ccc([nH]4)c(-c4c(F)c(F)c(F)c(F)c4F)c4nc(c(-c5c(F)c(F)c(F)c(F)c5F)c5ccc2[nH]5)C=C4)C=C3)cc1
REMARK SMILES IDX 6 1 5 2 4 3 3 4 1 5 2 6 24 8 25 9 86 10 26 11 85 12 27 13
REMARK SMILES IDX 28 14 29 15 79 16 30 17 84 18 78 19 80 20 31 21 83 22 77 23
REMARK SMILES IDX 76 24 32 26 64 27 44 28 63 29 45 30 48 31 62 32 81 33 46 34
REMARK SMILES IDX 47 35 61 37 82 38 49 39 33 40 34 41 42 42 35 43 36 44 40 45
REMARK SMILES IDX 43 46 37 47 38 48 41 49 39 50 65 51 66 52 74 53 67 54 68 55
REMARK SMILES IDX 72 56 75 57 69 58 70 59 73 60 71 61 50 62 51 63 59 64 52 65
REMARK SMILES IDX 53 66 57 67 60 68 54 69 55 70 58 71 56 72 7 73 8 74 9 75
REMARK SMILES IDX 10 76 11 77 12 79 13 80 14 81 17 82 15 83 16 84 18 87 19 88
REMARK SMILES IDX 23 89 20 90 22 91 21 92
REMARK H PARENT 3 7 80 25 48 36 10 78 15 85 15 86
REMARK Flexibility Score: inf
ROOT
ATOM      1  C   UNL A   1      31.418  30.660  26.480  1.00  0.00     0.002 C 
ENDROOT
BRANCH   1   2
ATOM      2  C   UNL A   1      31.382  32.187  26.528  1.00  0.00     0.021 C 
BRANCH   2   3
ATOM      3  C   UNL A   1      32.586  32.841  27.192  1.00  0.00     0.116 C 
BRANCH   3   4
ATOM      4  N   UNL A   1      32.332  34.211  27.608  1.00  0.00    -0.352 N 
ATOM      5  O   UNL A   1      32.535  36.059  28.892  1.00  0.00    -0.269 OA
ATOM      6  C   UNL A   1      32.963  34.951  28.579  1.00  0.00     0.251 C 
ATOM      7  H   UNL A   1      31.607  34.672  27.128  1.00  0.00     0.163 HD
BRANCH   6   8
ATOM      8  C   UNL A   1      34.145  34.396  29.273  1.00  0.00     0.039 A 
ATOM      9  C   UNL A   1      35.435  34.643  28.797  1.00  0.00     0.014 A 
ATOM     10  C   UNL A   1      33.957  33.604  30.410  1.00  0.00     0.014 A 
ATOM     11  C   UNL A   1      36.516  33.974  29.359  1.00  0.00     0.010 A 
ATOM     12  C   UNL A   1      35.057  33.002  31.028  1.00  0.00     0.010 A 
ATOM     13  C   UNL A   1      36.342  33.150  30.484  1.00  0.00    -0.014 A 
BRANCH  13  14
ATOM     14  C   UNL A   1      37.527  32.488  31.087  1.00  0.00     0.031 A 
ATOM     15  C   UNL A   1      37.988  32.829  32.477  1.00  0.00     0.074 A 
ATOM     16  C   UNL A   1      38.166  31.536  30.379  1.00  0.00     0.049 A 
ATOM     17  N   UNL A   1      38.966  32.304  33.173  1.00  0.00    -0.248 NA
ATOM     18  C   UNL A   1      37.265  33.900  33.177  1.00  0.00     0.031 C 
ATOM     19  C   UNL A   1      37.820  31.132  29.015  1.00  0.00     0.029 A 
ATOM     20  N   UNL A   1      39.215  30.720  30.713  1.00  0.00    -0.354 N 
ATOM     21  C   UNL A   1      38.993  32.997  34.376  1.00  0.00     0.074 A 
ATOM     22  C   UNL A   1      37.945  33.994  34.311  1.00  0.00     0.031 C 
ATOM     23  C   UNL A   1      38.602  30.105  28.650  1.00  0.00     0.029 A 
ATOM     24  C   UNL A   1      39.538  29.817  29.730  1.00  0.00     0.049 A 
ATOM     25  H   UNL A   1      39.690  30.776  31.573  1.00  0.00     0.167 HD
ATOM     26  C   UNL A   1      39.812  32.811  35.440  1.00  0.00     0.037 A 
ATOM     27  C   UNL A   1      40.487  28.862  29.700  1.00  0.00     0.037 A 
ATOM     28  C   UNL A   1      40.834  31.798  35.513  1.00  0.00     0.049 A 
ATOM     29  C   UNL A   1      41.380  28.682  30.893  1.00  0.00     0.074 A 
ATOM     30  C   UNL A   1      41.678  31.496  36.569  1.00  0.00     0.029 A 
ATOM     31  N   UNL A   1      41.155  30.923  34.485  1.00  0.00    -0.354 N 
ATOM     32  N   UNL A   1      41.364  29.313  32.041  1.00  0.00    -0.248 NA
ATOM     33  C   UNL A   1      42.427  27.658  30.782  1.00  0.00     0.031 C 
ATOM     34  C   UNL A   1      42.538  30.468  36.164  1.00  0.00     0.029 A 
ATOM     35  C   UNL A   1      42.199  30.098  34.873  1.00  0.00     0.049 A 
ATOM     36  H   UNL A   1      40.707  30.893  33.609  1.00  0.00     0.167 HD
ATOM     37  C   UNL A   1      42.383  28.752  32.797  1.00  0.00     0.074 A 
ATOM     38  C   UNL A   1      42.984  27.715  31.982  1.00  0.00     0.031 C 
ATOM     39  C   UNL A   1      42.785  29.069  34.052  1.00  0.00     0.037 A 
BRANCH  26  40
ATOM     40  C   UNL A   1      39.653  33.736  36.613  1.00  0.00     0.064 A 
ATOM     41  C   UNL A   1      38.847  33.405  37.713  1.00  0.00     0.173 A 
ATOM     42  C   UNL A   1      40.355  34.951  36.656  1.00  0.00     0.173 A 
ATOM     43  F   UNL A   1      38.148  32.260  37.717  1.00  0.00    -0.203 F 
ATOM     44  C   UNL A   1      38.731  34.268  38.801  1.00  0.00     0.198 A 
ATOM     45  C   UNL A   1      40.257  35.798  37.757  1.00  0.00     0.198 A 
ATOM     46  F   UNL A   1      41.145  35.311  35.635  1.00  0.00    -0.203 F 
ATOM     47  F   UNL A   1      37.922  33.950  39.822  1.00  0.00    -0.200 F 
ATOM     48  C   UNL A   1      39.440  35.459  38.825  1.00  0.00     0.200 A 
ATOM     49  F   UNL A   1      40.952  36.943  37.784  1.00  0.00    -0.200 F 
ATOM     50  F   UNL A   1      39.332  36.284  39.876  1.00  0.00    -0.200 F 
ENDBRANCH  26  40
BRANCH  27  51
ATOM     51  C   UNL A   1      40.621  27.996  28.503  1.00  0.00     0.064 A 
ATOM     52  C   UNL A   1      41.385  28.405  27.402  1.00  0.00     0.173 A 
ATOM     53  C   UNL A   1      40.003  26.738  28.440  1.00  0.00     0.173 A 
ATOM     54  F   UNL A   1      41.979  29.607  27.409  1.00  0.00    -0.203 F 
ATOM     55  C   UNL A   1      41.519  27.593  26.277  1.00  0.00     0.198 A 
ATOM     56  C   UNL A   1      40.161  25.915  27.328  1.00  0.00     0.198 A 
ATOM     57  F   UNL A   1      39.266  26.300  29.470  1.00  0.00    -0.203 F 
ATOM     58  F   UNL A   1      42.226  28.021  25.224  1.00  0.00    -0.200 F 
ATOM     59  C   UNL A   1      40.912  26.345  26.245  1.00  0.00     0.200 A 
ATOM     60  F   UNL A   1      39.587  24.705  27.307  1.00  0.00    -0.200 F 
ATOM     61  F   UNL A   1      41.049  25.560  25.168  1.00  0.00    -0.200 F 
ENDBRANCH  27  51
BRANCH  39  62
ATOM     62  C   UNL A   1      43.912  28.264  34.627  1.00  0.00     0.064 A 
ATOM     63  C   UNL A   1      43.681  27.062  35.314  1.00  0.00     0.173 A 
ATOM     64  C   UNL A   1      45.240  28.691  34.476  1.00  0.00     0.173 A 
ATOM     65  F   UNL A   1      42.427  26.622  35.500  1.00  0.00    -0.203 F 
ATOM     66  C   UNL A   1      44.737  26.335  35.856  1.00  0.00     0.198 A 
ATOM     67  C   UNL A   1      46.295  27.946  34.995  1.00  0.00     0.198 A 
ATOM     68  F   UNL A   1      45.513  29.831  33.824  1.00  0.00    -0.203 F 
ATOM     69  F   UNL A   1      44.490  25.218  36.554  1.00  0.00    -0.200 F 
ATOM     70  C   UNL A   1      46.042  26.775  35.692  1.00  0.00     0.200 A 
ATOM     71  F   UNL A   1      47.556  28.368  34.828  1.00  0.00    -0.200 F 
ATOM     72  F   UNL A   1      47.057  26.072  36.214  1.00  0.00    -0.200 F 
ENDBRANCH  39  62
ENDBRANCH  13  14
ENDBRANCH   6   8
ENDBRANCH   3   4
ENDBRANCH   2   3
ENDBRANCH   1   2
BRANCH   1  73
ATOM     73  C   UNL A   1      32.722  30.016  26.958  1.00  0.00     0.002 C 
BRANCH  73  74
ATOM     74  C   UNL A   1      33.464  29.165  25.920  1.00  0.00     0.021 C 
BRANCH  74  75
ATOM     75  C   UNL A   1      32.974  29.325  24.483  1.00  0.00     0.116 C 
BRANCH  75  76
ATOM     76  N   UNL A   1      33.135  28.097  23.729  1.00  0.00    -0.356 N 
ATOM     77  C   UNL A   1      32.285  27.043  23.589  1.00  0.00     0.229 C 
ATOM     78  H   UNL A   1      33.988  28.013  23.244  1.00  0.00     0.163 HD
ATOM     79  O   UNL A   1      32.646  26.100  22.886  1.00  0.00    -0.275 OA
BRANCH  77  80
ATOM     80  C   UNL A   1      30.952  27.068  24.309  1.00  0.00     0.146 C 
ATOM     81  C   UNL A   1      30.825  25.816  25.158  1.00  0.00     0.274 C 
ATOM     82  C   UNL A   1      29.731  26.983  23.376  1.00  0.00     0.092 C 
ATOM     83  N   UNL A   1      29.392  25.720  25.443  1.00  0.00    -0.345 N 
ATOM     84  C   UNL A   1      28.721  26.158  24.204  1.00  0.00     0.269 C 
ATOM     85  H   UNL A   1      29.141  26.329  26.221  1.00  0.00     0.346 HD
ATOM     86  H   UNL A   1      29.119  24.774  25.711  1.00  0.00     0.346 HD
BRANCH  82  87
ATOM     87  C   UNL A   1      29.323  28.356  22.858  1.00  0.00    -0.035 A 
ATOM     88  C   UNL A   1      28.039  28.839  23.162  1.00  0.00     0.024 A 
ATOM     89  C   UNL A   1      30.142  29.186  22.090  1.00  0.00     0.024 A 
ATOM     90  C   UNL A   1      27.629  30.069  22.670  1.00  0.00     0.111 A 
ATOM     91  C   UNL A   1      29.648  30.411  21.652  1.00  0.00     0.111 A 
ATOM     92  N   UNL A   1      28.407  30.866  21.913  1.00  0.00    -0.265 NA
ENDBRANCH  82  87
ENDBRANCH  77  80
ENDBRANCH  75  76
ENDBRANCH  74  75
ENDBRANCH  73  74
ENDBRANCH   1  73
TORSDOF 14
ENDMDL
