MODEL 1
REMARK VINA RESULT:     -11.5      0.000      0.000
REMARK SMILES O=C(NCCCCCCNC(=O)[C@H](CO)NC(=O)[C@H](Cc1ccc(O)cc1)NC(=O)c1ccc(F)cc1)c1ccc(-c2c3nc(c(-c4c(F)c(F)c(F)c(F)c4F)c4ccc([nH]4)c(-c4c(F)c(F)c(F)c(F)c4F)c4nc(c(-c5c(F)c(F)c(F)c(F)c5F)c5ccc2[nH]5)C=C4)C=C3)cc1
REMARK SMILES IDX 8 1 7 2 6 3 5 4 4 5 3 6 1 7 2 8 38 10 39 11 100 12 40 13
REMARK SMILES IDX 99 14 41 15 42 16 43 17 93 18 44 19 98 20 92 21 94 22 45 23
REMARK SMILES IDX 97 24 91 25 90 26 46 28 78 29 58 30 77 31 59 32 62 33 76 34
REMARK SMILES IDX 95 35 60 36 61 37 75 39 96 40 63 41 47 42 48 43 56 44 49 45
REMARK SMILES IDX 50 46 54 47 57 48 51 49 52 50 55 51 53 52 79 53 80 54 88 55
REMARK SMILES IDX 81 56 82 57 86 58 89 59 83 60 84 61 87 62 85 63 64 64 65 65
REMARK SMILES IDX 73 66 66 67 67 68 71 69 74 70 68 71 69 72 72 73 70 74 9 75
REMARK SMILES IDX 10 76 11 77 12 79 13 80 16 81 17 82 18 84 19 85 28 86 29 87
REMARK SMILES IDX 30 89 31 90 32 91 37 92 33 93 36 94 34 95 35 96 20 97 21 98
REMARK SMILES IDX 22 99 27 100 23 101 26 102 24 103 25 104 14 106 15 107
REMARK H PARENT 3 9 94 27 62 38 10 78 16 83 28 88 25 105 15 108
REMARK Flexibility Score: inf
ROOT
ATOM      1  C   UNL A   1      34.045  28.915  23.262  1.00  0.00     0.021 C 
ENDROOT
BRANCH   1   2
ATOM      2  C   UNL A   1      34.225  28.196  24.604  1.00  0.00     0.002 C 
BRANCH   2   3
ATOM      3  C   UNL A   1      33.978  29.063  25.843  1.00  0.00     0.002 C 
BRANCH   3   4
ATOM      4  C   UNL A   1      32.965  30.190  25.652  1.00  0.00     0.021 C 
BRANCH   4   5
ATOM      5  C   UNL A   1      32.394  30.748  26.947  1.00  0.00     0.116 C 
BRANCH   5   6
ATOM      6  N   UNL A   1      32.381  32.200  26.967  1.00  0.00    -0.352 N 
ATOM      7  O   UNL A   1      33.013  34.258  27.658  1.00  0.00    -0.269 OA
ATOM      8  C   UNL A   1      33.250  33.055  27.597  1.00  0.00     0.251 C 
ATOM      9  H   UNL A   1      31.653  32.628  26.461  1.00  0.00     0.163 HD
BRANCH   8  10
ATOM     10  C   UNL A   1      34.467  32.506  28.230  1.00  0.00     0.039 A 
ATOM     11  C   UNL A   1      34.443  31.239  28.818  1.00  0.00     0.014 A 
ATOM     12  C   UNL A   1      35.630  33.277  28.257  1.00  0.00     0.014 A 
ATOM     13  C   UNL A   1      35.535  30.805  29.556  1.00  0.00     0.010 A 
ATOM     14  C   UNL A   1      36.761  32.797  28.920  1.00  0.00     0.010 A 
ATOM     15  C   UNL A   1      36.712  31.570  29.600  1.00  0.00    -0.014 A 
BRANCH  15  16
ATOM     16  C   UNL A   1      37.896  31.026  30.310  1.00  0.00     0.031 A 
ATOM     17  C   UNL A   1      38.158  31.348  31.752  1.00  0.00     0.074 A 
ATOM     18  C   UNL A   1      38.715  30.193  29.640  1.00  0.00     0.049 A 
ATOM     19  N   UNL A   1      39.128  30.924  32.526  1.00  0.00    -0.248 NA
ATOM     20  C   UNL A   1      37.220  32.265  32.415  1.00  0.00     0.031 C 
ATOM     21  C   UNL A   1      38.556  29.816  28.233  1.00  0.00     0.029 A 
ATOM     22  N   UNL A   1      39.817  29.491  30.050  1.00  0.00    -0.354 N 
ATOM     23  C   UNL A   1      38.925  31.531  33.758  1.00  0.00     0.074 A 
ATOM     24  C   UNL A   1      37.757  32.377  33.623  1.00  0.00     0.031 C 
ATOM     25  C   UNL A   1      39.482  28.902  27.917  1.00  0.00     0.029 A 
ATOM     26  C   UNL A   1      40.343  28.681  29.074  1.00  0.00     0.049 A 
ATOM     27  H   UNL A   1      40.196  29.560  30.957  1.00  0.00     0.167 HD
ATOM     28  C   UNL A   1      39.643  31.383  34.896  1.00  0.00     0.037 A 
ATOM     29  C   UNL A   1      41.404  27.855  29.101  1.00  0.00     0.037 A 
ATOM     30  C   UNL A   1      40.798  30.531  35.022  1.00  0.00     0.049 A 
ATOM     31  C   UNL A   1      42.199  27.732  30.366  1.00  0.00     0.074 A 
ATOM     32  C   UNL A   1      41.587  30.305  36.137  1.00  0.00     0.029 A 
ATOM     33  N   UNL A   1      41.332  29.765  33.995  1.00  0.00    -0.354 N 
ATOM     34  N   UNL A   1      41.994  28.307  31.525  1.00  0.00    -0.248 NA
ATOM     35  C   UNL A   1      43.376  26.856  30.326  1.00  0.00     0.031 C 
ATOM     36  C   UNL A   1      42.623  29.438  35.774  1.00  0.00     0.029 A 
ATOM     37  C   UNL A   1      42.450  29.079  34.446  1.00  0.00     0.049 A 
ATOM     38  H   UNL A   1      40.971  29.714  33.080  1.00  0.00     0.167 HD
ATOM     39  C   UNL A   1      43.008  27.859  32.358  1.00  0.00     0.074 A 
ATOM     40  C   UNL A   1      43.815  26.945  31.574  1.00  0.00     0.031 C 
ATOM     41  C   UNL A   1      43.248  28.179  33.652  1.00  0.00     0.037 A 
BRANCH  28  42
ATOM     42  C   UNL A   1      39.210  32.166  36.103  1.00  0.00     0.064 A 
ATOM     43  C   UNL A   1      39.747  33.437  36.359  1.00  0.00     0.173 A 
ATOM     44  C   UNL A   1      38.312  31.633  37.041  1.00  0.00     0.173 A 
ATOM     45  F   UNL A   1      40.615  33.990  35.499  1.00  0.00    -0.203 F 
ATOM     46  C   UNL A   1      39.406  34.143  37.511  1.00  0.00     0.198 A 
ATOM     47  C   UNL A   1      37.952  32.353  38.178  1.00  0.00     0.198 A 
ATOM     48  F   UNL A   1      37.762  30.427  36.841  1.00  0.00    -0.203 F 
ATOM     49  F   UNL A   1      39.953  35.343  37.746  1.00  0.00    -0.200 F 
ATOM     50  C   UNL A   1      38.506  33.603  38.417  1.00  0.00     0.200 A 
ATOM     51  F   UNL A   1      37.064  31.840  39.040  1.00  0.00    -0.200 F 
ATOM     52  F   UNL A   1      38.168  34.288  39.517  1.00  0.00    -0.200 F 
ENDBRANCH  28  42
BRANCH  29  53
ATOM     53  C   UNL A   1      41.742  27.074  27.885  1.00  0.00     0.064 A 
ATOM     54  C   UNL A   1      41.280  25.761  27.709  1.00  0.00     0.173 A 
ATOM     55  C   UNL A   1      42.599  27.602  26.910  1.00  0.00     0.173 A 
ATOM     56  F   UNL A   1      40.465  25.210  28.621  1.00  0.00    -0.203 F 
ATOM     57  C   UNL A   1      41.688  24.994  26.622  1.00  0.00     0.198 A 
ATOM     58  C   UNL A   1      42.986  26.842  25.807  1.00  0.00     0.198 A 
ATOM     59  F   UNL A   1      43.055  28.858  27.028  1.00  0.00    -0.203 F 
ATOM     60  F   UNL A   1      41.273  23.725  26.506  1.00  0.00    -0.200 F 
ATOM     61  C   UNL A   1      42.540  25.536  25.671  1.00  0.00     0.200 A 
ATOM     62  F   UNL A   1      43.794  27.374  24.882  1.00  0.00    -0.200 F 
ATOM     63  F   UNL A   1      42.934  24.797  24.626  1.00  0.00    -0.200 F 
ENDBRANCH  29  53
BRANCH  41  64
ATOM     64  C   UNL A   1      44.426  27.529  34.315  1.00  0.00     0.064 A 
ATOM     65  C   UNL A   1      44.283  26.295  34.967  1.00  0.00     0.173 A 
ATOM     66  C   UNL A   1      45.681  28.153  34.353  1.00  0.00     0.173 A 
ATOM     67  F   UNL A   1      43.101  25.661  34.964  1.00  0.00    -0.203 F 
ATOM     68  C   UNL A   1      45.352  25.718  35.647  1.00  0.00     0.198 A 
ATOM     69  C   UNL A   1      46.755  27.558  35.010  1.00  0.00     0.198 A 
ATOM     70  F   UNL A   1      45.871  29.326  33.730  1.00  0.00    -0.203 F 
ATOM     71  F   UNL A   1      45.184  24.554  36.289  1.00  0.00    -0.200 F 
ATOM     72  C   UNL A   1      46.587  26.347  35.664  1.00  0.00     0.200 A 
ATOM     73  F   UNL A   1      47.955  28.155  35.005  1.00  0.00    -0.200 F 
ATOM     74  F   UNL A   1      47.618  25.782  36.308  1.00  0.00    -0.200 F 
ENDBRANCH  41  64
ENDBRANCH  15  16
ENDBRANCH   8  10
ENDBRANCH   5   6
ENDBRANCH   4   5
ENDBRANCH   3   4
ENDBRANCH   2   3
ENDBRANCH   1   2
BRANCH   1  75
ATOM     75  C   UNL A   1      32.919  28.352  22.403  1.00  0.00     0.116 C 
BRANCH  75  76
ATOM     76  N   UNL A   1      31.705  29.118  22.589  1.00  0.00    -0.354 N 
ATOM     77  C   UNL A   1      30.543  28.788  23.211  1.00  0.00     0.244 C 
ATOM     78  H   UNL A   1      31.724  30.023  22.203  1.00  0.00     0.163 HD
ATOM     79  O   UNL A   1      29.606  29.584  23.127  1.00  0.00    -0.273 OA
BRANCH  77  80
ATOM     80  C   UNL A   1      30.389  27.462  23.969  1.00  0.00     0.197 C 
BRANCH  80  81
ATOM     81  N   UNL A   1      30.646  27.650  25.405  1.00  0.00    -0.340 N 
ATOM     82  C   UNL A   1      31.329  26.931  26.335  1.00  0.00     0.243 C 
ATOM     83  H   UNL A   1      30.236  28.467  25.770  1.00  0.00     0.164 HD
ATOM     84  O   UNL A   1      31.389  27.462  27.451  1.00  0.00    -0.273 OA
BRANCH  82  85
ATOM     85  C   UNL A   1      31.764  25.459  26.120  1.00  0.00     0.176 C 
BRANCH  85  86
ATOM     86  N   UNL A   1      30.772  24.457  26.503  1.00  0.00    -0.340 N 
ATOM     87  C   UNL A   1      30.707  23.097  26.371  1.00  0.00     0.251 C 
ATOM     88  H   UNL A   1      29.983  24.841  26.949  1.00  0.00     0.164 HD
ATOM     89  O   UNL A   1      29.628  22.552  26.598  1.00  0.00    -0.269 OA
BRANCH  87  90
ATOM     90  C   UNL A   1      31.871  22.235  26.022  1.00  0.00     0.040 A 
ATOM     91  C   UNL A   1      32.951  21.981  26.879  1.00  0.00     0.017 A 
ATOM     92  C   UNL A   1      31.790  21.523  24.814  1.00  0.00     0.017 A 
ATOM     93  C   UNL A   1      33.939  21.057  26.527  1.00  0.00     0.040 A 
ATOM     94  C   UNL A   1      32.775  20.597  24.463  1.00  0.00     0.040 A 
ATOM     95  C   UNL A   1      33.841  20.373  25.323  1.00  0.00     0.123 A 
ATOM     96  F   UNL A   1      34.777  19.473  25.000  1.00  0.00    -0.207 F 
ENDBRANCH  87  90
ENDBRANCH  85  86
BRANCH  85  97
ATOM     97  C   UNL A   1      32.286  25.223  24.678  1.00  0.00     0.070 C 
BRANCH  97  98
ATOM     98  C   UNL A   1      33.657  24.595  24.522  1.00  0.00    -0.045 A 
ATOM     99  C   UNL A   1      34.631  24.638  25.530  1.00  0.00     0.007 A 
ATOM    100  C   UNL A   1      33.955  23.912  23.330  1.00  0.00     0.007 A 
ATOM    101  C   UNL A   1      35.897  24.078  25.321  1.00  0.00     0.046 A 
ATOM    102  C   UNL A   1      35.211  23.340  23.129  1.00  0.00     0.046 A 
ATOM    103  C   UNL A   1      36.178  23.443  24.117  1.00  0.00     0.115 A 
BRANCH 103 104
ATOM    104  O   UNL A   1      37.403  22.900  23.867  1.00  0.00    -0.508 OA
ATOM    105  H   UNL A   1      37.473  22.109  23.372  1.00  0.00     0.293 HD
ENDBRANCH 103 104
ENDBRANCH  97  98
ENDBRANCH  85  97
ENDBRANCH  82  85
ENDBRANCH  80  81
BRANCH  80 106
ATOM    106  C   UNL A   1      29.040  26.777  23.678  1.00  0.00     0.191 C 
BRANCH 106 107
ATOM    107  O   UNL A   1      28.862  25.578  24.437  1.00  0.00    -0.394 OA
ATOM    108  H   UNL A   1      27.916  25.429  24.589  1.00  0.00     0.210 HD
ENDBRANCH 106 107
ENDBRANCH  80 106
ENDBRANCH  77  80
ENDBRANCH  75  76
ENDBRANCH   1  75
TORSDOF 22
ENDMDL
MODEL 2
REMARK VINA RESULT:     -11.3      0.419      7.106
REMARK SMILES O=C(NCCCCCCNC(=O)[C@H](CO)NC(=O)[C@H](Cc1ccc(O)cc1)NC(=O)c1ccc(F)cc1)c1ccc(-c2c3nc(c(-c4c(F)c(F)c(F)c(F)c4F)c4ccc([nH]4)c(-c4c(F)c(F)c(F)c(F)c4F)c4nc(c(-c5c(F)c(F)c(F)c(F)c5F)c5ccc2[nH]5)C=C4)C=C3)cc1
REMARK SMILES IDX 8 1 7 2 6 3 5 4 4 5 3 6 1 7 2 8 38 10 39 11 100 12 40 13
REMARK SMILES IDX 99 14 41 15 42 16 43 17 93 18 44 19 98 20 92 21 94 22 45 23
REMARK SMILES IDX 97 24 91 25 90 26 46 28 78 29 58 30 77 31 59 32 62 33 76 34
REMARK SMILES IDX 95 35 60 36 61 37 75 39 96 40 63 41 47 42 48 43 56 44 49 45
REMARK SMILES IDX 50 46 54 47 57 48 51 49 52 50 55 51 53 52 79 53 80 54 88 55
REMARK SMILES IDX 81 56 82 57 86 58 89 59 83 60 84 61 87 62 85 63 64 64 65 65
REMARK SMILES IDX 73 66 66 67 67 68 71 69 74 70 68 71 69 72 72 73 70 74 9 75
REMARK SMILES IDX 10 76 11 77 12 79 13 80 16 81 17 82 18 84 19 85 28 86 29 87
REMARK SMILES IDX 30 89 31 90 32 91 37 92 33 93 36 94 34 95 35 96 20 97 21 98
REMARK SMILES IDX 22 99 27 100 23 101 26 102 24 103 25 104 14 106 15 107
REMARK H PARENT 3 9 94 27 62 38 10 78 16 83 28 88 25 105 15 108
REMARK Flexibility Score: inf
ROOT
ATOM      1  C   UNL A   1      33.758  28.848  23.181  1.00  0.00     0.021 C 
ENDROOT
BRANCH   1   2
ATOM      2  C   UNL A   1      34.053  28.134  24.506  1.00  0.00     0.002 C 
BRANCH   2   3
ATOM      3  C   UNL A   1      33.839  28.983  25.763  1.00  0.00     0.002 C 
BRANCH   3   4
ATOM      4  C   UNL A   1      32.700  29.997  25.672  1.00  0.00     0.021 C 
BRANCH   4   5
ATOM      5  C   UNL A   1      32.340  30.658  26.993  1.00  0.00     0.116 C 
BRANCH   5   6
ATOM      6  N   UNL A   1      32.411  32.108  26.926  1.00  0.00    -0.352 N 
ATOM      7  O   UNL A   1      33.162  34.164  27.491  1.00  0.00    -0.269 OA
ATOM      8  C   UNL A   1      33.330  32.948  27.503  1.00  0.00     0.251 C 
ATOM      9  H   UNL A   1      31.707  32.545  26.395  1.00  0.00     0.163 HD
BRANCH   8  10
ATOM     10  C   UNL A   1      34.515  32.368  28.167  1.00  0.00     0.039 A 
ATOM     11  C   UNL A   1      34.438  31.112  28.774  1.00  0.00     0.014 A 
ATOM     12  C   UNL A   1      35.704  33.100  28.204  1.00  0.00     0.014 A 
ATOM     13  C   UNL A   1      35.501  30.655  29.540  1.00  0.00     0.010 A 
ATOM     14  C   UNL A   1      36.806  32.593  28.896  1.00  0.00     0.010 A 
ATOM     15  C   UNL A   1      36.703  31.379  29.594  1.00  0.00    -0.014 A 
BRANCH  15  16
ATOM     16  C   UNL A   1      37.854  30.808  30.335  1.00  0.00     0.031 A 
ATOM     17  C   UNL A   1      38.833  29.887  29.669  1.00  0.00     0.074 A 
ATOM     18  C   UNL A   1      38.030  31.174  31.619  1.00  0.00     0.049 A 
ATOM     19  N   UNL A   1      39.910  29.333  30.168  1.00  0.00    -0.248 NA
ATOM     20  C   UNL A   1      38.573  29.534  28.266  1.00  0.00     0.031 C 
ATOM     21  C   UNL A   1      37.136  32.061  32.367  1.00  0.00     0.029 A 
ATOM     22  N   UNL A   1      39.027  30.877  32.512  1.00  0.00    -0.354 N 
ATOM     23  C   UNL A   1      40.447  28.558  29.148  1.00  0.00     0.074 A 
ATOM     24  C   UNL A   1      39.562  28.688  28.010  1.00  0.00     0.031 C 
ATOM     25  C   UNL A   1      37.659  32.290  33.579  1.00  0.00     0.029 A 
ATOM     26  C   UNL A   1      38.885  31.512  33.720  1.00  0.00     0.049 A 
ATOM     27  H   UNL A   1      39.773  30.267  32.306  1.00  0.00     0.167 HD
ATOM     28  C   UNL A   1      41.581  27.818  29.162  1.00  0.00     0.037 A 
ATOM     29  C   UNL A   1      39.650  31.470  34.825  1.00  0.00     0.037 A 
ATOM     30  C   UNL A   1      42.460  27.703  30.298  1.00  0.00     0.049 A 
ATOM     31  C   UNL A   1      40.885  30.619  34.823  1.00  0.00     0.074 A 
ATOM     32  C   UNL A   1      43.640  26.986  30.407  1.00  0.00     0.029 A 
ATOM     33  N   UNL A   1      42.255  28.321  31.524  1.00  0.00    -0.354 N 
ATOM     34  N   UNL A   1      41.384  29.896  33.852  1.00  0.00    -0.248 NA
ATOM     35  C   UNL A   1      41.656  30.570  36.071  1.00  0.00     0.031 C 
ATOM     36  C   UNL A   1      44.125  27.134  31.711  1.00  0.00     0.029 A 
ATOM     37  C   UNL A   1      43.277  27.987  32.401  1.00  0.00     0.049 A 
ATOM     38  H   UNL A   1      41.497  28.910  31.740  1.00  0.00     0.167 HD
ATOM     39  C   UNL A   1      42.532  29.312  34.363  1.00  0.00     0.074 A 
ATOM     40  C   UNL A   1      42.667  29.783  35.728  1.00  0.00     0.031 C 
ATOM     41  C   UNL A   1      43.394  28.459  33.758  1.00  0.00     0.037 A 
BRANCH  28  42
ATOM     42  C   UNL A   1      41.939  27.062  27.914  1.00  0.00     0.064 A 
ATOM     43  C   UNL A   1      41.479  25.751  27.718  1.00  0.00     0.173 A 
ATOM     44  C   UNL A   1      42.789  27.610  26.941  1.00  0.00     0.173 A 
ATOM     45  F   UNL A   1      40.670  25.176  28.621  1.00  0.00    -0.203 F 
ATOM     46  C   UNL A   1      41.861  25.015  26.599  1.00  0.00     0.198 A 
ATOM     47  C   UNL A   1      43.147  26.881  25.809  1.00  0.00     0.198 A 
ATOM     48  F   UNL A   1      43.249  28.863  27.075  1.00  0.00    -0.203 F 
ATOM     49  F   UNL A   1      41.430  23.755  26.447  1.00  0.00    -0.200 F 
ATOM     50  C   UNL A   1      42.691  25.582  25.643  1.00  0.00     0.200 A 
ATOM     51  F   UNL A   1      43.929  27.439  24.875  1.00  0.00    -0.200 F 
ATOM     52  F   UNL A   1      43.046  24.878  24.560  1.00  0.00    -0.200 F 
ENDBRANCH  28  42
BRANCH  29  53
ATOM     53  C   UNL A   1      39.261  32.284  36.004  1.00  0.00     0.064 A 
ATOM     54  C   UNL A   1      39.833  33.543  36.241  1.00  0.00     0.173 A 
ATOM     55  C   UNL A   1      38.366  31.781  36.957  1.00  0.00     0.173 A 
ATOM     56  F   UNL A   1      40.703  34.061  35.362  1.00  0.00    -0.203 F 
ATOM     57  C   UNL A   1      39.548  34.254  37.404  1.00  0.00     0.198 A 
ATOM     58  C   UNL A   1      38.061  32.507  38.108  1.00  0.00     0.198 A 
ATOM     59  F   UNL A   1      37.784  30.588  36.767  1.00  0.00    -0.203 F 
ATOM     60  F   UNL A   1      40.148  35.431  37.629  1.00  0.00    -0.200 F 
ATOM     61  C   UNL A   1      38.662  33.736  38.335  1.00  0.00     0.200 A 
ATOM     62  F   UNL A   1      37.191  32.011  38.997  1.00  0.00    -0.200 F 
ATOM     63  F   UNL A   1      38.390  34.420  39.454  1.00  0.00    -0.200 F 
ENDBRANCH  29  53
BRANCH  41  64
ATOM     64  C   UNL A   1      44.571  27.985  34.558  1.00  0.00     0.064 A 
ATOM     65  C   UNL A   1      45.786  28.685  34.516  1.00  0.00     0.173 A 
ATOM     66  C   UNL A   1      44.513  26.809  35.319  1.00  0.00     0.173 A 
ATOM     67  F   UNL A   1      45.893  29.813  33.798  1.00  0.00    -0.203 F 
ATOM     68  C   UNL A   1      46.905  28.215  35.197  1.00  0.00     0.198 A 
ATOM     69  C   UNL A   1      45.627  26.358  36.021  1.00  0.00     0.198 A 
ATOM     70  F   UNL A   1      43.368  26.114  35.402  1.00  0.00    -0.203 F 
ATOM     71  F   UNL A   1      48.064  28.883  35.118  1.00  0.00    -0.200 F 
ATOM     72  C   UNL A   1      46.824  27.056  35.952  1.00  0.00     0.200 A 
ATOM     73  F   UNL A   1      45.540  25.250  36.771  1.00  0.00    -0.200 F 
ATOM     74  F   UNL A   1      47.899  26.612  36.618  1.00  0.00    -0.200 F 
ENDBRANCH  41  64
ENDBRANCH  15  16
ENDBRANCH   8  10
ENDBRANCH   5   6
ENDBRANCH   4   5
ENDBRANCH   3   4
ENDBRANCH   2   3
ENDBRANCH   1   2
BRANCH   1  75
ATOM     75  C   UNL A   1      32.755  28.120  22.294  1.00  0.00     0.116 C 
BRANCH  75  76
ATOM     76  N   UNL A   1      31.445  28.723  22.405  1.00  0.00    -0.354 N 
ATOM     77  C   UNL A   1      30.309  28.260  22.989  1.00  0.00     0.244 C 
ATOM     78  H   UNL A   1      31.363  29.612  21.991  1.00  0.00     0.163 HD
ATOM     79  O   UNL A   1      29.281  28.923  22.841  1.00  0.00    -0.273 OA
BRANCH  77  80
ATOM     80  C   UNL A   1      30.296  26.945  23.781  1.00  0.00     0.197 C 
BRANCH  80  81
ATOM     81  N   UNL A   1      30.522  27.197  25.213  1.00  0.00    -0.340 N 
ATOM     82  C   UNL A   1      31.214  26.540  26.180  1.00  0.00     0.243 C 
ATOM     83  H   UNL A   1      30.077  28.013  25.539  1.00  0.00     0.164 HD
ATOM     84  O   UNL A   1      31.236  27.116  27.275  1.00  0.00    -0.273 OA
BRANCH  82  85
ATOM     85  C   UNL A   1      31.705  25.078  26.030  1.00  0.00     0.176 C 
BRANCH  85  86
ATOM     86  N   UNL A   1      30.736  24.055  26.420  1.00  0.00    -0.340 N 
ATOM     87  C   UNL A   1      30.703  22.694  26.297  1.00  0.00     0.251 C 
ATOM     88  H   UNL A   1      29.940  24.424  26.866  1.00  0.00     0.164 HD
ATOM     89  O   UNL A   1      29.636  22.126  26.529  1.00  0.00    -0.269 OA
BRANCH  87  90
ATOM     90  C   UNL A   1      31.885  21.857  25.951  1.00  0.00     0.040 A 
ATOM     91  C   UNL A   1      32.041  21.174  24.738  1.00  0.00     0.017 A 
ATOM     92  C   UNL A   1      32.965  21.886  26.849  1.00  0.00     0.017 A 
ATOM     93  C   UNL A   1      33.237  20.517  24.437  1.00  0.00     0.040 A 
ATOM     94  C   UNL A   1      34.163  21.233  26.548  1.00  0.00     0.040 A 
ATOM     95  C   UNL A   1      34.287  20.553  25.345  1.00  0.00     0.123 A 
ATOM     96  F   UNL A   1      35.439  19.942  25.044  1.00  0.00    -0.207 F 
ENDBRANCH  87  90
ENDBRANCH  85  86
BRANCH  85  97
ATOM     97  C   UNL A   1      32.276  24.810  24.613  1.00  0.00     0.070 C 
BRANCH  97  98
ATOM     98  C   UNL A   1      33.727  24.384  24.509  1.00  0.00    -0.045 A 
ATOM     99  C   UNL A   1      34.247  23.724  23.386  1.00  0.00     0.007 A 
ATOM    100  C   UNL A   1      34.599  24.695  25.567  1.00  0.00     0.007 A 
ATOM    101  C   UNL A   1      35.585  23.316  23.356  1.00  0.00     0.046 A 
ATOM    102  C   UNL A   1      35.937  24.302  25.529  1.00  0.00     0.046 A 
ATOM    103  C   UNL A   1      36.415  23.601  24.433  1.00  0.00     0.115 A 
BRANCH 103 104
ATOM    104  O   UNL A   1      37.720  23.206  24.451  1.00  0.00    -0.508 OA
ATOM    105  H   UNL A   1      37.973  22.445  24.934  1.00  0.00     0.293 HD
ENDBRANCH 103 104
ENDBRANCH  97  98
ENDBRANCH  85  97
ENDBRANCH  82  85
ENDBRANCH  80  81
BRANCH  80 106
ATOM    106  C   UNL A   1      29.030  26.109  23.505  1.00  0.00     0.191 C 
BRANCH 106 107
ATOM    107  O   UNL A   1      27.846  26.728  24.013  1.00  0.00    -0.394 OA
ATOM    108  H   UNL A   1      27.079  26.428  23.501  1.00  0.00     0.210 HD
ENDBRANCH 106 107
ENDBRANCH  80 106
ENDBRANCH  77  80
ENDBRANCH  75  76
ENDBRANCH   1  75
TORSDOF 22
ENDMDL
MODEL 3
REMARK VINA RESULT:     -11.3      1.585      2.517
REMARK SMILES O=C(NCCCCCCNC(=O)[C@H](CO)NC(=O)[C@H](Cc1ccc(O)cc1)NC(=O)c1ccc(F)cc1)c1ccc(-c2c3nc(c(-c4c(F)c(F)c(F)c(F)c4F)c4ccc([nH]4)c(-c4c(F)c(F)c(F)c(F)c4F)c4nc(c(-c5c(F)c(F)c(F)c(F)c5F)c5ccc2[nH]5)C=C4)C=C3)cc1
REMARK SMILES IDX 8 1 7 2 6 3 5 4 4 5 3 6 1 7 2 8 38 10 39 11 100 12 40 13
REMARK SMILES IDX 99 14 41 15 42 16 43 17 93 18 44 19 98 20 92 21 94 22 45 23
REMARK SMILES IDX 97 24 91 25 90 26 46 28 78 29 58 30 77 31 59 32 62 33 76 34
REMARK SMILES IDX 95 35 60 36 61 37 75 39 96 40 63 41 47 42 48 43 56 44 49 45
REMARK SMILES IDX 50 46 54 47 57 48 51 49 52 50 55 51 53 52 79 53 80 54 88 55
REMARK SMILES IDX 81 56 82 57 86 58 89 59 83 60 84 61 87 62 85 63 64 64 65 65
REMARK SMILES IDX 73 66 66 67 67 68 71 69 74 70 68 71 69 72 72 73 70 74 9 75
REMARK SMILES IDX 10 76 11 77 12 79 13 80 16 81 17 82 18 84 19 85 28 86 29 87
REMARK SMILES IDX 30 89 31 90 32 91 37 92 33 93 36 94 34 95 35 96 20 97 21 98
REMARK SMILES IDX 22 99 27 100 23 101 26 102 24 103 25 104 14 106 15 107
REMARK H PARENT 3 9 94 27 62 38 10 78 16 83 28 88 25 105 15 108
REMARK Flexibility Score: inf
ROOT
ATOM      1  C   UNL A   1      33.349  28.564  26.200  1.00  0.00     0.021 C 
ENDROOT
BRANCH   1   2
ATOM      2  C   UNL A   1      32.774  29.773  26.949  1.00  0.00     0.002 C 
BRANCH   2   3
ATOM      3  C   UNL A   1      31.568  30.438  26.279  1.00  0.00     0.002 C 
BRANCH   3   4
ATOM      4  C   UNL A   1      31.423  31.935  26.548  1.00  0.00     0.021 C 
BRANCH   4   5
ATOM      5  C   UNL A   1      32.642  32.579  27.189  1.00  0.00     0.116 C 
BRANCH   5   6
ATOM      6  N   UNL A   1      32.414  33.970  27.542  1.00  0.00    -0.352 N 
ATOM      7  O   UNL A   1      32.625  35.840  28.794  1.00  0.00    -0.269 OA
ATOM      8  C   UNL A   1      33.043  34.724  28.501  1.00  0.00     0.251 C 
ATOM      9  H   UNL A   1      31.716  34.432  27.025  1.00  0.00     0.163 HD
BRANCH   8  10
ATOM     10  C   UNL A   1      34.217  34.163  29.200  1.00  0.00     0.039 A 
ATOM     11  C   UNL A   1      35.509  34.491  28.779  1.00  0.00     0.014 A 
ATOM     12  C   UNL A   1      34.021  33.285  30.267  1.00  0.00     0.014 A 
ATOM     13  C   UNL A   1      36.597  33.828  29.329  1.00  0.00     0.010 A 
ATOM     14  C   UNL A   1      35.125  32.691  30.883  1.00  0.00     0.010 A 
ATOM     15  C   UNL A   1      36.420  32.936  30.399  1.00  0.00    -0.014 A 
BRANCH  15  16
ATOM     16  C   UNL A   1      37.615  32.327  31.032  1.00  0.00     0.031 A 
ATOM     17  C   UNL A   1      38.055  32.720  32.412  1.00  0.00     0.074 A 
ATOM     18  C   UNL A   1      38.278  31.370  30.354  1.00  0.00     0.049 A 
ATOM     19  N   UNL A   1      39.056  32.256  33.119  1.00  0.00    -0.248 NA
ATOM     20  C   UNL A   1      37.281  33.771  33.087  1.00  0.00     0.031 C 
ATOM     21  C   UNL A   1      37.939  30.914  29.005  1.00  0.00     0.029 A 
ATOM     22  N   UNL A   1      39.347  30.590  30.711  1.00  0.00    -0.354 N 
ATOM     23  C   UNL A   1      39.040  32.965  34.313  1.00  0.00     0.074 A 
ATOM     24  C   UNL A   1      37.949  33.913  34.225  1.00  0.00     0.031 C 
ATOM     25  C   UNL A   1      38.738  29.890  28.674  1.00  0.00     0.029 A 
ATOM     26  C   UNL A   1      39.690  29.665  29.757  1.00  0.00     0.049 A 
ATOM     27  H   UNL A   1      39.823  30.684  31.568  1.00  0.00     0.167 HD
ATOM     28  C   UNL A   1      39.855  32.826  35.385  1.00  0.00     0.037 A 
ATOM     29  C   UNL A   1      40.666  28.740  29.747  1.00  0.00     0.037 A 
ATOM     30  C   UNL A   1      40.933  31.872  35.465  1.00  0.00     0.049 A 
ATOM     31  C   UNL A   1      41.574  28.627  30.935  1.00  0.00     0.074 A 
ATOM     32  C   UNL A   1      41.809  31.647  36.514  1.00  0.00     0.029 A 
ATOM     33  N   UNL A   1      41.283  30.986  34.456  1.00  0.00    -0.354 N 
ATOM     34  N   UNL A   1      41.545  29.299  32.059  1.00  0.00    -0.248 NA
ATOM     35  C   UNL A   1      42.653  27.635  30.851  1.00  0.00     0.031 C 
ATOM     36  C   UNL A   1      42.715  30.655  36.123  1.00  0.00     0.029 A 
ATOM     37  C   UNL A   1      42.373  30.224  34.851  1.00  0.00     0.049 A 
ATOM     38  H   UNL A   1      40.825  30.908  33.588  1.00  0.00     0.167 HD
ATOM     39  C   UNL A   1      42.593  28.810  32.822  1.00  0.00     0.074 A 
ATOM     40  C   UNL A   1      43.226  27.767  32.040  1.00  0.00     0.031 C 
ATOM     41  C   UNL A   1      42.996  29.194  34.058  1.00  0.00     0.037 A 
BRANCH  28  42
ATOM     42  C   UNL A   1      39.626  33.731  36.562  1.00  0.00     0.064 A 
ATOM     43  C   UNL A   1      40.270  34.975  36.641  1.00  0.00     0.173 A 
ATOM     44  C   UNL A   1      38.817  33.342  37.640  1.00  0.00     0.173 A 
ATOM     45  F   UNL A   1      41.060  35.393  35.640  1.00  0.00    -0.203 F 
ATOM     46  C   UNL A   1      40.120  35.792  37.759  1.00  0.00     0.198 A 
ATOM     47  C   UNL A   1      38.647  34.174  38.746  1.00  0.00     0.198 A 
ATOM     48  F   UNL A   1      38.171  32.167  37.612  1.00  0.00    -0.203 F 
ATOM     49  F   UNL A   1      40.767  36.963  37.823  1.00  0.00    -0.200 F 
ATOM     50  C   UNL A   1      39.305  35.394  38.808  1.00  0.00     0.200 A 
ATOM     51  F   UNL A   1      37.841  33.798  39.747  1.00  0.00    -0.200 F 
ATOM     52  F   UNL A   1      39.150  36.186  39.877  1.00  0.00    -0.200 F 
ENDBRANCH  28  42
BRANCH  29  53
ATOM     53  C   UNL A   1      40.802  27.846  28.570  1.00  0.00     0.064 A 
ATOM     54  C   UNL A   1      41.593  28.207  27.468  1.00  0.00     0.173 A 
ATOM     55  C   UNL A   1      40.081  26.648  28.493  1.00  0.00     0.173 A 
ATOM     56  F   UNL A   1      42.294  29.350  27.491  1.00  0.00    -0.203 F 
ATOM     57  C   UNL A   1      41.630  27.419  26.321  1.00  0.00     0.198 A 
ATOM     58  C   UNL A   1      40.141  25.846  27.354  1.00  0.00     0.198 A 
ATOM     59  F   UNL A   1      39.323  26.254  29.527  1.00  0.00    -0.203 F 
ATOM     60  F   UNL A   1      42.353  27.813  25.264  1.00  0.00    -0.200 F 
ATOM     61  C   UNL A   1      40.906  26.238  26.266  1.00  0.00     0.200 A 
ATOM     62  F   UNL A   1      39.453  24.697  27.311  1.00  0.00    -0.200 F 
ATOM     63  F   UNL A   1      40.940  25.481  25.162  1.00  0.00    -0.200 F 
ENDBRANCH  29  53
BRANCH  41  64
ATOM     64  C   UNL A   1      44.171  28.476  34.653  1.00  0.00     0.064 A 
ATOM     65  C   UNL A   1      43.981  27.313  35.415  1.00  0.00     0.173 A 
ATOM     66  C   UNL A   1      45.476  28.971  34.518  1.00  0.00     0.173 A 
ATOM     67  F   UNL A   1      42.751  26.804  35.578  1.00  0.00    -0.203 F 
ATOM     68  C   UNL A   1      45.056  26.680  36.031  1.00  0.00     0.198 A 
ATOM     69  C   UNL A   1      46.552  28.318  35.114  1.00  0.00     0.198 A 
ATOM     70  F   UNL A   1      45.709  30.071  33.787  1.00  0.00    -0.203 F 
ATOM     71  F   UNL A   1      44.849  25.588  36.780  1.00  0.00    -0.200 F 
ATOM     72  C   UNL A   1      46.340  27.180  35.877  1.00  0.00     0.200 A 
ATOM     73  F   UNL A   1      47.796  28.788  34.943  1.00  0.00    -0.200 F 
ATOM     74  F   UNL A   1      47.376  26.561  36.461  1.00  0.00    -0.200 F 
ENDBRANCH  41  64
ENDBRANCH  15  16
ENDBRANCH   8  10
ENDBRANCH   5   6
ENDBRANCH   4   5
ENDBRANCH   3   4
ENDBRANCH   2   3
ENDBRANCH   1   2
BRANCH   1  75
ATOM     75  C   UNL A   1      32.446  27.337  26.216  1.00  0.00     0.116 C 
BRANCH  75  76
ATOM     76  N   UNL A   1      31.216  27.600  25.500  1.00  0.00    -0.354 N 
ATOM     77  C   UNL A   1      30.439  26.773  24.752  1.00  0.00     0.244 C 
ATOM     78  H   UNL A   1      30.890  28.526  25.566  1.00  0.00     0.163 HD
ATOM     79  O   UNL A   1      29.494  27.277  24.143  1.00  0.00    -0.273 OA
BRANCH  77  80
ATOM     80  C   UNL A   1      30.740  25.271  24.646  1.00  0.00     0.197 C 
BRANCH  80  81
ATOM     81  N   UNL A   1      30.101  24.533  25.746  1.00  0.00    -0.340 N 
ATOM     82  C   UNL A   1      30.485  23.476  26.510  1.00  0.00     0.243 C 
ATOM     83  H   UNL A   1      29.207  24.874  25.976  1.00  0.00     0.164 HD
ATOM     84  O   UNL A   1      29.691  23.179  27.410  1.00  0.00    -0.273 OA
BRANCH  82  85
ATOM     85  C   UNL A   1      31.666  22.544  26.138  1.00  0.00     0.176 C 
BRANCH  85  86
ATOM     86  N   UNL A   1      32.099  22.616  24.744  1.00  0.00    -0.340 N 
ATOM     87  C   UNL A   1      32.567  21.690  23.854  1.00  0.00     0.251 C 
ATOM     88  H   UNL A   1      32.042  23.523  24.366  1.00  0.00     0.164 HD
ATOM     89  O   UNL A   1      33.063  22.105  22.807  1.00  0.00    -0.269 OA
BRANCH  87  90
ATOM     90  C   UNL A   1      32.467  20.217  24.050  1.00  0.00     0.040 A 
ATOM     91  C   UNL A   1      32.302  19.291  23.012  1.00  0.00     0.017 A 
ATOM     92  C   UNL A   1      32.704  19.735  25.348  1.00  0.00     0.017 A 
ATOM     93  C   UNL A   1      32.348  17.918  23.266  1.00  0.00     0.040 A 
ATOM     94  C   UNL A   1      32.754  18.362  25.603  1.00  0.00     0.040 A 
ATOM     95  C   UNL A   1      32.574  17.466  24.559  1.00  0.00     0.123 A 
ATOM     96  F   UNL A   1      32.641  16.151  24.794  1.00  0.00    -0.207 F 
ENDBRANCH  87  90
ENDBRANCH  85  86
BRANCH  85  97
ATOM     97  C   UNL A   1      32.859  22.716  27.115  1.00  0.00     0.070 C 
BRANCH  97  98
ATOM     98  C   UNL A   1      34.237  22.910  26.513  1.00  0.00    -0.045 A 
ATOM     99  C   UNL A   1      35.188  21.881  26.448  1.00  0.00     0.007 A 
ATOM    100  C   UNL A   1      34.565  24.162  25.966  1.00  0.00     0.007 A 
ATOM    101  C   UNL A   1      36.462  22.121  25.919  1.00  0.00     0.046 A 
ATOM    102  C   UNL A   1      35.829  24.396  25.424  1.00  0.00     0.046 A 
ATOM    103  C   UNL A   1      36.773  23.381  25.421  1.00  0.00     0.115 A 
BRANCH 103 104
ATOM    104  O   UNL A   1      38.006  23.661  24.912  1.00  0.00    -0.508 OA
ATOM    105  H   UNL A   1      38.617  22.969  24.757  1.00  0.00     0.293 HD
ENDBRANCH 103 104
ENDBRANCH  97  98
ENDBRANCH  85  97
ENDBRANCH  82  85
ENDBRANCH  80  81
BRANCH  80 106
ATOM    106  C   UNL A   1      30.396  24.705  23.254  1.00  0.00     0.191 C 
BRANCH 106 107
ATOM    107  O   UNL A   1      31.534  24.652  22.390  1.00  0.00    -0.394 OA
ATOM    108  H   UNL A   1      32.203  24.063  22.771  1.00  0.00     0.210 HD
ENDBRANCH 106 107
ENDBRANCH  80 106
ENDBRANCH  77  80
ENDBRANCH  75  76
ENDBRANCH   1  75
TORSDOF 22
ENDMDL
