MODEL 1
REMARK VINA RESULT:     -13.1      0.000      0.000
REMARK SMILES CC1(C)Cc2c(-c3ccccc3)c(-c3ccc(Cl)cc3)c(CC(=O)NCCCCCCNC(=O)c3ccc(-c4c5nc(c(-c6c(F)c(F)c(F)c(F)c6F)c6ccc([nH]6)c(-c6c(F)c(F)c(F)c(F)c6F)c6nc(c(-c7c(F)c(F)c(F)c(F)c7F)c7ccc4[nH]7)C=C6)C=C5)cc3)n2C1
REMARK SMILES IDX 28 1 27 2 26 3 25 4 23 5 24 6 22 8 21 9 1 10 2 11 3 12 4 13
REMARK SMILES IDX 99 14 5 15 98 16 6 17 13 18 7 19 8 20 12 21 9 22 11 23 10 24
REMARK SMILES IDX 14 25 15 26 20 27 16 28 19 29 17 30 18 31 29 32 30 33 31 34
REMARK SMILES IDX 32 35 33 36 34 38 35 39 36 40 97 41 37 42 96 43 38 44 39 45
REMARK SMILES IDX 40 46 90 47 41 48 95 49 89 50 91 51 42 52 94 53 88 54 87 55
REMARK SMILES IDX 43 57 75 58 55 59 74 60 56 61 59 62 73 63 92 64 57 65 58 66
REMARK SMILES IDX 72 68 93 69 60 70 44 71 45 72 53 73 46 74 47 75 51 76 54 77
REMARK SMILES IDX 48 78 49 79 52 80 50 81 76 82 77 83 85 84 78 85 79 86 83 87
REMARK SMILES IDX 86 88 80 89 81 90 84 91 82 92 61 93 62 94 70 95 63 96 64 97
REMARK SMILES IDX 68 98 71 99 65 100 66 101 69 102 67 103
REMARK H PARENT 25 7 32 37 91 56 59 67
REMARK Flexibility Score: inf
ROOT
ATOM      1  C   UNL A   1      41.878  40.595  25.757  1.00  0.00     0.002 C 
ENDROOT
BRANCH   1   2
ATOM      2  C   UNL A   1      43.084  41.531  25.855  1.00  0.00     0.021 C 
BRANCH   2   3
ATOM      3  C   UNL A   1      43.423  42.253  24.553  1.00  0.00     0.116 C 
BRANCH   3   4
ATOM      4  N   UNL A   1      42.252  42.739  23.864  1.00  0.00    -0.356 N 
ATOM      5  C   UNL A   1      42.018  42.806  22.520  1.00  0.00     0.225 C 
ATOM      6  O   UNL A   1      40.901  43.180  22.155  1.00  0.00    -0.275 OA
ATOM      7  H   UNL A   1      41.525  43.068  24.441  1.00  0.00     0.163 HD
BRANCH   5   8
ATOM      8  C   UNL A   1      43.074  42.356  21.519  1.00  0.00     0.154 C 
BRANCH   8   9
ATOM      9  C   UNL A   1      43.782  43.491  20.837  1.00  0.00     0.036 A 
ATOM     10  C   UNL A   1      41.451  45.171  16.751  1.00  0.00     0.013 C 
ATOM     11  C   UNL A   1      42.656  44.572  17.477  1.00  0.00    -0.012 C 
ATOM     12  C   UNL A   1      43.402  43.637  16.505  1.00  0.00     0.013 C 
ATOM     13  C   UNL A   1      43.633  45.677  17.998  1.00  0.00     0.063 C 
ATOM     14  C   UNL A   1      42.219  43.813  18.765  1.00  0.00     0.129 C 
ATOM     15  C   UNL A   1      44.122  45.087  19.267  1.00  0.00     0.027 A 
ATOM     16  N   UNL A   1      43.331  44.054  19.677  1.00  0.00    -0.346 N 
ATOM     17  C   UNL A   1      45.129  45.235  20.182  1.00  0.00     0.011 A 
ATOM     18  C   UNL A   1      44.912  44.233  21.194  1.00  0.00     0.011 A 
BRANCH  17  19
ATOM     19  C   UNL A   1      46.168  46.239  20.142  1.00  0.00    -0.016 A 
ATOM     20  C   UNL A   1      45.942  47.505  20.687  1.00  0.00     0.009 A 
ATOM     21  C   UNL A   1      47.455  45.884  19.715  1.00  0.00     0.009 A 
ATOM     22  C   UNL A   1      47.009  48.388  20.850  1.00  0.00     0.001 A 
ATOM     23  C   UNL A   1      48.515  46.777  19.862  1.00  0.00     0.001 A 
ATOM     24  C   UNL A   1      48.294  48.021  20.446  1.00  0.00     0.000 A 
ENDBRANCH  17  19
BRANCH  18  25
ATOM     25  C   UNL A   1      45.705  44.061  22.404  1.00  0.00    -0.016 A 
ATOM     26  C   UNL A   1      46.496  42.912  22.551  1.00  0.00     0.010 A 
ATOM     27  C   UNL A   1      45.573  44.939  23.484  1.00  0.00     0.010 A 
ATOM     28  C   UNL A   1      47.147  42.648  23.759  1.00  0.00     0.021 A 
ATOM     29  C   UNL A   1      46.242  44.689  24.686  1.00  0.00     0.021 A 
ATOM     30  C   UNL A   1      47.020  43.541  24.820  1.00  0.00     0.041 A 
ATOM     31  Cl  UNL A   1      47.803  43.210  26.316  1.00  0.00    -0.084 Cl
ENDBRANCH  18  25
ENDBRANCH   8   9
ENDBRANCH   5   8
ENDBRANCH   3   4
ENDBRANCH   2   3
ENDBRANCH   1   2
BRANCH   1  32
ATOM     32  C   UNL A   1      41.892  39.391  26.716  1.00  0.00     0.002 C 
BRANCH  32  33
ATOM     33  C   UNL A   1      42.354  39.657  28.159  1.00  0.00     0.021 C 
BRANCH  33  34
ATOM     34  C   UNL A   1      43.626  38.924  28.532  1.00  0.00     0.116 C 
BRANCH  34  35
ATOM     35  N   UNL A   1      44.219  38.182  27.409  1.00  0.00    -0.352 N 
ATOM     36  C   UNL A   1      44.469  36.823  27.318  1.00  0.00     0.251 C 
ATOM     37  H   UNL A   1      44.468  38.719  26.623  1.00  0.00     0.163 HD
ATOM     38  O   UNL A   1      45.270  36.367  26.501  1.00  0.00    -0.269 OA
BRANCH  36  39
ATOM     39  C   UNL A   1      43.729  35.925  28.215  1.00  0.00     0.039 A 
ATOM     40  C   UNL A   1      44.319  35.143  29.211  1.00  0.00     0.014 A 
ATOM     41  C   UNL A   1      42.352  35.960  28.070  1.00  0.00     0.014 A 
ATOM     42  C   UNL A   1      43.478  34.434  30.068  1.00  0.00     0.010 A 
ATOM     43  C   UNL A   1      41.575  35.596  29.119  1.00  0.00     0.010 A 
ATOM     44  C   UNL A   1      42.096  34.674  30.001  1.00  0.00    -0.014 A 
BRANCH  44  45
ATOM     45  C   UNL A   1      41.113  34.027  30.850  1.00  0.00     0.031 A 
ATOM     46  C   UNL A   1      41.572  33.850  32.244  1.00  0.00     0.074 A 
ATOM     47  C   UNL A   1      39.829  33.853  30.449  1.00  0.00     0.049 A 
ATOM     48  N   UNL A   1      41.903  32.749  32.826  1.00  0.00    -0.248 NA
ATOM     49  C   UNL A   1      41.870  35.055  33.032  1.00  0.00     0.031 C 
ATOM     50  C   UNL A   1      39.182  34.309  29.202  1.00  0.00     0.029 A 
ATOM     51  N   UNL A   1      38.789  33.281  31.116  1.00  0.00    -0.354 N 
ATOM     52  C   UNL A   1      42.228  33.100  34.133  1.00  0.00     0.074 A 
ATOM     53  C   UNL A   1      42.402  34.527  34.136  1.00  0.00     0.031 C 
ATOM     54  C   UNL A   1      37.839  34.187  29.298  1.00  0.00     0.029 A 
ATOM     55  C   UNL A   1      37.544  33.465  30.518  1.00  0.00     0.049 A 
ATOM     56  H   UNL A   1      38.907  32.778  31.953  1.00  0.00     0.167 HD
ATOM     57  C   UNL A   1      42.009  32.220  35.150  1.00  0.00     0.037 A 
ATOM     58  C   UNL A   1      36.351  33.024  30.986  1.00  0.00     0.037 A 
ATOM     59  C   UNL A   1      41.739  30.905  34.622  1.00  0.00     0.049 A 
ATOM     60  C   UNL A   1      36.641  31.950  31.957  1.00  0.00     0.074 A 
ATOM     61  C   UNL A   1      42.469  29.893  34.039  1.00  0.00     0.029 A 
ATOM     62  N   UNL A   1      40.425  30.710  34.283  1.00  0.00    -0.354 N 
ATOM     63  N   UNL A   1      37.147  30.801  31.612  1.00  0.00    -0.248 NA
ATOM     64  C   UNL A   1      36.740  32.285  33.372  1.00  0.00     0.031 C 
ATOM     65  C   UNL A   1      41.571  29.222  33.152  1.00  0.00     0.029 A 
ATOM     66  C   UNL A   1      40.311  29.810  33.260  1.00  0.00     0.049 A 
ATOM     67  H   UNL A   1      39.664  31.158  34.718  1.00  0.00     0.167 HD
ATOM     68  C   UNL A   1      37.988  30.473  32.658  1.00  0.00     0.074 A 
ATOM     69  C   UNL A   1      37.571  31.319  33.771  1.00  0.00     0.031 C 
ATOM     70  C   UNL A   1      39.137  29.780  32.420  1.00  0.00     0.037 A 
BRANCH  57  71
ATOM     71  C   UNL A   1      41.528  32.605  36.535  1.00  0.00     0.064 A 
ATOM     72  C   UNL A   1      40.312  33.312  36.657  1.00  0.00     0.173 A 
ATOM     73  C   UNL A   1      42.340  32.601  37.690  1.00  0.00     0.173 A 
ATOM     74  F   UNL A   1      39.467  33.398  35.620  1.00  0.00    -0.203 F 
ATOM     75  C   UNL A   1      39.980  34.022  37.817  1.00  0.00     0.198 A 
ATOM     76  C   UNL A   1      41.983  33.268  38.861  1.00  0.00     0.198 A 
ATOM     77  F   UNL A   1      43.562  32.058  37.708  1.00  0.00    -0.203 F 
ATOM     78  F   UNL A   1      38.874  34.777  37.841  1.00  0.00    -0.200 F 
ATOM     79  C   UNL A   1      40.820  34.005  38.915  1.00  0.00     0.200 A 
ATOM     80  F   UNL A   1      42.822  33.257  39.906  1.00  0.00    -0.200 F 
ATOM     81  F   UNL A   1      40.535  34.731  40.003  1.00  0.00    -0.200 F 
ENDBRANCH  57  71
BRANCH  58  82
ATOM     82  C   UNL A   1      35.079  33.773  31.048  1.00  0.00     0.064 A 
ATOM     83  C   UNL A   1      34.862  34.790  31.991  1.00  0.00     0.173 A 
ATOM     84  C   UNL A   1      34.236  33.755  29.923  1.00  0.00     0.173 A 
ATOM     85  F   UNL A   1      35.687  34.919  33.040  1.00  0.00    -0.203 F 
ATOM     86  C   UNL A   1      33.852  35.743  31.815  1.00  0.00     0.198 A 
ATOM     87  C   UNL A   1      33.276  34.742  29.721  1.00  0.00     0.198 A 
ATOM     88  F   UNL A   1      34.434  32.862  28.943  1.00  0.00    -0.203 F 
ATOM     89  F   UNL A   1      33.697  36.731  32.707  1.00  0.00    -0.200 F 
ATOM     90  C   UNL A   1      33.068  35.724  30.673  1.00  0.00     0.200 A 
ATOM     91  F   UNL A   1      32.626  34.799  28.552  1.00  0.00    -0.200 F 
ATOM     92  F   UNL A   1      32.153  36.681  30.461  1.00  0.00    -0.200 F 
ENDBRANCH  58  82
BRANCH  70  93
ATOM     93  C   UNL A   1      39.227  29.066  31.105  1.00  0.00     0.064 A 
ATOM     94  C   UNL A   1      39.770  29.621  29.935  1.00  0.00     0.173 A 
ATOM     95  C   UNL A   1      38.800  27.736  31.051  1.00  0.00     0.173 A 
ATOM     96  F   UNL A   1      40.265  30.863  29.930  1.00  0.00    -0.203 F 
ATOM     97  C   UNL A   1      39.848  28.886  28.753  1.00  0.00     0.198 A 
ATOM     98  C   UNL A   1      38.908  26.993  29.881  1.00  0.00     0.198 A 
ATOM     99  F   UNL A   1      38.309  27.147  32.152  1.00  0.00    -0.203 F 
ATOM    100  F   UNL A   1      40.357  29.445  27.644  1.00  0.00    -0.200 F 
ATOM    101  C   UNL A   1      39.422  27.570  28.730  1.00  0.00     0.200 A 
ATOM    102  F   UNL A   1      38.529  25.707  29.874  1.00  0.00    -0.200 F 
ATOM    103  F   UNL A   1      39.525  26.849  27.605  1.00  0.00    -0.200 F 
ENDBRANCH  70  93
ENDBRANCH  44  45
ENDBRANCH  36  39
ENDBRANCH  34  35
ENDBRANCH  33  34
ENDBRANCH  32  33
ENDBRANCH   1  32
TORSDOF 16
ENDMDL
MODEL 2
REMARK VINA RESULT:     -12.7      2.387      5.796
REMARK SMILES CC1(C)Cc2c(-c3ccccc3)c(-c3ccc(Cl)cc3)c(CC(=O)NCCCCCCNC(=O)c3ccc(-c4c5nc(c(-c6c(F)c(F)c(F)c(F)c6F)c6ccc([nH]6)c(-c6c(F)c(F)c(F)c(F)c6F)c6nc(c(-c7c(F)c(F)c(F)c(F)c7F)c7ccc4[nH]7)C=C6)C=C5)cc3)n2C1
REMARK SMILES IDX 28 1 27 2 26 3 25 4 23 5 24 6 22 8 21 9 1 10 2 11 3 12 4 13
REMARK SMILES IDX 99 14 5 15 98 16 6 17 13 18 7 19 8 20 12 21 9 22 11 23 10 24
REMARK SMILES IDX 14 25 15 26 20 27 16 28 19 29 17 30 18 31 29 32 30 33 31 34
REMARK SMILES IDX 32 35 33 36 34 38 35 39 36 40 97 41 37 42 96 43 38 44 39 45
REMARK SMILES IDX 40 46 90 47 41 48 95 49 89 50 91 51 42 52 94 53 88 54 87 55
REMARK SMILES IDX 43 57 75 58 55 59 74 60 56 61 59 62 73 63 92 64 57 65 58 66
REMARK SMILES IDX 72 68 93 69 60 70 44 71 45 72 53 73 46 74 47 75 51 76 54 77
REMARK SMILES IDX 48 78 49 79 52 80 50 81 76 82 77 83 85 84 78 85 79 86 83 87
REMARK SMILES IDX 86 88 80 89 81 90 84 91 82 92 61 93 62 94 70 95 63 96 64 97
REMARK SMILES IDX 68 98 71 99 65 100 66 101 69 102 67 103
REMARK H PARENT 25 7 32 37 91 56 59 67
REMARK Flexibility Score: inf
ROOT
ATOM      1  C   UNL A   1      41.584  40.953  25.745  1.00  0.00     0.002 C 
ENDROOT
BRANCH   1   2
ATOM      2  C   UNL A   1      42.962  41.613  25.667  1.00  0.00     0.021 C 
BRANCH   2   3
ATOM      3  C   UNL A   1      43.271  42.258  24.319  1.00  0.00     0.116 C 
BRANCH   3   4
ATOM      4  N   UNL A   1      42.082  42.585  23.570  1.00  0.00    -0.356 N 
ATOM      5  C   UNL A   1      41.920  42.667  22.217  1.00  0.00     0.225 C 
ATOM      6  O   UNL A   1      40.782  42.878  21.792  1.00  0.00    -0.275 OA
ATOM      7  H   UNL A   1      41.279  42.774  24.108  1.00  0.00     0.163 HD
BRANCH   5   8
ATOM      8  C   UNL A   1      43.091  42.424  21.273  1.00  0.00     0.154 C 
BRANCH   8   9
ATOM      9  C   UNL A   1      43.631  43.677  20.648  1.00  0.00     0.036 A 
ATOM     10  C   UNL A   1      41.222  45.080  16.503  1.00  0.00     0.013 C 
ATOM     11  C   UNL A   1      42.479  44.661  17.267  1.00  0.00    -0.012 C 
ATOM     12  C   UNL A   1      43.403  43.887  16.308  1.00  0.00     0.013 C 
ATOM     13  C   UNL A   1      43.243  45.893  17.856  1.00  0.00     0.063 C 
ATOM     14  C   UNL A   1      42.119  43.805  18.518  1.00  0.00     0.129 C 
ATOM     15  C   UNL A   1      43.771  45.352  19.130  1.00  0.00     0.027 A 
ATOM     16  N   UNL A   1      43.141  44.195  19.483  1.00  0.00    -0.346 N 
ATOM     17  C   UNL A   1      44.705  45.633  20.091  1.00  0.00     0.011 A 
ATOM     18  C   UNL A   1      44.612  44.579  21.070  1.00  0.00     0.011 A 
BRANCH  17  19
ATOM     19  C   UNL A   1      45.569  46.791  20.119  1.00  0.00    -0.016 A 
ATOM     20  C   UNL A   1      46.934  46.655  19.857  1.00  0.00     0.009 A 
ATOM     21  C   UNL A   1      45.005  48.069  20.235  1.00  0.00     0.009 A 
ATOM     22  C   UNL A   1      47.717  47.792  19.662  1.00  0.00     0.001 A 
ATOM     23  C   UNL A   1      45.796  49.203  20.058  1.00  0.00     0.001 A 
ATOM     24  C   UNL A   1      47.147  49.063  19.753  1.00  0.00     0.000 A 
ENDBRANCH  17  19
BRANCH  18  25
ATOM     25  C   UNL A   1      45.375  44.502  22.309  1.00  0.00    -0.016 A 
ATOM     26  C   UNL A   1      46.389  43.541  22.434  1.00  0.00     0.010 A 
ATOM     27  C   UNL A   1      45.013  45.258  23.428  1.00  0.00     0.010 A 
ATOM     28  C   UNL A   1      47.033  43.344  23.659  1.00  0.00     0.021 A 
ATOM     29  C   UNL A   1      45.672  45.079  24.648  1.00  0.00     0.021 A 
ATOM     30  C   UNL A   1      46.674  44.117  24.759  1.00  0.00     0.041 A 
ATOM     31  Cl  UNL A   1      47.449  43.863  26.274  1.00  0.00    -0.084 Cl
ENDBRANCH  18  25
ENDBRANCH   8   9
ENDBRANCH   5   8
ENDBRANCH   3   4
ENDBRANCH   2   3
ENDBRANCH   1   2
BRANCH   1  32
ATOM     32  C   UNL A   1      41.528  39.616  26.504  1.00  0.00     0.002 C 
BRANCH  32  33
ATOM     33  C   UNL A   1      41.737  39.672  28.027  1.00  0.00     0.021 C 
BRANCH  33  34
ATOM     34  C   UNL A   1      42.935  38.879  28.504  1.00  0.00     0.116 C 
BRANCH  34  35
ATOM     35  N   UNL A   1      43.883  38.556  27.427  1.00  0.00    -0.352 N 
ATOM     36  C   UNL A   1      44.683  37.433  27.300  1.00  0.00     0.251 C 
ATOM     37  H   UNL A   1      43.956  39.221  26.705  1.00  0.00     0.163 HD
ATOM     38  O   UNL A   1      45.672  37.425  26.565  1.00  0.00    -0.269 OA
BRANCH  36  39
ATOM     39  C   UNL A   1      44.305  36.229  28.053  1.00  0.00     0.039 A 
ATOM     40  C   UNL A   1      44.774  35.920  29.332  1.00  0.00     0.014 A 
ATOM     41  C   UNL A   1      43.359  35.428  27.436  1.00  0.00     0.014 A 
ATOM     42  C   UNL A   1      44.232  34.807  29.974  1.00  0.00     0.010 A 
ATOM     43  C   UNL A   1      42.589  34.618  28.202  1.00  0.00     0.010 A 
ATOM     44  C   UNL A   1      43.133  34.161  29.383  1.00  0.00    -0.014 A 
BRANCH  44  45
ATOM     45  C   UNL A   1      42.457  33.011  29.956  1.00  0.00     0.031 A 
ATOM     46  C   UNL A   1      43.039  31.721  29.531  1.00  0.00     0.074 A 
ATOM     47  C   UNL A   1      41.566  33.142  30.969  1.00  0.00     0.049 A 
ATOM     48  N   UNL A   1      42.523  30.856  28.726  1.00  0.00    -0.248 NA
ATOM     49  C   UNL A   1      44.434  31.436  29.899  1.00  0.00     0.031 C 
ATOM     50  C   UNL A   1      41.173  34.363  31.702  1.00  0.00     0.029 A 
ATOM     51  N   UNL A   1      40.857  32.179  31.622  1.00  0.00    -0.354 N 
ATOM     52  C   UNL A   1      43.434  29.805  28.673  1.00  0.00     0.074 A 
ATOM     53  C   UNL A   1      44.662  30.308  29.224  1.00  0.00     0.031 C 
ATOM     54  C   UNL A   1      40.475  34.039  32.814  1.00  0.00     0.029 A 
ATOM     55  C   UNL A   1      40.199  32.618  32.769  1.00  0.00     0.049 A 
ATOM     56  H   UNL A   1      40.813  31.248  31.307  1.00  0.00     0.167 HD
ATOM     57  C   UNL A   1      42.994  28.531  28.475  1.00  0.00     0.037 A 
ATOM     58  C   UNL A   1      39.452  31.862  33.609  1.00  0.00     0.037 A 
ATOM     59  C   UNL A   1      41.618  28.541  28.040  1.00  0.00     0.049 A 
ATOM     60  C   UNL A   1      39.079  30.639  32.871  1.00  0.00     0.074 A 
ATOM     61  C   UNL A   1      40.938  28.848  26.882  1.00  0.00     0.029 A 
ATOM     62  N   UNL A   1      40.717  28.601  29.072  1.00  0.00    -0.354 N 
ATOM     63  N   UNL A   1      38.271  30.646  31.850  1.00  0.00    -0.248 NA
ATOM     64  C   UNL A   1      39.909  29.449  33.011  1.00  0.00     0.031 C 
ATOM     65  C   UNL A   1      39.653  29.318  27.294  1.00  0.00     0.029 A 
ATOM     66  C   UNL A   1      39.569  29.234  28.683  1.00  0.00     0.049 A 
ATOM     67  H   UNL A   1      40.876  28.238  29.973  1.00  0.00     0.167 HD
ATOM     68  C   UNL A   1      38.785  29.683  31.004  1.00  0.00     0.074 A 
ATOM     69  C   UNL A   1      39.671  28.872  31.831  1.00  0.00     0.031 C 
ATOM     70  C   UNL A   1      38.685  29.837  29.653  1.00  0.00     0.037 A 
BRANCH  57  71
ATOM     71  C   UNL A   1      43.578  27.302  29.143  1.00  0.00     0.064 A 
ATOM     72  C   UNL A   1      43.832  26.159  28.355  1.00  0.00     0.173 A 
ATOM     73  C   UNL A   1      43.594  27.086  30.539  1.00  0.00     0.173 A 
ATOM     74  F   UNL A   1      43.826  26.240  27.016  1.00  0.00    -0.203 F 
ATOM     75  C   UNL A   1      44.007  24.891  28.921  1.00  0.00     0.198 A 
ATOM     76  C   UNL A   1      43.818  25.830  31.101  1.00  0.00     0.198 A 
ATOM     77  F   UNL A   1      43.279  28.043  31.417  1.00  0.00    -0.203 F 
ATOM     78  F   UNL A   1      44.123  23.818  28.128  1.00  0.00    -0.200 F 
ATOM     79  C   UNL A   1      43.993  24.728  30.294  1.00  0.00     0.200 A 
ATOM     80  F   UNL A   1      43.778  25.690  32.434  1.00  0.00    -0.200 F 
ATOM     81  F   UNL A   1      44.100  23.509  30.837  1.00  0.00    -0.200 F 
ENDBRANCH  57  71
BRANCH  58  82
ATOM     82  C   UNL A   1      39.475  31.874  35.086  1.00  0.00     0.064 A 
ATOM     83  C   UNL A   1      40.677  31.909  35.809  1.00  0.00     0.173 A 
ATOM     84  C   UNL A   1      38.307  32.252  35.771  1.00  0.00     0.173 A 
ATOM     85  F   UNL A   1      41.839  31.648  35.192  1.00  0.00    -0.203 F 
ATOM     86  C   UNL A   1      40.709  32.306  37.151  1.00  0.00     0.198 A 
ATOM     87  C   UNL A   1      38.353  32.707  37.085  1.00  0.00     0.198 A 
ATOM     88  F   UNL A   1      37.134  32.318  35.125  1.00  0.00    -0.203 F 
ATOM     89  F   UNL A   1      41.877  32.377  37.804  1.00  0.00    -0.200 F 
ATOM     90  C   UNL A   1      39.547  32.716  37.784  1.00  0.00     0.200 A 
ATOM     91  F   UNL A   1      37.254  33.235  37.639  1.00  0.00    -0.200 F 
ATOM     92  F   UNL A   1      39.584  33.173  39.044  1.00  0.00    -0.200 F 
ENDBRANCH  58  82
BRANCH  70  93
ATOM     93  C   UNL A   1      37.676  30.833  29.166  1.00  0.00     0.064 A 
ATOM     94  C   UNL A   1      37.866  32.224  29.174  1.00  0.00     0.173 A 
ATOM     95  C   UNL A   1      36.491  30.346  28.609  1.00  0.00     0.173 A 
ATOM     96  F   UNL A   1      39.005  32.759  29.625  1.00  0.00    -0.203 F 
ATOM     97  C   UNL A   1      36.893  33.090  28.677  1.00  0.00     0.198 A 
ATOM     98  C   UNL A   1      35.534  31.209  28.084  1.00  0.00     0.198 A 
ATOM     99  F   UNL A   1      36.277  29.023  28.542  1.00  0.00    -0.203 F 
ATOM    100  F   UNL A   1      37.093  34.418  28.709  1.00  0.00    -0.200 F 
ATOM    101  C   UNL A   1      35.731  32.581  28.127  1.00  0.00     0.200 A 
ATOM    102  F   UNL A   1      34.428  30.708  27.517  1.00  0.00    -0.200 F 
ATOM    103  F   UNL A   1      34.808  33.408  27.617  1.00  0.00    -0.200 F 
ENDBRANCH  70  93
ENDBRANCH  44  45
ENDBRANCH  36  39
ENDBRANCH  34  35
ENDBRANCH  33  34
ENDBRANCH  32  33
ENDBRANCH   1  32
TORSDOF 16
ENDMDL
MODEL 3
REMARK VINA RESULT:     -12.4      9.169     15.244
REMARK SMILES CC1(C)Cc2c(-c3ccccc3)c(-c3ccc(Cl)cc3)c(CC(=O)NCCCCCCNC(=O)c3ccc(-c4c5nc(c(-c6c(F)c(F)c(F)c(F)c6F)c6ccc([nH]6)c(-c6c(F)c(F)c(F)c(F)c6F)c6nc(c(-c7c(F)c(F)c(F)c(F)c7F)c7ccc4[nH]7)C=C6)C=C5)cc3)n2C1
REMARK SMILES IDX 28 1 27 2 26 3 25 4 23 5 24 6 22 8 21 9 1 10 2 11 3 12 4 13
REMARK SMILES IDX 99 14 5 15 98 16 6 17 13 18 7 19 8 20 12 21 9 22 11 23 10 24
REMARK SMILES IDX 14 25 15 26 20 27 16 28 19 29 17 30 18 31 29 32 30 33 31 34
REMARK SMILES IDX 32 35 33 36 34 38 35 39 36 40 97 41 37 42 96 43 38 44 39 45
REMARK SMILES IDX 40 46 90 47 41 48 95 49 89 50 91 51 42 52 94 53 88 54 87 55
REMARK SMILES IDX 43 57 75 58 55 59 74 60 56 61 59 62 73 63 92 64 57 65 58 66
REMARK SMILES IDX 72 68 93 69 60 70 44 71 45 72 53 73 46 74 47 75 51 76 54 77
REMARK SMILES IDX 48 78 49 79 52 80 50 81 76 82 77 83 85 84 78 85 79 86 83 87
REMARK SMILES IDX 86 88 80 89 81 90 84 91 82 92 61 93 62 94 70 95 63 96 64 97
REMARK SMILES IDX 68 98 71 99 65 100 66 101 69 102 67 103
REMARK H PARENT 25 7 32 37 91 56 59 67
REMARK Flexibility Score: inf
ROOT
ATOM      1  C   UNL A   1      34.608  31.855  28.009  1.00  0.00     0.002 C 
ENDROOT
BRANCH   1   2
ATOM      2  C   UNL A   1      35.374  30.531  27.994  1.00  0.00     0.021 C 
BRANCH   2   3
ATOM      3  C   UNL A   1      34.919  29.557  26.910  1.00  0.00     0.116 C 
BRANCH   3   4
ATOM      4  N   UNL A   1      33.778  28.770  27.310  1.00  0.00    -0.356 N 
ATOM      5  C   UNL A   1      33.323  27.595  26.783  1.00  0.00     0.225 C 
ATOM      6  O   UNL A   1      32.371  27.050  27.346  1.00  0.00    -0.275 OA
ATOM      7  H   UNL A   1      33.257  29.129  28.064  1.00  0.00     0.163 HD
BRANCH   5   8
ATOM      8  C   UNL A   1      34.023  26.949  25.594  1.00  0.00     0.154 C 
BRANCH   8   9
ATOM      9  C   UNL A   1      33.304  25.748  25.050  1.00  0.00     0.036 A 
ATOM     10  C   UNL A   1      28.652  26.702  23.500  1.00  0.00     0.013 C 
ATOM     11  C   UNL A   1      29.667  25.965  24.375  1.00  0.00    -0.012 C 
ATOM     12  C   UNL A   1      29.007  25.640  25.729  1.00  0.00     0.013 C 
ATOM     13  C   UNL A   1      30.170  24.645  23.703  1.00  0.00     0.063 C 
ATOM     14  C   UNL A   1      30.962  26.809  24.568  1.00  0.00     0.129 C 
ATOM     15  C   UNL A   1      31.583  24.588  24.145  1.00  0.00     0.027 A 
ATOM     16  N   UNL A   1      32.007  25.793  24.624  1.00  0.00    -0.346 N 
ATOM     17  C   UNL A   1      32.626  23.707  24.238  1.00  0.00     0.011 A 
ATOM     18  C   UNL A   1      33.731  24.442  24.799  1.00  0.00     0.011 A 
BRANCH  17  19
ATOM     19  C   UNL A   1      32.610  22.328  23.806  1.00  0.00    -0.016 A 
ATOM     20  C   UNL A   1      32.716  21.298  24.744  1.00  0.00     0.009 A 
ATOM     21  C   UNL A   1      32.313  22.026  22.471  1.00  0.00     0.009 A 
ATOM     22  C   UNL A   1      32.475  19.981  24.354  1.00  0.00     0.001 A 
ATOM     23  C   UNL A   1      32.091  20.707  22.081  1.00  0.00     0.001 A 
ATOM     24  C   UNL A   1      32.154  19.687  23.027  1.00  0.00     0.000 A 
ENDBRANCH  17  19
BRANCH  18  25
ATOM     25  C   UNL A   1      35.075  23.921  25.017  1.00  0.00    -0.016 A 
ATOM     26  C   UNL A   1      35.828  23.480  23.919  1.00  0.00     0.010 A 
ATOM     27  C   UNL A   1      35.566  23.707  26.308  1.00  0.00     0.010 A 
ATOM     28  C   UNL A   1      37.055  22.839  24.111  1.00  0.00     0.021 A 
ATOM     29  C   UNL A   1      36.804  23.087  26.502  1.00  0.00     0.021 A 
ATOM     30  C   UNL A   1      37.539  22.649  25.403  1.00  0.00     0.041 A 
ATOM     31  Cl  UNL A   1      39.038  21.842  25.645  1.00  0.00    -0.084 Cl
ENDBRANCH  18  25
ENDBRANCH   8   9
ENDBRANCH   5   8
ENDBRANCH   3   4
ENDBRANCH   2   3
ENDBRANCH   1   2
BRANCH   1  32
ATOM     32  C   UNL A   1      35.477  33.126  28.003  1.00  0.00     0.002 C 
BRANCH  32  33
ATOM     33  C   UNL A   1      36.955  32.959  28.394  1.00  0.00     0.021 C 
BRANCH  33  34
ATOM     34  C   UNL A   1      37.377  33.834  29.556  1.00  0.00     0.116 C 
BRANCH  34  35
ATOM     35  N   UNL A   1      36.537  33.656  30.750  1.00  0.00    -0.352 N 
ATOM     36  C   UNL A   1      36.339  32.504  31.493  1.00  0.00     0.251 C 
ATOM     37  H   UNL A   1      36.056  34.457  31.061  1.00  0.00     0.163 HD
ATOM     38  O   UNL A   1      35.369  32.377  32.241  1.00  0.00    -0.269 OA
BRANCH  36  39
ATOM     39  C   UNL A   1      37.340  31.434  31.384  1.00  0.00     0.039 A 
ATOM     40  C   UNL A   1      37.061  30.134  30.955  1.00  0.00     0.014 A 
ATOM     41  C   UNL A   1      38.641  31.822  31.661  1.00  0.00     0.014 A 
ATOM     42  C   UNL A   1      38.134  29.260  30.782  1.00  0.00     0.010 A 
ATOM     43  C   UNL A   1      39.662  31.109  31.126  1.00  0.00     0.010 A 
ATOM     44  C   UNL A   1      39.438  29.772  30.878  1.00  0.00    -0.014 A 
BRANCH  44  45
ATOM     45  C   UNL A   1      40.641  28.981  30.694  1.00  0.00     0.031 A 
ATOM     46  C   UNL A   1      41.322  28.650  31.963  1.00  0.00     0.074 A 
ATOM     47  C   UNL A   1      40.938  28.403  29.504  1.00  0.00     0.049 A 
ATOM     48  N   UNL A   1      42.436  29.126  32.403  1.00  0.00    -0.248 NA
ATOM     49  C   UNL A   1      40.596  27.829  32.945  1.00  0.00     0.031 C 
ATOM     50  C   UNL A   1      40.139  28.387  28.261  1.00  0.00     0.029 A 
ATOM     51  N   UNL A   1      42.006  27.630  29.165  1.00  0.00    -0.354 N 
ATOM     52  C   UNL A   1      42.666  28.482  33.616  1.00  0.00     0.074 A 
ATOM     53  C   UNL A   1      41.418  27.878  33.994  1.00  0.00     0.031 C 
ATOM     54  C   UNL A   1      40.642  27.481  27.393  1.00  0.00     0.029 A 
ATOM     55  C   UNL A   1      41.899  27.002  27.926  1.00  0.00     0.049 A 
ATOM     56  H   UNL A   1      42.792  27.525  29.748  1.00  0.00     0.167 HD
ATOM     57  C   UNL A   1      43.942  28.242  34.028  1.00  0.00     0.037 A 
ATOM     58  C   UNL A   1      42.805  26.163  27.366  1.00  0.00     0.037 A 
ATOM     59  C   UNL A   1      44.875  29.001  33.231  1.00  0.00     0.049 A 
ATOM     60  C   UNL A   1      44.089  26.393  28.057  1.00  0.00     0.074 A 
ATOM     61  C   UNL A   1      45.264  30.319  33.131  1.00  0.00     0.029 A 
ATOM     62  N   UNL A   1      45.227  28.381  32.061  1.00  0.00    -0.354 N 
ATOM     63  N   UNL A   1      44.763  27.502  27.950  1.00  0.00    -0.248 NA
ATOM     64  C   UNL A   1      44.443  25.546  29.189  1.00  0.00     0.031 C 
ATOM     65  C   UNL A   1      45.651  30.511  31.769  1.00  0.00     0.029 A 
ATOM     66  C   UNL A   1      45.537  29.297  31.094  1.00  0.00     0.049 A 
ATOM     67  H   UNL A   1      45.253  27.405  31.932  1.00  0.00     0.167 HD
ATOM     68  C   UNL A   1      45.308  27.691  29.205  1.00  0.00     0.074 A 
ATOM     69  C   UNL A   1      45.226  26.392  29.864  1.00  0.00     0.031 C 
ATOM     70  C   UNL A   1      45.479  28.952  29.693  1.00  0.00     0.037 A 
BRANCH  57  71
ATOM     71  C   UNL A   1      44.393  26.989  34.752  1.00  0.00     0.064 A 
ATOM     72  C   UNL A   1      44.176  25.737  34.138  1.00  0.00     0.173 A 
ATOM     73  C   UNL A   1      44.721  26.937  36.126  1.00  0.00     0.173 A 
ATOM     74  F   UNL A   1      43.843  25.663  32.841  1.00  0.00    -0.203 F 
ATOM     75  C   UNL A   1      44.208  24.540  34.863  1.00  0.00     0.198 A 
ATOM     76  C   UNL A   1      44.800  25.738  36.833  1.00  0.00     0.198 A 
ATOM     77  F   UNL A   1      44.863  28.037  36.872  1.00  0.00    -0.203 F 
ATOM     78  F   UNL A   1      43.876  23.389  34.262  1.00  0.00    -0.200 F 
ATOM     79  C   UNL A   1      44.513  24.543  36.211  1.00  0.00     0.200 A 
ATOM     80  F   UNL A   1      45.076  25.767  38.144  1.00  0.00    -0.200 F 
ATOM     81  F   UNL A   1      44.485  23.408  36.920  1.00  0.00    -0.200 F 
ENDBRANCH  57  71
BRANCH  58  82
ATOM     82  C   UNL A   1      42.537  24.883  26.679  1.00  0.00     0.064 A 
ATOM     83  C   UNL A   1      43.139  24.558  25.454  1.00  0.00     0.173 A 
ATOM     84  C   UNL A   1      41.998  23.822  27.427  1.00  0.00     0.173 A 
ATOM     85  F   UNL A   1      43.752  25.509  24.734  1.00  0.00    -0.203 F 
ATOM     86  C   UNL A   1      43.202  23.235  25.001  1.00  0.00     0.198 A 
ATOM     87  C   UNL A   1      42.120  22.502  27.004  1.00  0.00     0.198 A 
ATOM     88  F   UNL A   1      41.477  24.045  28.642  1.00  0.00    -0.203 F 
ATOM     89  F   UNL A   1      43.825  22.947  23.851  1.00  0.00    -0.200 F 
ATOM     90  C   UNL A   1      42.702  22.207  25.784  1.00  0.00     0.200 A 
ATOM     91  F   UNL A   1      41.766  21.509  27.830  1.00  0.00    -0.200 F 
ATOM     92  F   UNL A   1      42.831  20.931  25.393  1.00  0.00    -0.200 F 
ENDBRANCH  58  82
BRANCH  70  93
ATOM     93  C   UNL A   1      45.442  30.067  28.692  1.00  0.00     0.064 A 
ATOM     94  C   UNL A   1      44.317  30.869  28.437  1.00  0.00     0.173 A 
ATOM     95  C   UNL A   1      46.621  30.375  28.009  1.00  0.00     0.173 A 
ATOM     96  F   UNL A   1      43.174  30.681  29.104  1.00  0.00    -0.203 F 
ATOM     97  C   UNL A   1      44.364  31.909  27.511  1.00  0.00     0.198 A 
ATOM     98  C   UNL A   1      46.678  31.433  27.109  1.00  0.00     0.198 A 
ATOM     99  F   UNL A   1      47.735  29.663  28.246  1.00  0.00    -0.203 F 
ATOM    100  F   UNL A   1      43.271  32.651  27.274  1.00  0.00    -0.200 F 
ATOM    101  C   UNL A   1      45.547  32.194  26.852  1.00  0.00     0.200 A 
ATOM    102  F   UNL A   1      47.836  31.728  26.503  1.00  0.00    -0.200 F 
ATOM    103  F   UNL A   1      45.607  33.215  25.986  1.00  0.00    -0.200 F 
ENDBRANCH  70  93
ENDBRANCH  44  45
ENDBRANCH  36  39
ENDBRANCH  34  35
ENDBRANCH  33  34
ENDBRANCH  32  33
ENDBRANCH   1  32
TORSDOF 16
ENDMDL
