MODEL 1
REMARK VINA RESULT:     -12.2      0.000      0.000
REMARK SMILES COC(=O)[C@@H]1CN(C(=O)NC(=O)CCCC(=O)NCCCCCCNC(=O)c2ccc(-c3c4nc(c(-c5c(F)c(F)c(F)c(F)c5F)c5ccc([nH]5)c(-c5c(F)c(F)c(F)c(F)c5F)c5nc(c(-c6c(F)c(F)c(F)c(F)c6F)c6ccc3[nH]6)C=C5)C=C4)cc2)C[C@H]1C
REMARK SMILES IDX 19 1 18 2 16 3 17 4 15 6 14 7 13 8 11 9 8 10 9 11 10 12
REMARK SMILES IDX 12 14 7 15 5 16 6 17 92 18 91 19 93 20 3 21 4 22 2 23 1 24
REMARK SMILES IDX 20 25 21 26 22 27 23 28 24 29 25 30 26 31 27 33 28 34 29 35
REMARK SMILES IDX 90 36 30 37 89 38 31 39 32 40 33 41 83 42 34 43 88 44 82 45
REMARK SMILES IDX 84 46 35 47 87 48 81 49 80 50 36 52 68 53 48 54 67 55 49 56
REMARK SMILES IDX 52 57 66 58 85 59 50 60 51 61 65 63 86 64 53 65 37 66 38 67
REMARK SMILES IDX 46 68 39 69 40 70 44 71 47 72 41 73 42 74 45 75 43 76 69 77
REMARK SMILES IDX 70 78 78 79 71 80 72 81 76 82 79 83 73 84 74 85 77 86 75 87
REMARK SMILES IDX 54 88 55 89 63 90 56 91 57 92 61 93 64 94 58 95 59 96 62 97
REMARK SMILES IDX 60 98
REMARK H PARENT 18 5 10 13 25 32 84 51 52 62
REMARK Flexibility Score: inf
ROOT
ATOM      1  C   UNL A   1      33.035  29.588  23.356  1.00  0.00     0.116 C 
ENDROOT
BRANCH   1   2
ATOM      2  N   UNL A   1      32.338  28.526  22.326  1.00  0.00    -0.356 N 
ATOM      3  C   UNL A   1      32.144  26.586  22.054  1.00  0.00     0.220 C 
ATOM      4  O   UNL A   1      31.684  25.950  21.075  1.00  0.00    -0.275 OA
ATOM      5  H   UNL A   1      31.863  29.013  21.614  1.00  0.00     0.163 HD
BRANCH   3   6
ATOM      6  C   UNL A   1      32.696  25.289  23.205  1.00  0.00     0.100 C 
BRANCH   6   7
ATOM      7  C   UNL A   1      33.242  25.331  24.678  1.00  0.00     0.020 C 
BRANCH   7   8
ATOM      8  C   UNL A   1      32.480  25.733  25.958  1.00  0.00     0.101 C 
BRANCH   8   9
ATOM      9  C   UNL A   1      30.978  25.792  26.013  1.00  0.00     0.227 C 
ATOM     10  C   UNL A   1      30.471  23.507  26.874  1.00  0.00     0.324 C 
ATOM     11  O   UNL A   1      29.680  22.933  27.626  1.00  0.00    -0.248 OA
ATOM     12  N   UNL A   1      30.260  24.813  26.614  1.00  0.00    -0.278 N 
ATOM     13  H   UNL A   1      29.383  25.128  26.934  1.00  0.00     0.174 HD
ATOM     14  O   UNL A   1      30.370  26.703  25.444  1.00  0.00    -0.275 OA
BRANCH  10  15
ATOM     15  N   UNL A   1      31.500  22.823  26.284  1.00  0.00    -0.323 N 
ATOM     16  C   UNL A   1      34.194  21.625  24.925  1.00  0.00     0.123 C 
ATOM     17  C   UNL A   1      33.429  22.424  26.643  1.00  0.00     0.137 C 
ATOM     18  C   UNL A   1      32.658  21.486  23.593  1.00  0.00     0.021 C 
ATOM     19  C   UNL A   1      31.028  22.247  24.494  1.00  0.00     0.125 C 
ATOM     20  C   UNL A   1      32.903  22.207  22.234  1.00  0.00     0.010 C 
BRANCH  16  21
ATOM     21  C   UNL A   1      35.045  20.368  25.016  1.00  0.00     0.310 C 
ATOM     22  O   UNL A   1      34.620  19.283  24.625  1.00  0.00    -0.252 OA
BRANCH  21  23
ATOM     23  O   UNL A   1      36.344  20.486  25.378  1.00  0.00    -0.469 OA
ATOM     24  C   UNL A   1      37.364  21.147  24.621  1.00  0.00     0.282 C 
ENDBRANCH  21  23
ENDBRANCH  16  21
ENDBRANCH  10  15
ENDBRANCH   8   9
ENDBRANCH   7   8
ENDBRANCH   6   7
ENDBRANCH   3   6
ENDBRANCH   1   2
BRANCH   1  25
ATOM     25  C   UNL A   1      32.554  29.275  24.782  1.00  0.00     0.021 C 
BRANCH  25  26
ATOM     26  C   UNL A   1      31.370  30.120  25.218  1.00  0.00     0.002 C 
BRANCH  26  27
ATOM     27  C   UNL A   1      31.513  30.653  26.643  1.00  0.00     0.002 C 
BRANCH  27  28
ATOM     28  C   UNL A   1      31.417  32.178  26.752  1.00  0.00     0.021 C 
BRANCH  28  29
ATOM     29  C   UNL A   1      32.731  32.855  27.124  1.00  0.00     0.116 C 
BRANCH  29  30
ATOM     30  N   UNL A   1      32.507  34.195  27.629  1.00  0.00    -0.352 N 
ATOM     31  C   UNL A   1      33.039  34.783  28.741  1.00  0.00     0.251 C 
ATOM     32  H   UNL A   1      31.891  34.754  27.102  1.00  0.00     0.163 HD
ATOM     33  O   UNL A   1      32.550  35.807  29.201  1.00  0.00    -0.269 OA
BRANCH  31  34
ATOM     34  C   UNL A   1      34.215  34.162  29.371  1.00  0.00     0.039 A 
ATOM     35  C   UNL A   1      35.478  34.446  28.859  1.00  0.00     0.014 A 
ATOM     36  C   UNL A   1      34.057  33.294  30.458  1.00  0.00     0.014 A 
ATOM     37  C   UNL A   1      36.592  33.846  29.436  1.00  0.00     0.010 A 
ATOM     38  C   UNL A   1      35.176  32.782  31.096  1.00  0.00     0.010 A 
ATOM     39  C   UNL A   1      36.449  33.013  30.560  1.00  0.00    -0.014 A 
BRANCH  39  40
ATOM     40  C   UNL A   1      37.623  32.316  31.131  1.00  0.00     0.031 A 
ATOM     41  C   UNL A   1      38.095  32.662  32.516  1.00  0.00     0.074 A 
ATOM     42  C   UNL A   1      38.259  31.384  30.401  1.00  0.00     0.049 A 
ATOM     43  N   UNL A   1      39.083  32.151  33.205  1.00  0.00    -0.248 NA
ATOM     44  C   UNL A   1      37.383  33.749  33.210  1.00  0.00     0.031 C 
ATOM     45  C   UNL A   1      37.919  31.008  29.028  1.00  0.00     0.029 A 
ATOM     46  N   UNL A   1      39.321  30.577  30.716  1.00  0.00    -0.354 N 
ATOM     47  C   UNL A   1      39.113  32.858  34.400  1.00  0.00     0.074 A 
ATOM     48  C   UNL A   1      38.101  33.886  34.312  1.00  0.00     0.031 C 
ATOM     49  C   UNL A   1      38.729  30.013  28.633  1.00  0.00     0.029 A 
ATOM     50  C   UNL A   1      39.667  29.710  29.710  1.00  0.00     0.049 A 
ATOM     51  H   UNL A   1      39.789  30.615  31.581  1.00  0.00     0.167 HD
ATOM     52  C   UNL A   1      39.894  32.649  35.487  1.00  0.00     0.037 A 
ATOM     53  C   UNL A   1      40.632  28.774  29.669  1.00  0.00     0.037 A 
ATOM     54  C   UNL A   1      40.889  31.613  35.566  1.00  0.00     0.049 A 
ATOM     55  C   UNL A   1      41.487  28.560  30.887  1.00  0.00     0.074 A 
ATOM     56  C   UNL A   1      41.704  31.278  36.632  1.00  0.00     0.029 A 
ATOM     57  N   UNL A   1      41.209  30.747  34.529  1.00  0.00    -0.354 N 
ATOM     58  N   UNL A   1      41.462  29.184  32.041  1.00  0.00    -0.248 NA
ATOM     59  C   UNL A   1      42.495  27.495  30.803  1.00  0.00     0.031 C 
ATOM     60  C   UNL A   1      42.564  30.255  36.218  1.00  0.00     0.029 A 
ATOM     61  C   UNL A   1      42.229  29.894  34.923  1.00  0.00     0.049 A 
ATOM     62  H   UNL A   1      40.777  30.740  33.645  1.00  0.00     0.167 HD
ATOM     63  C   UNL A   1      42.419  28.564  32.833  1.00  0.00     0.074 A 
ATOM     64  C   UNL A   1      42.994  27.505  32.030  1.00  0.00     0.031 C 
ATOM     65  C   UNL A   1      42.787  28.841  34.109  1.00  0.00     0.037 A 
BRANCH  52  66
ATOM     66  C   UNL A   1      39.705  33.566  36.663  1.00  0.00     0.064 A 
ATOM     67  C   UNL A   1      38.853  33.240  37.731  1.00  0.00     0.173 A 
ATOM     68  C   UNL A   1      40.390  34.789  36.727  1.00  0.00     0.173 A 
ATOM     69  F   UNL A   1      38.160  32.091  37.718  1.00  0.00    -0.203 F 
ATOM     70  C   UNL A   1      38.662  34.121  38.794  1.00  0.00     0.198 A 
ATOM     71  C   UNL A   1      40.228  35.648  37.810  1.00  0.00     0.198 A 
ATOM     72  F   UNL A   1      41.219  35.153  35.736  1.00  0.00    -0.203 F 
ATOM     73  F   UNL A   1      37.789  33.818  39.764  1.00  0.00    -0.200 F 
ATOM     74  C   UNL A   1      39.355  35.320  38.836  1.00  0.00     0.200 A 
ATOM     75  F   UNL A   1      40.911  36.801  37.857  1.00  0.00    -0.200 F 
ATOM     76  F   UNL A   1      39.173  36.166  39.860  1.00  0.00    -0.200 F 
ENDBRANCH  52  66
BRANCH  53  77
ATOM     77  C   UNL A   1      40.811  27.949  28.445  1.00  0.00     0.064 A 
ATOM     78  C   UNL A   1      41.627  28.384  27.391  1.00  0.00     0.173 A 
ATOM     79  C   UNL A   1      40.173  26.708  28.304  1.00  0.00     0.173 A 
ATOM     80  F   UNL A   1      42.248  29.570  27.472  1.00  0.00    -0.203 F 
ATOM     81  C   UNL A   1      41.775  27.625  26.232  1.00  0.00     0.198 A 
ATOM     82  C   UNL A   1      40.349  25.933  27.160  1.00  0.00     0.198 A 
ATOM     83  F   UNL A   1      39.392  26.240  29.288  1.00  0.00    -0.203 F 
ATOM     84  F   UNL A   1      42.517  28.090  25.219  1.00  0.00    -0.200 F 
ATOM     85  C   UNL A   1      41.140  26.397  26.121  1.00  0.00     0.200 A 
ATOM     86  F   UNL A   1      39.751  24.738  27.066  1.00  0.00    -0.200 F 
ATOM     87  F   UNL A   1      41.286  25.663  25.009  1.00  0.00    -0.200 F 
ENDBRANCH  53  77
BRANCH  65  88
ATOM     88  C   UNL A   1      43.819  27.945  34.735  1.00  0.00     0.064 A 
ATOM     89  C   UNL A   1      45.183  28.274  34.752  1.00  0.00     0.173 A 
ATOM     90  C   UNL A   1      43.431  26.735  35.334  1.00  0.00     0.173 A 
ATOM     91  F   UNL A   1      45.611  29.413  34.186  1.00  0.00    -0.203 F 
ATOM     92  C   UNL A   1      46.123  27.402  35.295  1.00  0.00     0.198 A 
ATOM     93  C   UNL A   1      44.368  25.888  35.916  1.00  0.00     0.198 A 
ATOM     94  F   UNL A   1      42.138  26.377  35.360  1.00  0.00    -0.203 F 
ATOM     95  F   UNL A   1      47.428  27.700  35.227  1.00  0.00    -0.200 F 
ATOM     96  C   UNL A   1      45.716  26.212  35.881  1.00  0.00     0.200 A 
ATOM     97  F   UNL A   1      43.968  24.751  36.501  1.00  0.00    -0.200 F 
ATOM     98  F   UNL A   1      46.621  25.374  36.402  1.00  0.00    -0.200 F 
ENDBRANCH  65  88
ENDBRANCH  39  40
ENDBRANCH  31  34
ENDBRANCH  29  30
ENDBRANCH  28  29
ENDBRANCH  27  28
ENDBRANCH  26  27
ENDBRANCH  25  26
ENDBRANCH   1  25
TORSDOF 19
ENDMDL
MODEL 2
REMARK VINA RESULT:     -12.0      6.037     11.749
REMARK SMILES COC(=O)[C@@H]1CN(C(=O)NC(=O)CCCC(=O)NCCCCCCNC(=O)c2ccc(-c3c4nc(c(-c5c(F)c(F)c(F)c(F)c5F)c5ccc([nH]5)c(-c5c(F)c(F)c(F)c(F)c5F)c5nc(c(-c6c(F)c(F)c(F)c(F)c6F)c6ccc3[nH]6)C=C5)C=C4)cc2)C[C@H]1C
REMARK SMILES IDX 19 1 18 2 16 3 17 4 15 6 14 7 13 8 11 9 8 10 9 11 10 12
REMARK SMILES IDX 12 14 7 15 5 16 6 17 92 18 91 19 93 20 3 21 4 22 2 23 1 24
REMARK SMILES IDX 20 25 21 26 22 27 23 28 24 29 25 30 26 31 27 33 28 34 29 35
REMARK SMILES IDX 90 36 30 37 89 38 31 39 32 40 33 41 83 42 34 43 88 44 82 45
REMARK SMILES IDX 84 46 35 47 87 48 81 49 80 50 36 52 68 53 48 54 67 55 49 56
REMARK SMILES IDX 52 57 66 58 85 59 50 60 51 61 65 63 86 64 53 65 37 66 38 67
REMARK SMILES IDX 46 68 39 69 40 70 44 71 47 72 41 73 42 74 45 75 43 76 69 77
REMARK SMILES IDX 70 78 78 79 71 80 72 81 76 82 79 83 73 84 74 85 77 86 75 87
REMARK SMILES IDX 54 88 55 89 63 90 56 91 57 92 61 93 64 94 58 95 59 96 62 97
REMARK SMILES IDX 60 98
REMARK H PARENT 18 5 10 13 25 32 84 51 52 62
REMARK Flexibility Score: inf
ROOT
ATOM      1  C   UNL A   1      39.744  21.732  26.818  1.00  0.00     0.116 C 
ENDROOT
BRANCH   1   2
ATOM      2  N   UNL A   1      38.963  22.158  25.445  1.00  0.00    -0.356 N 
ATOM      3  C   UNL A   1      37.187  22.749  24.835  1.00  0.00     0.220 C 
ATOM      4  O   UNL A   1      36.735  22.877  23.672  1.00  0.00    -0.275 OA
ATOM      5  H   UNL A   1      39.579  22.100  24.679  1.00  0.00     0.163 HD
BRANCH   3   6
ATOM      6  C   UNL A   1      35.779  23.170  25.908  1.00  0.00     0.100 C 
BRANCH   6   7
ATOM      7  C   UNL A   1      34.489  22.380  26.336  1.00  0.00     0.020 C 
BRANCH   7   8
ATOM      8  C   UNL A   1      33.095  22.418  25.676  1.00  0.00     0.101 C 
BRANCH   8   9
ATOM      9  C   UNL A   1      32.761  21.598  24.459  1.00  0.00     0.227 C 
ATOM     10  C   UNL A   1      33.202  23.267  22.659  1.00  0.00     0.324 C 
ATOM     11  O   UNL A   1      33.654  23.326  21.513  1.00  0.00    -0.248 OA
ATOM     12  N   UNL A   1      33.042  22.048  23.213  1.00  0.00    -0.278 N 
ATOM     13  H   UNL A   1      33.154  21.317  22.562  1.00  0.00     0.174 HD
ATOM     14  O   UNL A   1      32.157  20.528  24.577  1.00  0.00    -0.275 OA
BRANCH  10  15
ATOM     15  N   UNL A   1      32.830  24.404  23.325  1.00  0.00    -0.323 N 
ATOM     16  C   UNL A   1      32.196  26.909  25.291  1.00  0.00     0.123 C 
ATOM     17  C   UNL A   1      33.698  25.877  24.366  1.00  0.00     0.137 C 
ATOM     18  C   UNL A   1      30.438  26.065  24.699  1.00  0.00     0.021 C 
ATOM     19  C   UNL A   1      30.903  24.523  23.493  1.00  0.00     0.125 C 
ATOM     20  C   UNL A   1      29.523  25.577  25.862  1.00  0.00     0.010 C 
BRANCH  16  21
ATOM     21  C   UNL A   1      32.202  28.428  25.225  1.00  0.00     0.310 C 
ATOM     22  O   UNL A   1      32.123  29.018  24.150  1.00  0.00    -0.252 OA
BRANCH  21  23
ATOM     23  O   UNL A   1      32.125  29.130  26.380  1.00  0.00    -0.469 OA
ATOM     24  C   UNL A   1      31.626  28.633  27.627  1.00  0.00     0.282 C 
ENDBRANCH  21  23
ENDBRANCH  16  21
ENDBRANCH  10  15
ENDBRANCH   8   9
ENDBRANCH   7   8
ENDBRANCH   6   7
ENDBRANCH   3   6
ENDBRANCH   1   2
BRANCH   1  25
ATOM     25  C   UNL A   1      41.169  22.304  26.768  1.00  0.00     0.021 C 
BRANCH  25  26
ATOM     26  C   UNL A   1      42.195  21.428  27.467  1.00  0.00     0.002 C 
BRANCH  26  27
ATOM     27  C   UNL A   1      41.730  19.980  27.626  1.00  0.00     0.002 C 
BRANCH  27  28
ATOM     28  C   UNL A   1      42.532  18.974  26.797  1.00  0.00     0.021 C 
BRANCH  28  29
ATOM     29  C   UNL A   1      42.582  19.300  25.308  1.00  0.00     0.116 C 
BRANCH  29  30
ATOM     30  N   UNL A   1      43.835  18.871  24.719  1.00  0.00    -0.352 N 
ATOM     31  C   UNL A   1      44.905  19.635  24.350  1.00  0.00     0.251 C 
ATOM     32  H   UNL A   1      43.927  17.903  24.565  1.00  0.00     0.163 HD
ATOM     33  O   UNL A   1      45.772  19.183  23.613  1.00  0.00    -0.269 OA
BRANCH  31  34
ATOM     34  C   UNL A   1      44.997  21.012  24.862  1.00  0.00     0.039 A 
ATOM     35  C   UNL A   1      44.542  22.057  24.061  1.00  0.00     0.014 A 
ATOM     36  C   UNL A   1      45.545  21.260  26.125  1.00  0.00     0.014 A 
ATOM     37  C   UNL A   1      44.646  23.362  24.529  1.00  0.00     0.010 A 
ATOM     38  C   UNL A   1      45.551  22.551  26.631  1.00  0.00     0.010 A 
ATOM     39  C   UNL A   1      45.147  23.617  25.818  1.00  0.00    -0.014 A 
BRANCH  39  40
ATOM     40  C   UNL A   1      45.327  25.008  26.290  1.00  0.00     0.031 A 
ATOM     41  C   UNL A   1      46.679  25.659  26.194  1.00  0.00     0.074 A 
ATOM     42  C   UNL A   1      44.279  25.675  26.804  1.00  0.00     0.049 A 
ATOM     43  N   UNL A   1      47.039  26.874  26.526  1.00  0.00    -0.248 NA
ATOM     44  C   UNL A   1      47.784  24.828  25.687  1.00  0.00     0.031 C 
ATOM     45  C   UNL A   1      42.936  25.122  26.993  1.00  0.00     0.029 A 
ATOM     46  N   UNL A   1      44.177  26.964  27.256  1.00  0.00    -0.354 N 
ATOM     47  C   UNL A   1      48.403  26.942  26.277  1.00  0.00     0.074 A 
ATOM     48  C   UNL A   1      48.824  25.630  25.844  1.00  0.00     0.031 C 
ATOM     49  C   UNL A   1      42.134  26.080  27.482  1.00  0.00     0.029 A 
ATOM     50  C   UNL A   1      42.914  27.299  27.677  1.00  0.00     0.049 A 
ATOM     51  H   UNL A   1      44.936  27.589  27.277  1.00  0.00     0.167 HD
ATOM     52  C   UNL A   1      49.226  28.014  26.371  1.00  0.00     0.037 A 
ATOM     53  C   UNL A   1      42.443  28.462  28.159  1.00  0.00     0.037 A 
ATOM     54  C   UNL A   1      48.791  29.320  26.790  1.00  0.00     0.049 A 
ATOM     55  C   UNL A   1      43.376  29.639  28.255  1.00  0.00     0.074 A 
ATOM     56  C   UNL A   1      49.525  30.488  26.876  1.00  0.00     0.029 A 
ATOM     57  N   UNL A   1      47.501  29.626  27.202  1.00  0.00    -0.354 N 
ATOM     58  N   UNL A   1      44.649  29.716  27.949  1.00  0.00    -0.248 NA
ATOM     59  C   UNL A   1      42.799  30.896  28.746  1.00  0.00     0.031 C 
ATOM     60  C   UNL A   1      48.697  31.485  27.405  1.00  0.00     0.029 A 
ATOM     61  C   UNL A   1      47.425  30.960  27.569  1.00  0.00     0.049 A 
ATOM     62  H   UNL A   1      46.751  28.988  27.231  1.00  0.00     0.167 HD
ATOM     63  C   UNL A   1      45.017  31.037  28.171  1.00  0.00     0.074 A 
ATOM     64  C   UNL A   1      43.824  31.725  28.623  1.00  0.00     0.031 C 
ATOM     65  C   UNL A   1      46.227  31.629  28.014  1.00  0.00     0.037 A 
BRANCH  52  66
ATOM     66  C   UNL A   1      50.674  27.808  26.023  1.00  0.00     0.064 A 
ATOM     67  C   UNL A   1      51.638  27.505  26.999  1.00  0.00     0.173 A 
ATOM     68  C   UNL A   1      51.106  27.911  24.692  1.00  0.00     0.173 A 
ATOM     69  F   UNL A   1      51.287  27.409  28.290  1.00  0.00    -0.203 F 
ATOM     70  C   UNL A   1      52.982  27.356  26.661  1.00  0.00     0.198 A 
ATOM     71  C   UNL A   1      52.442  27.721  24.352  1.00  0.00     0.198 A 
ATOM     72  F   UNL A   1      50.230  28.197  23.716  1.00  0.00    -0.203 F 
ATOM     73  F   UNL A   1      53.892  27.139  27.620  1.00  0.00    -0.200 F 
ATOM     74  C   UNL A   1      53.382  27.457  25.337  1.00  0.00     0.200 A 
ATOM     75  F   UNL A   1      52.825  27.804  23.070  1.00  0.00    -0.200 F 
ATOM     76  F   UNL A   1      54.673  27.310  25.013  1.00  0.00    -0.200 F 
ENDBRANCH  52  66
BRANCH  53  77
ATOM     77  C   UNL A   1      41.014  28.577  28.552  1.00  0.00     0.064 A 
ATOM     78  C   UNL A   1      40.042  29.002  27.635  1.00  0.00     0.173 A 
ATOM     79  C   UNL A   1      40.589  28.262  29.850  1.00  0.00     0.173 A 
ATOM     80  F   UNL A   1      40.400  29.328  26.384  1.00  0.00    -0.203 F 
ATOM     81  C   UNL A   1      38.707  29.136  28.009  1.00  0.00     0.198 A 
ATOM     82  C   UNL A   1      39.248  28.362  30.214  1.00  0.00     0.198 A 
ATOM     83  F   UNL A   1      41.476  27.839  30.763  1.00  0.00    -0.203 F 
ATOM     84  F   UNL A   1      37.809  29.596  27.128  1.00  0.00    -0.200 F 
ATOM     85  C   UNL A   1      38.310  28.810  29.297  1.00  0.00     0.200 A 
ATOM     86  F   UNL A   1      38.867  28.026  31.454  1.00  0.00    -0.200 F 
ATOM     87  F   UNL A   1      37.025  28.932  29.656  1.00  0.00    -0.200 F 
ENDBRANCH  53  77
BRANCH  65  88
ATOM     88  C   UNL A   1      46.305  33.108  28.273  1.00  0.00     0.064 A 
ATOM     89  C   UNL A   1      46.678  33.629  29.521  1.00  0.00     0.173 A 
ATOM     90  C   UNL A   1      46.006  34.020  27.247  1.00  0.00     0.173 A 
ATOM     91  F   UNL A   1      46.966  32.804  30.540  1.00  0.00    -0.203 F 
ATOM     92  C   UNL A   1      46.695  35.003  29.748  1.00  0.00     0.198 A 
ATOM     93  C   UNL A   1      46.068  35.392  27.465  1.00  0.00     0.198 A 
ATOM     94  F   UNL A   1      45.658  33.579  26.029  1.00  0.00    -0.203 F 
ATOM     95  F   UNL A   1      46.975  35.474  30.971  1.00  0.00    -0.200 F 
ATOM     96  C   UNL A   1      46.395  35.884  28.719  1.00  0.00     0.200 A 
ATOM     97  F   UNL A   1      45.800  36.240  26.462  1.00  0.00    -0.200 F 
ATOM     98  F   UNL A   1      46.411  37.205  28.939  1.00  0.00    -0.200 F 
ENDBRANCH  65  88
ENDBRANCH  39  40
ENDBRANCH  31  34
ENDBRANCH  29  30
ENDBRANCH  28  29
ENDBRANCH  27  28
ENDBRANCH  26  27
ENDBRANCH  25  26
ENDBRANCH   1  25
TORSDOF 19
ENDMDL
MODEL 3
REMARK VINA RESULT:     -11.9      5.596     11.163
REMARK SMILES COC(=O)[C@@H]1CN(C(=O)NC(=O)CCCC(=O)NCCCCCCNC(=O)c2ccc(-c3c4nc(c(-c5c(F)c(F)c(F)c(F)c5F)c5ccc([nH]5)c(-c5c(F)c(F)c(F)c(F)c5F)c5nc(c(-c6c(F)c(F)c(F)c(F)c6F)c6ccc3[nH]6)C=C5)C=C4)cc2)C[C@H]1C
REMARK SMILES IDX 19 1 18 2 16 3 17 4 15 6 14 7 13 8 11 9 8 10 9 11 10 12
REMARK SMILES IDX 12 14 7 15 5 16 6 17 92 18 91 19 93 20 3 21 4 22 2 23 1 24
REMARK SMILES IDX 20 25 21 26 22 27 23 28 24 29 25 30 26 31 27 33 28 34 29 35
REMARK SMILES IDX 90 36 30 37 89 38 31 39 32 40 33 41 83 42 34 43 88 44 82 45
REMARK SMILES IDX 84 46 35 47 87 48 81 49 80 50 36 52 68 53 48 54 67 55 49 56
REMARK SMILES IDX 52 57 66 58 85 59 50 60 51 61 65 63 86 64 53 65 37 66 38 67
REMARK SMILES IDX 46 68 39 69 40 70 44 71 47 72 41 73 42 74 45 75 43 76 69 77
REMARK SMILES IDX 70 78 78 79 71 80 72 81 76 82 79 83 73 84 74 85 77 86 75 87
REMARK SMILES IDX 54 88 55 89 63 90 56 91 57 92 61 93 64 94 58 95 59 96 62 97
REMARK SMILES IDX 60 98
REMARK H PARENT 18 5 10 13 25 32 84 51 52 62
REMARK Flexibility Score: inf
ROOT
ATOM      1  C   UNL A   1      37.541  22.026  25.937  1.00  0.00     0.116 C 
ENDROOT
BRANCH   1   2
ATOM      2  N   UNL A   1      36.713  22.060  24.527  1.00  0.00    -0.356 N 
ATOM      3  C   UNL A   1      35.447  23.201  23.542  1.00  0.00     0.220 C 
ATOM      4  O   UNL A   1      34.783  22.961  22.505  1.00  0.00    -0.275 OA
ATOM      5  H   UNL A   1      36.911  21.249  24.004  1.00  0.00     0.163 HD
BRANCH   3   6
ATOM      6  C   UNL A   1      34.925  24.875  24.026  1.00  0.00     0.100 C 
BRANCH   6   7
ATOM      7  C   UNL A   1      34.263  25.453  25.329  1.00  0.00     0.020 C 
BRANCH   7   8
ATOM      8  C   UNL A   1      33.465  26.764  25.483  1.00  0.00     0.101 C 
BRANCH   8   9
ATOM      9  C   UNL A   1      32.990  27.559  24.297  1.00  0.00     0.227 C 
ATOM     10  C   UNL A   1      30.700  26.614  24.013  1.00  0.00     0.324 C 
ATOM     11  O   UNL A   1      29.561  26.970  23.699  1.00  0.00    -0.248 OA
ATOM     12  N   UNL A   1      31.697  27.514  23.896  1.00  0.00    -0.278 N 
ATOM     13  H   UNL A   1      31.422  28.325  23.408  1.00  0.00     0.174 HD
ATOM     14  O   UNL A   1      33.793  28.211  23.624  1.00  0.00    -0.275 OA
BRANCH  10  15
ATOM     15  N   UNL A   1      30.946  25.330  24.418  1.00  0.00    -0.323 N 
ATOM     16  C   UNL A   1      31.206  22.151  25.027  1.00  0.00     0.123 C 
ATOM     17  C   UNL A   1      31.510  23.588  23.607  1.00  0.00     0.137 C 
ATOM     18  C   UNL A   1      30.540  23.098  26.704  1.00  0.00     0.021 C 
ATOM     19  C   UNL A   1      30.397  25.054  26.257  1.00  0.00     0.125 C 
ATOM     20  C   UNL A   1      29.179  22.574  27.253  1.00  0.00     0.010 C 
BRANCH  16  21
ATOM     21  C   UNL A   1      32.308  21.135  25.289  1.00  0.00     0.310 C 
ATOM     22  O   UNL A   1      32.156  19.948  25.010  1.00  0.00    -0.252 OA
BRANCH  21  23
ATOM     23  O   UNL A   1      33.525  21.581  25.678  1.00  0.00    -0.469 OA
ATOM     24  C   UNL A   1      33.982  21.684  27.032  1.00  0.00     0.282 C 
ENDBRANCH  21  23
ENDBRANCH  16  21
ENDBRANCH  10  15
ENDBRANCH   8   9
ENDBRANCH   7   8
ENDBRANCH   6   7
ENDBRANCH   3   6
ENDBRANCH   1   2
BRANCH   1  25
ATOM     25  C   UNL A   1      38.906  21.365  25.687  1.00  0.00     0.021 C 
BRANCH  25  26
ATOM     26  C   UNL A   1      40.038  22.003  26.474  1.00  0.00     0.002 C 
BRANCH  26  27
ATOM     27  C   UNL A   1      41.014  20.976  27.049  1.00  0.00     0.002 C 
BRANCH  27  28
ATOM     28  C   UNL A   1      41.299  19.796  26.116  1.00  0.00     0.021 C 
BRANCH  28  29
ATOM     29  C   UNL A   1      42.515  18.970  26.520  1.00  0.00     0.116 C 
BRANCH  29  30
ATOM     30  N   UNL A   1      43.394  18.742  25.389  1.00  0.00    -0.352 N 
ATOM     31  C   UNL A   1      44.050  19.663  24.625  1.00  0.00     0.251 C 
ATOM     32  H   UNL A   1      43.536  17.800  25.140  1.00  0.00     0.163 HD
ATOM     33  O   UNL A   1      44.526  19.352  23.540  1.00  0.00    -0.269 OA
BRANCH  31  34
ATOM     34  C   UNL A   1      44.179  21.038  25.135  1.00  0.00     0.039 A 
ATOM     35  C   UNL A   1      43.614  22.080  24.404  1.00  0.00     0.014 A 
ATOM     36  C   UNL A   1      44.868  21.286  26.327  1.00  0.00     0.014 A 
ATOM     37  C   UNL A   1      43.751  23.384  24.868  1.00  0.00     0.010 A 
ATOM     38  C   UNL A   1      44.911  22.573  26.841  1.00  0.00     0.010 A 
ATOM     39  C   UNL A   1      44.396  23.638  26.091  1.00  0.00    -0.014 A 
BRANCH  39  40
ATOM     40  C   UNL A   1      44.607  25.029  26.551  1.00  0.00     0.031 A 
ATOM     41  C   UNL A   1      45.956  25.673  26.385  1.00  0.00     0.074 A 
ATOM     42  C   UNL A   1      43.590  25.701  27.118  1.00  0.00     0.049 A 
ATOM     43  N   UNL A   1      46.338  26.886  26.697  1.00  0.00    -0.248 NA
ATOM     44  C   UNL A   1      47.029  24.836  25.824  1.00  0.00     0.031 C 
ATOM     45  C   UNL A   1      42.256  25.155  27.376  1.00  0.00     0.029 A 
ATOM     46  N   UNL A   1      43.518  26.991  27.573  1.00  0.00    -0.354 N 
ATOM     47  C   UNL A   1      47.688  26.947  26.379  1.00  0.00     0.074 A 
ATOM     48  C   UNL A   1      48.080  25.632  25.927  1.00  0.00     0.031 C 
ATOM     49  C   UNL A   1      41.484  26.118  27.904  1.00  0.00     0.029 A 
ATOM     50  C   UNL A   1      42.280  27.333  28.057  1.00  0.00     0.049 A 
ATOM     51  H   UNL A   1      44.280  27.613  27.554  1.00  0.00     0.167 HD
ATOM     52  C   UNL A   1      48.520  28.015  26.429  1.00  0.00     0.037 A 
ATOM     53  C   UNL A   1      41.839  28.499  28.561  1.00  0.00     0.037 A 
ATOM     54  C   UNL A   1      48.113  29.323  26.868  1.00  0.00     0.049 A 
ATOM     55  C   UNL A   1      42.782  29.671  28.608  1.00  0.00     0.074 A 
ATOM     56  C   UNL A   1      48.857  30.488  26.915  1.00  0.00     0.029 A 
ATOM     57  N   UNL A   1      46.848  29.636  27.346  1.00  0.00    -0.354 N 
ATOM     58  N   UNL A   1      44.039  29.742  28.237  1.00  0.00    -0.248 NA
ATOM     59  C   UNL A   1      42.237  30.932  29.126  1.00  0.00     0.031 C 
ATOM     60  C   UNL A   1      48.062  31.489  27.484  1.00  0.00     0.029 A 
ATOM     61  C   UNL A   1      46.797  30.971  27.714  1.00  0.00     0.049 A 
ATOM     62  H   UNL A   1      46.097  29.003  27.413  1.00  0.00     0.167 HD
ATOM     63  C   UNL A   1      44.424  31.061  28.439  1.00  0.00     0.074 A 
ATOM     64  C   UNL A   1      43.259  31.755  28.950  1.00  0.00     0.031 C 
ATOM     65  C   UNL A   1      45.627  31.647  28.218  1.00  0.00     0.037 A 
BRANCH  52  66
ATOM     66  C   UNL A   1      49.948  27.801  26.008  1.00  0.00     0.064 A 
ATOM     67  C   UNL A   1      50.323  27.730  24.656  1.00  0.00     0.173 A 
ATOM     68  C   UNL A   1      50.959  27.670  26.972  1.00  0.00     0.173 A 
ATOM     69  F   UNL A   1      49.397  27.834  23.691  1.00  0.00    -0.203 F 
ATOM     70  C   UNL A   1      51.645  27.493  24.287  1.00  0.00     0.198 A 
ATOM     71  C   UNL A   1      52.286  27.475  26.599  1.00  0.00     0.198 A 
ATOM     72  F   UNL A   1      50.662  27.731  28.279  1.00  0.00    -0.203 F 
ATOM     73  F   UNL A   1      51.964  27.357  22.993  1.00  0.00    -0.200 F 
ATOM     74  C   UNL A   1      52.627  27.373  25.259  1.00  0.00     0.200 A 
ATOM     75  F   UNL A   1      53.237  27.374  27.539  1.00  0.00    -0.200 F 
ATOM     76  F   UNL A   1      53.899  27.149  24.904  1.00  0.00    -0.200 F 
ENDBRANCH  52  66
BRANCH  53  77
ATOM     77  C   UNL A   1      40.433  28.621  29.026  1.00  0.00     0.064 A 
ATOM     78  C   UNL A   1      39.414  29.026  28.153  1.00  0.00     0.173 A 
ATOM     79  C   UNL A   1      40.078  28.335  30.353  1.00  0.00     0.173 A 
ATOM     80  F   UNL A   1      39.704  29.324  26.878  1.00  0.00    -0.203 F 
ATOM     81  C   UNL A   1      38.099  29.166  28.595  1.00  0.00     0.198 A 
ATOM     82  C   UNL A   1      38.759  28.443  30.785  1.00  0.00     0.198 A 
ATOM     83  F   UNL A   1      41.014  27.933  31.226  1.00  0.00    -0.203 F 
ATOM     84  F   UNL A   1      37.156  29.606  27.752  1.00  0.00    -0.200 F 
ATOM     85  C   UNL A   1      37.772  28.869  29.909  1.00  0.00     0.200 A 
ATOM     86  F   UNL A   1      38.444  28.134  32.050  1.00  0.00    -0.200 F 
ATOM     87  F   UNL A   1      36.508  28.998  30.333  1.00  0.00    -0.200 F 
ENDBRANCH  53  77
BRANCH  65  88
ATOM     88  C   UNL A   1      45.726  33.125  28.472  1.00  0.00     0.064 A 
ATOM     89  C   UNL A   1      46.117  33.646  29.714  1.00  0.00     0.173 A 
ATOM     90  C   UNL A   1      45.429  34.037  27.445  1.00  0.00     0.173 A 
ATOM     91  F   UNL A   1      46.404  32.822  30.733  1.00  0.00    -0.203 F 
ATOM     92  C   UNL A   1      46.153  35.021  29.936  1.00  0.00     0.198 A 
ATOM     93  C   UNL A   1      45.509  35.410  27.657  1.00  0.00     0.198 A 
ATOM     94  F   UNL A   1      45.064  33.596  26.232  1.00  0.00    -0.203 F 
ATOM     95  F   UNL A   1      46.450  35.493  31.154  1.00  0.00    -0.200 F 
ATOM     96  C   UNL A   1      45.854  35.901  28.907  1.00  0.00     0.200 A 
ATOM     97  F   UNL A   1      45.242  36.257  26.654  1.00  0.00    -0.200 F 
ATOM     98  F   UNL A   1      45.888  37.223  29.121  1.00  0.00    -0.200 F 
ENDBRANCH  65  88
ENDBRANCH  39  40
ENDBRANCH  31  34
ENDBRANCH  29  30
ENDBRANCH  28  29
ENDBRANCH  27  28
ENDBRANCH  26  27
ENDBRANCH  25  26
ENDBRANCH   1  25
TORSDOF 19
ENDMDL
