MODEL 1
REMARK VINA RESULT:     -10.9      0.000      0.000
REMARK SMILES CN(CC(C)(C)O)C(=O)N1CCCC[C@H]1CC(=O)NCCCCCCNC(=O)c1ccc(-c2c3nc(c(-c4c(F)c(F)c(F)c(F)c4F)c4ccc([nH]4)c(-c4c(F)c(F)c(F)c(F)c4F)c4nc(c(-c5c(F)c(F)c(F)c(F)c5F)c5ccc2[nH]5)C=C4)C=C3)cc1
REMARK SMILES IDX 20 1 19 2 17 3 18 4 16 6 15 7 10 8 11 9 12 10 14 11 13 12
REMARK SMILES IDX 8 13 9 14 2 15 1 16 3 17 4 18 5 19 6 20 7 21 21 23 22 24
REMARK SMILES IDX 23 25 24 26 25 27 26 28 27 29 28 31 29 32 30 33 91 34 31 35
REMARK SMILES IDX 90 36 32 37 33 38 34 39 84 40 35 41 89 42 83 43 85 44 36 45
REMARK SMILES IDX 88 46 82 47 81 48 37 50 69 51 49 52 68 53 50 54 53 55 67 56
REMARK SMILES IDX 86 57 51 58 52 59 66 61 87 62 54 63 38 64 39 65 47 66 40 67
REMARK SMILES IDX 41 68 45 69 48 70 42 71 43 72 46 73 44 74 70 75 71 76 79 77
REMARK SMILES IDX 72 78 73 79 77 80 80 81 74 82 75 83 78 84 76 85 55 86 56 87
REMARK SMILES IDX 64 88 57 89 58 90 62 91 65 92 59 93 60 94 63 95 61 96
REMARK H PARENT 19 5 7 22 26 30 85 49 53 60
REMARK Flexibility Score: inf
ROOT
ATOM      1  C   UNL A   1      34.946  30.600  27.612  1.00  0.00     0.116 C 
ENDROOT
BRANCH   1   2
ATOM      2  N   UNL A   1      33.495  30.629  27.617  1.00  0.00    -0.356 N 
ATOM      3  C   UNL A   1      32.604  30.082  26.747  1.00  0.00     0.222 C 
ATOM      4  O   UNL A   1      31.402  30.291  26.929  1.00  0.00    -0.275 OA
ATOM      5  H   UNL A   1      33.092  31.120  28.369  1.00  0.00     0.163 HD
BRANCH   3   6
ATOM      6  C   UNL A   1      33.067  29.266  25.563  1.00  0.00     0.125 C 
BRANCH   6   7
ATOM      7  C   UNL A   1      32.087  28.128  25.204  1.00  0.00     0.096 C 
ATOM      8  N   UNL A   1      32.138  27.708  23.787  1.00  0.00    -0.321 N 
ATOM      9  C   UNL A   1      33.413  27.066  23.408  1.00  0.00     0.121 C 
ATOM     10  C   UNL A   1      33.708  25.841  24.270  1.00  0.00     0.022 C 
ATOM     11  C   UNL A   1      32.340  26.887  26.092  1.00  0.00     0.026 C 
ATOM     12  C   UNL A   1      33.658  26.191  25.754  1.00  0.00     0.004 C 
BRANCH   8  13
ATOM     13  C   UNL A   1      31.078  27.493  22.919  1.00  0.00     0.320 C 
ATOM     14  O   UNL A   1      31.330  27.181  21.746  1.00  0.00    -0.248 OA
BRANCH  13  15
ATOM     15  N   UNL A   1      29.748  27.672  23.282  1.00  0.00    -0.325 N 
ATOM     16  C   UNL A   1      29.173  26.499  23.945  1.00  0.00     0.148 C 
BRANCH  15  17
ATOM     17  C   UNL A   1      28.741  28.608  22.745  1.00  0.00     0.155 C 
BRANCH  17  18
ATOM     18  C   UNL A   1      29.215  30.071  22.467  1.00  0.00     0.077 C 
ATOM     19  C   UNL A   1      28.174  30.951  21.773  1.00  0.00     0.043 C 
ATOM     20  C   UNL A   1      29.626  30.718  23.795  1.00  0.00     0.043 C 
BRANCH  18  21
ATOM     21  O   UNL A   1      30.396  30.078  21.651  1.00  0.00    -0.389 OA
ATOM     22  H   UNL A   1      31.176  30.211  22.212  1.00  0.00     0.211 HD
ENDBRANCH  18  21
ENDBRANCH  17  18
ENDBRANCH  15  17
ENDBRANCH  13  15
ENDBRANCH   8  13
ENDBRANCH   6   7
ENDBRANCH   3   6
ENDBRANCH   1   2
BRANCH   1  23
ATOM     23  C   UNL A   1      35.540  31.960  27.988  1.00  0.00     0.021 C 
BRANCH  23  24
ATOM     24  C   UNL A   1      34.666  32.789  28.930  1.00  0.00     0.002 C 
BRANCH  24  25
ATOM     25  C   UNL A   1      34.595  34.286  28.609  1.00  0.00     0.002 C 
BRANCH  25  26
ATOM     26  C   UNL A   1      33.228  34.946  28.820  1.00  0.00     0.021 C 
BRANCH  26  27
ATOM     27  C   UNL A   1      33.273  36.364  29.388  1.00  0.00     0.116 C 
BRANCH  27  28
ATOM     28  N   UNL A   1      32.488  36.486  30.606  1.00  0.00    -0.352 N 
ATOM     29  C   UNL A   1      32.618  35.855  31.815  1.00  0.00     0.251 C 
ATOM     30  H   UNL A   1      31.742  37.126  30.554  1.00  0.00     0.163 HD
ATOM     31  O   UNL A   1      31.708  35.929  32.641  1.00  0.00    -0.269 OA
BRANCH  29  32
ATOM     32  C   UNL A   1      33.834  35.082  32.147  1.00  0.00     0.039 A 
ATOM     33  C   UNL A   1      33.697  33.738  32.512  1.00  0.00     0.014 A 
ATOM     34  C   UNL A   1      35.093  35.688  32.188  1.00  0.00     0.014 A 
ATOM     35  C   UNL A   1      34.820  32.995  32.885  1.00  0.00     0.010 A 
ATOM     36  C   UNL A   1      36.222  34.932  32.502  1.00  0.00     0.010 A 
ATOM     37  C   UNL A   1      36.094  33.584  32.870  1.00  0.00    -0.014 A 
BRANCH  37  38
ATOM     38  C   UNL A   1      37.298  32.818  33.283  1.00  0.00     0.031 A 
ATOM     39  C   UNL A   1      37.962  33.119  34.599  1.00  0.00     0.074 A 
ATOM     40  C   UNL A   1      37.824  31.894  32.457  1.00  0.00     0.049 A 
ATOM     41  N   UNL A   1      39.065  32.626  35.103  1.00  0.00    -0.248 NA
ATOM     42  C   UNL A   1      37.311  34.127  35.451  1.00  0.00     0.031 C 
ATOM     43  C   UNL A   1      37.294  31.534  31.141  1.00  0.00     0.029 A 
ATOM     44  N   UNL A   1      38.932  31.096  32.599  1.00  0.00    -0.354 N 
ATOM     45  C   UNL A   1      39.253  33.283  36.312  1.00  0.00     0.074 A 
ATOM     46  C   UNL A   1      38.170  34.231  36.454  1.00  0.00     0.031 C 
ATOM     47  C   UNL A   1      38.072  30.581  30.601  1.00  0.00     0.029 A 
ATOM     48  C   UNL A   1      39.169  30.285  31.518  1.00  0.00     0.049 A 
ATOM     49  H   UNL A   1      39.504  31.105  33.401  1.00  0.00     0.167 HD
ATOM     50  C   UNL A   1      40.232  33.099  37.230  1.00  0.00     0.037 A 
ATOM     51  C   UNL A   1      40.162  29.404  31.291  1.00  0.00     0.037 A 
ATOM     52  C   UNL A   1      41.284  32.124  37.111  1.00  0.00     0.049 A 
ATOM     53  C   UNL A   1      41.217  29.194  32.343  1.00  0.00     0.074 A 
ATOM     54  C   UNL A   1      42.290  31.824  38.014  1.00  0.00     0.029 A 
ATOM     55  N   UNL A   1      41.459  31.283  36.023  1.00  0.00    -0.354 N 
ATOM     56  N   UNL A   1      41.354  29.783  33.506  1.00  0.00    -0.248 NA
ATOM     57  C   UNL A   1      42.250  28.189  32.055  1.00  0.00     0.031 C 
ATOM     58  C   UNL A   1      43.089  30.818  37.460  1.00  0.00     0.029 A 
ATOM     59  C   UNL A   1      42.559  30.467  36.229  1.00  0.00     0.049 A 
ATOM     60  H   UNL A   1      40.885  31.268  35.222  1.00  0.00     0.167 HD
ATOM     61  C   UNL A   1      42.463  29.198  34.101  1.00  0.00     0.074 A 
ATOM     62  C   UNL A   1      42.959  28.203  33.175  1.00  0.00     0.031 C 
ATOM     63  C   UNL A   1      43.020  29.462  35.308  1.00  0.00     0.037 A 
BRANCH  50  64
ATOM     64  C   UNL A   1      40.212  33.966  38.452  1.00  0.00     0.064 A 
ATOM     65  C   UNL A   1      39.483  33.608  39.595  1.00  0.00     0.173 A 
ATOM     66  C   UNL A   1      40.973  35.144  38.501  1.00  0.00     0.173 A 
ATOM     67  F   UNL A   1      38.731  32.495  39.594  1.00  0.00    -0.203 F 
ATOM     68  C   UNL A   1      39.499  34.406  40.735  1.00  0.00     0.198 A 
ATOM     69  C   UNL A   1      41.007  35.927  39.652  1.00  0.00     0.198 A 
ATOM     70  F   UNL A   1      41.693  35.529  37.437  1.00  0.00    -0.203 F 
ATOM     71  F   UNL A   1      38.765  34.062  41.803  1.00  0.00    -0.200 F 
ATOM     72  C   UNL A   1      40.266  35.561  40.765  1.00  0.00     0.200 A 
ATOM     73  F   UNL A   1      41.758  37.037  39.684  1.00  0.00    -0.200 F 
ATOM     74  F   UNL A   1      40.290  36.323  41.868  1.00  0.00    -0.200 F 
ENDBRANCH  50  64
BRANCH  51  75
ATOM     75  C   UNL A   1      40.195  28.629  30.024  1.00  0.00     0.064 A 
ATOM     76  C   UNL A   1      40.882  29.114  28.903  1.00  0.00     0.173 A 
ATOM     77  C   UNL A   1      39.527  27.403  29.902  1.00  0.00     0.173 A 
ATOM     78  F   UNL A   1      41.517  30.294  28.967  1.00  0.00    -0.203 F 
ATOM     79  C   UNL A   1      40.881  28.414  27.699  1.00  0.00     0.198 A 
ATOM     80  C   UNL A   1      39.547  26.690  28.704  1.00  0.00     0.198 A 
ATOM     81  F   UNL A   1      38.858  26.894  30.947  1.00  0.00    -0.203 F 
ATOM     82  F   UNL A   1      41.506  28.924  26.629  1.00  0.00    -0.200 F 
ATOM     83  C   UNL A   1      40.215  27.201  27.602  1.00  0.00     0.200 A 
ATOM     84  F   UNL A   1      38.913  25.513  28.617  1.00  0.00    -0.200 F 
ATOM     85  F   UNL A   1      40.212  26.528  26.443  1.00  0.00    -0.200 F 
ENDBRANCH  51  75
BRANCH  63  86
ATOM     86  C   UNL A   1      44.195  28.628  35.720  1.00  0.00     0.064 A 
ATOM     87  C   UNL A   1      45.510  29.007  35.412  1.00  0.00     0.173 A 
ATOM     88  C   UNL A   1      44.003  27.458  36.468  1.00  0.00     0.173 A 
ATOM     89  F   UNL A   1      45.742  30.111  34.686  1.00  0.00    -0.203 F 
ATOM     90  C   UNL A   1      46.590  28.230  35.820  1.00  0.00     0.198 A 
ATOM     91  C   UNL A   1      45.087  26.697  36.896  1.00  0.00     0.198 A 
ATOM     92  F   UNL A   1      42.765  27.058  36.791  1.00  0.00    -0.203 F 
ATOM     93  F   UNL A   1      47.837  28.587  35.482  1.00  0.00    -0.200 F 
ATOM     94  C   UNL A   1      46.378  27.080  36.568  1.00  0.00     0.200 A 
ATOM     95  F   UNL A   1      44.881  25.590  37.625  1.00  0.00    -0.200 F 
ATOM     96  F   UNL A   1      47.420  26.336  36.964  1.00  0.00    -0.200 F 
ENDBRANCH  63  86
ENDBRANCH  37  38
ENDBRANCH  29  32
ENDBRANCH  27  28
ENDBRANCH  26  27
ENDBRANCH  25  26
ENDBRANCH  24  25
ENDBRANCH  23  24
ENDBRANCH   1  23
TORSDOF 19
ENDMDL
MODEL 2
REMARK VINA RESULT:     -10.7      0.544      2.036
REMARK SMILES CN(CC(C)(C)O)C(=O)N1CCCC[C@H]1CC(=O)NCCCCCCNC(=O)c1ccc(-c2c3nc(c(-c4c(F)c(F)c(F)c(F)c4F)c4ccc([nH]4)c(-c4c(F)c(F)c(F)c(F)c4F)c4nc(c(-c5c(F)c(F)c(F)c(F)c5F)c5ccc2[nH]5)C=C4)C=C3)cc1
REMARK SMILES IDX 20 1 19 2 17 3 18 4 16 6 15 7 10 8 11 9 12 10 14 11 13 12
REMARK SMILES IDX 8 13 9 14 2 15 1 16 3 17 4 18 5 19 6 20 7 21 21 23 22 24
REMARK SMILES IDX 23 25 24 26 25 27 26 28 27 29 28 31 29 32 30 33 91 34 31 35
REMARK SMILES IDX 90 36 32 37 33 38 34 39 84 40 35 41 89 42 83 43 85 44 36 45
REMARK SMILES IDX 88 46 82 47 81 48 37 50 69 51 49 52 68 53 50 54 53 55 67 56
REMARK SMILES IDX 86 57 51 58 52 59 66 61 87 62 54 63 38 64 39 65 47 66 40 67
REMARK SMILES IDX 41 68 45 69 48 70 42 71 43 72 46 73 44 74 70 75 71 76 79 77
REMARK SMILES IDX 72 78 73 79 77 80 80 81 74 82 75 83 78 84 76 85 55 86 56 87
REMARK SMILES IDX 64 88 57 89 58 90 62 91 65 92 59 93 60 94 63 95 61 96
REMARK H PARENT 19 5 7 22 26 30 85 49 53 60
REMARK Flexibility Score: inf
ROOT
ATOM      1  C   UNL A   1      34.964  30.309  27.562  1.00  0.00     0.116 C 
ENDROOT
BRANCH   1   2
ATOM      2  N   UNL A   1      33.523  30.244  27.715  1.00  0.00    -0.356 N 
ATOM      3  C   UNL A   1      32.570  29.779  26.862  1.00  0.00     0.222 C 
ATOM      4  O   UNL A   1      31.386  29.882  27.193  1.00  0.00    -0.275 OA
ATOM      5  H   UNL A   1      33.180  30.590  28.571  1.00  0.00     0.163 HD
BRANCH   3   6
ATOM      6  C   UNL A   1      32.941  29.182  25.526  1.00  0.00     0.125 C 
BRANCH   6   7
ATOM      7  C   UNL A   1      32.020  28.010  25.120  1.00  0.00     0.096 C 
ATOM      8  N   UNL A   1      31.881  27.825  23.661  1.00  0.00    -0.321 N 
ATOM      9  C   UNL A   1      33.130  27.400  22.998  1.00  0.00     0.121 C 
ATOM     10  C   UNL A   1      33.667  26.097  23.585  1.00  0.00     0.022 C 
ATOM     11  C   UNL A   1      32.521  26.683  25.737  1.00  0.00     0.026 C 
ATOM     12  C   UNL A   1      33.824  26.203  25.099  1.00  0.00     0.004 C 
BRANCH   8  13
ATOM     13  C   UNL A   1      30.718  27.630  22.929  1.00  0.00     0.320 C 
ATOM     14  O   UNL A   1      30.811  27.480  21.703  1.00  0.00    -0.248 OA
BRANCH  13  15
ATOM     15  N   UNL A   1      29.449  27.657  23.496  1.00  0.00    -0.325 N 
ATOM     16  C   UNL A   1      29.127  26.435  24.237  1.00  0.00     0.148 C 
BRANCH  15  17
ATOM     17  C   UNL A   1      28.267  28.460  23.125  1.00  0.00     0.155 C 
BRANCH  17  18
ATOM     18  C   UNL A   1      28.465  30.007  23.033  1.00  0.00     0.077 C 
ATOM     19  C   UNL A   1      29.623  30.545  23.876  1.00  0.00     0.043 C 
ATOM     20  C   UNL A   1      28.683  30.392  21.565  1.00  0.00     0.043 C 
BRANCH  18  21
ATOM     21  O   UNL A   1      27.277  30.699  23.444  1.00  0.00    -0.389 OA
ATOM     22  H   UNL A   1      26.780  30.981  22.660  1.00  0.00     0.211 HD
ENDBRANCH  18  21
ENDBRANCH  17  18
ENDBRANCH  15  17
ENDBRANCH  13  15
ENDBRANCH   8  13
ENDBRANCH   6   7
ENDBRANCH   3   6
ENDBRANCH   1   2
BRANCH   1  23
ATOM     23  C   UNL A   1      35.494  31.727  27.786  1.00  0.00     0.021 C 
BRANCH  23  24
ATOM     24  C   UNL A   1      34.648  32.571  28.741  1.00  0.00     0.002 C 
BRANCH  24  25
ATOM     25  C   UNL A   1      34.545  34.058  28.385  1.00  0.00     0.002 C 
BRANCH  25  26
ATOM     26  C   UNL A   1      33.194  34.719  28.679  1.00  0.00     0.021 C 
BRANCH  26  27
ATOM     27  C   UNL A   1      33.273  36.156  29.194  1.00  0.00     0.116 C 
BRANCH  27  28
ATOM     28  N   UNL A   1      32.528  36.331  30.431  1.00  0.00    -0.352 N 
ATOM     29  C   UNL A   1      32.681  35.732  31.653  1.00  0.00     0.251 C 
ATOM     30  H   UNL A   1      31.794  36.985  30.382  1.00  0.00     0.163 HD
ATOM     31  O   UNL A   1      31.798  35.851  32.503  1.00  0.00    -0.269 OA
BRANCH  29  32
ATOM     32  C   UNL A   1      33.890  34.943  31.973  1.00  0.00     0.039 A 
ATOM     33  C   UNL A   1      33.736  33.612  32.377  1.00  0.00     0.014 A 
ATOM     34  C   UNL A   1      35.161  35.524  31.965  1.00  0.00     0.014 A 
ATOM     35  C   UNL A   1      34.853  32.855  32.738  1.00  0.00     0.010 A 
ATOM     36  C   UNL A   1      36.283  34.752  32.268  1.00  0.00     0.010 A 
ATOM     37  C   UNL A   1      36.138  33.417  32.673  1.00  0.00    -0.014 A 
BRANCH  37  38
ATOM     38  C   UNL A   1      37.337  32.637  33.074  1.00  0.00     0.031 A 
ATOM     39  C   UNL A   1      38.014  32.926  34.386  1.00  0.00     0.074 A 
ATOM     40  C   UNL A   1      37.847  31.711  32.240  1.00  0.00     0.049 A 
ATOM     41  N   UNL A   1      39.116  32.419  34.879  1.00  0.00    -0.248 NA
ATOM     42  C   UNL A   1      37.381  33.937  35.247  1.00  0.00     0.031 C 
ATOM     43  C   UNL A   1      37.303  31.363  30.927  1.00  0.00     0.029 A 
ATOM     44  N   UNL A   1      38.948  30.902  32.371  1.00  0.00    -0.354 N 
ATOM     45  C   UNL A   1      39.320  33.069  36.090  1.00  0.00     0.074 A 
ATOM     46  C   UNL A   1      38.248  34.028  36.244  1.00  0.00     0.031 C 
ATOM     47  C   UNL A   1      38.067  30.404  30.377  1.00  0.00     0.029 A 
ATOM     48  C   UNL A   1      39.168  30.092  31.284  1.00  0.00     0.049 A 
ATOM     49  H   UNL A   1      39.526  30.901  33.168  1.00  0.00     0.167 HD
ATOM     50  C   UNL A   1      40.305  32.871  36.999  1.00  0.00     0.037 A 
ATOM     51  C   UNL A   1      40.151  29.203  31.046  1.00  0.00     0.037 A 
ATOM     52  C   UNL A   1      41.346  31.886  36.868  1.00  0.00     0.049 A 
ATOM     53  C   UNL A   1      41.211  28.977  32.089  1.00  0.00     0.074 A 
ATOM     54  C   UNL A   1      42.356  31.571  37.762  1.00  0.00     0.029 A 
ATOM     55  N   UNL A   1      41.503  31.048  35.775  1.00  0.00    -0.354 N 
ATOM     56  N   UNL A   1      41.363  29.559  33.253  1.00  0.00    -0.248 NA
ATOM     57  C   UNL A   1      42.232  27.963  31.789  1.00  0.00     0.031 C 
ATOM     58  C   UNL A   1      43.140  30.560  37.197  1.00  0.00     0.029 A 
ATOM     59  C   UNL A   1      42.596  30.220  35.969  1.00  0.00     0.049 A 
ATOM     60  H   UNL A   1      40.923  31.042  34.979  1.00  0.00     0.167 HD
ATOM     61  C   UNL A   1      42.471  28.961  33.837  1.00  0.00     0.074 A 
ATOM     62  C   UNL A   1      42.949  27.964  32.903  1.00  0.00     0.031 C 
ATOM     63  C   UNL A   1      43.040  29.215  35.040  1.00  0.00     0.037 A 
BRANCH  50  64
ATOM     64  C   UNL A   1      40.303  33.733  38.226  1.00  0.00     0.064 A 
ATOM     65  C   UNL A   1      41.092  34.890  38.312  1.00  0.00     0.173 A 
ATOM     66  C   UNL A   1      39.464  33.429  39.308  1.00  0.00     0.173 A 
ATOM     67  F   UNL A   1      41.919  35.218  37.307  1.00  0.00    -0.203 F 
ATOM     68  C   UNL A   1      41.056  35.698  39.444  1.00  0.00     0.198 A 
ATOM     69  C   UNL A   1      39.411  34.254  40.428  1.00  0.00     0.198 A 
ATOM     70  F   UNL A   1      38.684  32.337  39.273  1.00  0.00    -0.203 F 
ATOM     71  F   UNL A   1      41.846  36.779  39.519  1.00  0.00    -0.200 F 
ATOM     72  C   UNL A   1      40.211  35.384  40.498  1.00  0.00     0.200 A 
ATOM     73  F   UNL A   1      38.586  33.956  41.441  1.00  0.00    -0.200 F 
ATOM     74  F   UNL A   1      40.169  36.170  41.583  1.00  0.00    -0.200 F 
ENDBRANCH  50  64
BRANCH  51  75
ATOM     75  C   UNL A   1      40.165  28.432  29.775  1.00  0.00     0.064 A 
ATOM     76  C   UNL A   1      39.504  27.201  29.676  1.00  0.00     0.173 A 
ATOM     77  C   UNL A   1      40.852  28.899  28.647  1.00  0.00     0.173 A 
ATOM     78  F   UNL A   1      38.852  26.704  30.738  1.00  0.00    -0.203 F 
ATOM     79  C   UNL A   1      39.549  26.452  28.502  1.00  0.00     0.198 A 
ATOM     80  C   UNL A   1      40.877  28.161  27.465  1.00  0.00     0.198 A 
ATOM     81  F   UNL A   1      41.498  30.074  28.690  1.00  0.00    -0.203 F 
ATOM     82  F   UNL A   1      38.949  25.255  28.449  1.00  0.00    -0.200 F 
ATOM     83  C   UNL A   1      40.233  26.935  27.397  1.00  0.00     0.200 A 
ATOM     84  F   UNL A   1      41.528  28.636  26.395  1.00  0.00    -0.200 F 
ATOM     85  F   UNL A   1      40.279  26.214  26.268  1.00  0.00    -0.200 F 
ENDBRANCH  51  75
BRANCH  63  86
ATOM     86  C   UNL A   1      44.210  28.367  35.439  1.00  0.00     0.064 A 
ATOM     87  C   UNL A   1      44.042  27.167  36.148  1.00  0.00     0.173 A 
ATOM     88  C   UNL A   1      45.511  28.740  35.072  1.00  0.00     0.173 A 
ATOM     89  F   UNL A   1      42.818  26.778  36.533  1.00  0.00    -0.203 F 
ATOM     90  C   UNL A   1      45.139  26.383  36.492  1.00  0.00     0.198 A 
ATOM     91  C   UNL A   1      46.603  27.940  35.397  1.00  0.00     0.198 A 
ATOM     92  F   UNL A   1      45.721  29.875  34.389  1.00  0.00    -0.203 F 
ATOM     93  F   UNL A   1      44.962  25.262  37.204  1.00  0.00    -0.200 F 
ATOM     94  C   UNL A   1      46.417  26.767  36.111  1.00  0.00     0.200 A 
ATOM     95  F   UNL A   1      47.836  28.307  35.020  1.00  0.00    -0.200 F 
ATOM     96  F   UNL A   1      47.471  26.007  36.440  1.00  0.00    -0.200 F 
ENDBRANCH  63  86
ENDBRANCH  37  38
ENDBRANCH  29  32
ENDBRANCH  27  28
ENDBRANCH  26  27
ENDBRANCH  25  26
ENDBRANCH  24  25
ENDBRANCH  23  24
ENDBRANCH   1  23
TORSDOF 19
ENDMDL
MODEL 3
REMARK VINA RESULT:     -10.7      1.690      3.032
REMARK SMILES CN(CC(C)(C)O)C(=O)N1CCCC[C@H]1CC(=O)NCCCCCCNC(=O)c1ccc(-c2c3nc(c(-c4c(F)c(F)c(F)c(F)c4F)c4ccc([nH]4)c(-c4c(F)c(F)c(F)c(F)c4F)c4nc(c(-c5c(F)c(F)c(F)c(F)c5F)c5ccc2[nH]5)C=C4)C=C3)cc1
REMARK SMILES IDX 20 1 19 2 17 3 18 4 16 6 15 7 10 8 11 9 12 10 14 11 13 12
REMARK SMILES IDX 8 13 9 14 2 15 1 16 3 17 4 18 5 19 6 20 7 21 21 23 22 24
REMARK SMILES IDX 23 25 24 26 25 27 26 28 27 29 28 31 29 32 30 33 91 34 31 35
REMARK SMILES IDX 90 36 32 37 33 38 34 39 84 40 35 41 89 42 83 43 85 44 36 45
REMARK SMILES IDX 88 46 82 47 81 48 37 50 69 51 49 52 68 53 50 54 53 55 67 56
REMARK SMILES IDX 86 57 51 58 52 59 66 61 87 62 54 63 38 64 39 65 47 66 40 67
REMARK SMILES IDX 41 68 45 69 48 70 42 71 43 72 46 73 44 74 70 75 71 76 79 77
REMARK SMILES IDX 72 78 73 79 77 80 80 81 74 82 75 83 78 84 76 85 55 86 56 87
REMARK SMILES IDX 64 88 57 89 58 90 62 91 65 92 59 93 60 94 63 95 61 96
REMARK H PARENT 19 5 7 22 26 30 85 49 53 60
REMARK Flexibility Score: inf
ROOT
ATOM      1  C   UNL A   1      33.670  30.512  26.888  1.00  0.00     0.116 C 
ENDROOT
BRANCH   1   2
ATOM      2  N   UNL A   1      32.801  29.620  27.633  1.00  0.00    -0.356 N 
ATOM      3  C   UNL A   1      32.183  28.472  27.245  1.00  0.00     0.222 C 
ATOM      4  O   UNL A   1      31.435  27.908  28.048  1.00  0.00    -0.275 OA
ATOM      5  H   UNL A   1      32.632  29.888  28.565  1.00  0.00     0.163 HD
BRANCH   3   6
ATOM      6  C   UNL A   1      32.374  27.911  25.856  1.00  0.00     0.125 C 
BRANCH   6   7
ATOM      7  C   UNL A   1      33.035  26.515  25.862  1.00  0.00     0.096 C 
ATOM      8  N   UNL A   1      32.079  25.391  25.779  1.00  0.00    -0.321 N 
ATOM      9  C   UNL A   1      31.363  25.321  24.489  1.00  0.00     0.121 C 
ATOM     10  C   UNL A   1      32.328  25.202  23.312  1.00  0.00     0.022 C 
ATOM     11  C   UNL A   1      34.048  26.384  24.701  1.00  0.00     0.026 C 
ATOM     12  C   UNL A   1      33.362  26.324  23.337  1.00  0.00     0.004 C 
BRANCH   8  13
ATOM     13  C   UNL A   1      32.046  24.236  26.546  1.00  0.00     0.320 C 
ATOM     14  O   UNL A   1      31.081  24.058  27.303  1.00  0.00    -0.248 OA
BRANCH  13  15
ATOM     15  N   UNL A   1      33.073  23.299  26.556  1.00  0.00    -0.325 N 
ATOM     16  C   UNL A   1      33.042  22.430  27.734  1.00  0.00     0.148 C 
BRANCH  15  17
ATOM     17  C   UNL A   1      34.375  23.318  25.861  1.00  0.00     0.155 C 
BRANCH  17  18
ATOM     18  C   UNL A   1      34.538  22.355  24.641  1.00  0.00     0.077 C 
ATOM     19  C   UNL A   1      35.203  22.990  23.419  1.00  0.00     0.043 C 
ATOM     20  C   UNL A   1      35.348  21.130  25.083  1.00  0.00     0.043 C 
BRANCH  18  21
ATOM     21  O   UNL A   1      33.264  21.845  24.221  1.00  0.00    -0.389 OA
ATOM     22  H   UNL A   1      33.082  21.010  24.680  1.00  0.00     0.211 HD
ENDBRANCH  18  21
ENDBRANCH  17  18
ENDBRANCH  15  17
ENDBRANCH  13  15
ENDBRANCH   8  13
ENDBRANCH   6   7
ENDBRANCH   3   6
ENDBRANCH   1   2
BRANCH   1  23
ATOM     23  C   UNL A   1      34.779  31.090  27.771  1.00  0.00     0.021 C 
BRANCH  23  24
ATOM     24  C   UNL A   1      34.285  32.067  28.841  1.00  0.00     0.002 C 
BRANCH  24  25
ATOM     25  C   UNL A   1      34.411  33.551  28.480  1.00  0.00     0.002 C 
BRANCH  25  26
ATOM     26  C   UNL A   1      33.143  34.390  28.665  1.00  0.00     0.021 C 
BRANCH  26  27
ATOM     27  C   UNL A   1      33.376  35.827  29.129  1.00  0.00     0.116 C 
BRANCH  27  28
ATOM     28  N   UNL A   1      32.594  36.151  30.311  1.00  0.00    -0.352 N 
ATOM     29  C   UNL A   1      32.696  35.693  31.598  1.00  0.00     0.251 C 
ATOM     30  H   UNL A   1      31.873  36.804  30.163  1.00  0.00     0.163 HD
ATOM     31  O   UNL A   1      31.788  35.918  32.398  1.00  0.00    -0.269 OA
BRANCH  29  32
ATOM     32  C   UNL A   1      33.881  34.930  32.047  1.00  0.00     0.039 A 
ATOM     33  C   UNL A   1      35.135  35.551  32.004  1.00  0.00     0.014 A 
ATOM     34  C   UNL A   1      33.783  33.589  32.425  1.00  0.00     0.014 A 
ATOM     35  C   UNL A   1      36.281  34.841  32.370  1.00  0.00     0.010 A 
ATOM     36  C   UNL A   1      34.918  32.897  32.847  1.00  0.00     0.010 A 
ATOM     37  C   UNL A   1      36.179  33.511  32.807  1.00  0.00    -0.014 A 
BRANCH  37  38
ATOM     38  C   UNL A   1      37.388  32.732  33.180  1.00  0.00     0.031 A 
ATOM     39  C   UNL A   1      38.092  33.018  34.478  1.00  0.00     0.074 A 
ATOM     40  C   UNL A   1      37.882  31.810  32.333  1.00  0.00     0.049 A 
ATOM     41  N   UNL A   1      39.205  32.512  34.947  1.00  0.00    -0.248 NA
ATOM     42  C   UNL A   1      37.475  34.025  35.356  1.00  0.00     0.031 C 
ATOM     43  C   UNL A   1      37.311  31.465  31.030  1.00  0.00     0.029 A 
ATOM     44  N   UNL A   1      38.987  31.002  32.437  1.00  0.00    -0.354 N 
ATOM     45  C   UNL A   1      39.434  33.158  36.155  1.00  0.00     0.074 A 
ATOM     46  C   UNL A   1      38.363  34.115  36.335  1.00  0.00     0.031 C 
ATOM     47  C   UNL A   1      38.065  30.510  30.461  1.00  0.00     0.029 A 
ATOM     48  C   UNL A   1      39.185  30.197  31.343  1.00  0.00     0.049 A 
ATOM     49  H   UNL A   1      39.582  31.000  33.223  1.00  0.00     0.167 HD
ATOM     50  C   UNL A   1      40.437  32.960  37.042  1.00  0.00     0.037 A 
ATOM     51  C   UNL A   1      40.165  29.310  31.082  1.00  0.00     0.037 A 
ATOM     52  C   UNL A   1      41.477  31.977  36.886  1.00  0.00     0.049 A 
ATOM     53  C   UNL A   1      41.247  29.083  32.102  1.00  0.00     0.074 A 
ATOM     54  C   UNL A   1      42.506  31.661  37.757  1.00  0.00     0.029 A 
ATOM     55  N   UNL A   1      41.613  31.143  35.788  1.00  0.00    -0.354 N 
ATOM     56  N   UNL A   1      41.423  29.662  33.264  1.00  0.00    -0.248 NA
ATOM     57  C   UNL A   1      42.263  28.072  31.777  1.00  0.00     0.031 C 
ATOM     58  C   UNL A   1      43.280  30.653  37.173  1.00  0.00     0.029 A 
ATOM     59  C   UNL A   1      42.711  30.316  35.956  1.00  0.00     0.049 A 
ATOM     60  H   UNL A   1      41.016  31.138  35.004  1.00  0.00     0.167 HD
ATOM     61  C   UNL A   1      42.543  29.064  33.823  1.00  0.00     0.074 A 
ATOM     62  C   UNL A   1      43.004  28.071  32.876  1.00  0.00     0.031 C 
ATOM     63  C   UNL A   1      43.137  29.315  35.014  1.00  0.00     0.037 A 
BRANCH  50  64
ATOM     64  C   UNL A   1      40.460  33.818  38.271  1.00  0.00     0.064 A 
ATOM     65  C   UNL A   1      39.732  33.476  39.420  1.00  0.00     0.173 A 
ATOM     66  C   UNL A   1      41.260  34.970  38.320  1.00  0.00     0.173 A 
ATOM     67  F   UNL A   1      38.943  32.389  39.419  1.00  0.00    -0.203 F 
ATOM     68  C   UNL A   1      39.787  34.265  40.565  1.00  0.00     0.198 A 
ATOM     69  C   UNL A   1      41.334  35.743  39.476  1.00  0.00     0.198 A 
ATOM     70  F   UNL A   1      41.982  35.337  37.250  1.00  0.00    -0.203 F 
ATOM     71  F   UNL A   1      39.054  33.937  41.639  1.00  0.00    -0.200 F 
ATOM     72  C   UNL A   1      40.593  35.393  40.595  1.00  0.00     0.200 A 
ATOM     73  F   UNL A   1      42.122  36.826  39.507  1.00  0.00    -0.200 F 
ATOM     74  F   UNL A   1      40.655  36.146  41.702  1.00  0.00    -0.200 F 
ENDBRANCH  50  64
BRANCH  51  75
ATOM     75  C   UNL A   1      40.154  28.543  29.809  1.00  0.00     0.064 A 
ATOM     76  C   UNL A   1      39.517  27.297  29.727  1.00  0.00     0.173 A 
ATOM     77  C   UNL A   1      40.792  29.029  28.660  1.00  0.00     0.173 A 
ATOM     78  F   UNL A   1      38.912  26.783  30.809  1.00  0.00    -0.203 F 
ATOM     79  C   UNL A   1      39.540  26.554  28.550  1.00  0.00     0.198 A 
ATOM     80  C   UNL A   1      40.793  28.295  27.475  1.00  0.00     0.198 A 
ATOM     81  F   UNL A   1      41.412  30.218  28.686  1.00  0.00    -0.203 F 
ATOM     82  F   UNL A   1      38.965  25.344  28.513  1.00  0.00    -0.200 F 
ATOM     83  C   UNL A   1      40.175  27.055  27.424  1.00  0.00     0.200 A 
ATOM     84  F   UNL A   1      41.397  28.787  26.385  1.00  0.00    -0.200 F 
ATOM     85  F   UNL A   1      40.199  26.338  26.292  1.00  0.00    -0.200 F 
ENDBRANCH  51  75
BRANCH  63  86
ATOM     86  C   UNL A   1      44.317  28.468  35.386  1.00  0.00     0.064 A 
ATOM     87  C   UNL A   1      45.629  28.858  35.080  1.00  0.00     0.173 A 
ATOM     88  C   UNL A   1      44.132  27.271  36.095  1.00  0.00     0.173 A 
ATOM     89  F   UNL A   1      45.853  29.987  34.391  1.00  0.00    -0.203 F 
ATOM     90  C   UNL A   1      46.713  28.068  35.451  1.00  0.00     0.198 A 
ATOM     91  C   UNL A   1      45.220  26.497  36.486  1.00  0.00     0.198 A 
ATOM     92  F   UNL A   1      42.897  26.860  36.415  1.00  0.00    -0.203 F 
ATOM     93  F   UNL A   1      47.956  28.438  35.114  1.00  0.00    -0.200 F 
ATOM     94  C   UNL A   1      46.508  26.893  36.160  1.00  0.00     0.200 A 
ATOM     95  F   UNL A   1      45.022  25.366  37.178  1.00  0.00    -0.200 F 
ATOM     96  F   UNL A   1      47.555  26.136  36.520  1.00  0.00    -0.200 F 
ENDBRANCH  63  86
ENDBRANCH  37  38
ENDBRANCH  29  32
ENDBRANCH  27  28
ENDBRANCH  26  27
ENDBRANCH  25  26
ENDBRANCH  24  25
ENDBRANCH  23  24
ENDBRANCH   1  23
TORSDOF 19
ENDMDL
