MODEL 1
REMARK VINA RESULT:     -14.1      0.000      0.000
REMARK SMILES C[C@]1(C(=O)NCCCCCCNC(=O)c2ccc(-c3c4nc(c(-c5c(F)c(F)c(F)c(F)c5F)c5ccc([nH]5)c(-c5c(F)c(F)c(F)c(F)c5F)c5nc(c(-c6c(F)c(F)c(F)c(F)c6F)c6ccc3[nH]6)C=C5)C=C4)cc2)[NH2+]C2(C(=O)c3ccccc3C2=O)[C@@H]2C(=O)N(c3ccccc3)C(=O)[C@H]21
REMARK SMILES IDX 9 1 8 2 7 3 6 4 5 5 3 6 4 7 2 9 1 10 78 11 102 12 79 13
REMARK SMILES IDX 90 16 100 17 80 18 88 19 91 20 93 21 101 22 81 23 82 24
REMARK SMILES IDX 87 25 89 26 92 27 83 28 86 29 84 30 85 31 94 32 95 33 99 34
REMARK SMILES IDX 96 35 98 36 97 37 10 38 11 39 12 40 13 41 14 43 15 44 16 45
REMARK SMILES IDX 77 46 17 47 76 48 18 49 19 50 20 51 70 52 21 53 75 54 69 55
REMARK SMILES IDX 71 56 22 57 74 58 68 59 67 60 23 62 55 63 35 64 54 65 36 66
REMARK SMILES IDX 39 67 53 68 72 69 37 70 38 71 52 73 73 74 40 75 24 76 25 77
REMARK SMILES IDX 33 78 26 79 27 80 31 81 34 82 28 83 29 84 32 85 30 86 56 87
REMARK SMILES IDX 57 88 65 89 58 90 59 91 63 92 66 93 60 94 61 95 64 96 62 97
REMARK SMILES IDX 41 98 42 99 50 100 43 101 44 102 48 103 51 104 45 105 46 106
REMARK SMILES IDX 49 107 47 108
REMARK H PARENT 5 8 78 14 78 15 12 42 71 61 39 72
REMARK Flexibility Score: inf
ROOT
ATOM      1  C   UNL A   1      34.666  33.403  29.192  1.00  0.00     0.002 C 
ENDROOT
BRANCH   1   2
ATOM      2  C   UNL A   1      35.262  32.562  28.054  1.00  0.00     0.002 C 
BRANCH   2   3
ATOM      3  C   UNL A   1      34.927  31.075  28.033  1.00  0.00     0.021 C 
BRANCH   3   4
ATOM      4  C   UNL A   1      33.666  30.671  27.284  1.00  0.00     0.116 C 
BRANCH   4   5
ATOM      5  N   UNL A   1      32.830  29.656  27.847  1.00  0.00    -0.351 N 
ATOM      6  C   UNL A   1      32.544  28.401  27.394  1.00  0.00     0.281 C 
ATOM      7  O   UNL A   1      31.700  27.808  28.085  1.00  0.00    -0.268 OA
ATOM      8  H   UNL A   1      32.393  29.902  28.695  1.00  0.00     0.163 HD
BRANCH   6   9
ATOM      9  C   UNL A   1      33.172  27.679  26.111  1.00  0.00     0.186 C 
ATOM     10  C   UNL A   1      34.586  28.304  25.949  1.00  0.00     0.091 C 
ATOM     11  N   UNL A   1      33.334  26.174  26.271  1.00  0.00    -0.314 N 
ATOM     12  C   UNL A   1      32.485  27.766  24.776  1.00  0.00     0.170 C 
ATOM     13  C   UNL A   1      32.468  25.461  25.234  1.00  0.00     0.236 C 
ATOM     14  H   UNL A   1      33.042  25.897  27.208  1.00  0.00     0.348 HD
ATOM     15  H   UNL A   1      34.312  25.918  26.132  1.00  0.00     0.348 HD
ATOM     16  C   UNL A   1      31.588  26.550  24.704  1.00  0.00     0.177 C 
ATOM     17  C   UNL A   1      31.554  28.831  24.333  1.00  0.00     0.244 C 
ATOM     18  C   UNL A   1      33.278  24.693  24.186  1.00  0.00     0.232 C 
ATOM     19  C   UNL A   1      31.717  24.319  25.954  1.00  0.00     0.232 C 
ATOM     20  C   UNL A   1      30.915  26.807  23.397  1.00  0.00     0.245 C 
ATOM     21  N   UNL A   1      30.757  28.197  23.377  1.00  0.00    -0.250 N 
ATOM     22  O   UNL A   1      31.543  29.979  24.732  1.00  0.00    -0.273 OA
ATOM     23  O   UNL A   1      34.074  25.167  23.396  1.00  0.00    -0.286 OA
ATOM     24  C   UNL A   1      32.974  23.255  24.311  1.00  0.00     0.036 A 
ATOM     25  C   UNL A   1      32.101  23.052  25.367  1.00  0.00     0.036 A 
ATOM     26  O   UNL A   1      30.909  24.355  26.862  1.00  0.00    -0.286 OA
ATOM     27  O   UNL A   1      30.448  25.945  22.675  1.00  0.00    -0.273 OA
ATOM     28  C   UNL A   1      33.426  22.178  23.572  1.00  0.00     0.013 A 
ATOM     29  C   UNL A   1      31.665  21.798  25.763  1.00  0.00     0.013 A 
ATOM     30  C   UNL A   1      32.983  20.895  23.938  1.00  0.00     0.001 A 
ATOM     31  C   UNL A   1      32.117  20.705  25.033  1.00  0.00     0.001 A 
BRANCH  21  32
ATOM     32  C   UNL A   1      29.703  28.892  22.757  1.00  0.00     0.052 A 
ATOM     33  C   UNL A   1      29.984  29.918  21.848  1.00  0.00     0.027 A 
ATOM     34  C   UNL A   1      28.390  28.698  23.198  1.00  0.00     0.027 A 
ATOM     35  C   UNL A   1      28.959  30.739  21.376  1.00  0.00     0.002 A 
ATOM     36  C   UNL A   1      27.376  29.556  22.765  1.00  0.00     0.002 A 
ATOM     37  C   UNL A   1      27.660  30.570  21.850  1.00  0.00     0.000 A 
ENDBRANCH  21  32
ENDBRANCH   6   9
ENDBRANCH   4   5
ENDBRANCH   3   4
ENDBRANCH   2   3
ENDBRANCH   1   2
BRANCH   1  38
ATOM     38  C   UNL A   1      33.473  34.307  28.870  1.00  0.00     0.021 C 
BRANCH  38  39
ATOM     39  C   UNL A   1      33.532  35.744  29.382  1.00  0.00     0.116 C 
BRANCH  39  40
ATOM     40  N   UNL A   1      32.581  36.024  30.447  1.00  0.00    -0.352 N 
ATOM     41  C   UNL A   1      32.625  35.743  31.790  1.00  0.00     0.251 C 
ATOM     42  H   UNL A   1      31.768  36.496  30.155  1.00  0.00     0.163 HD
ATOM     43  O   UNL A   1      31.654  36.000  32.498  1.00  0.00    -0.269 OA
BRANCH  41  44
ATOM     44  C   UNL A   1      33.811  35.095  32.393  1.00  0.00     0.039 A 
ATOM     45  C   UNL A   1      35.042  35.746  32.465  1.00  0.00     0.014 A 
ATOM     46  C   UNL A   1      33.677  33.800  32.910  1.00  0.00     0.014 A 
ATOM     47  C   UNL A   1      36.170  35.048  32.889  1.00  0.00     0.010 A 
ATOM     48  C   UNL A   1      34.796  33.128  33.412  1.00  0.00     0.010 A 
ATOM     49  C   UNL A   1      36.063  33.727  33.357  1.00  0.00    -0.014 A 
BRANCH  49  50
ATOM     50  C   UNL A   1      37.287  32.986  33.761  1.00  0.00     0.031 A 
ATOM     51  C   UNL A   1      37.904  31.965  32.843  1.00  0.00     0.074 A 
ATOM     52  C   UNL A   1      37.876  33.273  34.938  1.00  0.00     0.049 A 
ATOM     53  N   UNL A   1      38.982  31.240  33.017  1.00  0.00    -0.248 NA
ATOM     54  C   UNL A   1      37.224  31.724  31.562  1.00  0.00     0.031 C 
ATOM     55  C   UNL A   1      37.382  34.250  35.908  1.00  0.00     0.029 A 
ATOM     56  N   UNL A   1      39.029  32.793  35.506  1.00  0.00    -0.354 N 
ATOM     57  C   UNL A   1      39.100  30.453  31.879  1.00  0.00     0.074 A 
ATOM     58  C   UNL A   1      37.966  30.760  31.034  1.00  0.00     0.031 C 
ATOM     59  C   UNL A   1      38.252  34.337  36.925  1.00  0.00     0.029 A 
ATOM     60  C   UNL A   1      39.334  33.381  36.709  1.00  0.00     0.049 A 
ATOM     61  H   UNL A   1      39.585  32.094  35.092  1.00  0.00     0.167 HD
ATOM     62  C   UNL A   1      40.076  29.569  31.559  1.00  0.00     0.037 A 
ATOM     63  C   UNL A   1      40.364  33.170  37.551  1.00  0.00     0.037 A 
ATOM     64  C   UNL A   1      41.214  29.280  32.392  1.00  0.00     0.049 A 
ATOM     65  C   UNL A   1      41.403  32.144  37.197  1.00  0.00     0.074 A 
ATOM     66  C   UNL A   1      42.263  28.411  32.145  1.00  0.00     0.029 A 
ATOM     67  N   UNL A   1      41.452  29.852  33.633  1.00  0.00    -0.354 N 
ATOM     68  N   UNL A   1      41.507  31.414  36.115  1.00  0.00    -0.248 NA
ATOM     69  C   UNL A   1      42.463  31.906  38.188  1.00  0.00     0.031 C 
ATOM     70  C   UNL A   1      43.113  28.424  33.255  1.00  0.00     0.029 A 
ATOM     71  C   UNL A   1      42.621  29.338  34.173  1.00  0.00     0.049 A 
ATOM     72  H   UNL A   1      40.876  30.523  34.066  1.00  0.00     0.167 HD
ATOM     73  C   UNL A   1      42.647  30.641  36.284  1.00  0.00     0.074 A 
ATOM     74  C   UNL A   1      43.212  31.004  37.567  1.00  0.00     0.031 C 
ATOM     75  C   UNL A   1      43.173  29.709  35.451  1.00  0.00     0.037 A 
BRANCH  62  76
ATOM     76  C   UNL A   1      39.962  28.843  30.249  1.00  0.00     0.064 A 
ATOM     77  C   UNL A   1      40.496  29.375  29.065  1.00  0.00     0.173 A 
ATOM     78  C   UNL A   1      39.371  27.572  30.187  1.00  0.00     0.173 A 
ATOM     79  F   UNL A   1      41.063  30.591  29.067  1.00  0.00    -0.203 F 
ATOM     80  C   UNL A   1      40.427  28.669  27.867  1.00  0.00     0.198 A 
ATOM     81  C   UNL A   1      39.328  26.857  28.994  1.00  0.00     0.198 A 
ATOM     82  F   UNL A   1      38.852  27.014  31.291  1.00  0.00    -0.203 F 
ATOM     83  F   UNL A   1      40.913  29.212  26.741  1.00  0.00    -0.200 F 
ATOM     84  C   UNL A   1      39.851  27.407  27.833  1.00  0.00     0.200 A 
ATOM     85  F   UNL A   1      38.785  25.632  28.966  1.00  0.00    -0.200 F 
ATOM     86  F   UNL A   1      39.798  26.723  26.682  1.00  0.00    -0.200 F 
ENDBRANCH  62  76
BRANCH  63  87
ATOM     87  C   UNL A   1      40.460  33.965  38.801  1.00  0.00     0.064 A 
ATOM     88  C   UNL A   1      41.187  35.162  38.837  1.00  0.00     0.173 A 
ATOM     89  C   UNL A   1      39.797  33.568  39.972  1.00  0.00     0.173 A 
ATOM     90  F   UNL A   1      41.854  35.573  37.748  1.00  0.00    -0.203 F 
ATOM     91  C   UNL A   1      41.246  35.934  39.995  1.00  0.00     0.198 A 
ATOM     92  C   UNL A   1      39.833  34.355  41.121  1.00  0.00     0.198 A 
ATOM     93  F   UNL A   1      39.086  32.432  39.989  1.00  0.00    -0.203 F 
ATOM     94  F   UNL A   1      41.967  37.063  40.010  1.00  0.00    -0.200 F 
ATOM     95  C   UNL A   1      40.561  35.535  41.133  1.00  0.00     0.200 A 
ATOM     96  F   UNL A   1      39.155  33.975  42.212  1.00  0.00    -0.200 F 
ATOM     97  F   UNL A   1      40.601  36.288  42.241  1.00  0.00    -0.200 F 
ENDBRANCH  63  87
BRANCH  75  98
ATOM     98  C   UNL A   1      44.434  29.023  35.886  1.00  0.00     0.064 A 
ATOM     99  C   UNL A   1      44.401  27.814  36.596  1.00  0.00     0.173 A 
ATOM    100  C   UNL A   1      45.688  29.541  35.527  1.00  0.00     0.173 A 
ATOM    101  F   UNL A   1      43.227  27.285  36.974  1.00  0.00    -0.203 F 
ATOM    102  C   UNL A   1      45.578  27.154  36.939  1.00  0.00     0.198 A 
ATOM    103  C   UNL A   1      46.861  28.865  35.848  1.00  0.00     0.198 A 
ATOM    104  F   UNL A   1      45.773  30.692  34.842  1.00  0.00    -0.203 F 
ATOM    105  F   UNL A   1      45.524  26.016  37.645  1.00  0.00    -0.200 F 
ATOM    106  C   UNL A   1      46.805  27.675  36.556  1.00  0.00     0.200 A 
ATOM    107  F   UNL A   1      48.045  29.362  35.465  1.00  0.00    -0.200 F 
ATOM    108  F   UNL A   1      47.936  27.029  36.874  1.00  0.00    -0.200 F 
ENDBRANCH  75  98
ENDBRANCH  49  50
ENDBRANCH  41  44
ENDBRANCH  39  40
ENDBRANCH  38  39
ENDBRANCH   1  38
TORSDOF 14
ENDMDL
MODEL 2
REMARK VINA RESULT:     -14.0      0.349      6.836
REMARK SMILES C[C@]1(C(=O)NCCCCCCNC(=O)c2ccc(-c3c4nc(c(-c5c(F)c(F)c(F)c(F)c5F)c5ccc([nH]5)c(-c5c(F)c(F)c(F)c(F)c5F)c5nc(c(-c6c(F)c(F)c(F)c(F)c6F)c6ccc3[nH]6)C=C5)C=C4)cc2)[NH2+]C2(C(=O)c3ccccc3C2=O)[C@@H]2C(=O)N(c3ccccc3)C(=O)[C@H]21
REMARK SMILES IDX 9 1 8 2 7 3 6 4 5 5 3 6 4 7 2 9 1 10 78 11 102 12 79 13
REMARK SMILES IDX 90 16 100 17 80 18 88 19 91 20 93 21 101 22 81 23 82 24
REMARK SMILES IDX 87 25 89 26 92 27 83 28 86 29 84 30 85 31 94 32 95 33 99 34
REMARK SMILES IDX 96 35 98 36 97 37 10 38 11 39 12 40 13 41 14 43 15 44 16 45
REMARK SMILES IDX 77 46 17 47 76 48 18 49 19 50 20 51 70 52 21 53 75 54 69 55
REMARK SMILES IDX 71 56 22 57 74 58 68 59 67 60 23 62 55 63 35 64 54 65 36 66
REMARK SMILES IDX 39 67 53 68 72 69 37 70 38 71 52 73 73 74 40 75 24 76 25 77
REMARK SMILES IDX 33 78 26 79 27 80 31 81 34 82 28 83 29 84 32 85 30 86 56 87
REMARK SMILES IDX 57 88 65 89 58 90 59 91 63 92 66 93 60 94 61 95 64 96 62 97
REMARK SMILES IDX 41 98 42 99 50 100 43 101 44 102 48 103 51 104 45 105 46 106
REMARK SMILES IDX 49 107 47 108
REMARK H PARENT 5 8 78 14 78 15 12 42 71 61 39 72
REMARK Flexibility Score: inf
ROOT
ATOM      1  C   UNL A   1      34.752  33.440  29.155  1.00  0.00     0.002 C 
ENDROOT
BRANCH   1   2
ATOM      2  C   UNL A   1      35.302  32.582  28.008  1.00  0.00     0.002 C 
BRANCH   2   3
ATOM      3  C   UNL A   1      34.954  31.097  28.016  1.00  0.00     0.021 C 
BRANCH   3   4
ATOM      4  C   UNL A   1      33.691  30.690  27.273  1.00  0.00     0.116 C 
BRANCH   4   5
ATOM      5  N   UNL A   1      32.861  29.672  27.840  1.00  0.00    -0.351 N 
ATOM      6  C   UNL A   1      32.575  28.416  27.386  1.00  0.00     0.281 C 
ATOM      7  O   UNL A   1      31.737  27.820  28.081  1.00  0.00    -0.268 OA
ATOM      8  H   UNL A   1      32.428  29.915  28.690  1.00  0.00     0.163 HD
BRANCH   6   9
ATOM      9  C   UNL A   1      33.198  27.699  26.098  1.00  0.00     0.186 C 
ATOM     10  C   UNL A   1      34.612  28.323  25.933  1.00  0.00     0.091 C 
ATOM     11  N   UNL A   1      33.359  26.193  26.252  1.00  0.00    -0.314 N 
ATOM     12  C   UNL A   1      32.505  27.790  24.766  1.00  0.00     0.170 C 
ATOM     13  C   UNL A   1      32.488  25.484  25.216  1.00  0.00     0.236 C 
ATOM     14  H   UNL A   1      33.071  25.913  27.189  1.00  0.00     0.348 HD
ATOM     15  H   UNL A   1      34.336  25.937  26.109  1.00  0.00     0.348 HD
ATOM     16  C   UNL A   1      31.607  26.575  24.694  1.00  0.00     0.177 C 
ATOM     17  C   UNL A   1      31.573  28.858  24.330  1.00  0.00     0.244 C 
ATOM     18  C   UNL A   1      33.294  24.719  24.162  1.00  0.00     0.232 C 
ATOM     19  C   UNL A   1      31.740  24.340  25.936  1.00  0.00     0.232 C 
ATOM     20  C   UNL A   1      30.929  26.837  23.391  1.00  0.00     0.245 C 
ATOM     21  N   UNL A   1      30.771  28.228  23.376  1.00  0.00    -0.250 N 
ATOM     22  O   UNL A   1      31.564  30.004  24.734  1.00  0.00    -0.273 OA
ATOM     23  O   UNL A   1      34.087  25.195  23.371  1.00  0.00    -0.286 OA
ATOM     24  C   UNL A   1      32.989  23.281  24.284  1.00  0.00     0.036 A 
ATOM     25  C   UNL A   1      32.121  23.075  25.343  1.00  0.00     0.036 A 
ATOM     26  O   UNL A   1      30.936  24.373  26.848  1.00  0.00    -0.286 OA
ATOM     27  O   UNL A   1      30.458  25.977  22.668  1.00  0.00    -0.273 OA
ATOM     28  C   UNL A   1      33.438  22.206  23.540  1.00  0.00     0.013 A 
ATOM     29  C   UNL A   1      31.686  21.820  25.737  1.00  0.00     0.013 A 
ATOM     30  C   UNL A   1      32.996  20.922  23.904  1.00  0.00     0.001 A 
ATOM     31  C   UNL A   1      32.134  20.729  25.001  1.00  0.00     0.001 A 
BRANCH  21  32
ATOM     32  C   UNL A   1      29.716  28.925  22.763  1.00  0.00     0.052 A 
ATOM     33  C   UNL A   1      29.993  29.933  21.833  1.00  0.00     0.027 A 
ATOM     34  C   UNL A   1      28.407  28.753  23.229  1.00  0.00     0.027 A 
ATOM     35  C   UNL A   1      28.969  30.758  21.365  1.00  0.00     0.002 A 
ATOM     36  C   UNL A   1      27.397  29.616  22.799  1.00  0.00     0.002 A 
ATOM     37  C   UNL A   1      27.677  30.613  21.864  1.00  0.00     0.000 A 
ENDBRANCH  21  32
ENDBRANCH   6   9
ENDBRANCH   4   5
ENDBRANCH   3   4
ENDBRANCH   2   3
ENDBRANCH   1   2
BRANCH   1  38
ATOM     38  C   UNL A   1      33.462  34.228  28.910  1.00  0.00     0.021 C 
BRANCH  38  39
ATOM     39  C   UNL A   1      33.417  35.665  29.422  1.00  0.00     0.116 C 
BRANCH  39  40
ATOM     40  N   UNL A   1      32.519  35.856  30.550  1.00  0.00    -0.352 N 
ATOM     41  C   UNL A   1      32.654  35.523  31.876  1.00  0.00     0.251 C 
ATOM     42  H   UNL A   1      31.670  36.300  30.326  1.00  0.00     0.163 HD
ATOM     43  O   UNL A   1      31.716  35.704  32.648  1.00  0.00    -0.269 OA
BRANCH  41  44
ATOM     44  C   UNL A   1      33.902  34.908  32.381  1.00  0.00     0.039 A 
ATOM     45  C   UNL A   1      35.103  35.617  32.419  1.00  0.00     0.014 A 
ATOM     46  C   UNL A   1      33.860  33.586  32.840  1.00  0.00     0.014 A 
ATOM     47  C   UNL A   1      36.285  34.957  32.747  1.00  0.00     0.010 A 
ATOM     48  C   UNL A   1      35.036  32.949  33.248  1.00  0.00     0.010 A 
ATOM     49  C   UNL A   1      36.268  33.613  33.154  1.00  0.00    -0.014 A 
BRANCH  49  50
ATOM     50  C   UNL A   1      37.546  32.917  33.456  1.00  0.00     0.031 A 
ATOM     51  C   UNL A   1      38.267  33.164  34.754  1.00  0.00     0.074 A 
ATOM     52  C   UNL A   1      38.032  32.016  32.580  1.00  0.00     0.049 A 
ATOM     53  N   UNL A   1      39.379  32.631  35.197  1.00  0.00    -0.248 NA
ATOM     54  C   UNL A   1      37.664  34.138  35.676  1.00  0.00     0.031 C 
ATOM     55  C   UNL A   1      37.420  31.680  31.294  1.00  0.00     0.029 A 
ATOM     56  N   UNL A   1      39.134  31.201  32.647  1.00  0.00    -0.354 N 
ATOM     57  C   UNL A   1      39.612  33.211  36.438  1.00  0.00     0.074 A 
ATOM     58  C   UNL A   1      38.547  34.164  36.664  1.00  0.00     0.031 C 
ATOM     59  C   UNL A   1      38.121  30.693  30.718  1.00  0.00     0.029 A 
ATOM     60  C   UNL A   1      39.266  30.368  31.564  1.00  0.00     0.049 A 
ATOM     61  H   UNL A   1      39.770  31.214  33.398  1.00  0.00     0.167 HD
ATOM     62  C   UNL A   1      40.612  32.957  37.316  1.00  0.00     0.037 A 
ATOM     63  C   UNL A   1      40.208  29.449  31.276  1.00  0.00     0.037 A 
ATOM     64  C   UNL A   1      41.659  31.993  37.098  1.00  0.00     0.049 A 
ATOM     65  C   UNL A   1      41.337  29.226  32.243  1.00  0.00     0.074 A 
ATOM     66  C   UNL A   1      42.707  31.655  37.937  1.00  0.00     0.029 A 
ATOM     67  N   UNL A   1      41.792  31.213  35.959  1.00  0.00    -0.354 N 
ATOM     68  N   UNL A   1      41.540  29.775  33.415  1.00  0.00    -0.248 NA
ATOM     69  C   UNL A   1      42.373  28.263  31.842  1.00  0.00     0.031 C 
ATOM     70  C   UNL A   1      43.498  30.703  37.287  1.00  0.00     0.029 A 
ATOM     71  C   UNL A   1      42.917  30.410  36.064  1.00  0.00     0.049 A 
ATOM     72  H   UNL A   1      41.178  31.228  35.188  1.00  0.00     0.167 HD
ATOM     73  C   UNL A   1      42.715  29.217  33.899  1.00  0.00     0.074 A 
ATOM     74  C   UNL A   1      43.172  28.272  32.901  1.00  0.00     0.031 C 
ATOM     75  C   UNL A   1      43.359  29.472  35.064  1.00  0.00     0.037 A 
BRANCH  62  76
ATOM     76  C   UNL A   1      40.629  33.733  38.602  1.00  0.00     0.064 A 
ATOM     77  C   UNL A   1      41.428  34.876  38.759  1.00  0.00     0.173 A 
ATOM     78  C   UNL A   1      39.789  33.370  39.665  1.00  0.00     0.173 A 
ATOM     79  F   UNL A   1      42.256  35.261  37.777  1.00  0.00    -0.203 F 
ATOM     80  C   UNL A   1      41.398  35.615  39.939  1.00  0.00     0.198 A 
ATOM     81  C   UNL A   1      39.741  34.126  40.833  1.00  0.00     0.198 A 
ATOM     82  F   UNL A   1      38.999  32.290  39.565  1.00  0.00    -0.203 F 
ATOM     83  F   UNL A   1      42.196  36.683  40.081  1.00  0.00    -0.200 F 
ATOM     84  C   UNL A   1      40.548  35.245  40.972  1.00  0.00     0.200 A 
ATOM     85  F   UNL A   1      38.908  33.776  41.823  1.00  0.00    -0.200 F 
ATOM     86  F   UNL A   1      40.509  35.965  42.101  1.00  0.00    -0.200 F 
ENDBRANCH  62  76
BRANCH  63  87
ATOM     87  C   UNL A   1      40.103  28.663  30.020  1.00  0.00     0.064 A 
ATOM     88  C   UNL A   1      40.671  29.133  28.829  1.00  0.00     0.173 A 
ATOM     89  C   UNL A   1      39.471  27.411  29.993  1.00  0.00     0.173 A 
ATOM     90  F   UNL A   1      41.268  30.334  28.800  1.00  0.00    -0.203 F 
ATOM     91  C   UNL A   1      40.613  28.381  27.658  1.00  0.00     0.198 A 
ATOM     92  C   UNL A   1      39.438  26.647  28.829  1.00  0.00     0.198 A 
ATOM     93  F   UNL A   1      38.915  26.914  31.108  1.00  0.00    -0.203 F 
ATOM     94  F   UNL A   1      41.143  28.864  26.527  1.00  0.00    -0.200 F 
ATOM     95  C   UNL A   1      40.005  27.134  27.662  1.00  0.00     0.200 A 
ATOM     96  F   UNL A   1      38.867  25.435  28.841  1.00  0.00    -0.200 F 
ATOM     97  F   UNL A   1      39.968  26.401  26.540  1.00  0.00    -0.200 F 
ENDBRANCH  63  87
BRANCH  75  98
ATOM     98  C   UNL A   1      44.621  28.710  35.340  1.00  0.00     0.064 A 
ATOM     99  C   UNL A   1      45.877  29.222  34.985  1.00  0.00     0.173 A 
ATOM    100  C   UNL A   1      44.579  27.489  36.032  1.00  0.00     0.173 A 
ATOM    101  F   UNL A   1      45.968  30.378  34.310  1.00  0.00    -0.203 F 
ATOM    102  C   UNL A   1      47.046  28.534  35.303  1.00  0.00     0.198 A 
ATOM    103  C   UNL A   1      45.750  26.818  36.371  1.00  0.00     0.198 A 
ATOM    104  F   UNL A   1      43.402  26.960  36.399  1.00  0.00    -0.203 F 
ATOM    105  F   UNL A   1      48.234  29.026  34.926  1.00  0.00    -0.200 F 
ATOM    106  C   UNL A   1      46.981  27.339  36.004  1.00  0.00     0.200 A 
ATOM    107  F   UNL A   1      45.686  25.670  37.061  1.00  0.00    -0.200 F 
ATOM    108  F   UNL A   1      48.107  26.687  36.323  1.00  0.00    -0.200 F 
ENDBRANCH  75  98
ENDBRANCH  49  50
ENDBRANCH  41  44
ENDBRANCH  39  40
ENDBRANCH  38  39
ENDBRANCH   1  38
TORSDOF 14
ENDMDL
MODEL 3
REMARK VINA RESULT:     -13.9      6.692     12.409
REMARK SMILES C[C@]1(C(=O)NCCCCCCNC(=O)c2ccc(-c3c4nc(c(-c5c(F)c(F)c(F)c(F)c5F)c5ccc([nH]5)c(-c5c(F)c(F)c(F)c(F)c5F)c5nc(c(-c6c(F)c(F)c(F)c(F)c6F)c6ccc3[nH]6)C=C5)C=C4)cc2)[NH2+]C2(C(=O)c3ccccc3C2=O)[C@@H]2C(=O)N(c3ccccc3)C(=O)[C@H]21
REMARK SMILES IDX 9 1 8 2 7 3 6 4 5 5 3 6 4 7 2 9 1 10 78 11 102 12 79 13
REMARK SMILES IDX 90 16 100 17 80 18 88 19 91 20 93 21 101 22 81 23 82 24
REMARK SMILES IDX 87 25 89 26 92 27 83 28 86 29 84 30 85 31 94 32 95 33 99 34
REMARK SMILES IDX 96 35 98 36 97 37 10 38 11 39 12 40 13 41 14 43 15 44 16 45
REMARK SMILES IDX 77 46 17 47 76 48 18 49 19 50 20 51 70 52 21 53 75 54 69 55
REMARK SMILES IDX 71 56 22 57 74 58 68 59 67 60 23 62 55 63 35 64 54 65 36 66
REMARK SMILES IDX 39 67 53 68 72 69 37 70 38 71 52 73 73 74 40 75 24 76 25 77
REMARK SMILES IDX 33 78 26 79 27 80 31 81 34 82 28 83 29 84 32 85 30 86 56 87
REMARK SMILES IDX 57 88 65 89 58 90 59 91 63 92 66 93 60 94 61 95 64 96 62 97
REMARK SMILES IDX 41 98 42 99 50 100 43 101 44 102 48 103 51 104 45 105 46 106
REMARK SMILES IDX 49 107 47 108
REMARK H PARENT 5 8 78 14 78 15 12 42 71 61 39 72
REMARK Flexibility Score: inf
ROOT
ATOM      1  C   UNL A   1      41.776  20.672  26.634  1.00  0.00     0.002 C 
ENDROOT
BRANCH   1   2
ATOM      2  C   UNL A   1      41.095  21.865  25.949  1.00  0.00     0.002 C 
BRANCH   2   3
ATOM      3  C   UNL A   1      39.762  22.335  26.523  1.00  0.00     0.021 C 
BRANCH   3   4
ATOM      4  C   UNL A   1      38.506  21.822  25.835  1.00  0.00     0.116 C 
BRANCH   4   5
ATOM      5  N   UNL A   1      38.132  22.393  24.578  1.00  0.00    -0.351 N 
ATOM      6  C   UNL A   1      36.980  23.027  24.208  1.00  0.00     0.281 C 
ATOM      7  O   UNL A   1      36.946  23.322  23.003  1.00  0.00    -0.268 OA
ATOM      8  H   UNL A   1      38.810  22.316  23.869  1.00  0.00     0.163 HD
BRANCH   6   9
ATOM      9  C   UNL A   1      35.742  23.394  25.154  1.00  0.00     0.186 C 
ATOM     10  C   UNL A   1      36.372  23.704  26.541  1.00  0.00     0.091 C 
ATOM     11  N   UNL A   1      34.966  24.622  24.700  1.00  0.00    -0.314 N 
ATOM     12  C   UNL A   1      34.632  22.403  25.373  1.00  0.00     0.170 C 
ATOM     13  C   UNL A   1      33.533  24.215  24.358  1.00  0.00     0.236 C 
ATOM     14  H   UNL A   1      35.412  25.023  23.876  1.00  0.00     0.348 HD
ATOM     15  H   UNL A   1      34.954  25.315  25.449  1.00  0.00     0.348 HD
ATOM     16  C   UNL A   1      33.594  22.719  24.320  1.00  0.00     0.177 C 
ATOM     17  C   UNL A   1      34.729  20.929  25.241  1.00  0.00     0.244 C 
ATOM     18  C   UNL A   1      32.487  24.813  25.302  1.00  0.00     0.232 C 
ATOM     19  C   UNL A   1      33.165  24.880  23.014  1.00  0.00     0.232 C 
ATOM     20  C   UNL A   1      32.615  21.627  24.592  1.00  0.00     0.245 C 
ATOM     21  N   UNL A   1      33.425  20.538  24.934  1.00  0.00    -0.250 N 
ATOM     22  O   UNL A   1      35.736  20.265  25.392  1.00  0.00    -0.273 OA
ATOM     23  O   UNL A   1      32.400  24.623  26.501  1.00  0.00    -0.286 OA
ATOM     24  C   UNL A   1      31.608  25.710  24.529  1.00  0.00     0.036 A 
ATOM     25  C   UNL A   1      32.040  25.769  23.215  1.00  0.00     0.036 A 
ATOM     26  O   UNL A   1      33.653  24.747  21.908  1.00  0.00    -0.286 OA
ATOM     27  O   UNL A   1      31.425  21.683  24.339  1.00  0.00    -0.273 OA
ATOM     28  C   UNL A   1      30.507  26.444  24.927  1.00  0.00     0.013 A 
ATOM     29  C   UNL A   1      31.442  26.567  22.252  1.00  0.00     0.013 A 
ATOM     30  C   UNL A   1      29.867  27.246  23.966  1.00  0.00     0.001 A 
ATOM     31  C   UNL A   1      30.337  27.315  22.640  1.00  0.00     0.001 A 
BRANCH  21  32
ATOM     32  C   UNL A   1      33.129  19.187  24.682  1.00  0.00     0.052 A 
ATOM     33  C   UNL A   1      32.903  18.311  25.749  1.00  0.00     0.027 A 
ATOM     34  C   UNL A   1      33.260  18.679  23.385  1.00  0.00     0.027 A 
ATOM     35  C   UNL A   1      32.800  16.938  25.522  1.00  0.00     0.002 A 
ATOM     36  C   UNL A   1      33.211  17.299  23.170  1.00  0.00     0.002 A 
ATOM     37  C   UNL A   1      32.975  16.432  24.236  1.00  0.00     0.000 A 
ENDBRANCH  21  32
ENDBRANCH   6   9
ENDBRANCH   4   5
ENDBRANCH   3   4
ENDBRANCH   2   3
ENDBRANCH   1   2
BRANCH   1  38
ATOM     38  C   UNL A   1      41.984  19.395  25.816  1.00  0.00     0.021 C 
BRANCH  38  39
ATOM     39  C   UNL A   1      43.250  18.589  26.096  1.00  0.00     0.116 C 
BRANCH  39  40
ATOM     40  N   UNL A   1      44.133  18.469  24.946  1.00  0.00    -0.352 N 
ATOM     41  C   UNL A   1      44.858  19.415  24.265  1.00  0.00     0.251 C 
ATOM     42  H   UNL A   1      44.226  17.554  24.596  1.00  0.00     0.163 HD
ATOM     43  O   UNL A   1      45.476  19.097  23.252  1.00  0.00    -0.269 OA
BRANCH  41  44
ATOM     44  C   UNL A   1      44.872  20.827  24.710  1.00  0.00     0.039 A 
ATOM     45  C   UNL A   1      44.444  21.860  23.876  1.00  0.00     0.014 A 
ATOM     46  C   UNL A   1      45.317  21.117  26.005  1.00  0.00     0.014 A 
ATOM     47  C   UNL A   1      44.623  23.184  24.269  1.00  0.00     0.010 A 
ATOM     48  C   UNL A   1      45.419  22.446  26.429  1.00  0.00     0.010 A 
ATOM     49  C   UNL A   1      45.123  23.494  25.545  1.00  0.00    -0.014 A 
BRANCH  49  50
ATOM     50  C   UNL A   1      45.348  24.913  25.925  1.00  0.00     0.031 A 
ATOM     51  C   UNL A   1      44.244  25.727  26.545  1.00  0.00     0.074 A 
ATOM     52  C   UNL A   1      46.570  25.457  25.761  1.00  0.00     0.049 A 
ATOM     53  N   UNL A   1      44.264  26.969  26.961  1.00  0.00    -0.248 NA
ATOM     54  C   UNL A   1      42.945  25.060  26.722  1.00  0.00     0.031 C 
ATOM     55  C   UNL A   1      47.724  24.768  25.182  1.00  0.00     0.029 A 
ATOM     56  N   UNL A   1      47.052  26.699  26.087  1.00  0.00    -0.354 N 
ATOM     57  C   UNL A   1      42.986  27.234  27.434  1.00  0.00     0.074 A 
ATOM     58  C   UNL A   1      42.201  26.037  27.222  1.00  0.00     0.031 C 
ATOM     59  C   UNL A   1      48.793  25.576  25.244  1.00  0.00     0.029 A 
ATOM     60  C   UNL A   1      48.387  26.859  25.810  1.00  0.00     0.049 A 
ATOM     61  H   UNL A   1      46.495  27.409  26.481  1.00  0.00     0.167 HD
ATOM     62  C   UNL A   1      42.514  28.366  28.010  1.00  0.00     0.037 A 
ATOM     63  C   UNL A   1      49.196  27.923  25.982  1.00  0.00     0.037 A 
ATOM     64  C   UNL A   1      43.302  29.550  28.238  1.00  0.00     0.049 A 
ATOM     65  C   UNL A   1      48.634  29.185  26.573  1.00  0.00     0.074 A 
ATOM     66  C   UNL A   1      42.916  30.740  28.830  1.00  0.00     0.029 A 
ATOM     67  N   UNL A   1      44.636  29.693  27.885  1.00  0.00    -0.354 N 
ATOM     68  N   UNL A   1      47.426  29.419  27.024  1.00  0.00    -0.248 NA
ATOM     69  C   UNL A   1      49.545  30.334  26.670  1.00  0.00     0.031 C 
ATOM     70  C   UNL A   1      44.003  31.619  28.794  1.00  0.00     0.029 A 
ATOM     71  C   UNL A   1      45.082  30.960  28.226  1.00  0.00     0.049 A 
ATOM     72  H   UNL A   1      45.184  28.997  27.454  1.00  0.00     0.167 HD
ATOM     73  C   UNL A   1      47.433  30.733  27.470  1.00  0.00     0.074 A 
ATOM     74  C   UNL A   1      48.772  31.241  27.253  1.00  0.00     0.031 C 
ATOM     75  C   UNL A   1      46.418  31.453  28.006  1.00  0.00     0.037 A 
BRANCH  62  76
ATOM     76  C   UNL A   1      41.075  28.388  28.439  1.00  0.00     0.064 A 
ATOM     77  C   UNL A   1      40.682  27.963  29.717  1.00  0.00     0.173 A 
ATOM     78  C   UNL A   1      40.085  28.900  27.586  1.00  0.00     0.173 A 
ATOM     79  F   UNL A   1      41.588  27.456  30.567  1.00  0.00    -0.203 F 
ATOM     80  C   UNL A   1      39.351  28.034  30.119  1.00  0.00     0.198 A 
ATOM     81  C   UNL A   1      38.759  28.996  28.001  1.00  0.00     0.198 A 
ATOM     82  F   UNL A   1      40.407  29.328  26.356  1.00  0.00    -0.203 F 
ATOM     83  F   UNL A   1      38.993  27.590  31.332  1.00  0.00    -0.200 F 
ATOM     84  C   UNL A   1      38.392  28.559  29.265  1.00  0.00     0.200 A 
ATOM     85  F   UNL A   1      37.837  29.517  27.180  1.00  0.00    -0.200 F 
ATOM     86  F   UNL A   1      37.114  28.640  29.658  1.00  0.00    -0.200 F 
ENDBRANCH  62  76
BRANCH  63  87
ATOM     87  C   UNL A   1      50.628  27.822  25.601  1.00  0.00     0.064 A 
ATOM     88  C   UNL A   1      51.610  27.554  26.563  1.00  0.00     0.173 A 
ATOM     89  C   UNL A   1      51.039  27.950  24.266  1.00  0.00     0.173 A 
ATOM     90  F   UNL A   1      51.268  27.443  27.856  1.00  0.00    -0.203 F 
ATOM     91  C   UNL A   1      52.949  27.415  26.206  1.00  0.00     0.198 A 
ATOM     92  C   UNL A   1      52.374  27.784  23.905  1.00  0.00     0.198 A 
ATOM     93  F   UNL A   1      50.137  28.203  23.307  1.00  0.00    -0.203 F 
ATOM     94  F   UNL A   1      53.872  27.182  27.148  1.00  0.00    -0.200 F 
ATOM     95  C   UNL A   1      53.328  27.520  24.876  1.00  0.00     0.200 A 
ATOM     96  F   UNL A   1      52.733  27.867  22.617  1.00  0.00    -0.200 F 
ATOM     97  F   UNL A   1      54.614  27.367  24.529  1.00  0.00    -0.200 F 
ENDBRANCH  63  87
BRANCH  75  98
ATOM     98  C   UNL A   1      46.709  32.867  28.415  1.00  0.00     0.064 A 
ATOM     99  C   UNL A   1      46.506  33.939  27.534  1.00  0.00     0.173 A 
ATOM    100  C   UNL A   1      47.128  33.158  29.722  1.00  0.00     0.173 A 
ATOM    101  F   UNL A   1      46.120  33.710  26.270  1.00  0.00    -0.203 F 
ATOM    102  C   UNL A   1      46.721  35.252  27.945  1.00  0.00     0.198 A 
ATOM    103  C   UNL A   1      47.315  34.473  30.137  1.00  0.00     0.198 A 
ATOM    104  F   UNL A   1      47.330  32.167  30.604  1.00  0.00    -0.203 F 
ATOM    105  F   UNL A   1      46.551  36.259  27.078  1.00  0.00    -0.200 F 
ATOM    106  C   UNL A   1      47.115  35.518  29.248  1.00  0.00     0.200 A 
ATOM    107  F   UNL A   1      47.682  34.729  31.401  1.00  0.00    -0.200 F 
ATOM    108  F   UNL A   1      47.306  36.783  29.646  1.00  0.00    -0.200 F 
ENDBRANCH  75  98
ENDBRANCH  49  50
ENDBRANCH  41  44
ENDBRANCH  39  40
ENDBRANCH  38  39
ENDBRANCH   1  38
TORSDOF 14
ENDMDL
