MODEL 1
REMARK VINA RESULT:     -11.4      0.000      0.000
REMARK SMILES CSc1nc2nnc(C(=O)NCCCCCCNC(=O)c3ccc(-c4c5nc(c(-c6c(F)c(F)c(F)c(F)c6F)c6ccc([nH]6)c(-c6c(F)c(F)c(F)c(F)c6F)c6nc(c(-c7c(F)c(F)c(F)c(F)c7F)c7ccc4[nH]7)C=C6)C=C5)cc3)c(O)n2n1
REMARK SMILES IDX 15 1 14 2 13 3 12 4 11 5 9 6 10 7 8 9 3 10 4 11 87 12 5 13
REMARK SMILES IDX 86 14 6 15 84 16 7 17 2 18 1 19 85 20 16 22 17 23 18 24
REMARK SMILES IDX 19 25 20 27 21 28 22 29 83 30 23 31 82 32 24 33 25 34 26 35
REMARK SMILES IDX 76 36 27 37 81 38 75 39 77 40 28 41 80 42 74 43 73 44 29 46
REMARK SMILES IDX 61 47 41 48 60 49 42 50 45 51 59 52 78 53 43 54 44 55 58 57
REMARK SMILES IDX 79 58 46 59 30 60 31 61 39 62 32 63 33 64 37 65 40 66 34 67
REMARK SMILES IDX 35 68 38 69 36 70 62 71 63 72 71 73 64 74 65 75 69 76 72 77
REMARK SMILES IDX 66 78 67 79 70 80 68 81 47 82 48 83 56 84 49 85 50 86 54 87
REMARK SMILES IDX 57 88 51 89 52 90 55 91 53 92
REMARK H PARENT 11 8 85 21 18 26 77 45 45 56
REMARK Flexibility Score: inf
ROOT
ATOM      1  C   UNL A   1      43.148  23.420  29.044  1.00  0.00     0.002 C 
ENDROOT
BRANCH   1   2
ATOM      2  C   UNL A   1      42.904  24.916  28.796  1.00  0.00     0.002 C 
BRANCH   2   3
ATOM      3  C   UNL A   1      43.835  25.878  29.546  1.00  0.00     0.021 C 
BRANCH   3   4
ATOM      4  C   UNL A   1      45.324  25.635  29.305  1.00  0.00     0.116 C 
BRANCH   4   5
ATOM      5  N   UNL A   1      45.848  26.537  28.292  1.00  0.00    -0.350 N 
ATOM      6  C   UNL A   1      46.004  26.443  26.947  1.00  0.00     0.277 C 
ATOM      7  O   UNL A   1      46.549  27.398  26.380  1.00  0.00    -0.267 OA
ATOM      8  H   UNL A   1      46.153  27.398  28.660  1.00  0.00     0.163 HD
BRANCH   6   9
ATOM      9  C   UNL A   1      45.538  25.267  26.135  1.00  0.00     0.212 A 
ATOM     10  C   UNL A   1      45.353  21.240  24.484  1.00  0.00     0.210 A 
ATOM     11  N   UNL A   1      44.438  22.104  23.962  1.00  0.00    -0.182 NA
ATOM     12  N   UNL A   1      46.157  21.748  25.417  1.00  0.00    -0.134 NA
ATOM     13  C   UNL A   1      44.687  23.225  24.601  1.00  0.00     0.275 A 
ATOM     14  N   UNL A   1      45.725  23.029  25.501  1.00  0.00    -0.159 N 
ATOM     15  N   UNL A   1      44.107  24.454  24.502  1.00  0.00    -0.108 NA
ATOM     16  C   UNL A   1      46.170  24.081  26.306  1.00  0.00     0.249 A 
ATOM     17  N   UNL A   1      44.513  25.407  25.219  1.00  0.00    -0.136 NA
BRANCH  10  18
ATOM     18  S   UNL A   1      45.431  19.572  23.987  1.00  0.00    -0.088 SA
ATOM     19  C   UNL A   1      44.489  18.783  25.308  1.00  0.00     0.094 C 
ENDBRANCH  10  18
BRANCH  16  20
ATOM     20  O   UNL A   1      47.211  23.841  27.194  1.00  0.00    -0.491 OA
ATOM     21  H   UNL A   1      47.842  23.175  27.005  1.00  0.00     0.295 HD
ENDBRANCH  16  20
ENDBRANCH   6   9
ENDBRANCH   4   5
ENDBRANCH   3   4
ENDBRANCH   2   3
ENDBRANCH   1   2
BRANCH   1  22
ATOM     22  C   UNL A   1      42.213  22.451  28.307  1.00  0.00     0.021 C 
BRANCH  22  23
ATOM     23  C   UNL A   1      42.189  22.654  26.801  1.00  0.00     0.116 C 
BRANCH  23  24
ATOM     24  N   UNL A   1      40.877  22.385  26.222  1.00  0.00    -0.352 N 
ATOM     25  C   UNL A   1      39.702  23.063  26.450  1.00  0.00     0.251 C 
ATOM     26  H   UNL A   1      40.826  21.629  25.592  1.00  0.00     0.163 HD
ATOM     27  O   UNL A   1      38.614  22.542  26.198  1.00  0.00    -0.269 OA
BRANCH  25  28
ATOM     28  C   UNL A   1      39.756  24.429  26.996  1.00  0.00     0.039 A 
ATOM     29  C   UNL A   1      39.279  24.707  28.279  1.00  0.00     0.014 A 
ATOM     30  C   UNL A   1      40.286  25.444  26.197  1.00  0.00     0.014 A 
ATOM     31  C   UNL A   1      39.397  26.002  28.774  1.00  0.00     0.010 A 
ATOM     32  C   UNL A   1      40.516  26.690  26.727  1.00  0.00     0.010 A 
ATOM     33  C   UNL A   1      40.033  26.986  27.996  1.00  0.00    -0.014 A 
BRANCH  33  34
ATOM     34  C   UNL A   1      40.331  28.296  28.564  1.00  0.00     0.031 A 
ATOM     35  C   UNL A   1      41.591  28.898  28.047  1.00  0.00     0.074 A 
ATOM     36  C   UNL A   1      39.454  28.989  29.322  1.00  0.00     0.049 A 
ATOM     37  N   UNL A   1      42.663  29.174  28.711  1.00  0.00    -0.248 NA
ATOM     38  C   UNL A   1      41.732  29.081  26.591  1.00  0.00     0.031 C 
ATOM     39  C   UNL A   1      38.068  28.642  29.659  1.00  0.00     0.029 A 
ATOM     40  N   UNL A   1      39.597  30.215  29.896  1.00  0.00    -0.354 N 
ATOM     41  C   UNL A   1      43.549  29.743  27.799  1.00  0.00     0.074 A 
ATOM     42  C   UNL A   1      42.995  29.501  26.495  1.00  0.00     0.031 C 
ATOM     43  C   UNL A   1      37.440  29.720  30.182  1.00  0.00     0.029 A 
ATOM     44  C   UNL A   1      38.415  30.778  30.371  1.00  0.00     0.049 A 
ATOM     45  H   UNL A   1      40.468  30.670  29.969  1.00  0.00     0.167 HD
ATOM     46  C   UNL A   1      44.536  30.581  28.226  1.00  0.00     0.037 A 
ATOM     47  C   UNL A   1      38.252  32.029  30.873  1.00  0.00     0.037 A 
ATOM     48  C   UNL A   1      44.779  30.397  29.636  1.00  0.00     0.049 A 
ATOM     49  C   UNL A   1      39.595  32.503  31.285  1.00  0.00     0.074 A 
ATOM     50  C   UNL A   1      45.205  29.343  30.420  1.00  0.00     0.029 A 
ATOM     51  N   UNL A   1      44.204  31.295  30.500  1.00  0.00    -0.354 N 
ATOM     52  N   UNL A   1      40.278  31.977  32.265  1.00  0.00    -0.248 NA
ATOM     53  C   UNL A   1      40.367  33.254  30.310  1.00  0.00     0.031 C 
ATOM     54  C   UNL A   1      44.444  29.444  31.620  1.00  0.00     0.029 A 
ATOM     55  C   UNL A   1      43.654  30.592  31.537  1.00  0.00     0.049 A 
ATOM     56  H   UNL A   1      44.190  32.273  30.392  1.00  0.00     0.167 HD
ATOM     57  C   UNL A   1      41.585  31.954  31.805  1.00  0.00     0.074 A 
ATOM     58  C   UNL A   1      41.591  32.828  30.632  1.00  0.00     0.031 C 
ATOM     59  C   UNL A   1      42.462  31.005  32.242  1.00  0.00     0.037 A 
BRANCH  46  60
ATOM     60  C   UNL A   1      44.979  31.831  27.493  1.00  0.00     0.064 A 
ATOM     61  C   UNL A   1      46.276  31.867  26.937  1.00  0.00     0.173 A 
ATOM     62  C   UNL A   1      44.331  33.083  27.582  1.00  0.00     0.173 A 
ATOM     63  F   UNL A   1      46.995  30.742  26.802  1.00  0.00    -0.203 F 
ATOM     64  C   UNL A   1      46.910  33.068  26.605  1.00  0.00     0.198 A 
ATOM     65  C   UNL A   1      44.949  34.274  27.202  1.00  0.00     0.198 A 
ATOM     66  F   UNL A   1      43.124  33.232  28.135  1.00  0.00    -0.203 F 
ATOM     67  F   UNL A   1      48.192  33.057  26.216  1.00  0.00    -0.200 F 
ATOM     68  C   UNL A   1      46.249  34.272  26.749  1.00  0.00     0.200 A 
ATOM     69  F   UNL A   1      44.294  35.434  27.365  1.00  0.00    -0.200 F 
ATOM     70  F   UNL A   1      46.876  35.428  26.498  1.00  0.00    -0.200 F 
ENDBRANCH  46  60
BRANCH  47  71
ATOM     71  C   UNL A   1      37.100  32.954  30.725  1.00  0.00     0.064 A 
ATOM     72  C   UNL A   1      36.744  33.473  29.466  1.00  0.00     0.173 A 
ATOM     73  C   UNL A   1      36.149  33.108  31.751  1.00  0.00     0.173 A 
ATOM     74  F   UNL A   1      37.571  33.330  28.421  1.00  0.00    -0.203 F 
ATOM     75  C   UNL A   1      35.501  34.075  29.242  1.00  0.00     0.198 A 
ATOM     76  C   UNL A   1      34.910  33.713  31.528  1.00  0.00     0.198 A 
ATOM     77  F   UNL A   1      36.361  32.586  32.968  1.00  0.00    -0.203 F 
ATOM     78  F   UNL A   1      35.171  34.494  28.011  1.00  0.00    -0.200 F 
ATOM     79  C   UNL A   1      34.579  34.183  30.270  1.00  0.00     0.200 A 
ATOM     80  F   UNL A   1      34.012  33.776  32.521  1.00  0.00    -0.200 F 
ATOM     81  F   UNL A   1      33.362  34.696  30.041  1.00  0.00    -0.200 F 
ENDBRANCH  47  71
BRANCH  59  82
ATOM     82  C   UNL A   1      42.063  30.157  33.419  1.00  0.00     0.064 A 
ATOM     83  C   UNL A   1      41.543  28.855  33.312  1.00  0.00     0.173 A 
ATOM     84  C   UNL A   1      42.411  30.606  34.699  1.00  0.00     0.173 A 
ATOM     85  F   UNL A   1      41.257  28.320  32.119  1.00  0.00    -0.203 F 
ATOM     86  C   UNL A   1      41.375  28.048  34.437  1.00  0.00     0.198 A 
ATOM     87  C   UNL A   1      42.276  29.786  35.816  1.00  0.00     0.198 A 
ATOM     88  F   UNL A   1      42.954  31.824  34.856  1.00  0.00    -0.203 F 
ATOM     89  F   UNL A   1      40.888  26.804  34.307  1.00  0.00    -0.200 F 
ATOM     90  C   UNL A   1      41.758  28.509  35.685  1.00  0.00     0.200 A 
ATOM     91  F   UNL A   1      42.692  30.221  37.013  1.00  0.00    -0.200 F 
ATOM     92  F   UNL A   1      41.656  27.712  36.758  1.00  0.00    -0.200 F 
ENDBRANCH  59  82
ENDBRANCH  33  34
ENDBRANCH  25  28
ENDBRANCH  23  24
ENDBRANCH  22  23
ENDBRANCH   1  22
TORSDOF 15
ENDMDL
MODEL 2
REMARK VINA RESULT:     -11.3      5.721     11.105
REMARK SMILES CSc1nc2nnc(C(=O)NCCCCCCNC(=O)c3ccc(-c4c5nc(c(-c6c(F)c(F)c(F)c(F)c6F)c6ccc([nH]6)c(-c6c(F)c(F)c(F)c(F)c6F)c6nc(c(-c7c(F)c(F)c(F)c(F)c7F)c7ccc4[nH]7)C=C6)C=C5)cc3)c(O)n2n1
REMARK SMILES IDX 15 1 14 2 13 3 12 4 11 5 9 6 10 7 8 9 3 10 4 11 87 12 5 13
REMARK SMILES IDX 86 14 6 15 84 16 7 17 2 18 1 19 85 20 16 22 17 23 18 24
REMARK SMILES IDX 19 25 20 27 21 28 22 29 83 30 23 31 82 32 24 33 25 34 26 35
REMARK SMILES IDX 76 36 27 37 81 38 75 39 77 40 28 41 80 42 74 43 73 44 29 46
REMARK SMILES IDX 61 47 41 48 60 49 42 50 45 51 59 52 78 53 43 54 44 55 58 57
REMARK SMILES IDX 79 58 46 59 30 60 31 61 39 62 32 63 33 64 37 65 40 66 34 67
REMARK SMILES IDX 35 68 38 69 36 70 62 71 63 72 71 73 64 74 65 75 69 76 72 77
REMARK SMILES IDX 66 78 67 79 70 80 68 81 47 82 48 83 56 84 49 85 50 86 54 87
REMARK SMILES IDX 57 88 51 89 52 90 55 91 53 92
REMARK H PARENT 11 8 85 21 18 26 77 45 45 56
REMARK Flexibility Score: inf
ROOT
ATOM      1  C   UNL A   1      34.013  28.923  27.256  1.00  0.00     0.002 C 
ENDROOT
BRANCH   1   2
ATOM      2  C   UNL A   1      33.166  27.974  26.394  1.00  0.00     0.002 C 
BRANCH   2   3
ATOM      3  C   UNL A   1      33.944  26.910  25.610  1.00  0.00     0.021 C 
BRANCH   3   4
ATOM      4  C   UNL A   1      33.345  25.506  25.681  1.00  0.00     0.116 C 
BRANCH   4   5
ATOM      5  N   UNL A   1      33.315  24.880  24.369  1.00  0.00    -0.350 N 
ATOM      6  C   UNL A   1      32.465  24.961  23.313  1.00  0.00     0.277 C 
ATOM      7  O   UNL A   1      32.708  24.233  22.344  1.00  0.00    -0.267 OA
ATOM      8  H   UNL A   1      34.070  24.267  24.214  1.00  0.00     0.163 HD
BRANCH   6   9
ATOM      9  C   UNL A   1      31.284  25.890  23.265  1.00  0.00     0.212 A 
ATOM     10  C   UNL A   1      28.856  29.393  22.366  1.00  0.00     0.210 A 
ATOM     11  N   UNL A   1      28.237  28.467  23.150  1.00  0.00    -0.182 NA
ATOM     12  N   UNL A   1      30.097  29.091  21.989  1.00  0.00    -0.134 NA
ATOM     13  C   UNL A   1      29.148  27.528  23.280  1.00  0.00     0.275 A 
ATOM     14  N   UNL A   1      30.288  27.883  22.571  1.00  0.00    -0.159 N 
ATOM     15  N   UNL A   1      29.122  26.351  23.964  1.00  0.00    -0.108 NA
ATOM     16  C   UNL A   1      31.399  27.036  22.552  1.00  0.00     0.249 A 
ATOM     17  N   UNL A   1      30.126  25.590  23.958  1.00  0.00    -0.136 NA
BRANCH  10  18
ATOM     18  S   UNL A   1      28.053  30.854  21.860  1.00  0.00    -0.088 SA
ATOM     19  C   UNL A   1      27.645  31.584  23.460  1.00  0.00     0.094 C 
ENDBRANCH  10  18
BRANCH  16  20
ATOM     20  O   UNL A   1      32.519  27.429  21.830  1.00  0.00    -0.491 OA
ATOM     21  H   UNL A   1      33.009  28.181  22.099  1.00  0.00     0.295 HD
ENDBRANCH  16  20
ENDBRANCH   6   9
ENDBRANCH   4   5
ENDBRANCH   3   4
ENDBRANCH   2   3
ENDBRANCH   1   2
BRANCH   1  22
ATOM     22  C   UNL A   1      33.401  30.299  27.549  1.00  0.00     0.021 C 
BRANCH  22  23
ATOM     23  C   UNL A   1      34.427  31.418  27.625  1.00  0.00     0.116 C 
BRANCH  23  24
ATOM     24  N   UNL A   1      34.400  32.115  28.907  1.00  0.00    -0.352 N 
ATOM     25  C   UNL A   1      35.206  31.895  30.000  1.00  0.00     0.251 C 
ATOM     26  H   UNL A   1      33.727  32.828  29.001  1.00  0.00     0.163 HD
ATOM     27  O   UNL A   1      34.867  32.279  31.121  1.00  0.00    -0.269 OA
BRANCH  25  28
ATOM     28  C   UNL A   1      36.488  31.196  29.819  1.00  0.00     0.039 A 
ATOM     29  C   UNL A   1      37.670  31.910  29.606  1.00  0.00     0.014 A 
ATOM     30  C   UNL A   1      36.496  29.800  29.853  1.00  0.00     0.014 A 
ATOM     31  C   UNL A   1      38.867  31.211  29.492  1.00  0.00     0.010 A 
ATOM     32  C   UNL A   1      37.687  29.117  29.865  1.00  0.00     0.010 A 
ATOM     33  C   UNL A   1      38.869  29.812  29.639  1.00  0.00    -0.014 A 
BRANCH  33  34
ATOM     34  C   UNL A   1      40.128  29.080  29.707  1.00  0.00     0.031 A 
ATOM     35  C   UNL A   1      40.667  28.943  31.088  1.00  0.00     0.074 A 
ATOM     36  C   UNL A   1      40.651  28.411  28.655  1.00  0.00     0.049 A 
ATOM     37  N   UNL A   1      41.765  29.431  31.557  1.00  0.00    -0.248 NA
ATOM     38  C   UNL A   1      39.813  28.314  32.111  1.00  0.00     0.031 C 
ATOM     39  C   UNL A   1      40.072  28.217  27.321  1.00  0.00     0.029 A 
ATOM     40  N   UNL A   1      41.799  27.682  28.586  1.00  0.00    -0.354 N 
ATOM     41  C   UNL A   1      41.842  29.012  32.884  1.00  0.00     0.074 A 
ATOM     42  C   UNL A   1      40.546  28.484  33.213  1.00  0.00     0.031 C 
ATOM     43  C   UNL A   1      40.755  27.254  26.661  1.00  0.00     0.029 A 
ATOM     44  C   UNL A   1      41.913  26.882  27.452  1.00  0.00     0.049 A 
ATOM     45  H   UNL A   1      42.493  27.715  29.284  1.00  0.00     0.167 HD
ATOM     46  C   UNL A   1      43.049  28.914  33.509  1.00  0.00     0.037 A 
ATOM     47  C   UNL A   1      42.887  25.973  27.191  1.00  0.00     0.037 A 
ATOM     48  C   UNL A   1      44.042  29.695  32.812  1.00  0.00     0.049 A 
ATOM     49  C   UNL A   1      44.042  26.322  28.053  1.00  0.00     0.074 A 
ATOM     50  C   UNL A   1      44.196  31.036  32.522  1.00  0.00     0.029 A 
ATOM     51  N   UNL A   1      44.888  29.029  31.962  1.00  0.00    -0.354 N 
ATOM     52  N   UNL A   1      44.741  27.415  27.916  1.00  0.00    -0.248 NA
ATOM     53  C   UNL A   1      44.123  25.681  29.354  1.00  0.00     0.031 C 
ATOM     54  C   UNL A   1      44.751  31.068  31.209  1.00  0.00     0.029 A 
ATOM     55  C   UNL A   1      44.976  29.752  30.803  1.00  0.00     0.049 A 
ATOM     56  H   UNL A   1      45.350  28.181  32.151  1.00  0.00     0.167 HD
ATOM     57  C   UNL A   1      44.993  27.832  29.213  1.00  0.00     0.074 A 
ATOM     58  C   UNL A   1      44.661  26.683  30.054  1.00  0.00     0.031 C 
ATOM     59  C   UNL A   1      45.165  29.155  29.499  1.00  0.00     0.037 A 
BRANCH  46  60
ATOM     60  C   UNL A   1      43.430  27.809  34.474  1.00  0.00     0.064 A 
ATOM     61  C   UNL A   1      43.252  26.467  34.073  1.00  0.00     0.173 A 
ATOM     62  C   UNL A   1      43.653  27.996  35.856  1.00  0.00     0.173 A 
ATOM     63  F   UNL A   1      43.030  26.161  32.786  1.00  0.00    -0.203 F 
ATOM     64  C   UNL A   1      43.193  25.418  34.994  1.00  0.00     0.198 A 
ATOM     65  C   UNL A   1      43.642  26.940  36.766  1.00  0.00     0.198 A 
ATOM     66  F   UNL A   1      43.783  29.207  36.408  1.00  0.00    -0.203 F 
ATOM     67  F   UNL A   1      42.880  24.184  34.576  1.00  0.00    -0.200 F 
ATOM     68  C   UNL A   1      43.376  25.657  36.342  1.00  0.00     0.200 A 
ATOM     69  F   UNL A   1      43.808  27.197  38.072  1.00  0.00    -0.200 F 
ATOM     70  F   UNL A   1      43.250  24.666  37.234  1.00  0.00    -0.200 F 
ENDBRANCH  46  60
BRANCH  47  71
ATOM     71  C   UNL A   1      42.780  24.657  26.511  1.00  0.00     0.064 A 
ATOM     72  C   UNL A   1      43.550  24.366  25.370  1.00  0.00     0.173 A 
ATOM     73  C   UNL A   1      42.156  23.560  27.136  1.00  0.00     0.173 A 
ATOM     74  F   UNL A   1      44.215  25.344  24.739  1.00  0.00    -0.203 F 
ATOM     75  C   UNL A   1      43.712  23.055  24.904  1.00  0.00     0.198 A 
ATOM     76  C   UNL A   1      42.316  22.252  26.668  1.00  0.00     0.198 A 
ATOM     77  F   UNL A   1      41.461  23.720  28.271  1.00  0.00    -0.203 F 
ATOM     78  F   UNL A   1      44.510  22.811  23.855  1.00  0.00    -0.200 F 
ATOM     79  C   UNL A   1      43.106  21.998  25.563  1.00  0.00     0.200 A 
ATOM     80  F   UNL A   1      41.756  21.235  27.337  1.00  0.00    -0.200 F 
ATOM     81  F   UNL A   1      43.316  20.737  25.160  1.00  0.00    -0.200 F 
ENDBRANCH  47  71
BRANCH  59  82
ATOM     82  C   UNL A   1      45.337  30.114  28.353  1.00  0.00     0.064 A 
ATOM     83  C   UNL A   1      44.278  30.801  27.733  1.00  0.00     0.173 A 
ATOM     84  C   UNL A   1      46.640  30.499  28.010  1.00  0.00     0.173 A 
ATOM     85  F   UNL A   1      43.005  30.549  28.060  1.00  0.00    -0.203 F 
ATOM     86  C   UNL A   1      44.518  31.819  26.810  1.00  0.00     0.198 A 
ATOM     87  C   UNL A   1      46.876  31.539  27.116  1.00  0.00     0.198 A 
ATOM     88  F   UNL A   1      47.690  29.909  28.604  1.00  0.00    -0.203 F 
ATOM     89  F   UNL A   1      43.489  32.467  26.241  1.00  0.00    -0.200 F 
ATOM     90  C   UNL A   1      45.816  32.197  26.516  1.00  0.00     0.200 A 
ATOM     91  F   UNL A   1      48.134  31.932  26.871  1.00  0.00    -0.200 F 
ATOM     92  F   UNL A   1      46.047  33.218  25.677  1.00  0.00    -0.200 F 
ENDBRANCH  59  82
ENDBRANCH  33  34
ENDBRANCH  25  28
ENDBRANCH  23  24
ENDBRANCH  22  23
ENDBRANCH   1  22
TORSDOF 15
ENDMDL
MODEL 3
REMARK VINA RESULT:     -11.2      4.423      7.079
REMARK SMILES CSc1nc2nnc(C(=O)NCCCCCCNC(=O)c3ccc(-c4c5nc(c(-c6c(F)c(F)c(F)c(F)c6F)c6ccc([nH]6)c(-c6c(F)c(F)c(F)c(F)c6F)c6nc(c(-c7c(F)c(F)c(F)c(F)c7F)c7ccc4[nH]7)C=C6)C=C5)cc3)c(O)n2n1
REMARK SMILES IDX 15 1 14 2 13 3 12 4 11 5 9 6 10 7 8 9 3 10 4 11 87 12 5 13
REMARK SMILES IDX 86 14 6 15 84 16 7 17 2 18 1 19 85 20 16 22 17 23 18 24
REMARK SMILES IDX 19 25 20 27 21 28 22 29 83 30 23 31 82 32 24 33 25 34 26 35
REMARK SMILES IDX 76 36 27 37 81 38 75 39 77 40 28 41 80 42 74 43 73 44 29 46
REMARK SMILES IDX 61 47 41 48 60 49 42 50 45 51 59 52 78 53 43 54 44 55 58 57
REMARK SMILES IDX 79 58 46 59 30 60 31 61 39 62 32 63 33 64 37 65 40 66 34 67
REMARK SMILES IDX 35 68 38 69 36 70 62 71 63 72 71 73 64 74 65 75 69 76 72 77
REMARK SMILES IDX 66 78 67 79 70 80 68 81 47 82 48 83 56 84 49 85 50 86 54 87
REMARK SMILES IDX 57 88 51 89 52 90 55 91 53 92
REMARK H PARENT 11 8 85 21 18 26 77 45 45 56
REMARK Flexibility Score: inf
ROOT
ATOM      1  C   UNL A   1      37.935  23.252  26.027  1.00  0.00     0.002 C 
ENDROOT
BRANCH   1   2
ATOM      2  C   UNL A   1      36.723  23.366  25.090  1.00  0.00     0.002 C 
BRANCH   2   3
ATOM      3  C   UNL A   1      35.486  24.057  25.679  1.00  0.00     0.021 C 
BRANCH   3   4
ATOM      4  C   UNL A   1      34.167  23.675  25.007  1.00  0.00     0.116 C 
BRANCH   4   5
ATOM      5  N   UNL A   1      33.104  23.521  25.986  1.00  0.00    -0.350 N 
ATOM      6  C   UNL A   1      32.122  24.343  26.438  1.00  0.00     0.277 C 
ATOM      7  O   UNL A   1      31.399  23.905  27.341  1.00  0.00    -0.267 OA
ATOM      8  H   UNL A   1      33.093  22.632  26.411  1.00  0.00     0.163 HD
BRANCH   6   9
ATOM      9  C   UNL A   1      31.871  25.720  25.890  1.00  0.00     0.212 A 
ATOM     10  C   UNL A   1      30.120  28.937  23.534  1.00  0.00     0.210 A 
ATOM     11  N   UNL A   1      31.177  29.317  24.304  1.00  0.00    -0.182 NA
ATOM     12  N   UNL A   1      29.777  27.653  23.618  1.00  0.00    -0.134 NA
ATOM     13  C   UNL A   1      31.525  28.200  24.904  1.00  0.00     0.275 A 
ATOM     14  N   UNL A   1      30.678  27.174  24.509  1.00  0.00    -0.159 N 
ATOM     15  N   UNL A   1      32.527  27.941  25.790  1.00  0.00    -0.108 NA
ATOM     16  C   UNL A   1      30.846  25.884  25.020  1.00  0.00     0.249 A 
ATOM     17  N   UNL A   1      32.687  26.777  26.244  1.00  0.00    -0.136 NA
BRANCH  10  18
ATOM     18  S   UNL A   1      29.253  30.074  22.538  1.00  0.00    -0.088 SA
ATOM     19  C   UNL A   1      27.548  29.586  22.876  1.00  0.00     0.094 C 
ENDBRANCH  10  18
BRANCH  16  20
ATOM     20  O   UNL A   1      29.975  24.887  24.598  1.00  0.00    -0.491 OA
ATOM     21  H   UNL A   1      29.103  24.853  24.939  1.00  0.00     0.295 HD
ENDBRANCH  16  20
ENDBRANCH   6   9
ENDBRANCH   4   5
ENDBRANCH   3   4
ENDBRANCH   2   3
ENDBRANCH   1   2
BRANCH   1  22
ATOM     22  C   UNL A   1      38.767  21.969  25.905  1.00  0.00     0.021 C 
BRANCH  22  23
ATOM     23  C   UNL A   1      39.924  21.896  26.888  1.00  0.00     0.116 C 
BRANCH  23  24
ATOM     24  N   UNL A   1      41.224  21.945  26.227  1.00  0.00    -0.352 N 
ATOM     25  C   UNL A   1      42.005  23.052  25.989  1.00  0.00     0.251 C 
ATOM     26  H   UNL A   1      41.585  21.084  25.913  1.00  0.00     0.163 HD
ATOM     27  O   UNL A   1      42.886  23.029  25.127  1.00  0.00    -0.269 OA
BRANCH  25  28
ATOM     28  C   UNL A   1      41.784  24.271  26.783  1.00  0.00     0.039 A 
ATOM     29  C   UNL A   1      42.390  24.434  28.032  1.00  0.00     0.014 A 
ATOM     30  C   UNL A   1      40.945  25.259  26.265  1.00  0.00     0.014 A 
ATOM     31  C   UNL A   1      42.194  25.624  28.724  1.00  0.00     0.010 A 
ATOM     32  C   UNL A   1      40.851  26.480  26.886  1.00  0.00     0.010 A 
ATOM     33  C   UNL A   1      41.435  26.652  28.136  1.00  0.00    -0.014 A 
BRANCH  33  34
ATOM     34  C   UNL A   1      41.370  27.969  28.757  1.00  0.00     0.031 A 
ATOM     35  C   UNL A   1      42.499  28.863  28.382  1.00  0.00     0.074 A 
ATOM     36  C   UNL A   1      40.290  28.411  29.438  1.00  0.00     0.049 A 
ATOM     37  N   UNL A   1      43.412  29.346  29.156  1.00  0.00    -0.248 NA
ATOM     38  C   UNL A   1      42.730  29.136  26.952  1.00  0.00     0.031 C 
ATOM     39  C   UNL A   1      38.996  27.745  29.626  1.00  0.00     0.029 A 
ATOM     40  N   UNL A   1      40.093  29.612  30.049  1.00  0.00    -0.354 N 
ATOM     41  C   UNL A   1      44.225  30.141  28.350  1.00  0.00     0.074 A 
ATOM     42  C   UNL A   1      43.865  29.836  26.992  1.00  0.00     0.031 C 
ATOM     43  C   UNL A   1      38.091  28.628  30.106  1.00  0.00     0.029 A 
ATOM     44  C   UNL A   1      38.774  29.870  30.414  1.00  0.00     0.049 A 
ATOM     45  H   UNL A   1      40.824  30.249  30.218  1.00  0.00     0.167 HD
ATOM     46  C   UNL A   1      44.948  31.161  28.891  1.00  0.00     0.037 A 
ATOM     47  C   UNL A   1      38.281  31.029  30.923  1.00  0.00     0.037 A 
ATOM     48  C   UNL A   1      45.094  30.977  30.314  1.00  0.00     0.049 A 
ATOM     49  C   UNL A   1      39.435  31.778  31.478  1.00  0.00     0.074 A 
ATOM     50  C   UNL A   1      45.678  30.014  31.115  1.00  0.00     0.029 A 
ATOM     51  N   UNL A   1      44.251  31.683  31.134  1.00  0.00    -0.354 N 
ATOM     52  N   UNL A   1      40.126  31.379  32.510  1.00  0.00    -0.248 NA
ATOM     53  C   UNL A   1      40.101  32.725  30.601  1.00  0.00     0.031 C 
ATOM     54  C   UNL A   1      44.805  29.887  32.235  1.00  0.00     0.029 A 
ATOM     55  C   UNL A   1      43.783  30.829  32.096  1.00  0.00     0.049 A 
ATOM     56  H   UNL A   1      44.022  32.636  31.046  1.00  0.00     0.167 HD
ATOM     57  C   UNL A   1      41.440  31.673  32.183  1.00  0.00     0.074 A 
ATOM     58  C   UNL A   1      41.355  32.576  31.035  1.00  0.00     0.031 C 
ATOM     59  C   UNL A   1      42.468  30.930  32.687  1.00  0.00     0.037 A 
BRANCH  46  60
ATOM     60  C   UNL A   1      45.157  32.510  28.232  1.00  0.00     0.064 A 
ATOM     61  C   UNL A   1      44.032  33.326  27.986  1.00  0.00     0.173 A 
ATOM     62  C   UNL A   1      46.335  32.896  27.556  1.00  0.00     0.173 A 
ATOM     63  F   UNL A   1      42.853  33.061  28.569  1.00  0.00    -0.203 F 
ATOM     64  C   UNL A   1      44.059  34.370  27.057  1.00  0.00     0.198 A 
ATOM     65  C   UNL A   1      46.370  33.970  26.667  1.00  0.00     0.198 A 
ATOM     66  F   UNL A   1      47.472  32.199  27.634  1.00  0.00    -0.203 F 
ATOM     67  F   UNL A   1      42.927  35.021  26.756  1.00  0.00    -0.200 F 
ATOM     68  C   UNL A   1      45.226  34.683  26.389  1.00  0.00     0.200 A 
ATOM     69  F   UNL A   1      47.511  34.248  26.018  1.00  0.00    -0.200 F 
ATOM     70  F   UNL A   1      45.239  35.636  25.449  1.00  0.00    -0.200 F 
ENDBRANCH  46  60
BRANCH  47  71
ATOM     71  C   UNL A   1      36.967  31.674  30.679  1.00  0.00     0.064 A 
ATOM     72  C   UNL A   1      36.012  31.789  31.706  1.00  0.00     0.173 A 
ATOM     73  C   UNL A   1      36.738  32.455  29.529  1.00  0.00     0.173 A 
ATOM     74  F   UNL A   1      36.175  31.115  32.854  1.00  0.00    -0.203 F 
ATOM     75  C   UNL A   1      34.918  32.656  31.603  1.00  0.00     0.198 A 
ATOM     76  C   UNL A   1      35.644  33.318  29.426  1.00  0.00     0.198 A 
ATOM     77  F   UNL A   1      37.625  32.473  28.524  1.00  0.00    -0.203 F 
ATOM     78  F   UNL A   1      34.069  32.789  32.633  1.00  0.00    -0.200 F 
ATOM     79  C   UNL A   1      34.743  33.430  30.468  1.00  0.00     0.200 A 
ATOM     80  F   UNL A   1      35.507  34.090  28.339  1.00  0.00    -0.200 F 
ATOM     81  F   UNL A   1      33.736  34.312  30.397  1.00  0.00    -0.200 F 
ENDBRANCH  47  71
BRANCH  59  82
ATOM     82  C   UNL A   1      42.167  29.963  33.799  1.00  0.00     0.064 A 
ATOM     83  C   UNL A   1      41.786  28.624  33.599  1.00  0.00     0.173 A 
ATOM     84  C   UNL A   1      42.474  30.355  35.109  1.00  0.00     0.173 A 
ATOM     85  F   UNL A   1      41.551  28.149  32.371  1.00  0.00    -0.203 F 
ATOM     86  C   UNL A   1      41.711  27.727  34.664  1.00  0.00     0.198 A 
ATOM     87  C   UNL A   1      42.432  29.448  36.164  1.00  0.00     0.198 A 
ATOM     88  F   UNL A   1      42.886  31.609  35.353  1.00  0.00    -0.203 F 
ATOM     89  F   UNL A   1      41.356  26.451  34.445  1.00  0.00    -0.200 F 
ATOM     90  C   UNL A   1      42.050  28.136  35.942  1.00  0.00     0.200 A 
ATOM     91  F   UNL A   1      42.807  29.838  37.390  1.00  0.00    -0.200 F 
ATOM     92  F   UNL A   1      42.039  27.258  36.956  1.00  0.00    -0.200 F 
ENDBRANCH  59  82
ENDBRANCH  33  34
ENDBRANCH  25  28
ENDBRANCH  23  24
ENDBRANCH  22  23
ENDBRANCH   1  22
TORSDOF 15
ENDMDL
