MODEL 1
REMARK VINA RESULT:     -10.5      0.000      0.000
REMARK SMILES O=C(COc1cccc(NC(=O)c2ccc3c(c2)C(=O)N(c2ccccc2-c2ccccc2)C3=O)c1)NCCCCCCNC(=O)c1ccc(-c2c3nc(c(-c4c(F)c(F)c(F)c(F)c4F)c4ccc([nH]4)c(-c4c(F)c(F)c(F)c(F)c4F)c4nc(c(-c5c(F)c(F)c(F)c(F)c5F)c5ccc2[nH]5)C=C4)C=C3)cc1
REMARK SMILES IDX 38 1 37 2 1 3 2 4 3 6 4 7 5 8 6 9 36 10 7 11 9 12 8 13 10 14
REMARK SMILES IDX 11 15 12 17 13 18 14 19 18 20 15 21 17 22 16 23 19 24 34 25
REMARK SMILES IDX 20 26 21 27 35 28 22 29 23 30 27 31 24 32 26 33 25 34 28 35
REMARK SMILES IDX 29 36 33 37 30 38 32 39 31 40 39 41 40 42 41 43 42 44 43 45
REMARK SMILES IDX 44 46 45 47 46 49 47 50 48 51 109 52 49 53 108 54 50 55
REMARK SMILES IDX 51 56 52 57 102 58 53 59 107 60 101 61 103 62 54 63 106 64
REMARK SMILES IDX 100 65 99 66 55 68 87 69 67 70 86 71 68 72 71 73 85 74
REMARK SMILES IDX 104 75 69 76 70 77 84 79 105 80 72 81 56 82 57 83 65 84
REMARK SMILES IDX 58 85 59 86 63 87 66 88 60 89 61 90 64 91 62 92 88 93 89 94
REMARK SMILES IDX 97 95 90 96 91 97 95 98 98 99 92 100 93 101 96 102 94 103
REMARK SMILES IDX 73 104 74 105 82 106 75 107 76 108 80 109 83 110 77 111
REMARK SMILES IDX 78 112 81 113 79 114
REMARK H PARENT 37 5 10 16 44 48 103 67 71 78
REMARK Flexibility Score: inf
ROOT
ATOM      1  C   UNL A   1      42.655  21.967  25.727  1.00  0.00     0.116 C 
ENDROOT
BRANCH   1   2
ATOM      2  N   UNL A   1      43.148  22.920  26.695  1.00  0.00    -0.353 N 
ATOM      3  O   UNL A   1      43.055  24.756  25.316  1.00  0.00    -0.271 OA
ATOM      4  C   UNL A   1      43.224  24.271  26.431  1.00  0.00     0.257 C 
ATOM      5  H   UNL A   1      43.442  22.591  27.576  1.00  0.00     0.163 HD
BRANCH   4   6
ATOM      6  C   UNL A   1      43.497  25.137  27.663  1.00  0.00     0.329 C 
BRANCH   6   7
ATOM      7  O   UNL A   1      42.398  25.365  28.535  1.00  0.00    -0.484 OA
BRANCH   7   8
ATOM      8  C   UNL A   1      41.857  26.622  28.548  1.00  0.00     0.122 A 
ATOM      9  C   UNL A   1      42.172  27.402  27.439  1.00  0.00     0.046 A 
ATOM     10  C   UNL A   1      41.177  27.198  29.632  1.00  0.00     0.072 A 
ATOM     11  C   UNL A   1      41.829  28.747  27.422  1.00  0.00     0.006 A 
ATOM     12  C   UNL A   1      40.860  28.564  29.649  1.00  0.00     0.045 A 
ATOM     13  C   UNL A   1      41.200  29.323  28.529  1.00  0.00     0.026 A 
BRANCH  12  14
ATOM     14  N   UNL A   1      40.331  29.093  30.856  1.00  0.00    -0.322 N 
ATOM     15  C   UNL A   1      39.401  30.086  31.116  1.00  0.00     0.255 C 
ATOM     16  H   UNL A   1      40.698  28.672  31.667  1.00  0.00     0.170 HD
ATOM     17  O   UNL A   1      39.292  30.593  32.227  1.00  0.00    -0.269 OA
BRANCH  15  18
ATOM     18  C   UNL A   1      38.419  30.427  30.076  1.00  0.00     0.041 A 
ATOM     19  C   UNL A   1      37.454  29.483  29.658  1.00  0.00     0.015 A 
ATOM     20  C   UNL A   1      38.325  31.778  29.747  1.00  0.00     0.028 A 
ATOM     21  C   UNL A   1      36.256  29.933  29.077  1.00  0.00     0.015 A 
ATOM     22  C   UNL A   1      37.131  32.173  29.193  1.00  0.00     0.054 A 
ATOM     23  C   UNL A   1      36.100  31.304  28.931  1.00  0.00     0.053 A 
ATOM     24  C   UNL A   1      36.614  33.521  29.138  1.00  0.00     0.266 C 
ATOM     25  C   UNL A   1      34.899  32.129  28.764  1.00  0.00     0.266 C 
ATOM     26  O   UNL A   1      37.391  34.456  29.132  1.00  0.00    -0.268 OA
ATOM     27  N   UNL A   1      35.239  33.416  29.139  1.00  0.00    -0.242 N 
ATOM     28  O   UNL A   1      33.886  31.641  28.299  1.00  0.00    -0.268 OA
BRANCH  27  29
ATOM     29  C   UNL A   1      34.374  34.496  29.544  1.00  0.00     0.060 A 
ATOM     30  C   UNL A   1      33.845  35.344  28.537  1.00  0.00     0.027 A 
ATOM     31  C   UNL A   1      34.112  34.878  30.888  1.00  0.00     0.006 A 
ATOM     32  C   UNL A   1      33.110  36.501  28.810  1.00  0.00     0.002 A 
ATOM     33  C   UNL A   1      33.329  36.039  31.137  1.00  0.00     0.011 A 
ATOM     34  C   UNL A   1      32.841  36.846  30.116  1.00  0.00     0.001 A 
BRANCH  31  35
ATOM     35  C   UNL A   1      34.684  34.265  32.098  1.00  0.00    -0.016 A 
ATOM     36  C   UNL A   1      35.019  35.053  33.210  1.00  0.00     0.009 A 
ATOM     37  C   UNL A   1      35.010  32.900  32.122  1.00  0.00     0.009 A 
ATOM     38  C   UNL A   1      35.615  34.480  34.336  1.00  0.00     0.001 A 
ATOM     39  C   UNL A   1      35.611  32.328  33.246  1.00  0.00     0.001 A 
ATOM     40  C   UNL A   1      35.904  33.117  34.355  1.00  0.00     0.000 A 
ENDBRANCH  31  35
ENDBRANCH  27  29
ENDBRANCH  15  18
ENDBRANCH  12  14
ENDBRANCH   7   8
ENDBRANCH   6   7
ENDBRANCH   4   6
ENDBRANCH   1   2
BRANCH   1  41
ATOM     41  C   UNL A   1      43.678  20.889  25.397  1.00  0.00     0.021 C 
BRANCH  41  42
ATOM     42  C   UNL A   1      45.132  21.377  25.382  1.00  0.00     0.002 C 
BRANCH  42  43
ATOM     43  C   UNL A   1      45.466  22.442  24.332  1.00  0.00     0.002 C 
BRANCH  43  44
ATOM     44  C   UNL A   1      46.814  23.145  24.506  1.00  0.00     0.021 C 
BRANCH  44  45
ATOM     45  C   UNL A   1      46.737  24.595  24.973  1.00  0.00     0.116 C 
BRANCH  45  46
ATOM     46  N   UNL A   1      47.626  25.474  24.230  1.00  0.00    -0.352 N 
ATOM     47  C   UNL A   1      47.793  26.833  24.337  1.00  0.00     0.251 C 
ATOM     48  H   UNL A   1      48.187  25.031  23.554  1.00  0.00     0.163 HD
ATOM     49  O   UNL A   1      48.493  27.435  23.529  1.00  0.00    -0.269 OA
BRANCH  47  50
ATOM     50  C   UNL A   1      47.106  27.581  25.414  1.00  0.00     0.039 A 
ATOM     51  C   UNL A   1      45.715  27.704  25.368  1.00  0.00     0.014 A 
ATOM     52  C   UNL A   1      47.828  28.166  26.458  1.00  0.00     0.014 A 
ATOM     53  C   UNL A   1      45.040  28.358  26.403  1.00  0.00     0.010 A 
ATOM     54  C   UNL A   1      47.149  28.761  27.520  1.00  0.00     0.010 A 
ATOM     55  C   UNL A   1      45.750  28.864  27.503  1.00  0.00    -0.014 A 
BRANCH  55  56
ATOM     56  C   UNL A   1      45.054  29.513  28.644  1.00  0.00     0.031 A 
ATOM     57  C   UNL A   1      44.708  30.974  28.579  1.00  0.00     0.074 A 
ATOM     58  C   UNL A   1      44.804  28.809  29.765  1.00  0.00     0.049 A 
ATOM     59  N   UNL A   1      44.212  31.751  29.510  1.00  0.00    -0.248 NA
ATOM     60  C   UNL A   1      44.983  31.661  27.307  1.00  0.00     0.031 C 
ATOM     61  C   UNL A   1      45.124  27.395  29.968  1.00  0.00     0.029 A 
ATOM     62  N   UNL A   1      44.241  29.194  30.958  1.00  0.00    -0.354 N 
ATOM     63  C   UNL A   1      44.138  33.017  28.944  1.00  0.00     0.074 A 
ATOM     64  C   UNL A   1      44.676  32.915  27.605  1.00  0.00     0.031 C 
ATOM     65  C   UNL A   1      44.745  27.030  31.202  1.00  0.00     0.029 A 
ATOM     66  C   UNL A   1      44.191  28.190  31.895  1.00  0.00     0.049 A 
ATOM     67  H   UNL A   1      43.904  30.104  31.125  1.00  0.00     0.167 HD
ATOM     68  C   UNL A   1      43.648  34.156  29.488  1.00  0.00     0.037 A 
ATOM     69  C   UNL A   1      43.761  28.209  33.171  1.00  0.00     0.037 A 
ATOM     70  C   UNL A   1      43.076  34.247  30.806  1.00  0.00     0.049 A 
ATOM     71  C   UNL A   1      43.217  29.490  33.746  1.00  0.00     0.074 A 
ATOM     72  C   UNL A   1      42.497  35.343  31.421  1.00  0.00     0.029 A 
ATOM     73  N   UNL A   1      43.009  33.198  31.709  1.00  0.00    -0.354 N 
ATOM     74  N   UNL A   1      43.096  30.665  33.181  1.00  0.00    -0.248 NA
ATOM     75  C   UNL A   1      42.743  29.442  35.137  1.00  0.00     0.031 C 
ATOM     76  C   UNL A   1      42.113  34.969  32.712  1.00  0.00     0.029 A 
ATOM     77  C   UNL A   1      42.410  33.626  32.883  1.00  0.00     0.049 A 
ATOM     78  H   UNL A   1      43.337  32.285  31.542  1.00  0.00     0.167 HD
ATOM     79  C   UNL A   1      42.501  31.485  34.130  1.00  0.00     0.074 A 
ATOM     80  C   UNL A   1      42.278  30.672  35.306  1.00  0.00     0.031 C 
ATOM     81  C   UNL A   1      42.170  32.796  34.035  1.00  0.00     0.037 A 
BRANCH  68  82
ATOM     82  C   UNL A   1      43.700  35.406  28.658  1.00  0.00     0.064 A 
ATOM     83  C   UNL A   1      42.559  35.905  28.013  1.00  0.00     0.173 A 
ATOM     84  C   UNL A   1      44.888  36.143  28.556  1.00  0.00     0.173 A 
ATOM     85  F   UNL A   1      41.400  35.232  28.070  1.00  0.00    -0.203 F 
ATOM     86  C   UNL A   1      42.612  37.088  27.278  1.00  0.00     0.198 A 
ATOM     87  C   UNL A   1      44.932  37.340  27.845  1.00  0.00     0.198 A 
ATOM     88  F   UNL A   1      46.006  35.712  29.159  1.00  0.00    -0.203 F 
ATOM     89  F   UNL A   1      41.519  37.527  26.639  1.00  0.00    -0.200 F 
ATOM     90  C   UNL A   1      43.794  37.808  27.202  1.00  0.00     0.200 A 
ATOM     91  F   UNL A   1      46.071  38.041  27.784  1.00  0.00    -0.200 F 
ATOM     92  F   UNL A   1      43.841  38.953  26.507  1.00  0.00    -0.200 F 
ENDBRANCH  68  82
BRANCH  69  93
ATOM     93  C   UNL A   1      43.811  26.973  33.995  1.00  0.00     0.064 A 
ATOM     94  C   UNL A   1      45.034  26.467  34.459  1.00  0.00     0.173 A 
ATOM     95  C   UNL A   1      42.647  26.259  34.314  1.00  0.00     0.173 A 
ATOM     96  F   UNL A   1      46.177  27.102  34.161  1.00  0.00    -0.203 F 
ATOM     97  C   UNL A   1      45.093  25.280  35.186  1.00  0.00     0.198 A 
ATOM     98  C   UNL A   1      42.705  25.087  35.065  1.00  0.00     0.198 A 
ATOM     99  F   UNL A   1      41.452  26.703  33.898  1.00  0.00    -0.203 F 
ATOM    100  F   UNL A   1      46.280  24.790  35.568  1.00  0.00    -0.200 F 
ATOM    101  C   UNL A   1      43.928  24.592  35.491  1.00  0.00     0.200 A 
ATOM    102  F   UNL A   1      41.576  24.431  35.368  1.00  0.00    -0.200 F 
ATOM    103  F   UNL A   1      43.987  23.448  36.186  1.00  0.00    -0.200 F 
ENDBRANCH  69  93
BRANCH  81 104
ATOM    104  C   UNL A   1      41.479  33.422  35.210  1.00  0.00     0.064 A 
ATOM    105  C   UNL A   1      42.194  34.057  36.235  1.00  0.00     0.173 A 
ATOM    106  C   UNL A   1      40.077  33.431  35.281  1.00  0.00     0.173 A 
ATOM    107  F   UNL A   1      43.535  34.061  36.219  1.00  0.00    -0.203 F 
ATOM    108  C   UNL A   1      41.531  34.660  37.300  1.00  0.00     0.198 A 
ATOM    109  C   UNL A   1      39.417  34.060  36.332  1.00  0.00     0.198 A 
ATOM    110  F   UNL A   1      39.347  32.843  34.321  1.00  0.00    -0.203 F 
ATOM    111  F   UNL A   1      42.234  35.226  38.290  1.00  0.00    -0.200 F 
ATOM    112  C   UNL A   1      40.144  34.669  37.344  1.00  0.00     0.200 A 
ATOM    113  F   UNL A   1      38.077  34.080  36.366  1.00  0.00    -0.200 F 
ATOM    114  F   UNL A   1      39.508  35.260  38.364  1.00  0.00    -0.200 F 
ENDBRANCH  81 104
ENDBRANCH  55  56
ENDBRANCH  47  50
ENDBRANCH  45  46
ENDBRANCH  44  45
ENDBRANCH  43  44
ENDBRANCH  42  43
ENDBRANCH  41  42
ENDBRANCH   1  41
TORSDOF 19
ENDMDL
MODEL 2
REMARK VINA RESULT:     -10.2      6.479      9.928
REMARK SMILES O=C(COc1cccc(NC(=O)c2ccc3c(c2)C(=O)N(c2ccccc2-c2ccccc2)C3=O)c1)NCCCCCCNC(=O)c1ccc(-c2c3nc(c(-c4c(F)c(F)c(F)c(F)c4F)c4ccc([nH]4)c(-c4c(F)c(F)c(F)c(F)c4F)c4nc(c(-c5c(F)c(F)c(F)c(F)c5F)c5ccc2[nH]5)C=C4)C=C3)cc1
REMARK SMILES IDX 38 1 37 2 1 3 2 4 3 6 4 7 5 8 6 9 36 10 7 11 9 12 8 13 10 14
REMARK SMILES IDX 11 15 12 17 13 18 14 19 18 20 15 21 17 22 16 23 19 24 34 25
REMARK SMILES IDX 20 26 21 27 35 28 22 29 23 30 27 31 24 32 26 33 25 34 28 35
REMARK SMILES IDX 29 36 33 37 30 38 32 39 31 40 39 41 40 42 41 43 42 44 43 45
REMARK SMILES IDX 44 46 45 47 46 49 47 50 48 51 109 52 49 53 108 54 50 55
REMARK SMILES IDX 51 56 52 57 102 58 53 59 107 60 101 61 103 62 54 63 106 64
REMARK SMILES IDX 100 65 99 66 55 68 87 69 67 70 86 71 68 72 71 73 85 74
REMARK SMILES IDX 104 75 69 76 70 77 84 79 105 80 72 81 56 82 57 83 65 84
REMARK SMILES IDX 58 85 59 86 63 87 66 88 60 89 61 90 64 91 62 92 88 93 89 94
REMARK SMILES IDX 97 95 90 96 91 97 95 98 98 99 92 100 93 101 96 102 94 103
REMARK SMILES IDX 73 104 74 105 82 106 75 107 76 108 80 109 83 110 77 111
REMARK SMILES IDX 78 112 81 113 79 114
REMARK H PARENT 37 5 10 16 44 48 103 67 71 78
REMARK Flexibility Score: inf
ROOT
ATOM      1  C   UNL A   1      45.500  23.673  26.247  1.00  0.00     0.116 C 
ENDROOT
BRANCH   1   2
ATOM      2  N   UNL A   1      44.298  22.917  26.520  1.00  0.00    -0.353 N 
ATOM      3  O   UNL A   1      44.579  22.807  28.798  1.00  0.00    -0.271 OA
ATOM      4  C   UNL A   1      43.888  22.620  27.801  1.00  0.00     0.257 C 
ATOM      5  H   UNL A   1      43.754  22.602  25.761  1.00  0.00     0.163 HD
BRANCH   4   6
ATOM      6  C   UNL A   1      42.463  22.069  27.892  1.00  0.00     0.329 C 
BRANCH   6   7
ATOM      7  O   UNL A   1      41.800  21.816  26.660  1.00  0.00    -0.484 OA
BRANCH   7   8
ATOM      8  C   UNL A   1      40.610  22.458  26.446  1.00  0.00     0.122 A 
ATOM      9  C   UNL A   1      40.663  23.843  26.574  1.00  0.00     0.046 A 
ATOM     10  C   UNL A   1      39.369  21.823  26.276  1.00  0.00     0.072 A 
ATOM     11  C   UNL A   1      39.489  24.583  26.553  1.00  0.00     0.006 A 
ATOM     12  C   UNL A   1      38.171  22.552  26.294  1.00  0.00     0.045 A 
ATOM     13  C   UNL A   1      38.256  23.937  26.438  1.00  0.00     0.026 A 
BRANCH  12  14
ATOM     14  N   UNL A   1      36.960  21.811  26.291  1.00  0.00    -0.322 N 
ATOM     15  C   UNL A   1      35.688  22.096  25.824  1.00  0.00     0.255 C 
ATOM     16  H   UNL A   1      37.040  20.919  26.703  1.00  0.00     0.170 HD
ATOM     17  O   UNL A   1      34.711  21.442  26.172  1.00  0.00    -0.269 OA
BRANCH  15  18
ATOM     18  C   UNL A   1      35.531  23.105  24.766  1.00  0.00     0.041 A 
ATOM     19  C   UNL A   1      35.674  22.751  23.405  1.00  0.00     0.015 A 
ATOM     20  C   UNL A   1      34.975  24.320  25.160  1.00  0.00     0.028 A 
ATOM     21  C   UNL A   1      35.055  23.538  22.419  1.00  0.00     0.015 A 
ATOM     22  C   UNL A   1      34.369  25.048  24.165  1.00  0.00     0.054 A 
ATOM     23  C   UNL A   1      34.340  24.647  22.852  1.00  0.00     0.053 A 
ATOM     24  C   UNL A   1      33.391  26.097  24.341  1.00  0.00     0.266 C 
ATOM     25  C   UNL A   1      33.278  25.426  22.207  1.00  0.00     0.266 C 
ATOM     26  O   UNL A   1      33.390  26.743  25.371  1.00  0.00    -0.268 OA
ATOM     27  N   UNL A   1      32.600  26.092  23.212  1.00  0.00    -0.242 N 
ATOM     28  O   UNL A   1      33.185  25.439  20.994  1.00  0.00    -0.268 OA
BRANCH  27  29
ATOM     29  C   UNL A   1      31.270  26.648  23.187  1.00  0.00     0.060 A 
ATOM     30  C   UNL A   1      31.071  27.874  22.502  1.00  0.00     0.027 A 
ATOM     31  C   UNL A   1      30.157  26.146  23.914  1.00  0.00     0.006 A 
ATOM     32  C   UNL A   1      29.867  28.583  22.521  1.00  0.00     0.002 A 
ATOM     33  C   UNL A   1      28.931  26.867  23.886  1.00  0.00     0.011 A 
ATOM     34  C   UNL A   1      28.786  28.073  23.208  1.00  0.00     0.001 A 
BRANCH  31  35
ATOM     35  C   UNL A   1      30.158  24.995  24.830  1.00  0.00    -0.016 A 
ATOM     36  C   UNL A   1      29.617  25.106  26.121  1.00  0.00     0.009 A 
ATOM     37  C   UNL A   1      30.800  23.799  24.474  1.00  0.00     0.009 A 
ATOM     38  C   UNL A   1      29.670  24.030  27.010  1.00  0.00     0.001 A 
ATOM     39  C   UNL A   1      30.858  22.725  25.366  1.00  0.00     0.001 A 
ATOM     40  C   UNL A   1      30.285  22.839  26.630  1.00  0.00     0.000 A 
ENDBRANCH  31  35
ENDBRANCH  27  29
ENDBRANCH  15  18
ENDBRANCH  12  14
ENDBRANCH   7   8
ENDBRANCH   6   7
ENDBRANCH   4   6
ENDBRANCH   1   2
BRANCH   1  41
ATOM     41  C   UNL A   1      45.220  25.155  26.041  1.00  0.00     0.021 C 
BRANCH  41  42
ATOM     42  C   UNL A   1      43.887  25.460  25.349  1.00  0.00     0.002 C 
BRANCH  42  43
ATOM     43  C   UNL A   1      43.411  26.915  25.432  1.00  0.00     0.002 C 
BRANCH  43  44
ATOM     44  C   UNL A   1      41.895  27.122  25.375  1.00  0.00     0.021 C 
BRANCH  44  45
ATOM     45  C   UNL A   1      41.382  28.373  26.079  1.00  0.00     0.116 C 
BRANCH  45  46
ATOM     46  N   UNL A   1      40.293  28.093  27.001  1.00  0.00    -0.352 N 
ATOM     47  C   UNL A   1      40.341  27.568  28.270  1.00  0.00     0.251 C 
ATOM     48  H   UNL A   1      39.393  28.311  26.668  1.00  0.00     0.163 HD
ATOM     49  O   UNL A   1      39.304  27.270  28.855  1.00  0.00    -0.269 OA
BRANCH  47  50
ATOM     50  C   UNL A   1      41.647  27.335  28.927  1.00  0.00     0.039 A 
ATOM     51  C   UNL A   1      42.241  26.075  28.817  1.00  0.00     0.014 A 
ATOM     52  C   UNL A   1      42.278  28.348  29.653  1.00  0.00     0.014 A 
ATOM     53  C   UNL A   1      43.500  25.848  29.381  1.00  0.00     0.010 A 
ATOM     54  C   UNL A   1      43.560  28.140  30.160  1.00  0.00     0.010 A 
ATOM     55  C   UNL A   1      44.182  26.889  30.030  1.00  0.00    -0.014 A 
BRANCH  55  56
ATOM     56  C   UNL A   1      45.545  26.693  30.589  1.00  0.00     0.031 A 
ATOM     57  C   UNL A   1      46.753  27.011  29.752  1.00  0.00     0.074 A 
ATOM     58  C   UNL A   1      45.696  26.157  31.816  1.00  0.00     0.049 A 
ATOM     59  N   UNL A   1      48.019  26.799  30.010  1.00  0.00    -0.248 NA
ATOM     60  C   UNL A   1      46.502  27.625  28.439  1.00  0.00     0.031 C 
ATOM     61  C   UNL A   1      44.605  25.770  32.712  1.00  0.00     0.029 A 
ATOM     62  N   UNL A   1      46.831  25.824  32.515  1.00  0.00    -0.354 N 
ATOM     63  C   UNL A   1      48.711  27.229  28.885  1.00  0.00     0.074 A 
ATOM     64  C   UNL A   1      47.724  27.679  27.927  1.00  0.00     0.031 C 
ATOM     65  C   UNL A   1      45.122  25.263  33.842  1.00  0.00     0.029 A 
ATOM     66  C   UNL A   1      46.578  25.252  33.738  1.00  0.00     0.049 A 
ATOM     67  H   UNL A   1      47.740  25.982  32.171  1.00  0.00     0.167 HD
ATOM     68  C   UNL A   1      50.048  27.264  28.679  1.00  0.00     0.037 A 
ATOM     69  C   UNL A   1      47.426  24.760  34.662  1.00  0.00     0.037 A 
ATOM     70  C   UNL A   1      51.031  26.855  29.648  1.00  0.00     0.049 A 
ATOM     71  C   UNL A   1      48.909  24.816  34.406  1.00  0.00     0.074 A 
ATOM     72  C   UNL A   1      52.410  26.911  29.555  1.00  0.00     0.029 A 
ATOM     73  N   UNL A   1      50.734  26.317  30.890  1.00  0.00    -0.354 N 
ATOM     74  N   UNL A   1      49.552  25.282  33.365  1.00  0.00    -0.248 NA
ATOM     75  C   UNL A   1      49.784  24.284  35.462  1.00  0.00     0.031 C 
ATOM     76  C   UNL A   1      52.951  26.372  30.725  1.00  0.00     0.029 A 
ATOM     77  C   UNL A   1      51.907  26.023  31.568  1.00  0.00     0.049 A 
ATOM     78  H   UNL A   1      49.827  26.166  31.240  1.00  0.00     0.167 HD
ATOM     79  C   UNL A   1      50.902  25.134  33.652  1.00  0.00     0.074 A 
ATOM     80  C   UNL A   1      50.987  24.541  34.970  1.00  0.00     0.031 C 
ATOM     81  C   UNL A   1      51.975  25.460  32.891  1.00  0.00     0.037 A 
BRANCH  68  82
ATOM     82  C   UNL A   1      50.538  27.769  27.353  1.00  0.00     0.064 A 
ATOM     83  C   UNL A   1      50.822  29.126  27.144  1.00  0.00     0.173 A 
ATOM     84  C   UNL A   1      50.784  26.877  26.299  1.00  0.00     0.173 A 
ATOM     85  F   UNL A   1      50.594  30.022  28.116  1.00  0.00    -0.203 F 
ATOM     86  C   UNL A   1      51.314  29.576  25.921  1.00  0.00     0.198 A 
ATOM     87  C   UNL A   1      51.304  27.324  25.087  1.00  0.00     0.198 A 
ATOM     88  F   UNL A   1      50.536  25.567  26.449  1.00  0.00    -0.203 F 
ATOM     89  F   UNL A   1      51.542  30.882  25.732  1.00  0.00    -0.200 F 
ATOM     90  C   UNL A   1      51.564  28.674  24.897  1.00  0.00     0.200 A 
ATOM     91  F   UNL A   1      51.557  26.450  24.104  1.00  0.00    -0.200 F 
ATOM     92  F   UNL A   1      52.051  29.104  23.726  1.00  0.00    -0.200 F 
ENDBRANCH  68  82
BRANCH  69  93
ATOM     93  C   UNL A   1      46.900  24.181  35.926  1.00  0.00     0.064 A 
ATOM     94  C   UNL A   1      46.568  22.822  36.011  1.00  0.00     0.173 A 
ATOM     95  C   UNL A   1      46.693  24.975  37.063  1.00  0.00     0.173 A 
ATOM     96  F   UNL A   1      46.727  22.026  34.943  1.00  0.00    -0.203 F 
ATOM     97  C   UNL A   1      46.024  22.284  37.176  1.00  0.00     0.198 A 
ATOM     98  C   UNL A   1      46.175  24.430  38.237  1.00  0.00     0.198 A 
ATOM     99  F   UNL A   1      46.997  26.281  37.035  1.00  0.00    -0.203 F 
ATOM    100  F   UNL A   1      45.664  20.994  37.210  1.00  0.00    -0.200 F 
ATOM    101  C   UNL A   1      45.830  23.088  38.289  1.00  0.00     0.200 A 
ATOM    102  F   UNL A   1      46.000  25.207  39.314  1.00  0.00    -0.200 F 
ATOM    103  F   UNL A   1      45.302  22.571  39.406  1.00  0.00    -0.200 F 
ENDBRANCH  69  93
BRANCH  81 104
ATOM    104  C   UNL A   1      53.335  25.238  33.482  1.00  0.00     0.064 A 
ATOM    105  C   UNL A   1      54.055  24.056  33.256  1.00  0.00     0.173 A 
ATOM    106  C   UNL A   1      53.947  26.247  34.242  1.00  0.00     0.173 A 
ATOM    107  F   UNL A   1      53.507  23.057  32.549  1.00  0.00    -0.203 F 
ATOM    108  C   UNL A   1      55.331  23.884  33.788  1.00  0.00     0.198 A 
ATOM    109  C   UNL A   1      55.234  26.083  34.748  1.00  0.00     0.198 A 
ATOM    110  F   UNL A   1      53.302  27.399  34.480  1.00  0.00    -0.203 F 
ATOM    111  F   UNL A   1      55.984  22.731  33.594  1.00  0.00    -0.200 F 
ATOM    112  C   UNL A   1      55.922  24.900  34.525  1.00  0.00     0.200 A 
ATOM    113  F   UNL A   1      55.809  27.071  35.448  1.00  0.00    -0.200 F 
ATOM    114  F   UNL A   1      57.154  24.737  35.026  1.00  0.00    -0.200 F 
ENDBRANCH  81 104
ENDBRANCH  55  56
ENDBRANCH  47  50
ENDBRANCH  45  46
ENDBRANCH  44  45
ENDBRANCH  43  44
ENDBRANCH  42  43
ENDBRANCH  41  42
ENDBRANCH   1  41
TORSDOF 19
ENDMDL
MODEL 3
REMARK VINA RESULT:     -10.0      5.219      8.634
REMARK SMILES O=C(COc1cccc(NC(=O)c2ccc3c(c2)C(=O)N(c2ccccc2-c2ccccc2)C3=O)c1)NCCCCCCNC(=O)c1ccc(-c2c3nc(c(-c4c(F)c(F)c(F)c(F)c4F)c4ccc([nH]4)c(-c4c(F)c(F)c(F)c(F)c4F)c4nc(c(-c5c(F)c(F)c(F)c(F)c5F)c5ccc2[nH]5)C=C4)C=C3)cc1
REMARK SMILES IDX 38 1 37 2 1 3 2 4 3 6 4 7 5 8 6 9 36 10 7 11 9 12 8 13 10 14
REMARK SMILES IDX 11 15 12 17 13 18 14 19 18 20 15 21 17 22 16 23 19 24 34 25
REMARK SMILES IDX 20 26 21 27 35 28 22 29 23 30 27 31 24 32 26 33 25 34 28 35
REMARK SMILES IDX 29 36 33 37 30 38 32 39 31 40 39 41 40 42 41 43 42 44 43 45
REMARK SMILES IDX 44 46 45 47 46 49 47 50 48 51 109 52 49 53 108 54 50 55
REMARK SMILES IDX 51 56 52 57 102 58 53 59 107 60 101 61 103 62 54 63 106 64
REMARK SMILES IDX 100 65 99 66 55 68 87 69 67 70 86 71 68 72 71 73 85 74
REMARK SMILES IDX 104 75 69 76 70 77 84 79 105 80 72 81 56 82 57 83 65 84
REMARK SMILES IDX 58 85 59 86 63 87 66 88 60 89 61 90 64 91 62 92 88 93 89 94
REMARK SMILES IDX 97 95 90 96 91 97 95 98 98 99 92 100 93 101 96 102 94 103
REMARK SMILES IDX 73 104 74 105 82 106 75 107 76 108 80 109 83 110 77 111
REMARK SMILES IDX 78 112 81 113 79 114
REMARK H PARENT 37 5 10 16 44 48 103 67 71 78
REMARK Flexibility Score: inf
ROOT
ATOM      1  C   UNL A   1      42.684  23.685  27.597  1.00  0.00     0.116 C 
ENDROOT
BRANCH   1   2
ATOM      2  N   UNL A   1      41.275  23.510  27.325  1.00  0.00    -0.353 N 
ATOM      3  O   UNL A   1      41.518  21.787  25.824  1.00  0.00    -0.271 OA
ATOM      4  C   UNL A   1      40.799  22.501  26.516  1.00  0.00     0.257 C 
ATOM      5  H   UNL A   1      40.633  24.137  27.732  1.00  0.00     0.163 HD
BRANCH   4   6
ATOM      6  C   UNL A   1      39.281  22.309  26.580  1.00  0.00     0.329 C 
BRANCH   6   7
ATOM      7  O   UNL A   1      38.639  21.923  25.373  1.00  0.00    -0.484 OA
BRANCH   7   8
ATOM      8  C   UNL A   1      37.295  22.167  25.272  1.00  0.00     0.122 A 
ATOM      9  C   UNL A   1      36.898  23.427  25.708  1.00  0.00     0.046 A 
ATOM     10  C   UNL A   1      36.325  21.212  24.928  1.00  0.00     0.072 A 
ATOM     11  C   UNL A   1      35.547  23.724  25.818  1.00  0.00     0.006 A 
ATOM     12  C   UNL A   1      34.956  21.482  25.074  1.00  0.00     0.045 A 
ATOM     13  C   UNL A   1      34.589  22.750  25.526  1.00  0.00     0.026 A 
BRANCH  12  14
ATOM     14  N   UNL A   1      34.056  20.403  24.870  1.00  0.00    -0.322 N 
ATOM     15  C   UNL A   1      32.726  20.217  25.205  1.00  0.00     0.255 C 
ATOM     16  H   UNL A   1      34.458  19.636  24.399  1.00  0.00     0.170 HD
ATOM     17  O   UNL A   1      32.208  19.105  25.197  1.00  0.00    -0.269 OA
BRANCH  15  18
ATOM     18  C   UNL A   1      31.877  21.398  25.421  1.00  0.00     0.041 A 
ATOM     19  C   UNL A   1      31.604  21.861  26.728  1.00  0.00     0.015 A 
ATOM     20  C   UNL A   1      31.605  22.167  24.291  1.00  0.00     0.028 A 
ATOM     21  C   UNL A   1      31.247  23.206  26.923  1.00  0.00     0.015 A 
ATOM     22  C   UNL A   1      31.273  23.479  24.530  1.00  0.00     0.054 A 
ATOM     23  C   UNL A   1      31.166  24.009  25.793  1.00  0.00     0.053 A 
ATOM     24  C   UNL A   1      31.343  24.569  23.585  1.00  0.00     0.266 C 
ATOM     25  C   UNL A   1      31.228  25.466  25.635  1.00  0.00     0.266 C 
ATOM     26  O   UNL A   1      31.230  24.335  22.397  1.00  0.00    -0.268 OA
ATOM     27  N   UNL A   1      31.574  25.713  24.319  1.00  0.00    -0.242 N 
ATOM     28  O   UNL A   1      30.929  26.191  26.564  1.00  0.00    -0.268 OA
BRANCH  27  29
ATOM     29  C   UNL A   1      32.149  26.905  23.747  1.00  0.00     0.060 A 
ATOM     30  C   UNL A   1      33.557  27.069  23.819  1.00  0.00     0.027 A 
ATOM     31  C   UNL A   1      31.413  28.008  23.235  1.00  0.00     0.006 A 
ATOM     32  C   UNL A   1      34.219  28.236  23.427  1.00  0.00     0.002 A 
ATOM     33  C   UNL A   1      32.115  29.169  22.807  1.00  0.00     0.011 A 
ATOM     34  C   UNL A   1      33.497  29.289  22.909  1.00  0.00     0.001 A 
BRANCH  31  35
ATOM     35  C   UNL A   1      29.949  28.147  23.214  1.00  0.00    -0.016 A 
ATOM     36  C   UNL A   1      29.350  29.374  22.889  1.00  0.00     0.009 A 
ATOM     37  C   UNL A   1      29.124  27.088  23.627  1.00  0.00     0.009 A 
ATOM     38  C   UNL A   1      27.961  29.522  22.925  1.00  0.00     0.001 A 
ATOM     39  C   UNL A   1      27.736  27.238  23.669  1.00  0.00     0.001 A 
ATOM     40  C   UNL A   1      27.155  28.452  23.309  1.00  0.00     0.000 A 
ENDBRANCH  31  35
ENDBRANCH  27  29
ENDBRANCH  15  18
ENDBRANCH  12  14
ENDBRANCH   7   8
ENDBRANCH   6   7
ENDBRANCH   4   6
ENDBRANCH   1   2
BRANCH   1  41
ATOM     41  C   UNL A   1      43.134  22.934  28.843  1.00  0.00     0.021 C 
BRANCH  41  42
ATOM     42  C   UNL A   1      44.608  23.139  29.210  1.00  0.00     0.002 C 
BRANCH  42  43
ATOM     43  C   UNL A   1      45.274  24.387  28.620  1.00  0.00     0.002 C 
BRANCH  43  44
ATOM     44  C   UNL A   1      46.283  24.133  27.497  1.00  0.00     0.021 C 
BRANCH  44  45
ATOM     45  C   UNL A   1      45.684  24.003  26.101  1.00  0.00     0.116 C 
BRANCH  45  46
ATOM     46  N   UNL A   1      46.259  24.942  25.152  1.00  0.00    -0.352 N 
ATOM     47  C   UNL A   1      46.108  26.306  25.078  1.00  0.00     0.251 C 
ATOM     48  H   UNL A   1      46.838  24.544  24.463  1.00  0.00     0.163 HD
ATOM     49  O   UNL A   1      46.560  26.927  24.122  1.00  0.00    -0.269 OA
BRANCH  47  50
ATOM     50  C   UNL A   1      45.377  27.029  26.143  1.00  0.00     0.039 A 
ATOM     51  C   UNL A   1      44.018  26.760  26.328  1.00  0.00     0.014 A 
ATOM     52  C   UNL A   1      46.022  27.971  26.948  1.00  0.00     0.014 A 
ATOM     53  C   UNL A   1      43.319  27.389  27.363  1.00  0.00     0.010 A 
ATOM     54  C   UNL A   1      45.341  28.549  28.019  1.00  0.00     0.010 A 
ATOM     55  C   UNL A   1      43.984  28.264  28.236  1.00  0.00    -0.014 A 
BRANCH  55  56
ATOM     56  C   UNL A   1      43.281  28.903  29.379  1.00  0.00     0.031 A 
ATOM     57  C   UNL A   1      43.945  28.969  30.726  1.00  0.00     0.074 A 
ATOM     58  C   UNL A   1      42.020  29.351  29.225  1.00  0.00     0.049 A 
ATOM     59  N   UNL A   1      43.457  29.375  31.872  1.00  0.00    -0.248 NA
ATOM     60  C   UNL A   1      45.334  28.491  30.801  1.00  0.00     0.031 C 
ATOM     61  C   UNL A   1      41.252  29.309  27.980  1.00  0.00     0.029 A 
ATOM     62  N   UNL A   1      41.152  29.911  30.130  1.00  0.00    -0.354 N 
ATOM     63  C   UNL A   1      44.468  29.178  32.804  1.00  0.00     0.074 A 
ATOM     64  C   UNL A   1      45.582  28.581  32.100  1.00  0.00     0.031 C 
ATOM     65  C   UNL A   1      40.033  29.830  28.196  1.00  0.00     0.029 A 
ATOM     66  C   UNL A   1      39.918  30.206  29.602  1.00  0.00     0.049 A 
ATOM     67  H   UNL A   1      41.391  30.086  31.069  1.00  0.00     0.167 HD
ATOM     68  C   UNL A   1      44.472  29.485  34.122  1.00  0.00     0.037 A 
ATOM     69  C   UNL A   1      38.815  30.708  30.190  1.00  0.00     0.037 A 
ATOM     70  C   UNL A   1      43.378  30.116  34.812  1.00  0.00     0.049 A 
ATOM     71  C   UNL A   1      38.851  31.045  31.658  1.00  0.00     0.074 A 
ATOM     72  C   UNL A   1      43.311  30.524  36.133  1.00  0.00     0.029 A 
ATOM     73  N   UNL A   1      42.159  30.434  34.232  1.00  0.00    -0.354 N 
ATOM     74  N   UNL A   1      39.833  30.911  32.514  1.00  0.00    -0.248 NA
ATOM     75  C   UNL A   1      37.624  31.610  32.238  1.00  0.00     0.031 C 
ATOM     76  C   UNL A   1      42.038  31.054  36.364  1.00  0.00     0.029 A 
ATOM     77  C   UNL A   1      41.329  31.020  35.174  1.00  0.00     0.049 A 
ATOM     78  H   UNL A   1      41.920  30.269  33.292  1.00  0.00     0.167 HD
ATOM     79  C   UNL A   1      39.358  31.406  33.721  1.00  0.00     0.074 A 
ATOM     80  C   UNL A   1      38.001  31.851  33.486  1.00  0.00     0.031 C 
ATOM     81  C   UNL A   1      39.991  31.484  34.917  1.00  0.00     0.037 A 
BRANCH  68  82
ATOM     82  C   UNL A   1      45.702  29.151  34.914  1.00  0.00     0.064 A 
ATOM     83  C   UNL A   1      46.727  30.088  35.108  1.00  0.00     0.173 A 
ATOM     84  C   UNL A   1      45.829  27.900  35.536  1.00  0.00     0.173 A 
ATOM     85  F   UNL A   1      46.659  31.295  34.526  1.00  0.00    -0.203 F 
ATOM     86  C   UNL A   1      47.845  29.778  35.879  1.00  0.00     0.198 A 
ATOM     87  C   UNL A   1      46.933  27.603  36.330  1.00  0.00     0.198 A 
ATOM     88  F   UNL A   1      44.873  26.970  35.388  1.00  0.00    -0.203 F 
ATOM     89  F   UNL A   1      48.829  30.675  36.020  1.00  0.00    -0.200 F 
ATOM     90  C   UNL A   1      47.943  28.540  36.497  1.00  0.00     0.200 A 
ATOM     91  F   UNL A   1      47.020  26.411  36.937  1.00  0.00    -0.200 F 
ATOM     92  F   UNL A   1      49.012  28.247  37.250  1.00  0.00    -0.200 F 
ENDBRANCH  68  82
BRANCH  69  93
ATOM     93  C   UNL A   1      37.582  30.940  29.393  1.00  0.00     0.064 A 
ATOM     94  C   UNL A   1      36.700  29.888  29.111  1.00  0.00     0.173 A 
ATOM     95  C   UNL A   1      37.273  32.206  28.876  1.00  0.00     0.173 A 
ATOM     96  F   UNL A   1      36.964  28.653  29.564  1.00  0.00    -0.203 F 
ATOM     97  C   UNL A   1      35.571  30.086  28.319  1.00  0.00     0.198 A 
ATOM     98  C   UNL A   1      36.129  32.410  28.108  1.00  0.00     0.198 A 
ATOM     99  F   UNL A   1      38.082  33.248  29.121  1.00  0.00    -0.203 F 
ATOM    100  F   UNL A   1      34.776  29.051  28.018  1.00  0.00    -0.200 F 
ATOM    101  C   UNL A   1      35.285  31.348  27.820  1.00  0.00     0.200 A 
ATOM    102  F   UNL A   1      35.849  33.633  27.638  1.00  0.00    -0.200 F 
ATOM    103  F   UNL A   1      34.202  31.537  27.055  1.00  0.00    -0.200 F 
ENDBRANCH  69  93
BRANCH  81 104
ATOM    104  C   UNL A   1      39.247  32.124  36.051  1.00  0.00     0.064 A 
ATOM    105  C   UNL A   1      38.371  31.394  36.866  1.00  0.00     0.173 A 
ATOM    106  C   UNL A   1      39.458  33.477  36.359  1.00  0.00     0.173 A 
ATOM    107  F   UNL A   1      38.125  30.101  36.603  1.00  0.00    -0.203 F 
ATOM    108  C   UNL A   1      37.715  32.000  37.934  1.00  0.00     0.198 A 
ATOM    109  C   UNL A   1      38.824  34.073  37.445  1.00  0.00     0.198 A 
ATOM    110  F   UNL A   1      40.293  34.218  35.614  1.00  0.00    -0.203 F 
ATOM    111  F   UNL A   1      36.851  31.294  38.675  1.00  0.00    -0.200 F 
ATOM    112  C   UNL A   1      37.949  33.336  38.228  1.00  0.00     0.200 A 
ATOM    113  F   UNL A   1      39.061  35.360  37.736  1.00  0.00    -0.200 F 
ATOM    114  F   UNL A   1      37.327  33.914  39.264  1.00  0.00    -0.200 F 
ENDBRANCH  81 104
ENDBRANCH  55  56
ENDBRANCH  47  50
ENDBRANCH  45  46
ENDBRANCH  44  45
ENDBRANCH  43  44
ENDBRANCH  42  43
ENDBRANCH  41  42
ENDBRANCH   1  41
TORSDOF 19
ENDMDL
