MODEL 1
REMARK VINA RESULT:     -10.7      0.000      0.000
REMARK SMILES C[C@H](SCC[NH3+])c1ccc(C(=O)NCCCCCCNC(=O)c2ccc(-c3c4nc(c(-c5c(F)c(F)c(F)c(F)c5F)c5ccc([nH]5)c(-c5c(F)c(F)c(F)c(F)c5F)c5nc(c(-c6c(F)c(F)c(F)c(F)c6F)c6ccc3[nH]6)C=C5)C=C4)cc2)o1
REMARK SMILES IDX 15 1 14 2 13 3 11 4 12 5 10 7 7 8 8 9 86 10 9 11 2 12 1 13
REMARK SMILES IDX 3 14 4 15 5 16 6 17 16 21 17 22 18 23 19 24 20 25 21 26
REMARK SMILES IDX 22 28 23 29 24 30 85 31 25 32 84 33 26 34 27 35 28 36 78 37
REMARK SMILES IDX 29 38 83 39 77 40 79 41 30 42 82 43 76 44 75 45 31 47 63 48
REMARK SMILES IDX 43 49 62 50 44 51 47 52 61 53 80 54 45 55 46 56 60 58 81 59
REMARK SMILES IDX 48 60 32 61 33 62 41 63 34 64 35 65 39 66 42 67 36 68 37 69
REMARK SMILES IDX 40 70 38 71 64 72 65 73 73 74 66 75 67 76 71 77 74 78 68 79
REMARK SMILES IDX 69 80 72 81 70 82 49 83 50 84 58 85 51 86 52 87 56 88 59 89
REMARK SMILES IDX 53 90 54 91 57 92 55 93
REMARK H PARENT 13 6 6 18 6 19 6 20 20 27 79 46 47 57
REMARK Flexibility Score: inf
ROOT
ATOM      1  C   UNL A   1      35.893  22.963  25.042  1.00  0.00     0.021 C 
ENDROOT
BRANCH   1   2
ATOM      2  C   UNL A   1      35.447  22.564  26.446  1.00  0.00     0.116 C 
BRANCH   2   3
ATOM      3  N   UNL A   1      34.143  23.092  26.757  1.00  0.00    -0.349 N 
ATOM      4  C   UNL A   1      32.890  22.828  26.264  1.00  0.00     0.286 C 
ATOM      5  O   UNL A   1      31.978  23.399  26.867  1.00  0.00    -0.266 OA
ATOM      6  H   UNL A   1      34.154  23.778  27.464  1.00  0.00     0.163 HD
BRANCH   4   7
ATOM      7  C   UNL A   1      32.649  21.936  25.141  1.00  0.00     0.191 A 
ATOM      8  C   UNL A   1      32.824  19.944  24.155  1.00  0.00     0.117 A 
ATOM      9  C   UNL A   1      32.217  20.780  23.246  1.00  0.00     0.047 A 
ATOM     10  O   UNL A   1      33.090  20.636  25.298  1.00  0.00    -0.455 OA
ATOM     11  C   UNL A   1      32.064  22.030  23.890  1.00  0.00     0.056 A 
BRANCH   8  12
ATOM     12  C   UNL A   1      33.192  18.496  24.055  1.00  0.00     0.110 C 
ATOM     13  C   UNL A   1      32.713  17.894  22.734  1.00  0.00     0.028 C 
BRANCH  12  14
ATOM     14  S   UNL A   1      32.785  17.484  25.522  1.00  0.00    -0.145 SA
BRANCH  14  15
ATOM     15  C   UNL A   1      33.751  15.956  25.232  1.00  0.00     0.131 C 
BRANCH  15  16
ATOM     16  C   UNL A   1      32.945  14.714  25.638  1.00  0.00     0.269 C 
BRANCH  16  17
ATOM     17  N   UNL A   1      31.510  14.954  25.553  1.00  0.00    -0.357 N 
ATOM     18  H   UNL A   1      31.145  14.536  24.697  1.00  0.00     0.344 HD
ATOM     19  H   UNL A   1      31.334  15.959  25.542  1.00  0.00     0.344 HD
ATOM     20  H   UNL A   1      31.048  14.536  26.360  1.00  0.00     0.344 HD
ENDBRANCH  16  17
ENDBRANCH  15  16
ENDBRANCH  14  15
ENDBRANCH  12  14
ENDBRANCH   8  12
ENDBRANCH   4   7
ENDBRANCH   2   3
ENDBRANCH   1   2
BRANCH   1  21
ATOM     21  C   UNL A   1      36.795  21.922  24.368  1.00  0.00     0.002 C 
BRANCH  21  22
ATOM     22  C   UNL A   1      36.644  20.490  24.901  1.00  0.00     0.002 C 
BRANCH  22  23
ATOM     23  C   UNL A   1      37.920  19.644  24.849  1.00  0.00     0.021 C 
BRANCH  23  24
ATOM     24  C   UNL A   1      39.064  20.195  25.689  1.00  0.00     0.116 C 
BRANCH  24  25
ATOM     25  N   UNL A   1      40.093  19.194  25.917  1.00  0.00    -0.352 N 
ATOM     26  C   UNL A   1      41.436  19.370  26.137  1.00  0.00     0.251 C 
ATOM     27  H   UNL A   1      39.784  18.259  25.913  1.00  0.00     0.163 HD
ATOM     28  O   UNL A   1      42.208  18.421  26.086  1.00  0.00    -0.269 OA
BRANCH  26  29
ATOM     29  C   UNL A   1      41.948  20.726  26.423  1.00  0.00     0.039 A 
ATOM     30  C   UNL A   1      42.218  21.589  25.359  1.00  0.00     0.014 A 
ATOM     31  C   UNL A   1      42.150  21.144  27.742  1.00  0.00     0.014 A 
ATOM     32  C   UNL A   1      42.636  22.894  25.620  1.00  0.00     0.010 A 
ATOM     33  C   UNL A   1      42.488  22.466  28.002  1.00  0.00     0.010 A 
ATOM     34  C   UNL A   1      42.740  23.353  26.944  1.00  0.00    -0.014 A 
BRANCH  34  35
ATOM     35  C   UNL A   1      43.112  24.759  27.244  1.00  0.00     0.031 A 
ATOM     36  C   UNL A   1      44.515  25.235  26.998  1.00  0.00     0.074 A 
ATOM     37  C   UNL A   1      42.203  25.583  27.801  1.00  0.00     0.049 A 
ATOM     38  N   UNL A   1      45.052  26.400  27.260  1.00  0.00    -0.248 NA
ATOM     39  C   UNL A   1      45.448  24.265  26.404  1.00  0.00     0.031 C 
ATOM     40  C   UNL A   1      40.824  25.221  28.131  1.00  0.00     0.029 A 
ATOM     41  N   UNL A   1      42.307  26.892  28.198  1.00  0.00    -0.354 N 
ATOM     42  C   UNL A   1      46.383  26.297  26.877  1.00  0.00     0.074 A 
ATOM     43  C   UNL A   1      46.588  24.940  26.420  1.00  0.00     0.031 C 
ATOM     44  C   UNL A   1      40.202  26.288  28.657  1.00  0.00     0.029 A 
ATOM     45  C   UNL A   1      41.149  27.396  28.742  1.00  0.00     0.049 A 
ATOM     46  H   UNL A   1      43.132  27.421  28.103  1.00  0.00     0.167 HD
ATOM     47  C   UNL A   1      47.340  27.255  26.881  1.00  0.00     0.037 A 
ATOM     48  C   UNL A   1      40.886  28.610  29.259  1.00  0.00     0.037 A 
ATOM     49  C   UNL A   1      47.123  28.609  27.318  1.00  0.00     0.049 A 
ATOM     50  C   UNL A   1      41.972  29.653  29.268  1.00  0.00     0.074 A 
ATOM     51  C   UNL A   1      48.009  29.671  27.311  1.00  0.00     0.029 A 
ATOM     52  N   UNL A   1      45.932  29.087  27.848  1.00  0.00    -0.354 N 
ATOM     53  N   UNL A   1      43.207  29.566  28.837  1.00  0.00    -0.248 NA
ATOM     54  C   UNL A   1      41.625  30.967  29.828  1.00  0.00     0.031 C 
ATOM     55  C   UNL A   1      47.375  30.775  27.887  1.00  0.00     0.029 A 
ATOM     56  C   UNL A   1      46.071  30.421  28.195  1.00  0.00     0.049 A 
ATOM     57  H   UNL A   1      45.110  28.556  27.961  1.00  0.00     0.167 HD
ATOM     58  C   UNL A   1      43.772  30.819  29.039  1.00  0.00     0.074 A 
ATOM     59  C   UNL A   1      42.742  31.651  29.623  1.00  0.00     0.031 C 
ATOM     60  C   UNL A   1      45.029  31.241  28.762  1.00  0.00     0.037 A 
BRANCH  47  61
ATOM     61  C   UNL A   1      48.710  26.872  26.399  1.00  0.00     0.064 A 
ATOM     62  C   UNL A   1      49.672  26.330  27.265  1.00  0.00     0.173 A 
ATOM     63  C   UNL A   1      49.055  27.016  25.046  1.00  0.00     0.173 A 
ATOM     64  F   UNL A   1      49.399  26.181  28.570  1.00  0.00    -0.203 F 
ATOM     65  C   UNL A   1      50.938  25.978  26.802  1.00  0.00     0.198 A 
ATOM     66  C   UNL A   1      50.309  26.629  24.581  1.00  0.00     0.198 A 
ATOM     67  F   UNL A   1      48.172  27.522  24.173  1.00  0.00    -0.203 F 
ATOM     68  F   UNL A   1      51.857  25.514  27.659  1.00  0.00    -0.200 F 
ATOM     69  C   UNL A   1      51.251  26.120  25.459  1.00  0.00     0.200 A 
ATOM     70  F   UNL A   1      50.606  26.754  23.279  1.00  0.00    -0.200 F 
ATOM     71  F   UNL A   1      52.467  25.772  25.014  1.00  0.00    -0.200 F 
ENDBRANCH  47  61
BRANCH  48  72
ATOM     72  C   UNL A   1      39.531  28.914  29.790  1.00  0.00     0.064 A 
ATOM     73  C   UNL A   1      38.559  29.517  28.981  1.00  0.00     0.173 A 
ATOM     74  C   UNL A   1      39.181  28.614  31.115  1.00  0.00     0.173 A 
ATOM     75  F   UNL A   1      38.850  29.841  27.712  1.00  0.00    -0.203 F 
ATOM     76  C   UNL A   1      37.296  29.829  29.482  1.00  0.00     0.198 A 
ATOM     77  C   UNL A   1      37.908  28.898  31.606  1.00  0.00     0.198 A 
ATOM     78  F   UNL A   1      40.072  28.030  31.930  1.00  0.00    -0.203 F 
ATOM     79  F   UNL A   1      36.402  30.449  28.701  1.00  0.00    -0.200 F 
ATOM     80  C   UNL A   1      36.970  29.514  30.792  1.00  0.00     0.200 A 
ATOM     81  F   UNL A   1      37.593  28.575  32.868  1.00  0.00    -0.200 F 
ATOM     82  F   UNL A   1      35.755  29.810  31.273  1.00  0.00    -0.200 F 
ENDBRANCH  48  72
BRANCH  60  83
ATOM     83  C   UNL A   1      45.354  32.681  29.038  1.00  0.00     0.064 A 
ATOM     84  C   UNL A   1      45.937  33.091  30.245  1.00  0.00     0.173 A 
ATOM     85  C   UNL A   1      45.125  33.657  28.055  1.00  0.00     0.173 A 
ATOM     86  F   UNL A   1      46.163  32.200  31.223  1.00  0.00    -0.203 F 
ATOM     87  C   UNL A   1      46.257  34.428  30.467  1.00  0.00     0.198 A 
ATOM     88  C   UNL A   1      45.478  34.986  28.266  1.00  0.00     0.198 A 
ATOM     89  F   UNL A   1      44.576  33.316  26.878  1.00  0.00    -0.203 F 
ATOM     90  F   UNL A   1      46.772  34.805  31.646  1.00  0.00    -0.200 F 
ATOM     91  C   UNL A   1      46.038  35.371  29.475  1.00  0.00     0.200 A 
ATOM     92  F   UNL A   1      45.279  35.892  27.300  1.00  0.00    -0.200 F 
ATOM     93  F   UNL A   1      46.360  36.656  29.684  1.00  0.00    -0.200 F 
ENDBRANCH  60  83
ENDBRANCH  34  35
ENDBRANCH  26  29
ENDBRANCH  24  25
ENDBRANCH  23  24
ENDBRANCH  22  23
ENDBRANCH  21  22
ENDBRANCH   1  21
TORSDOF 18
ENDMDL
MODEL 2
REMARK VINA RESULT:     -10.7      5.728      9.765
REMARK SMILES C[C@H](SCC[NH3+])c1ccc(C(=O)NCCCCCCNC(=O)c2ccc(-c3c4nc(c(-c5c(F)c(F)c(F)c(F)c5F)c5ccc([nH]5)c(-c5c(F)c(F)c(F)c(F)c5F)c5nc(c(-c6c(F)c(F)c(F)c(F)c6F)c6ccc3[nH]6)C=C5)C=C4)cc2)o1
REMARK SMILES IDX 15 1 14 2 13 3 11 4 12 5 10 7 7 8 8 9 86 10 9 11 2 12 1 13
REMARK SMILES IDX 3 14 4 15 5 16 6 17 16 21 17 22 18 23 19 24 20 25 21 26
REMARK SMILES IDX 22 28 23 29 24 30 85 31 25 32 84 33 26 34 27 35 28 36 78 37
REMARK SMILES IDX 29 38 83 39 77 40 79 41 30 42 82 43 76 44 75 45 31 47 63 48
REMARK SMILES IDX 43 49 62 50 44 51 47 52 61 53 80 54 45 55 46 56 60 58 81 59
REMARK SMILES IDX 48 60 32 61 33 62 41 63 34 64 35 65 39 66 42 67 36 68 37 69
REMARK SMILES IDX 40 70 38 71 64 72 65 73 73 74 66 75 67 76 71 77 74 78 68 79
REMARK SMILES IDX 69 80 72 81 70 82 49 83 50 84 58 85 51 86 52 87 56 88 59 89
REMARK SMILES IDX 53 90 54 91 57 92 55 93
REMARK H PARENT 13 6 6 18 6 19 6 20 20 27 79 46 47 57
REMARK Flexibility Score: inf
ROOT
ATOM      1  C   UNL A   1      32.159  28.499  25.388  1.00  0.00     0.021 C 
ENDROOT
BRANCH   1   2
ATOM      2  C   UNL A   1      33.608  28.298  24.952  1.00  0.00     0.116 C 
BRANCH   2   3
ATOM      3  N   UNL A   1      33.688  27.754  23.620  1.00  0.00    -0.349 N 
ATOM      4  C   UNL A   1      33.803  26.472  23.143  1.00  0.00     0.286 C 
ATOM      5  O   UNL A   1      33.721  26.379  21.916  1.00  0.00    -0.266 OA
ATOM      6  H   UNL A   1      33.653  28.437  22.912  1.00  0.00     0.163 HD
BRANCH   4   7
ATOM      7  C   UNL A   1      33.984  25.316  24.007  1.00  0.00     0.191 A 
ATOM      8  C   UNL A   1      33.355  23.306  24.740  1.00  0.00     0.117 A 
ATOM      9  C   UNL A   1      34.440  23.680  25.500  1.00  0.00     0.047 A 
ATOM     10  O   UNL A   1      33.073  24.290  23.841  1.00  0.00    -0.455 OA
ATOM     11  C   UNL A   1      34.867  24.932  25.002  1.00  0.00     0.056 A 
BRANCH   8  12
ATOM     12  C   UNL A   1      32.522  22.062  24.772  1.00  0.00     0.110 C 
ATOM     13  C   UNL A   1      31.197  22.304  25.496  1.00  0.00     0.028 C 
BRANCH  12  14
ATOM     14  S   UNL A   1      33.396  20.550  25.310  1.00  0.00    -0.145 SA
BRANCH  14  15
ATOM     15  C   UNL A   1      32.592  19.247  24.305  1.00  0.00     0.131 C 
BRANCH  15  16
ATOM     16  C   UNL A   1      32.575  17.909  25.058  1.00  0.00     0.269 C 
BRANCH  16  17
ATOM     17  N   UNL A   1      32.729  18.099  26.494  1.00  0.00    -0.357 N 
ATOM     18  H   UNL A   1      32.883  19.088  26.692  1.00  0.00     0.344 HD
ATOM     19  H   UNL A   1      33.527  17.557  26.825  1.00  0.00     0.344 HD
ATOM     20  H   UNL A   1      31.883  17.786  26.971  1.00  0.00     0.344 HD
ENDBRANCH  16  17
ENDBRANCH  15  16
ENDBRANCH  14  15
ENDBRANCH  12  14
ENDBRANCH   8  12
ENDBRANCH   4   7
ENDBRANCH   2   3
ENDBRANCH   1   2
BRANCH   1  21
ATOM     21  C   UNL A   1      31.709  29.965  25.350  1.00  0.00     0.002 C 
BRANCH  21  22
ATOM     22  C   UNL A   1      31.583  30.641  26.723  1.00  0.00     0.002 C 
BRANCH  22  23
ATOM     23  C   UNL A   1      31.501  32.170  26.685  1.00  0.00     0.021 C 
BRANCH  23  24
ATOM     24  C   UNL A   1      32.742  32.871  27.219  1.00  0.00     0.116 C 
BRANCH  24  25
ATOM     25  N   UNL A   1      32.464  34.250  27.587  1.00  0.00    -0.352 N 
ATOM     26  C   UNL A   1      32.985  34.991  28.617  1.00  0.00     0.251 C 
ATOM     27  H   UNL A   1      31.812  34.717  27.017  1.00  0.00     0.163 HD
ATOM     28  O   UNL A   1      32.484  36.062  28.932  1.00  0.00    -0.269 OA
BRANCH  26  29
ATOM     29  C   UNL A   1      34.154  34.474  29.358  1.00  0.00     0.039 A 
ATOM     30  C   UNL A   1      33.960  33.897  30.615  1.00  0.00     0.014 A 
ATOM     31  C   UNL A   1      35.436  34.552  28.804  1.00  0.00     0.014 A 
ATOM     32  C   UNL A   1      35.048  33.344  31.292  1.00  0.00     0.010 A 
ATOM     33  C   UNL A   1      36.501  33.931  29.443  1.00  0.00     0.010 A 
ATOM     34  C   UNL A   1      36.320  33.325  30.696  1.00  0.00    -0.014 A 
BRANCH  34  35
ATOM     35  C   UNL A   1      37.474  32.677  31.367  1.00  0.00     0.031 A 
ATOM     36  C   UNL A   1      38.191  31.538  30.700  1.00  0.00     0.074 A 
ATOM     37  C   UNL A   1      37.831  33.071  32.605  1.00  0.00     0.049 A 
ATOM     38  N   UNL A   1      39.171  30.798  31.152  1.00  0.00    -0.248 NA
ATOM     39  C   UNL A   1      37.725  31.161  29.356  1.00  0.00     0.031 C 
ATOM     40  C   UNL A   1      37.181  34.134  33.374  1.00  0.00     0.029 A 
ATOM     41  N   UNL A   1      38.821  32.616  33.439  1.00  0.00    -0.354 N 
ATOM     42  C   UNL A   1      39.428  29.863  30.157  1.00  0.00     0.074 A 
ATOM     43  C   UNL A   1      38.463  30.091  29.104  1.00  0.00     0.031 C 
ATOM     44  C   UNL A   1      37.804  34.266  34.556  1.00  0.00     0.029 A 
ATOM     45  C   UNL A   1      38.868  33.270  34.647  1.00  0.00     0.049 A 
ATOM     46  H   UNL A   1      39.439  31.890  33.195  1.00  0.00     0.167 HD
ATOM     47  C   UNL A   1      40.399  28.920  30.115  1.00  0.00     0.037 A 
ATOM     48  C   UNL A   1      39.673  33.081  35.709  1.00  0.00     0.037 A 
ATOM     49  C   UNL A   1      41.368  28.713  31.159  1.00  0.00     0.049 A 
ATOM     50  C   UNL A   1      40.732  32.014  35.645  1.00  0.00     0.074 A 
ATOM     51  C   UNL A   1      42.425  27.822  31.190  1.00  0.00     0.029 A 
ATOM     52  N   UNL A   1      41.394  29.406  32.361  1.00  0.00    -0.354 N 
ATOM     53  N   UNL A   1      41.012  31.184  34.670  1.00  0.00    -0.248 NA
ATOM     54  C   UNL A   1      41.594  31.863  36.826  1.00  0.00     0.031 C 
ATOM     55  C   UNL A   1      43.056  27.935  32.432  1.00  0.00     0.029 A 
ATOM     56  C   UNL A   1      42.434  28.943  33.151  1.00  0.00     0.049 A 
ATOM     57  H   UNL A   1      40.766  30.122  32.615  1.00  0.00     0.167 HD
ATOM     58  C   UNL A   1      42.101  30.438  35.103  1.00  0.00     0.074 A 
ATOM     59  C   UNL A   1      42.437  30.922  36.425  1.00  0.00     0.031 C 
ATOM     60  C   UNL A   1      42.764  29.446  34.461  1.00  0.00     0.037 A 
BRANCH  47  61
ATOM     61  C   UNL A   1      40.458  28.036  28.901  1.00  0.00     0.064 A 
ATOM     62  C   UNL A   1      39.737  26.834  28.827  1.00  0.00     0.173 A 
ATOM     63  C   UNL A   1      41.217  28.414  27.783  1.00  0.00     0.173 A 
ATOM     64  F   UNL A   1      39.005  26.420  29.872  1.00  0.00    -0.203 F 
ATOM     65  C   UNL A   1      39.802  26.027  27.694  1.00  0.00     0.198 A 
ATOM     66  C   UNL A   1      41.250  27.622  26.638  1.00  0.00     0.198 A 
ATOM     67  F   UNL A   1      41.919  29.556  27.796  1.00  0.00    -0.203 F 
ATOM     68  F   UNL A   1      39.149  24.857  27.669  1.00  0.00    -0.200 F 
ATOM     69  C   UNL A   1      40.551  26.426  26.598  1.00  0.00     0.200 A 
ATOM     70  F   UNL A   1      41.963  28.017  25.573  1.00  0.00    -0.200 F 
ATOM     71  F   UNL A   1      40.604  25.653  25.504  1.00  0.00    -0.200 F 
ENDBRANCH  47  61
BRANCH  48  72
ATOM     72  C   UNL A   1      39.523  33.937  36.916  1.00  0.00     0.064 A 
ATOM     73  C   UNL A   1      38.763  33.509  38.013  1.00  0.00     0.173 A 
ATOM     74  C   UNL A   1      40.130  35.199  36.997  1.00  0.00     0.173 A 
ATOM     75  F   UNL A   1      38.148  32.317  37.977  1.00  0.00    -0.203 F 
ATOM     76  C   UNL A   1      38.597  34.318  39.136  1.00  0.00     0.198 A 
ATOM     77  C   UNL A   1      39.989  35.995  38.132  1.00  0.00     0.198 A 
ATOM     78  F   UNL A   1      40.873  35.654  35.977  1.00  0.00    -0.203 F 
ATOM     79  F   UNL A   1      37.826  33.904  40.149  1.00  0.00    -0.200 F 
ATOM     80  C   UNL A   1      39.214  35.558  39.196  1.00  0.00     0.200 A 
ATOM     81  F   UNL A   1      40.601  37.185  38.193  1.00  0.00    -0.200 F 
ATOM     82  F   UNL A   1      39.058  36.335  40.276  1.00  0.00    -0.200 F 
ENDBRANCH  48  72
BRANCH  60  83
ATOM     83  C   UNL A   1      43.954  28.845  35.154  1.00  0.00     0.064 A 
ATOM     84  C   UNL A   1      45.248  29.356  34.982  1.00  0.00     0.173 A 
ATOM     85  C   UNL A   1      43.784  27.775  36.047  1.00  0.00     0.173 A 
ATOM     86  F   UNL A   1      45.466  30.369  34.130  1.00  0.00    -0.203 F 
ATOM     87  C   UNL A   1      46.331  28.803  35.659  1.00  0.00     0.198 A 
ATOM     88  C   UNL A   1      44.863  27.247  36.748  1.00  0.00     0.198 A 
ATOM     89  F   UNL A   1      42.564  27.254  36.254  1.00  0.00    -0.203 F 
ATOM     90  F   UNL A   1      47.567  29.277  35.445  1.00  0.00    -0.200 F 
ATOM     91  C   UNL A   1      46.137  27.756  36.549  1.00  0.00     0.200 A 
ATOM     92  F   UNL A   1      44.670  26.247  37.618  1.00  0.00    -0.200 F 
ATOM     93  F   UNL A   1      47.179  27.234  37.211  1.00  0.00    -0.200 F 
ENDBRANCH  60  83
ENDBRANCH  34  35
ENDBRANCH  26  29
ENDBRANCH  24  25
ENDBRANCH  23  24
ENDBRANCH  22  23
ENDBRANCH  21  22
ENDBRANCH   1  21
TORSDOF 18
ENDMDL
MODEL 3
REMARK VINA RESULT:     -10.6      5.010      8.203
REMARK SMILES C[C@H](SCC[NH3+])c1ccc(C(=O)NCCCCCCNC(=O)c2ccc(-c3c4nc(c(-c5c(F)c(F)c(F)c(F)c5F)c5ccc([nH]5)c(-c5c(F)c(F)c(F)c(F)c5F)c5nc(c(-c6c(F)c(F)c(F)c(F)c6F)c6ccc3[nH]6)C=C5)C=C4)cc2)o1
REMARK SMILES IDX 15 1 14 2 13 3 11 4 12 5 10 7 7 8 8 9 86 10 9 11 2 12 1 13
REMARK SMILES IDX 3 14 4 15 5 16 6 17 16 21 17 22 18 23 19 24 20 25 21 26
REMARK SMILES IDX 22 28 23 29 24 30 85 31 25 32 84 33 26 34 27 35 28 36 78 37
REMARK SMILES IDX 29 38 83 39 77 40 79 41 30 42 82 43 76 44 75 45 31 47 63 48
REMARK SMILES IDX 43 49 62 50 44 51 47 52 61 53 80 54 45 55 46 56 60 58 81 59
REMARK SMILES IDX 48 60 32 61 33 62 41 63 34 64 35 65 39 66 42 67 36 68 37 69
REMARK SMILES IDX 40 70 38 71 64 72 65 73 73 74 66 75 67 76 71 77 74 78 68 79
REMARK SMILES IDX 69 80 72 81 70 82 49 83 50 84 58 85 51 86 52 87 56 88 59 89
REMARK SMILES IDX 53 90 54 91 57 92 55 93
REMARK H PARENT 13 6 6 18 6 19 6 20 20 27 79 46 47 57
REMARK Flexibility Score: inf
ROOT
ATOM      1  C   UNL A   1      31.718  28.885  22.733  1.00  0.00     0.021 C 
ENDROOT
BRANCH   1   2
ATOM      2  C   UNL A   1      33.063  28.165  22.777  1.00  0.00     0.116 C 
BRANCH   2   3
ATOM      3  N   UNL A   1      33.213  27.258  21.666  1.00  0.00    -0.349 N 
ATOM      4  C   UNL A   1      32.847  25.950  21.478  1.00  0.00     0.286 C 
ATOM      5  O   UNL A   1      33.038  25.530  20.333  1.00  0.00    -0.266 OA
ATOM      6  H   UNL A   1      33.668  27.657  20.890  1.00  0.00     0.163 HD
BRANCH   4   7
ATOM      7  C   UNL A   1      32.264  25.127  22.527  1.00  0.00     0.191 A 
ATOM      8  C   UNL A   1      32.461  23.828  24.329  1.00  0.00     0.117 A 
ATOM      9  C   UNL A   1      31.124  23.846  24.001  1.00  0.00     0.047 A 
ATOM     10  O   UNL A   1      33.154  24.595  23.441  1.00  0.00    -0.455 OA
ATOM     11  C   UNL A   1      30.995  24.708  22.887  1.00  0.00     0.056 A 
BRANCH   8  12
ATOM     12  C   UNL A   1      33.185  23.136  25.442  1.00  0.00     0.110 C 
ATOM     13  C   UNL A   1      34.193  24.070  26.109  1.00  0.00     0.028 C 
BRANCH  12  14
ATOM     14  S   UNL A   1      33.860  21.489  25.028  1.00  0.00    -0.145 SA
BRANCH  14  15
ATOM     15  C   UNL A   1      32.361  20.438  25.005  1.00  0.00     0.131 C 
BRANCH  15  16
ATOM     16  C   UNL A   1      32.733  18.952  25.105  1.00  0.00     0.269 C 
BRANCH  16  17
ATOM     17  N   UNL A   1      32.898  18.532  26.490  1.00  0.00    -0.357 N 
ATOM     18  H   UNL A   1      32.595  17.563  26.591  1.00  0.00     0.344 HD
ATOM     19  H   UNL A   1      32.336  19.130  27.096  1.00  0.00     0.344 HD
ATOM     20  H   UNL A   1      33.881  18.609  26.753  1.00  0.00     0.344 HD
ENDBRANCH  16  17
ENDBRANCH  15  16
ENDBRANCH  14  15
ENDBRANCH  12  14
ENDBRANCH   8  12
ENDBRANCH   4   7
ENDBRANCH   2   3
ENDBRANCH   1   2
BRANCH   1  21
ATOM     21  C   UNL A   1      30.777  28.489  23.878  1.00  0.00     0.002 C 
BRANCH  21  22
ATOM     22  C   UNL A   1      31.453  27.781  25.060  1.00  0.00     0.002 C 
BRANCH  22  23
ATOM     23  C   UNL A   1      31.755  28.678  26.263  1.00  0.00     0.021 C 
BRANCH  23  24
ATOM     24  C   UNL A   1      33.014  29.520  26.108  1.00  0.00     0.116 C 
BRANCH  24  25
ATOM     25  N   UNL A   1      32.754  30.927  26.365  1.00  0.00    -0.352 N 
ATOM     26  C   UNL A   1      33.374  31.772  27.251  1.00  0.00     0.251 C 
ATOM     27  H   UNL A   1      32.033  31.330  25.830  1.00  0.00     0.163 HD
ATOM     28  O   UNL A   1      32.892  32.867  27.512  1.00  0.00    -0.269 OA
BRANCH  26  29
ATOM     29  C   UNL A   1      34.628  31.341  27.902  1.00  0.00     0.039 A 
ATOM     30  C   UNL A   1      35.684  32.248  28.009  1.00  0.00     0.014 A 
ATOM     31  C   UNL A   1      34.752  30.045  28.413  1.00  0.00     0.014 A 
ATOM     32  C   UNL A   1      36.847  31.873  28.684  1.00  0.00     0.010 A 
ATOM     33  C   UNL A   1      35.876  29.701  29.152  1.00  0.00     0.010 A 
ATOM     34  C   UNL A   1      36.938  30.608  29.290  1.00  0.00    -0.014 A 
BRANCH  34  35
ATOM     35  C   UNL A   1      38.135  30.216  30.074  1.00  0.00     0.031 A 
ATOM     36  C   UNL A   1      39.125  29.242  29.501  1.00  0.00     0.074 A 
ATOM     37  C   UNL A   1      38.293  30.685  31.328  1.00  0.00     0.049 A 
ATOM     38  N   UNL A   1      40.191  28.722  30.055  1.00  0.00    -0.248 NA
ATOM     39  C   UNL A   1      38.867  28.766  28.133  1.00  0.00     0.031 C 
ATOM     40  C   UNL A   1      37.375  31.598  32.010  1.00  0.00     0.029 A 
ATOM     41  N   UNL A   1      39.277  30.449  32.255  1.00  0.00    -0.354 N 
ATOM     42  C   UNL A   1      40.720  27.852  29.111  1.00  0.00     0.074 A 
ATOM     43  C   UNL A   1      39.827  27.868  27.973  1.00  0.00     0.031 C 
ATOM     44  C   UNL A   1      37.850  31.865  33.237  1.00  0.00     0.029 A 
ATOM     45  C   UNL A   1      39.082  31.109  33.444  1.00  0.00     0.049 A 
ATOM     46  H   UNL A   1      40.049  29.863  32.084  1.00  0.00     0.167 HD
ATOM     47  C   UNL A   1      41.862  27.126  29.177  1.00  0.00     0.037 A 
ATOM     48  C   UNL A   1      39.810  31.098  34.576  1.00  0.00     0.037 A 
ATOM     49  C   UNL A   1      42.756  27.131  30.304  1.00  0.00     0.049 A 
ATOM     50  C   UNL A   1      41.066  30.270  34.631  1.00  0.00     0.074 A 
ATOM     51  C   UNL A   1      43.966  26.475  30.450  1.00  0.00     0.029 A 
ATOM     52  N   UNL A   1      42.534  27.825  31.485  1.00  0.00    -0.354 N 
ATOM     53  N   UNL A   1      41.595  29.506  33.705  1.00  0.00    -0.248 NA
ATOM     54  C   UNL A   1      41.832  30.308  35.885  1.00  0.00     0.031 C 
ATOM     55  C   UNL A   1      44.447  26.726  31.738  1.00  0.00     0.029 A 
ATOM     56  C   UNL A   1      43.571  27.591  32.373  1.00  0.00     0.049 A 
ATOM     57  H   UNL A   1      41.753  28.399  31.666  1.00  0.00     0.167 HD
ATOM     58  C   UNL A   1      42.770  29.003  34.250  1.00  0.00     0.074 A 
ATOM     59  C   UNL A   1      42.881  29.556  35.583  1.00  0.00     0.031 C 
ATOM     60  C   UNL A   1      43.675  28.162  33.693  1.00  0.00     0.037 A 
BRANCH  47  61
ATOM     61  C   UNL A   1      42.208  26.263  27.996  1.00  0.00     0.064 A 
ATOM     62  C   UNL A   1      41.631  24.997  27.813  1.00  0.00     0.173 A 
ATOM     63  C   UNL A   1      43.100  26.723  27.016  1.00  0.00     0.173 A 
ATOM     64  F   UNL A   1      40.780  24.504  28.726  1.00  0.00    -0.203 F 
ATOM     65  C   UNL A   1      41.960  24.210  26.712  1.00  0.00     0.198 A 
ATOM     66  C   UNL A   1      43.399  25.949  25.898  1.00  0.00     0.198 A 
ATOM     67  F   UNL A   1      43.675  27.929  27.135  1.00  0.00    -0.203 F 
ATOM     68  F   UNL A   1      41.439  22.982  26.589  1.00  0.00    -0.200 F 
ATOM     69  C   UNL A   1      42.837  24.691  25.752  1.00  0.00     0.200 A 
ATOM     70  F   UNL A   1      44.236  26.421  24.962  1.00  0.00    -0.200 F 
ATOM     71  F   UNL A   1      43.146  23.936  24.688  1.00  0.00    -0.200 F 
ENDBRANCH  47  61
BRANCH  48  72
ATOM     72  C   UNL A   1      39.383  31.915  35.743  1.00  0.00     0.064 A 
ATOM     73  C   UNL A   1      38.423  31.437  36.645  1.00  0.00     0.173 A 
ATOM     74  C   UNL A   1      39.920  33.189  35.978  1.00  0.00     0.173 A 
ATOM     75  F   UNL A   1      37.866  30.231  36.453  1.00  0.00    -0.203 F 
ATOM     76  C   UNL A   1      37.998  32.209  37.724  1.00  0.00     0.198 A 
ATOM     77  C   UNL A   1      39.518  33.949  37.075  1.00  0.00     0.198 A 
ATOM     78  F   UNL A   1      40.847  33.692  35.149  1.00  0.00    -0.203 F 
ATOM     79  F   UNL A   1      37.044  31.747  38.542  1.00  0.00    -0.200 F 
ATOM     80  C   UNL A   1      38.550  33.463  37.941  1.00  0.00     0.200 A 
ATOM     81  F   UNL A   1      40.066  35.152  37.291  1.00  0.00    -0.200 F 
ATOM     82  F   UNL A   1      38.146  34.204  38.981  1.00  0.00    -0.200 F 
ENDBRANCH  48  72
BRANCH  60  83
ATOM     83  C   UNL A   1      44.895  27.824  34.501  1.00  0.00     0.064 A 
ATOM     84  C   UNL A   1      44.943  26.700  35.336  1.00  0.00     0.173 A 
ATOM     85  C   UNL A   1      46.053  28.611  34.394  1.00  0.00     0.173 A 
ATOM     86  F   UNL A   1      43.858  25.923  35.486  1.00  0.00    -0.203 F 
ATOM     87  C   UNL A   1      46.095  26.388  36.052  1.00  0.00     0.198 A 
ATOM     88  C   UNL A   1      47.214  28.278  35.083  1.00  0.00     0.198 A 
ATOM     89  F   UNL A   1      46.063  29.695  33.601  1.00  0.00    -0.203 F 
ATOM     90  F   UNL A   1      46.104  25.334  36.881  1.00  0.00    -0.200 F 
ATOM     91  C   UNL A   1      47.232  27.171  35.917  1.00  0.00     0.200 A 
ATOM     92  F   UNL A   1      48.315  29.027  34.939  1.00  0.00    -0.200 F 
ATOM     93  F   UNL A   1      48.346  26.862  36.597  1.00  0.00    -0.200 F 
ENDBRANCH  60  83
ENDBRANCH  34  35
ENDBRANCH  26  29
ENDBRANCH  24  25
ENDBRANCH  23  24
ENDBRANCH  22  23
ENDBRANCH  21  22
ENDBRANCH   1  21
TORSDOF 18
ENDMDL
