MODEL 1
REMARK VINA RESULT:     -13.0      0.000      0.000
REMARK SMILES Cc1ccc(F)c(C(=O)N[C@@H]2C=C[C@@H](C(=O)NCCCCCCNC(=O)c3ccc(-c4c5nc(c(-c6c(F)c(F)c(F)c(F)c6F)c6ccc([nH]6)c(-c6c(F)c(F)c(F)c(F)c6F)c6nc(c(-c7c(F)c(F)c(F)c(F)c7F)c7ccc4[nH]7)C=C6)C=C5)cc3)C2)c1
REMARK SMILES IDX 20 1 19 2 18 3 17 4 15 5 16 6 14 8 11 9 12 10 90 11 13 12
REMARK SMILES IDX 10 13 8 14 9 15 7 17 1 18 2 19 3 20 91 21 4 22 5 23 6 24
REMARK SMILES IDX 21 25 22 26 23 27 24 28 25 29 26 31 27 32 28 33 89 34 29 35
REMARK SMILES IDX 88 36 30 37 31 38 32 39 82 40 33 41 87 42 81 43 83 44 34 45
REMARK SMILES IDX 86 46 80 47 79 48 35 50 67 51 47 52 66 53 48 54 51 55 65 56
REMARK SMILES IDX 84 57 49 58 50 59 64 61 85 62 52 63 36 64 37 65 45 66 38 67
REMARK SMILES IDX 39 68 43 69 46 70 40 71 41 72 44 73 42 74 68 75 69 76 77 77
REMARK SMILES IDX 70 78 71 79 75 80 78 81 72 82 73 83 76 84 74 85 53 86 54 87
REMARK SMILES IDX 62 88 55 89 56 90 60 91 63 92 57 93 58 94 61 95 59 96
REMARK H PARENT 17 7 10 16 24 30 83 49 51 60
REMARK Flexibility Score: inf
ROOT
ATOM      1  C   UNL A   1      35.009  21.768  24.233  1.00  0.00     0.002 C 
ENDROOT
BRANCH   1   2
ATOM      2  C   UNL A   1      34.645  22.945  23.325  1.00  0.00     0.021 C 
BRANCH   2   3
ATOM      3  C   UNL A   1      33.236  22.867  22.744  1.00  0.00     0.116 C 
BRANCH   3   4
ATOM      4  N   UNL A   1      33.081  23.663  21.547  1.00  0.00    -0.356 N 
ATOM      5  C   UNL A   1      32.924  25.001  21.379  1.00  0.00     0.227 C 
ATOM      6  O   UNL A   1      32.980  25.425  20.220  1.00  0.00    -0.274 OA
ATOM      7  H   UNL A   1      33.091  23.145  20.710  1.00  0.00     0.163 HD
BRANCH   5   8
ATOM      8  C   UNL A   1      32.592  25.952  22.534  1.00  0.00     0.103 C 
ATOM      9  C   UNL A   1      33.722  28.099  22.993  1.00  0.00     0.106 C 
ATOM     10  C   UNL A   1      32.296  28.287  22.582  1.00  0.00    -0.006 C 
ATOM     11  C   UNL A   1      33.854  26.577  23.122  1.00  0.00     0.047 C 
ATOM     12  C   UNL A   1      31.708  27.126  22.261  1.00  0.00    -0.016 C 
BRANCH   9  13
ATOM     13  N   UNL A   1      34.036  28.851  24.183  1.00  0.00    -0.346 N 
ATOM     14  C   UNL A   1      33.824  28.543  25.514  1.00  0.00     0.254 C 
ATOM     15  O   UNL A   1      34.373  29.241  26.363  1.00  0.00    -0.269 OA
ATOM     16  H   UNL A   1      34.467  29.721  24.023  1.00  0.00     0.164 HD
BRANCH  14  17
ATOM     17  C   UNL A   1      32.898  27.455  25.932  1.00  0.00     0.075 A 
ATOM     18  C   UNL A   1      32.898  23.684  26.402  1.00  0.00     0.044 C 
ATOM     19  C   UNL A   1      32.412  25.104  26.348  1.00  0.00    -0.050 A 
ATOM     20  C   UNL A   1      31.043  25.370  26.257  1.00  0.00     0.006 A 
ATOM     21  C   UNL A   1      33.324  26.173  26.302  1.00  0.00     0.020 A 
ATOM     22  C   UNL A   1      30.601  26.673  26.045  1.00  0.00     0.040 A 
ATOM     23  C   UNL A   1      31.524  27.698  25.850  1.00  0.00     0.135 A 
ATOM     24  F   UNL A   1      31.049  28.909  25.524  1.00  0.00    -0.206 F 
ENDBRANCH  14  17
ENDBRANCH   9  13
ENDBRANCH   5   8
ENDBRANCH   3   4
ENDBRANCH   2   3
ENDBRANCH   1   2
BRANCH   1  25
ATOM     25  C   UNL A   1      36.180  22.050  25.186  1.00  0.00     0.002 C 
BRANCH  25  26
ATOM     26  C   UNL A   1      37.001  23.305  24.858  1.00  0.00     0.021 C 
BRANCH  26  27
ATOM     27  C   UNL A   1      37.439  24.025  26.109  1.00  0.00     0.116 C 
BRANCH  27  28
ATOM     28  N   UNL A   1      38.528  23.305  26.754  1.00  0.00    -0.352 N 
ATOM     29  C   UNL A   1      39.716  23.829  27.202  1.00  0.00     0.251 C 
ATOM     30  H   UNL A   1      38.397  22.337  26.884  1.00  0.00     0.163 HD
ATOM     31  O   UNL A   1      40.714  23.141  27.328  1.00  0.00    -0.269 OA
BRANCH  29  32
ATOM     32  C   UNL A   1      39.721  25.245  27.593  1.00  0.00     0.039 A 
ATOM     33  C   UNL A   1      40.268  26.232  26.767  1.00  0.00     0.014 A 
ATOM     34  C   UNL A   1      39.250  25.545  28.869  1.00  0.00     0.014 A 
ATOM     35  C   UNL A   1      40.386  27.524  27.262  1.00  0.00     0.010 A 
ATOM     36  C   UNL A   1      39.167  26.833  29.269  1.00  0.00     0.010 A 
ATOM     37  C   UNL A   1      39.851  27.787  28.523  1.00  0.00    -0.014 A 
BRANCH  37  38
ATOM     38  C   UNL A   1      39.954  29.034  29.237  1.00  0.00     0.031 A 
ATOM     39  C   UNL A   1      38.945  30.051  28.974  1.00  0.00     0.074 A 
ATOM     40  C   UNL A   1      40.840  29.019  30.260  1.00  0.00     0.049 A 
ATOM     41  N   UNL A   1      39.074  31.279  29.308  1.00  0.00    -0.248 NA
ATOM     42  C   UNL A   1      37.707  29.777  28.245  1.00  0.00     0.031 C 
ATOM     43  C   UNL A   1      40.982  29.884  31.416  1.00  0.00     0.029 A 
ATOM     44  N   UNL A   1      41.941  28.145  30.364  1.00  0.00    -0.354 N 
ATOM     45  C   UNL A   1      37.834  31.856  29.177  1.00  0.00     0.074 A 
ATOM     46  C   UNL A   1      37.101  30.967  28.313  1.00  0.00     0.031 C 
ATOM     47  C   UNL A   1      42.239  29.752  31.889  1.00  0.00     0.029 A 
ATOM     48  C   UNL A   1      42.970  28.900  30.959  1.00  0.00     0.049 A 
ATOM     49  H   UNL A   1      41.981  27.204  30.081  1.00  0.00     0.167 HD
ATOM     50  C   UNL A   1      37.550  32.919  29.980  1.00  0.00     0.037 A 
ATOM     51  C   UNL A   1      43.994  29.292  30.136  1.00  0.00     0.037 A 
ATOM     52  C   UNL A   1      38.759  33.294  30.729  1.00  0.00     0.049 A 
ATOM     53  C   UNL A   1      43.918  30.766  29.800  1.00  0.00     0.074 A 
ATOM     54  C   UNL A   1      39.223  33.060  32.012  1.00  0.00     0.029 A 
ATOM     55  N   UNL A   1      39.864  33.686  29.997  1.00  0.00    -0.354 N 
ATOM     56  N   UNL A   1      42.899  31.527  30.103  1.00  0.00    -0.248 NA
ATOM     57  C   UNL A   1      44.965  31.503  29.099  1.00  0.00     0.031 C 
ATOM     58  C   UNL A   1      40.653  33.223  31.993  1.00  0.00     0.029 A 
ATOM     59  C   UNL A   1      41.040  33.580  30.710  1.00  0.00     0.049 A 
ATOM     60  H   UNL A   1      39.817  34.005  29.067  1.00  0.00     0.167 HD
ATOM     61  C   UNL A   1      43.143  32.811  29.729  1.00  0.00     0.074 A 
ATOM     62  C   UNL A   1      44.434  32.739  29.060  1.00  0.00     0.031 C 
ATOM     63  C   UNL A   1      42.289  33.843  30.004  1.00  0.00     0.037 A 
BRANCH  50  64
ATOM     64  C   UNL A   1      36.190  33.524  30.245  1.00  0.00     0.064 A 
ATOM     65  C   UNL A   1      35.452  34.054  29.164  1.00  0.00     0.173 A 
ATOM     66  C   UNL A   1      35.574  33.682  31.506  1.00  0.00     0.173 A 
ATOM     67  F   UNL A   1      35.906  33.967  27.906  1.00  0.00    -0.203 F 
ATOM     68  C   UNL A   1      34.223  34.699  29.334  1.00  0.00     0.198 A 
ATOM     69  C   UNL A   1      34.328  34.296  31.669  1.00  0.00     0.198 A 
ATOM     70  F   UNL A   1      36.148  33.292  32.643  1.00  0.00    -0.203 F 
ATOM     71  F   UNL A   1      33.592  35.214  28.269  1.00  0.00    -0.200 F 
ATOM     72  C   UNL A   1      33.657  34.815  30.585  1.00  0.00     0.200 A 
ATOM     73  F   UNL A   1      33.795  34.392  32.897  1.00  0.00    -0.200 F 
ATOM     74  F   UNL A   1      32.477  35.427  30.749  1.00  0.00    -0.200 F 
ENDBRANCH  50  64
BRANCH  51  75
ATOM     75  C   UNL A   1      44.400  28.158  29.232  1.00  0.00     0.064 A 
ATOM     76  C   UNL A   1      44.174  28.374  27.853  1.00  0.00     0.173 A 
ATOM     77  C   UNL A   1      45.439  27.282  29.577  1.00  0.00     0.173 A 
ATOM     78  F   UNL A   1      43.153  29.153  27.460  1.00  0.00    -0.203 F 
ATOM     79  C   UNL A   1      45.105  27.972  26.899  1.00  0.00     0.198 A 
ATOM     80  C   UNL A   1      46.334  26.824  28.602  1.00  0.00     0.198 A 
ATOM     81  F   UNL A   1      45.681  26.987  30.863  1.00  0.00    -0.203 F 
ATOM     82  F   UNL A   1      44.984  28.393  25.630  1.00  0.00    -0.200 F 
ATOM     83  C   UNL A   1      46.213  27.241  27.282  1.00  0.00     0.200 A 
ATOM     84  F   UNL A   1      47.369  26.050  28.957  1.00  0.00    -0.200 F 
ATOM     85  F   UNL A   1      47.180  26.979  26.391  1.00  0.00    -0.200 F 
ENDBRANCH  51  75
BRANCH  63  86
ATOM     86  C   UNL A   1      42.594  35.242  29.570  1.00  0.00     0.064 A 
ATOM     87  C   UNL A   1      43.393  36.095  30.342  1.00  0.00     0.173 A 
ATOM     88  C   UNL A   1      42.032  35.796  28.401  1.00  0.00     0.173 A 
ATOM     89  F   UNL A   1      43.902  35.683  31.513  1.00  0.00    -0.203 F 
ATOM     90  C   UNL A   1      43.691  37.388  29.920  1.00  0.00     0.198 A 
ATOM     91  C   UNL A   1      42.264  37.112  28.024  1.00  0.00     0.198 A 
ATOM     92  F   UNL A   1      41.277  35.070  27.564  1.00  0.00    -0.203 F 
ATOM     93  F   UNL A   1      44.543  38.137  30.631  1.00  0.00    -0.200 F 
ATOM     94  C   UNL A   1      43.120  37.898  28.766  1.00  0.00     0.200 A 
ATOM     95  F   UNL A   1      41.672  37.599  26.925  1.00  0.00    -0.200 F 
ATOM     96  F   UNL A   1      43.404  39.142  28.361  1.00  0.00    -0.200 F 
ENDBRANCH  63  86
ENDBRANCH  37  38
ENDBRANCH  29  32
ENDBRANCH  27  28
ENDBRANCH  26  27
ENDBRANCH  25  26
ENDBRANCH   1  25
TORSDOF 15
ENDMDL
MODEL 2
REMARK VINA RESULT:     -12.9      3.647      9.577
REMARK SMILES Cc1ccc(F)c(C(=O)N[C@@H]2C=C[C@@H](C(=O)NCCCCCCNC(=O)c3ccc(-c4c5nc(c(-c6c(F)c(F)c(F)c(F)c6F)c6ccc([nH]6)c(-c6c(F)c(F)c(F)c(F)c6F)c6nc(c(-c7c(F)c(F)c(F)c(F)c7F)c7ccc4[nH]7)C=C6)C=C5)cc3)C2)c1
REMARK SMILES IDX 20 1 19 2 18 3 17 4 15 5 16 6 14 8 11 9 12 10 90 11 13 12
REMARK SMILES IDX 10 13 8 14 9 15 7 17 1 18 2 19 3 20 91 21 4 22 5 23 6 24
REMARK SMILES IDX 21 25 22 26 23 27 24 28 25 29 26 31 27 32 28 33 89 34 29 35
REMARK SMILES IDX 88 36 30 37 31 38 32 39 82 40 33 41 87 42 81 43 83 44 34 45
REMARK SMILES IDX 86 46 80 47 79 48 35 50 67 51 47 52 66 53 48 54 51 55 65 56
REMARK SMILES IDX 84 57 49 58 50 59 64 61 85 62 52 63 36 64 37 65 45 66 38 67
REMARK SMILES IDX 39 68 43 69 46 70 40 71 41 72 44 73 42 74 68 75 69 76 77 77
REMARK SMILES IDX 70 78 71 79 75 80 78 81 72 82 73 83 76 84 74 85 53 86 54 87
REMARK SMILES IDX 62 88 55 89 56 90 60 91 63 92 57 93 58 94 61 95 59 96
REMARK H PARENT 17 7 10 16 24 30 83 49 51 60
REMARK Flexibility Score: inf
ROOT
ATOM      1  C   UNL A   1      31.826  28.642  25.044  1.00  0.00     0.002 C 
ENDROOT
BRANCH   1   2
ATOM      2  C   UNL A   1      32.582  28.956  23.752  1.00  0.00     0.021 C 
BRANCH   2   3
ATOM      3  C   UNL A   1      33.779  28.044  23.497  1.00  0.00     0.116 C 
BRANCH   3   4
ATOM      4  N   UNL A   1      33.677  27.328  22.245  1.00  0.00    -0.356 N 
ATOM      5  C   UNL A   1      33.298  26.052  21.974  1.00  0.00     0.227 C 
ATOM      6  O   UNL A   1      33.149  25.758  20.784  1.00  0.00    -0.274 OA
ATOM      7  H   UNL A   1      33.926  27.856  21.452  1.00  0.00     0.163 HD
BRANCH   5   8
ATOM      8  C   UNL A   1      33.151  24.979  23.060  1.00  0.00     0.103 C 
ATOM      9  C   UNL A   1      31.015  24.047  23.875  1.00  0.00     0.106 C 
ATOM     10  C   UNL A   1      31.834  23.031  23.144  1.00  0.00    -0.006 C 
ATOM     11  C   UNL A   1      31.953  25.258  23.961  1.00  0.00     0.047 C 
ATOM     12  C   UNL A   1      32.957  23.559  22.637  1.00  0.00    -0.016 C 
BRANCH   9  13
ATOM     13  N   UNL A   1      30.542  23.539  25.139  1.00  0.00    -0.346 N 
ATOM     14  C   UNL A   1      31.243  22.997  26.200  1.00  0.00     0.254 C 
ATOM     15  O   UNL A   1      30.648  22.833  27.263  1.00  0.00    -0.269 OA
ATOM     16  H   UNL A   1      29.568  23.585  25.266  1.00  0.00     0.164 HD
BRANCH  14  17
ATOM     17  C   UNL A   1      32.653  22.539  26.061  1.00  0.00     0.075 A 
ATOM     18  C   UNL A   1      36.149  24.003  25.774  1.00  0.00     0.044 C 
ATOM     19  C   UNL A   1      35.035  22.997  25.829  1.00  0.00    -0.050 A 
ATOM     20  C   UNL A   1      35.234  21.708  25.328  1.00  0.00     0.006 A 
ATOM     21  C   UNL A   1      33.762  23.360  26.302  1.00  0.00     0.020 A 
ATOM     22  C   UNL A   1      34.162  20.827  25.229  1.00  0.00     0.040 A 
ATOM     23  C   UNL A   1      32.877  21.254  25.561  1.00  0.00     0.135 A 
ATOM     24  F   UNL A   1      31.862  20.409  25.329  1.00  0.00    -0.206 F 
ENDBRANCH  14  17
ENDBRANCH   9  13
ENDBRANCH   5   8
ENDBRANCH   3   4
ENDBRANCH   2   3
ENDBRANCH   1   2
BRANCH   1  25
ATOM     25  C   UNL A   1      32.190  29.557  26.223  1.00  0.00     0.002 C 
BRANCH  25  26
ATOM     26  C   UNL A   1      32.987  28.885  27.349  1.00  0.00     0.021 C 
BRANCH  26  27
ATOM     27  C   UNL A   1      34.474  28.975  27.107  1.00  0.00     0.116 C 
BRANCH  27  28
ATOM     28  N   UNL A   1      34.908  30.364  27.129  1.00  0.00    -0.352 N 
ATOM     29  C   UNL A   1      35.962  30.891  27.836  1.00  0.00     0.251 C 
ATOM     30  H   UNL A   1      34.390  30.994  26.577  1.00  0.00     0.163 HD
ATOM     31  O   UNL A   1      36.005  32.070  28.141  1.00  0.00    -0.269 OA
BRANCH  29  32
ATOM     32  C   UNL A   1      37.078  29.989  28.150  1.00  0.00     0.039 A 
ATOM     33  C   UNL A   1      37.135  29.286  29.358  1.00  0.00     0.014 A 
ATOM     34  C   UNL A   1      38.127  29.947  27.236  1.00  0.00     0.014 A 
ATOM     35  C   UNL A   1      38.289  28.577  29.662  1.00  0.00     0.010 A 
ATOM     36  C   UNL A   1      39.155  29.091  27.432  1.00  0.00     0.010 A 
ATOM     37  C   UNL A   1      39.290  28.520  28.692  1.00  0.00    -0.014 A 
BRANCH  37  38
ATOM     38  C   UNL A   1      40.586  27.914  28.855  1.00  0.00     0.031 A 
ATOM     39  C   UNL A   1      40.698  26.480  28.620  1.00  0.00     0.074 A 
ATOM     40  C   UNL A   1      41.605  28.796  28.967  1.00  0.00     0.049 A 
ATOM     41  N   UNL A   1      41.696  25.776  29.000  1.00  0.00    -0.248 NA
ATOM     42  C   UNL A   1      39.647  25.693  27.976  1.00  0.00     0.031 C 
ATOM     43  C   UNL A   1      43.035  28.638  28.778  1.00  0.00     0.029 A 
ATOM     44  N   UNL A   1      41.477  30.128  29.411  1.00  0.00    -0.354 N 
ATOM     45  C   UNL A   1      41.596  24.568  28.353  1.00  0.00     0.074 A 
ATOM     46  C   UNL A   1      40.222  24.486  27.931  1.00  0.00     0.031 C 
ATOM     47  C   UNL A   1      43.660  29.646  29.421  1.00  0.00     0.029 A 
ATOM     48  C   UNL A   1      42.644  30.395  30.151  1.00  0.00     0.049 A 
ATOM     49  H   UNL A   1      40.728  30.742  29.239  1.00  0.00     0.167 HD
ATOM     50  C   UNL A   1      42.753  23.892  28.108  1.00  0.00     0.037 A 
ATOM     51  C   UNL A   1      42.504  30.453  31.514  1.00  0.00     0.037 A 
ATOM     52  C   UNL A   1      43.870  24.594  28.758  1.00  0.00     0.049 A 
ATOM     53  C   UNL A   1      43.070  29.224  32.193  1.00  0.00     0.074 A 
ATOM     54  C   UNL A   1      44.852  25.470  28.329  1.00  0.00     0.029 A 
ATOM     55  N   UNL A   1      43.821  24.731  30.133  1.00  0.00    -0.354 N 
ATOM     56  N   UNL A   1      43.471  28.159  31.548  1.00  0.00    -0.248 NA
ATOM     57  C   UNL A   1      43.229  29.084  33.637  1.00  0.00     0.031 C 
ATOM     58  C   UNL A   1      45.311  26.204  29.478  1.00  0.00     0.029 A 
ATOM     59  C   UNL A   1      44.626  25.752  30.595  1.00  0.00     0.049 A 
ATOM     60  H   UNL A   1      43.272  24.161  30.718  1.00  0.00     0.167 HD
ATOM     61  C   UNL A   1      43.984  27.248  32.418  1.00  0.00     0.074 A 
ATOM     62  C   UNL A   1      43.767  27.854  33.724  1.00  0.00     0.031 C 
ATOM     63  C   UNL A   1      44.562  26.076  32.016  1.00  0.00     0.037 A 
BRANCH  50  64
ATOM     64  C   UNL A   1      42.944  22.723  27.169  1.00  0.00     0.064 A 
ATOM     65  C   UNL A   1      42.233  21.526  27.408  1.00  0.00     0.173 A 
ATOM     66  C   UNL A   1      43.831  22.665  26.072  1.00  0.00     0.173 A 
ATOM     67  F   UNL A   1      41.345  21.435  28.409  1.00  0.00    -0.203 F 
ATOM     68  C   UNL A   1      42.410  20.376  26.633  1.00  0.00     0.198 A 
ATOM     69  C   UNL A   1      43.981  21.524  25.277  1.00  0.00     0.198 A 
ATOM     70  F   UNL A   1      44.623  23.681  25.730  1.00  0.00    -0.203 F 
ATOM     71  F   UNL A   1      41.732  19.260  26.939  1.00  0.00    -0.200 F 
ATOM     72  C   UNL A   1      43.279  20.375  25.563  1.00  0.00     0.200 A 
ATOM     73  F   UNL A   1      44.829  21.550  24.237  1.00  0.00    -0.200 F 
ATOM     74  F   UNL A   1      43.446  19.276  24.817  1.00  0.00    -0.200 F 
ENDBRANCH  50  64
BRANCH  51  75
ATOM     75  C   UNL A   1      41.262  31.220  31.879  1.00  0.00     0.064 A 
ATOM     76  C   UNL A   1      40.239  30.459  32.491  1.00  0.00     0.173 A 
ATOM     77  C   UNL A   1      41.309  32.587  32.187  1.00  0.00     0.173 A 
ATOM     78  F   UNL A   1      40.104  29.158  32.187  1.00  0.00    -0.203 F 
ATOM     79  C   UNL A   1      39.502  30.968  33.558  1.00  0.00     0.198 A 
ATOM     80  C   UNL A   1      40.514  33.110  33.216  1.00  0.00     0.198 A 
ATOM     81  F   UNL A   1      42.217  33.384  31.606  1.00  0.00    -0.203 F 
ATOM     82  F   UNL A   1      38.709  30.153  34.271  1.00  0.00    -0.200 F 
ATOM     83  C   UNL A   1      39.678  32.281  33.953  1.00  0.00     0.200 A 
ATOM     84  F   UNL A   1      40.625  34.402  33.553  1.00  0.00    -0.200 F 
ATOM     85  F   UNL A   1      39.079  32.728  35.065  1.00  0.00    -0.200 F 
ENDBRANCH  51  75
BRANCH  63  86
ATOM     86  C   UNL A   1      45.110  25.098  33.007  1.00  0.00     0.064 A 
ATOM     87  C   UNL A   1      44.271  24.275  33.769  1.00  0.00     0.173 A 
ATOM     88  C   UNL A   1      46.491  25.011  33.277  1.00  0.00     0.173 A 
ATOM     89  F   UNL A   1      42.938  24.349  33.642  1.00  0.00    -0.203 F 
ATOM     90  C   UNL A   1      44.791  23.352  34.674  1.00  0.00     0.198 A 
ATOM     91  C   UNL A   1      47.001  24.147  34.238  1.00  0.00     0.198 A 
ATOM     92  F   UNL A   1      47.395  25.724  32.592  1.00  0.00    -0.203 F 
ATOM     93  F   UNL A   1      43.965  22.509  35.306  1.00  0.00    -0.200 F 
ATOM     94  C   UNL A   1      46.153  23.295  34.913  1.00  0.00     0.200 A 
ATOM     95  F   UNL A   1      48.317  24.133  34.483  1.00  0.00    -0.200 F 
ATOM     96  F   UNL A   1      46.652  22.408  35.784  1.00  0.00    -0.200 F 
ENDBRANCH  63  86
ENDBRANCH  37  38
ENDBRANCH  29  32
ENDBRANCH  27  28
ENDBRANCH  26  27
ENDBRANCH  25  26
ENDBRANCH   1  25
TORSDOF 15
ENDMDL
MODEL 3
REMARK VINA RESULT:     -12.9      3.493      9.476
REMARK SMILES Cc1ccc(F)c(C(=O)N[C@@H]2C=C[C@@H](C(=O)NCCCCCCNC(=O)c3ccc(-c4c5nc(c(-c6c(F)c(F)c(F)c(F)c6F)c6ccc([nH]6)c(-c6c(F)c(F)c(F)c(F)c6F)c6nc(c(-c7c(F)c(F)c(F)c(F)c7F)c7ccc4[nH]7)C=C6)C=C5)cc3)C2)c1
REMARK SMILES IDX 20 1 19 2 18 3 17 4 15 5 16 6 14 8 11 9 12 10 90 11 13 12
REMARK SMILES IDX 10 13 8 14 9 15 7 17 1 18 2 19 3 20 91 21 4 22 5 23 6 24
REMARK SMILES IDX 21 25 22 26 23 27 24 28 25 29 26 31 27 32 28 33 89 34 29 35
REMARK SMILES IDX 88 36 30 37 31 38 32 39 82 40 33 41 87 42 81 43 83 44 34 45
REMARK SMILES IDX 86 46 80 47 79 48 35 50 67 51 47 52 66 53 48 54 51 55 65 56
REMARK SMILES IDX 84 57 49 58 50 59 64 61 85 62 52 63 36 64 37 65 45 66 38 67
REMARK SMILES IDX 39 68 43 69 46 70 40 71 41 72 44 73 42 74 68 75 69 76 77 77
REMARK SMILES IDX 70 78 71 79 75 80 78 81 72 82 73 83 76 84 74 85 53 86 54 87
REMARK SMILES IDX 62 88 55 89 56 90 60 91 63 92 57 93 58 94 61 95 59 96
REMARK H PARENT 17 7 10 16 24 30 83 49 51 60
REMARK Flexibility Score: inf
ROOT
ATOM      1  C   UNL A   1      33.050  27.931  23.436  1.00  0.00     0.002 C 
ENDROOT
BRANCH   1   2
ATOM      2  C   UNL A   1      31.568  27.832  23.068  1.00  0.00     0.021 C 
BRANCH   2   3
ATOM      3  C   UNL A   1      30.849  26.646  23.705  1.00  0.00     0.116 C 
BRANCH   3   4
ATOM      4  N   UNL A   1      30.842  26.709  25.150  1.00  0.00    -0.356 N 
ATOM      5  C   UNL A   1      31.458  25.936  26.081  1.00  0.00     0.227 C 
ATOM      6  O   UNL A   1      31.403  26.325  27.251  1.00  0.00    -0.274 OA
ATOM      7  H   UNL A   1      30.296  27.439  25.523  1.00  0.00     0.163 HD
BRANCH   5   8
ATOM      8  C   UNL A   1      32.110  24.589  25.744  1.00  0.00     0.103 C 
ATOM      9  C   UNL A   1      33.797  23.430  27.124  1.00  0.00     0.106 C 
ATOM     10  C   UNL A   1      32.502  22.684  27.069  1.00  0.00    -0.006 C 
ATOM     11  C   UNL A   1      33.587  24.575  26.126  1.00  0.00     0.047 C 
ATOM     12  C   UNL A   1      31.564  23.353  26.382  1.00  0.00    -0.016 C 
BRANCH   9  13
ATOM     13  N   UNL A   1      34.920  22.566  26.849  1.00  0.00    -0.346 N 
ATOM     14  C   UNL A   1      35.321  21.977  25.665  1.00  0.00     0.254 C 
ATOM     15  O   UNL A   1      36.434  21.457  25.626  1.00  0.00    -0.269 OA
ATOM     16  H   UNL A   1      35.488  22.365  27.626  1.00  0.00     0.164 HD
BRANCH  14  17
ATOM     17  C   UNL A   1      34.418  21.887  24.484  1.00  0.00     0.075 A 
ATOM     18  C   UNL A   1      32.981  24.128  21.771  1.00  0.00     0.044 C 
ATOM     19  C   UNL A   1      33.252  22.907  22.604  1.00  0.00    -0.050 A 
ATOM     20  C   UNL A   1      32.367  21.826  22.566  1.00  0.00     0.006 A 
ATOM     21  C   UNL A   1      34.344  22.870  23.489  1.00  0.00     0.020 A 
ATOM     22  C   UNL A   1      32.527  20.766  23.452  1.00  0.00     0.040 A 
ATOM     23  C   UNL A   1      33.524  20.815  24.425  1.00  0.00     0.135 A 
ATOM     24  F   UNL A   1      33.557  19.829  25.333  1.00  0.00    -0.206 F 
ENDBRANCH  14  17
ENDBRANCH   9  13
ENDBRANCH   5   8
ENDBRANCH   3   4
ENDBRANCH   2   3
ENDBRANCH   1   2
BRANCH   1  25
ATOM     25  C   UNL A   1      33.346  28.895  24.595  1.00  0.00     0.002 C 
BRANCH  25  26
ATOM     26  C   UNL A   1      34.250  28.330  25.699  1.00  0.00     0.021 C 
BRANCH  26  27
ATOM     27  C   UNL A   1      33.900  28.903  27.050  1.00  0.00     0.116 C 
BRANCH  27  28
ATOM     28  N   UNL A   1      34.203  30.326  27.092  1.00  0.00    -0.352 N 
ATOM     29  C   UNL A   1      35.177  30.944  27.839  1.00  0.00     0.251 C 
ATOM     30  H   UNL A   1      33.650  30.909  26.522  1.00  0.00     0.163 HD
ATOM     31  O   UNL A   1      35.099  32.120  28.148  1.00  0.00    -0.269 OA
BRANCH  29  32
ATOM     32  C   UNL A   1      36.359  30.147  28.192  1.00  0.00     0.039 A 
ATOM     33  C   UNL A   1      36.495  29.557  29.453  1.00  0.00     0.014 A 
ATOM     34  C   UNL A   1      37.384  30.094  27.251  1.00  0.00     0.014 A 
ATOM     35  C   UNL A   1      37.702  28.953  29.778  1.00  0.00     0.010 A 
ATOM     36  C   UNL A   1      38.472  29.327  27.486  1.00  0.00     0.010 A 
ATOM     37  C   UNL A   1      38.678  28.877  28.785  1.00  0.00    -0.014 A 
BRANCH  37  38
ATOM     38  C   UNL A   1      40.017  28.372  28.957  1.00  0.00     0.031 A 
ATOM     39  C   UNL A   1      40.249  26.961  28.681  1.00  0.00     0.074 A 
ATOM     40  C   UNL A   1      40.958  29.331  29.116  1.00  0.00     0.049 A 
ATOM     41  N   UNL A   1      41.294  26.328  29.061  1.00  0.00    -0.248 NA
ATOM     42  C   UNL A   1      39.277  26.112  27.992  1.00  0.00     0.031 C 
ATOM     43  C   UNL A   1      42.399  29.294  28.953  1.00  0.00     0.029 A 
ATOM     44  N   UNL A   1      40.714  30.633  29.597  1.00  0.00    -0.354 N 
ATOM     45  C   UNL A   1      41.304  25.137  28.376  1.00  0.00     0.074 A 
ATOM     46  C   UNL A   1      39.949  24.958  27.923  1.00  0.00     0.031 C 
ATOM     47  C   UNL A   1      42.928  30.329  29.639  1.00  0.00     0.029 A 
ATOM     48  C   UNL A   1      41.842  30.970  30.369  1.00  0.00     0.049 A 
ATOM     49  H   UNL A   1      39.921  31.190  29.428  1.00  0.00     0.167 HD
ATOM     50  C   UNL A   1      42.516  24.564  28.135  1.00  0.00     0.037 A 
ATOM     51  C   UNL A   1      41.672  30.973  31.730  1.00  0.00     0.037 A 
ATOM     52  C   UNL A   1      43.560  25.334  28.829  1.00  0.00     0.049 A 
ATOM     53  C   UNL A   1      42.324  29.773  32.384  1.00  0.00     0.074 A 
ATOM     54  C   UNL A   1      44.476  26.299  28.447  1.00  0.00     0.029 A 
ATOM     55  N   UNL A   1      43.476  25.422  30.206  1.00  0.00    -0.354 N 
ATOM     56  N   UNL A   1      42.822  28.765  31.716  1.00  0.00    -0.248 NA
ATOM     57  C   UNL A   1      42.467  29.601  33.826  1.00  0.00     0.031 C 
ATOM     58  C   UNL A   1      44.852  27.031  29.627  1.00  0.00     0.029 A 
ATOM     59  C   UNL A   1      44.186  26.490  30.715  1.00  0.00     0.049 A 
ATOM     60  H   UNL A   1      42.964  24.792  30.762  1.00  0.00     0.167 HD
ATOM     61  C   UNL A   1      43.391  27.871  32.569  1.00  0.00     0.074 A 
ATOM     62  C   UNL A   1      43.102  28.416  33.887  1.00  0.00     0.031 C 
ATOM     63  C   UNL A   1      44.070  26.763  32.143  1.00  0.00     0.037 A 
BRANCH  50  64
ATOM     64  C   UNL A   1      42.820  23.445  27.166  1.00  0.00     0.064 A 
ATOM     65  C   UNL A   1      42.379  22.137  27.467  1.00  0.00     0.173 A 
ATOM     66  C   UNL A   1      43.573  23.546  25.976  1.00  0.00     0.173 A 
ATOM     67  F   UNL A   1      41.641  21.888  28.559  1.00  0.00    -0.203 F 
ATOM     68  C   UNL A   1      42.683  21.034  26.663  1.00  0.00     0.198 A 
ATOM     69  C   UNL A   1      43.846  22.448  25.155  1.00  0.00     0.198 A 
ATOM     70  F   UNL A   1      44.116  24.691  25.561  1.00  0.00    -0.203 F 
ATOM     71  F   UNL A   1      42.266  19.814  27.027  1.00  0.00    -0.200 F 
ATOM     72  C   UNL A   1      43.411  21.189  25.503  1.00  0.00     0.200 A 
ATOM     73  F   UNL A   1      44.554  22.625  24.028  1.00  0.00    -0.200 F 
ATOM     74  F   UNL A   1      43.699  20.135  24.729  1.00  0.00    -0.200 F 
ENDBRANCH  50  64
BRANCH  51  75
ATOM     75  C   UNL A   1      40.365  31.626  32.091  1.00  0.00     0.064 A 
ATOM     76  C   UNL A   1      39.420  30.780  32.716  1.00  0.00     0.173 A 
ATOM     77  C   UNL A   1      40.286  32.995  32.385  1.00  0.00     0.173 A 
ATOM     78  F   UNL A   1      39.405  29.468  32.427  1.00  0.00    -0.203 F 
ATOM     79  C   UNL A   1      38.642  31.230  33.780  1.00  0.00     0.198 A 
ATOM     80  C   UNL A   1      39.449  33.453  33.411  1.00  0.00     0.198 A 
ATOM     81  F   UNL A   1      41.115  33.866  31.791  1.00  0.00    -0.203 F 
ATOM     82  F   UNL A   1      37.929  30.353  34.505  1.00  0.00    -0.200 F 
ATOM     83  C   UNL A   1      38.696  32.558  34.161  1.00  0.00     0.200 A 
ATOM     84  F   UNL A   1      39.441  34.753  33.733  1.00  0.00    -0.200 F 
ATOM     85  F   UNL A   1      38.061  32.960  35.270  1.00  0.00    -0.200 F 
ENDBRANCH  51  75
BRANCH  63  86
ATOM     86  C   UNL A   1      44.677  25.802  33.116  1.00  0.00     0.064 A 
ATOM     87  C   UNL A   1      46.054  25.548  33.137  1.00  0.00     0.173 A 
ATOM     88  C   UNL A   1      43.886  25.049  34.008  1.00  0.00     0.173 A 
ATOM     89  F   UNL A   1      46.877  26.154  32.267  1.00  0.00    -0.203 F 
ATOM     90  C   UNL A   1      46.614  24.668  34.061  1.00  0.00     0.198 A 
ATOM     91  C   UNL A   1      44.437  24.113  34.873  1.00  0.00     0.198 A 
ATOM     92  F   UNL A   1      42.560  25.226  34.103  1.00  0.00    -0.203 F 
ATOM     93  F   UNL A   1      47.945  24.530  34.121  1.00  0.00    -0.200 F 
ATOM     94  C   UNL A   1      45.805  23.946  34.921  1.00  0.00     0.200 A 
ATOM     95  F   UNL A   1      43.635  23.396  35.671  1.00  0.00    -0.200 F 
ATOM     96  F   UNL A   1      46.344  23.099  35.808  1.00  0.00    -0.200 F 
ENDBRANCH  63  86
ENDBRANCH  37  38
ENDBRANCH  29  32
ENDBRANCH  27  28
ENDBRANCH  26  27
ENDBRANCH  25  26
ENDBRANCH   1  25
TORSDOF 15
ENDMDL
