MODEL 1
REMARK VINA RESULT:     -12.4      0.000      0.000
REMARK SMILES O=C(CCc1cccnc1)Nc1cccc(F)c1C(=O)NCCCCCCNC(=O)c1ccc(-c2c3nc(c(-c4c(F)c(F)c(F)c(F)c4F)c4ccc([nH]4)c(-c4c(F)c(F)c(F)c(F)c4F)c4nc(c(-c5c(F)c(F)c(F)c(F)c5F)c5ccc2[nH]5)C=C4)C=C3)cc1
REMARK SMILES IDX 23 1 22 2 21 3 19 4 20 5 18 7 12 8 13 9 14 10 16 11 15 12
REMARK SMILES IDX 17 13 11 14 1 15 2 16 3 18 4 19 5 20 6 21 10 22 7 23 9 24
REMARK SMILES IDX 8 25 24 26 25 27 26 28 27 29 28 30 29 31 30 33 31 34 32 35
REMARK SMILES IDX 93 36 33 37 92 38 34 39 35 40 36 41 86 42 37 43 91 44 85 45
REMARK SMILES IDX 87 46 38 47 90 48 84 49 83 50 39 52 71 53 51 54 70 55 52 56
REMARK SMILES IDX 55 57 69 58 88 59 53 60 54 61 68 63 89 64 56 65 40 66 41 67
REMARK SMILES IDX 49 68 42 69 43 70 47 71 50 72 44 73 45 74 48 75 46 76 72 77
REMARK SMILES IDX 73 78 81 79 74 80 75 81 79 82 82 83 76 84 77 85 80 86 78 87
REMARK SMILES IDX 57 88 58 89 66 90 59 91 60 92 64 93 67 94 61 95 62 96 65 97
REMARK SMILES IDX 63 98
REMARK H PARENT 21 6 11 17 28 32 87 51 55 62
REMARK Flexibility Score: inf
ROOT
ATOM      1  C   UNL A   1      33.661  29.145  26.806  1.00  0.00     0.021 C 
ENDROOT
BRANCH   1   2
ATOM      2  C   UNL A   1      33.632  27.921  25.879  1.00  0.00     0.116 C 
BRANCH   2   3
ATOM      3  N   UNL A   1      32.723  26.933  26.433  1.00  0.00    -0.352 N 
ATOM      4  C   UNL A   1      32.258  25.722  26.000  1.00  0.00     0.256 C 
ATOM      5  O   UNL A   1      31.228  25.304  26.536  1.00  0.00    -0.269 OA
ATOM      6  H   UNL A   1      32.364  27.192  27.311  1.00  0.00     0.163 HD
BRANCH   4   7
ATOM      7  C   UNL A   1      32.915  24.812  25.031  1.00  0.00     0.099 A 
ATOM      8  C   UNL A   1      32.447  24.830  23.685  1.00  0.00     0.056 A 
ATOM      9  C   UNL A   1      33.122  24.082  22.708  1.00  0.00     0.027 A 
ATOM     10  C   UNL A   1      34.208  23.279  23.043  1.00  0.00     0.005 A 
ATOM     11  C   UNL A   1      34.015  24.008  25.337  1.00  0.00     0.138 A 
ATOM     12  C   UNL A   1      34.636  23.222  24.363  1.00  0.00     0.040 A 
ATOM     13  F   UNL A   1      34.580  24.011  26.551  1.00  0.00    -0.206 F 
BRANCH   8  14
ATOM     14  N   UNL A   1      31.345  25.650  23.305  1.00  0.00    -0.325 N 
ATOM     15  O   UNL A   1      32.469  27.479  22.440  1.00  0.00    -0.275 OA
ATOM     16  C   UNL A   1      31.429  26.934  22.808  1.00  0.00     0.224 C 
ATOM     17  H   UNL A   1      30.444  25.267  23.408  1.00  0.00     0.169 HD
BRANCH  16  18
ATOM     18  C   UNL A   1      30.119  27.700  22.755  1.00  0.00     0.105 C 
BRANCH  18  19
ATOM     19  C   UNL A   1      30.069  28.940  23.647  1.00  0.00     0.047 C 
BRANCH  19  20
ATOM     20  C   UNL A   1      29.410  30.133  23.005  1.00  0.00    -0.029 A 
ATOM     21  C   UNL A   1      29.010  31.242  23.756  1.00  0.00     0.007 A 
ATOM     22  C   UNL A   1      29.173  30.171  21.632  1.00  0.00     0.114 A 
ATOM     23  C   UNL A   1      28.339  32.289  23.136  1.00  0.00     0.020 A 
ATOM     24  N   UNL A   1      28.541  31.186  20.998  1.00  0.00    -0.264 NA
ATOM     25  C   UNL A   1      28.119  32.209  21.772  1.00  0.00     0.111 A 
ENDBRANCH  19  20
ENDBRANCH  18  19
ENDBRANCH  16  18
ENDBRANCH   8  14
ENDBRANCH   4   7
ENDBRANCH   2   3
ENDBRANCH   1   2
BRANCH   1  26
ATOM     26  C   UNL A   1      32.265  29.700  27.137  1.00  0.00     0.002 C 
BRANCH  26  27
ATOM     27  C   UNL A   1      31.717  30.724  26.134  1.00  0.00     0.002 C 
BRANCH  27  28
ATOM     28  C   UNL A   1      31.462  32.117  26.709  1.00  0.00     0.021 C 
BRANCH  28  29
ATOM     29  C   UNL A   1      32.697  32.780  27.311  1.00  0.00     0.116 C 
BRANCH  29  30
ATOM     30  N   UNL A   1      32.459  34.180  27.627  1.00  0.00    -0.352 N 
ATOM     31  C   UNL A   1      33.014  34.950  28.620  1.00  0.00     0.251 C 
ATOM     32  H   UNL A   1      31.810  34.641  27.048  1.00  0.00     0.163 HD
ATOM     33  O   UNL A   1      32.547  36.048  28.894  1.00  0.00    -0.269 OA
BRANCH  31  34
ATOM     34  C   UNL A   1      34.178  34.434  29.369  1.00  0.00     0.039 A 
ATOM     35  C   UNL A   1      33.969  33.768  30.579  1.00  0.00     0.014 A 
ATOM     36  C   UNL A   1      35.472  34.608  28.872  1.00  0.00     0.014 A 
ATOM     37  C   UNL A   1      35.058  33.224  31.262  1.00  0.00     0.010 A 
ATOM     38  C   UNL A   1      36.544  34.000  29.512  1.00  0.00     0.010 A 
ATOM     39  C   UNL A   1      36.350  33.306  30.716  1.00  0.00    -0.014 A 
BRANCH  39  40
ATOM     40  C   UNL A   1      37.519  32.689  31.389  1.00  0.00     0.031 A 
ATOM     41  C   UNL A   1      38.244  31.550  30.730  1.00  0.00     0.074 A 
ATOM     42  C   UNL A   1      37.880  33.102  32.620  1.00  0.00     0.049 A 
ATOM     43  N   UNL A   1      39.210  30.801  31.200  1.00  0.00    -0.248 NA
ATOM     44  C   UNL A   1      37.812  31.186  29.370  1.00  0.00     0.031 C 
ATOM     45  C   UNL A   1      37.236  34.180  33.371  1.00  0.00     0.029 A 
ATOM     46  N   UNL A   1      38.870  32.658  33.460  1.00  0.00    -0.354 N 
ATOM     47  C   UNL A   1      39.487  29.875  30.203  1.00  0.00     0.074 A 
ATOM     48  C   UNL A   1      38.555  30.118  29.124  1.00  0.00     0.031 C 
ATOM     49  C   UNL A   1      37.860  34.328  34.550  1.00  0.00     0.029 A 
ATOM     50  C   UNL A   1      38.915  33.325  34.661  1.00  0.00     0.049 A 
ATOM     51  H   UNL A   1      39.489  31.928  33.226  1.00  0.00     0.167 HD
ATOM     52  C   UNL A   1      40.450  28.926  30.182  1.00  0.00     0.037 A 
ATOM     53  C   UNL A   1      39.708  33.139  35.734  1.00  0.00     0.037 A 
ATOM     54  C   UNL A   1      41.394  28.711  31.247  1.00  0.00     0.049 A 
ATOM     55  C   UNL A   1      40.751  32.055  35.698  1.00  0.00     0.074 A 
ATOM     56  C   UNL A   1      42.437  27.804  31.299  1.00  0.00     0.029 A 
ATOM     57  N   UNL A   1      41.408  29.410  32.445  1.00  0.00    -0.354 N 
ATOM     58  N   UNL A   1      41.033  31.213  34.733  1.00  0.00    -0.248 NA
ATOM     59  C   UNL A   1      41.586  31.891  36.896  1.00  0.00     0.031 C 
ATOM     60  C   UNL A   1      43.049  27.916  32.549  1.00  0.00     0.029 A 
ATOM     61  C   UNL A   1      42.429  28.937  33.252  1.00  0.00     0.049 A 
ATOM     62  H   UNL A   1      40.786  30.133  32.685  1.00  0.00     0.167 HD
ATOM     63  C   UNL A   1      42.095  30.446  35.192  1.00  0.00     0.074 A 
ATOM     64  C   UNL A   1      42.413  30.923  36.521  1.00  0.00     0.031 C 
ATOM     65  C   UNL A   1      42.748  29.438  34.565  1.00  0.00     0.037 A 
BRANCH  52  66
ATOM     66  C   UNL A   1      40.556  28.053  28.966  1.00  0.00     0.064 A 
ATOM     67  C   UNL A   1      41.329  28.457  27.865  1.00  0.00     0.173 A 
ATOM     68  C   UNL A   1      39.826  26.861  28.852  1.00  0.00     0.173 A 
ATOM     69  F   UNL A   1      42.043  29.592  27.919  1.00  0.00    -0.203 F 
ATOM     70  C   UNL A   1      41.348  27.710  26.691  1.00  0.00     0.198 A 
ATOM     71  C   UNL A   1      39.872  26.100  27.687  1.00  0.00     0.198 A 
ATOM     72  F   UNL A   1      39.081  26.426  29.879  1.00  0.00    -0.203 F 
ATOM     73  F   UNL A   1      42.060  28.137  25.638  1.00  0.00    -0.200 F 
ATOM     74  C   UNL A   1      40.623  26.531  26.604  1.00  0.00     0.200 A 
ATOM     75  F   UNL A   1      39.191  24.949  27.614  1.00  0.00    -0.200 F 
ATOM     76  F   UNL A   1      40.647  25.810  25.474  1.00  0.00    -0.200 F 
ENDBRANCH  52  66
BRANCH  53  77
ATOM     77  C   UNL A   1      39.560  34.023  36.921  1.00  0.00     0.064 A 
ATOM     78  C   UNL A   1      40.206  35.266  36.996  1.00  0.00     0.173 A 
ATOM     79  C   UNL A   1      38.785  33.626  38.020  1.00  0.00     0.173 A 
ATOM     80  F   UNL A   1      40.965  35.692  35.975  1.00  0.00    -0.203 F 
ATOM     81  C   UNL A   1      40.100  36.067  38.131  1.00  0.00     0.198 A 
ATOM     82  C   UNL A   1      38.654  34.441  39.142  1.00  0.00     0.198 A 
ATOM     83  F   UNL A   1      38.130  32.456  37.988  1.00  0.00    -0.203 F 
ATOM     84  F   UNL A   1      40.758  37.232  38.191  1.00  0.00    -0.200 F 
ATOM     85  C   UNL A   1      39.319  35.656  39.202  1.00  0.00     0.200 A 
ATOM     86  F   UNL A   1      37.877  34.052  40.163  1.00  0.00    -0.200 F 
ATOM     87  F   UNL A   1      39.205  36.434  40.287  1.00  0.00    -0.200 F 
ENDBRANCH  53  77
BRANCH  65  88
ATOM     88  C   UNL A   1      43.904  28.795  35.273  1.00  0.00     0.064 A 
ATOM     89  C   UNL A   1      43.678  27.768  36.203  1.00  0.00     0.173 A 
ATOM     90  C   UNL A   1      45.214  29.273  35.127  1.00  0.00     0.173 A 
ATOM     91  F   UNL A   1      42.440  27.284  36.387  1.00  0.00    -0.203 F 
ATOM     92  C   UNL A   1      44.715  27.263  36.981  1.00  0.00     0.198 A 
ATOM     93  C   UNL A   1      46.256  28.744  35.885  1.00  0.00     0.198 A 
ATOM     94  F   UNL A   1      45.483  30.246  34.244  1.00  0.00    -0.203 F 
ATOM     95  F   UNL A   1      44.465  26.320  37.900  1.00  0.00    -0.200 F 
ATOM     96  C   UNL A   1      46.003  27.752  36.821  1.00  0.00     0.200 A 
ATOM     97  F   UNL A   1      47.503  29.201  35.715  1.00  0.00    -0.200 F 
ATOM     98  F   UNL A   1      47.002  27.267  37.572  1.00  0.00    -0.200 F 
ENDBRANCH  65  88
ENDBRANCH  39  40
ENDBRANCH  31  34
ENDBRANCH  29  30
ENDBRANCH  28  29
ENDBRANCH  27  28
ENDBRANCH  26  27
ENDBRANCH   1  26
TORSDOF 17
ENDMDL
MODEL 2
REMARK VINA RESULT:     -12.3      0.900      2.018
REMARK SMILES O=C(CCc1cccnc1)Nc1cccc(F)c1C(=O)NCCCCCCNC(=O)c1ccc(-c2c3nc(c(-c4c(F)c(F)c(F)c(F)c4F)c4ccc([nH]4)c(-c4c(F)c(F)c(F)c(F)c4F)c4nc(c(-c5c(F)c(F)c(F)c(F)c5F)c5ccc2[nH]5)C=C4)C=C3)cc1
REMARK SMILES IDX 23 1 22 2 21 3 19 4 20 5 18 7 12 8 13 9 14 10 16 11 15 12
REMARK SMILES IDX 17 13 11 14 1 15 2 16 3 18 4 19 5 20 6 21 10 22 7 23 9 24
REMARK SMILES IDX 8 25 24 26 25 27 26 28 27 29 28 30 29 31 30 33 31 34 32 35
REMARK SMILES IDX 93 36 33 37 92 38 34 39 35 40 36 41 86 42 37 43 91 44 85 45
REMARK SMILES IDX 87 46 38 47 90 48 84 49 83 50 39 52 71 53 51 54 70 55 52 56
REMARK SMILES IDX 55 57 69 58 88 59 53 60 54 61 68 63 89 64 56 65 40 66 41 67
REMARK SMILES IDX 49 68 42 69 43 70 47 71 50 72 44 73 45 74 48 75 46 76 72 77
REMARK SMILES IDX 73 78 81 79 74 80 75 81 79 82 82 83 76 84 77 85 80 86 78 87
REMARK SMILES IDX 57 88 58 89 66 90 59 91 60 92 64 93 67 94 61 95 62 96 65 97
REMARK SMILES IDX 63 98
REMARK H PARENT 21 6 11 17 28 32 87 51 55 62
REMARK Flexibility Score: inf
ROOT
ATOM      1  C   UNL A   1      32.737  28.454  26.665  1.00  0.00     0.021 C 
ENDROOT
BRANCH   1   2
ATOM      2  C   UNL A   1      34.108  28.008  26.132  1.00  0.00     0.116 C 
BRANCH   2   3
ATOM      3  N   UNL A   1      33.921  27.333  24.861  1.00  0.00    -0.352 N 
ATOM      4  C   UNL A   1      33.929  26.022  24.471  1.00  0.00     0.256 C 
ATOM      5  O   UNL A   1      34.095  25.806  23.268  1.00  0.00    -0.269 OA
ATOM      6  H   UNL A   1      33.752  27.954  24.117  1.00  0.00     0.163 HD
BRANCH   4   7
ATOM      7  C   UNL A   1      33.658  24.840  25.324  1.00  0.00     0.099 A 
ATOM      8  C   UNL A   1      32.312  24.378  25.405  1.00  0.00     0.056 A 
ATOM      9  C   UNL A   1      32.030  23.188  26.095  1.00  0.00     0.027 A 
ATOM     10  C   UNL A   1      33.034  22.483  26.750  1.00  0.00     0.005 A 
ATOM     11  C   UNL A   1      34.649  24.105  25.978  1.00  0.00     0.138 A 
ATOM     12  C   UNL A   1      34.339  22.957  26.713  1.00  0.00     0.040 A 
ATOM     13  F   UNL A   1      35.948  24.412  25.870  1.00  0.00    -0.206 F 
BRANCH   8  14
ATOM     14  N   UNL A   1      31.260  25.069  24.737  1.00  0.00    -0.325 N 
ATOM     15  O   UNL A   1      30.260  26.134  26.533  1.00  0.00    -0.275 OA
ATOM     16  C   UNL A   1      30.267  25.808  25.347  1.00  0.00     0.224 C 
ATOM     17  H   UNL A   1      31.239  25.014  23.755  1.00  0.00     0.169 HD
BRANCH  16  18
ATOM     18  C   UNL A   1      29.104  26.199  24.452  1.00  0.00     0.105 C 
BRANCH  18  19
ATOM     19  C   UNL A   1      29.489  27.048  23.240  1.00  0.00     0.047 C 
BRANCH  19  20
ATOM     20  C   UNL A   1      28.909  28.438  23.255  1.00  0.00    -0.029 A 
ATOM     21  C   UNL A   1      29.723  29.571  23.344  1.00  0.00     0.007 A 
ATOM     22  C   UNL A   1      27.533  28.645  23.181  1.00  0.00     0.114 A 
ATOM     23  C   UNL A   1      29.144  30.831  23.430  1.00  0.00     0.020 A 
ATOM     24  N   UNL A   1      26.942  29.860  23.240  1.00  0.00    -0.264 NA
ATOM     25  C   UNL A   1      27.763  30.922  23.387  1.00  0.00     0.111 A 
ENDBRANCH  19  20
ENDBRANCH  18  19
ENDBRANCH  16  18
ENDBRANCH   8  14
ENDBRANCH   4   7
ENDBRANCH   2   3
ENDBRANCH   1   2
BRANCH   1  26
ATOM     26  C   UNL A   1      32.664  29.954  26.997  1.00  0.00     0.002 C 
BRANCH  26  27
ATOM     27  C   UNL A   1      31.640  30.752  26.178  1.00  0.00     0.002 C 
BRANCH  27  28
ATOM     28  C   UNL A   1      31.450  32.203  26.620  1.00  0.00     0.021 C 
BRANCH  28  29
ATOM     29  C   UNL A   1      32.645  32.790  27.365  1.00  0.00     0.116 C 
BRANCH  29  30
ATOM     30  N   UNL A   1      32.460  34.204  27.654  1.00  0.00    -0.352 N 
ATOM     31  C   UNL A   1      33.054  34.975  28.624  1.00  0.00     0.251 C 
ATOM     32  H   UNL A   1      31.820  34.675  27.073  1.00  0.00     0.163 HD
ATOM     33  O   UNL A   1      32.629  36.094  28.879  1.00  0.00    -0.269 OA
BRANCH  31  34
ATOM     34  C   UNL A   1      34.208  34.434  29.370  1.00  0.00     0.039 A 
ATOM     35  C   UNL A   1      33.980  33.633  30.491  1.00  0.00     0.014 A 
ATOM     36  C   UNL A   1      35.512  34.718  28.957  1.00  0.00     0.014 A 
ATOM     37  C   UNL A   1      35.064  33.068  31.165  1.00  0.00     0.010 A 
ATOM     38  C   UNL A   1      36.584  34.093  29.581  1.00  0.00     0.010 A 
ATOM     39  C   UNL A   1      36.372  33.266  30.695  1.00  0.00    -0.014 A 
BRANCH  39  40
ATOM     40  C   UNL A   1      37.541  32.633  31.355  1.00  0.00     0.031 A 
ATOM     41  C   UNL A   1      38.257  31.499  30.678  1.00  0.00     0.074 A 
ATOM     42  C   UNL A   1      37.908  33.027  32.590  1.00  0.00     0.049 A 
ATOM     43  N   UNL A   1      39.219  30.738  31.135  1.00  0.00    -0.248 NA
ATOM     44  C   UNL A   1      37.818  31.156  29.315  1.00  0.00     0.031 C 
ATOM     45  C   UNL A   1      37.273  34.099  33.358  1.00  0.00     0.029 A 
ATOM     46  N   UNL A   1      38.898  32.566  33.421  1.00  0.00    -0.354 N 
ATOM     47  C   UNL A   1      39.487  29.824  30.125  1.00  0.00     0.074 A 
ATOM     48  C   UNL A   1      38.553  30.086  29.053  1.00  0.00     0.031 C 
ATOM     49  C   UNL A   1      37.902  34.227  34.536  1.00  0.00     0.029 A 
ATOM     50  C   UNL A   1      38.952  33.216  34.630  1.00  0.00     0.049 A 
ATOM     51  H   UNL A   1      39.512  31.836  33.175  1.00  0.00     0.167 HD
ATOM     52  C   UNL A   1      40.445  28.869  30.087  1.00  0.00     0.037 A 
ATOM     53  C   UNL A   1      39.747  33.012  35.698  1.00  0.00     0.037 A 
ATOM     54  C   UNL A   1      41.391  28.634  31.146  1.00  0.00     0.049 A 
ATOM     55  C   UNL A   1      40.784  31.922  35.644  1.00  0.00     0.074 A 
ATOM     56  C   UNL A   1      42.429  27.721  31.183  1.00  0.00     0.029 A 
ATOM     57  N   UNL A   1      41.414  29.317  32.353  1.00  0.00    -0.354 N 
ATOM     58  N   UNL A   1      41.057  31.091  34.667  1.00  0.00    -0.248 NA
ATOM     59  C   UNL A   1      41.622  31.737  36.837  1.00  0.00     0.031 C 
ATOM     60  C   UNL A   1      43.046  27.813  32.432  1.00  0.00     0.029 A 
ATOM     61  C   UNL A   1      42.435  28.828  33.150  1.00  0.00     0.049 A 
ATOM     62  H   UNL A   1      40.796  30.041  32.606  1.00  0.00     0.167 HD
ATOM     63  C   UNL A   1      42.116  30.312  35.111  1.00  0.00     0.074 A 
ATOM     64  C   UNL A   1      42.441  30.770  36.446  1.00  0.00     0.031 C 
ATOM     65  C   UNL A   1      42.761  29.309  34.468  1.00  0.00     0.037 A 
BRANCH  52  66
ATOM     66  C   UNL A   1      40.542  28.012  28.859  1.00  0.00     0.064 A 
ATOM     67  C   UNL A   1      41.287  28.441  27.749  1.00  0.00     0.173 A 
ATOM     68  C   UNL A   1      39.828  26.810  28.746  1.00  0.00     0.173 A 
ATOM     69  F   UNL A   1      41.983  29.587  27.802  1.00  0.00    -0.203 F 
ATOM     70  C   UNL A   1      41.295  27.708  26.566  1.00  0.00     0.198 A 
ATOM     71  C   UNL A   1      39.865  26.063  27.571  1.00  0.00     0.198 A 
ATOM     72  F   UNL A   1      39.111  26.351  29.782  1.00  0.00    -0.203 F 
ATOM     73  F   UNL A   1      41.979  28.159  25.505  1.00  0.00    -0.200 F 
ATOM     74  C   UNL A   1      40.587  26.519  26.479  1.00  0.00     0.200 A 
ATOM     75  F   UNL A   1      39.200  24.902  27.498  1.00  0.00    -0.200 F 
ATOM     76  F   UNL A   1      40.601  25.811  25.340  1.00  0.00    -0.200 F 
ENDBRANCH  52  66
BRANCH  53  77
ATOM     77  C   UNL A   1      39.608  33.881  36.898  1.00  0.00     0.064 A 
ATOM     78  C   UNL A   1      38.832  33.491  38.000  1.00  0.00     0.173 A 
ATOM     79  C   UNL A   1      40.232  35.135  36.952  1.00  0.00     0.173 A 
ATOM     80  F   UNL A   1      38.210  32.303  37.998  1.00  0.00    -0.203 F 
ATOM     81  C   UNL A   1      38.670  34.331  39.100  1.00  0.00     0.198 A 
ATOM     82  C   UNL A   1      40.094  35.961  38.065  1.00  0.00     0.198 A 
ATOM     83  F   UNL A   1      41.001  35.543  35.932  1.00  0.00    -0.203 F 
ATOM     84  F   UNL A   1      37.894  33.950  40.123  1.00  0.00    -0.200 F 
ATOM     85  C   UNL A   1      39.305  35.564  39.134  1.00  0.00     0.200 A 
ATOM     86  F   UNL A   1      40.731  37.140  38.105  1.00  0.00    -0.200 F 
ATOM     87  F   UNL A   1      39.161  36.364  40.198  1.00  0.00    -0.200 F 
ENDBRANCH  53  77
BRANCH  65  88
ATOM     88  C   UNL A   1      43.916  28.650  35.164  1.00  0.00     0.064 A 
ATOM     89  C   UNL A   1      45.226  29.103  34.941  1.00  0.00     0.173 A 
ATOM     90  C   UNL A   1      43.742  27.503  35.951  1.00  0.00     0.173 A 
ATOM     91  F   UNL A   1      45.445  30.191  34.186  1.00  0.00    -0.203 F 
ATOM     92  C   UNL A   1      46.320  28.414  35.453  1.00  0.00     0.198 A 
ATOM     93  C   UNL A   1      44.839  26.833  36.488  1.00  0.00     0.198 A 
ATOM     94  F   UNL A   1      42.510  27.037  36.203  1.00  0.00    -0.203 F 
ATOM     95  F   UNL A   1      47.563  28.835  35.182  1.00  0.00    -0.200 F 
ATOM     96  C   UNL A   1      46.126  27.279  36.227  1.00  0.00     0.200 A 
ATOM     97  F   UNL A   1      44.649  25.750  37.254  1.00  0.00    -0.200 F 
ATOM     98  F   UNL A   1      47.180  26.615  36.719  1.00  0.00    -0.200 F 
ENDBRANCH  65  88
ENDBRANCH  39  40
ENDBRANCH  31  34
ENDBRANCH  29  30
ENDBRANCH  28  29
ENDBRANCH  27  28
ENDBRANCH  26  27
ENDBRANCH   1  26
TORSDOF 17
ENDMDL
MODEL 3
REMARK VINA RESULT:     -12.3      1.239      3.510
REMARK SMILES O=C(CCc1cccnc1)Nc1cccc(F)c1C(=O)NCCCCCCNC(=O)c1ccc(-c2c3nc(c(-c4c(F)c(F)c(F)c(F)c4F)c4ccc([nH]4)c(-c4c(F)c(F)c(F)c(F)c4F)c4nc(c(-c5c(F)c(F)c(F)c(F)c5F)c5ccc2[nH]5)C=C4)C=C3)cc1
REMARK SMILES IDX 23 1 22 2 21 3 19 4 20 5 18 7 12 8 13 9 14 10 16 11 15 12
REMARK SMILES IDX 17 13 11 14 1 15 2 16 3 18 4 19 5 20 6 21 10 22 7 23 9 24
REMARK SMILES IDX 8 25 24 26 25 27 26 28 27 29 28 30 29 31 30 33 31 34 32 35
REMARK SMILES IDX 93 36 33 37 92 38 34 39 35 40 36 41 86 42 37 43 91 44 85 45
REMARK SMILES IDX 87 46 38 47 90 48 84 49 83 50 39 52 71 53 51 54 70 55 52 56
REMARK SMILES IDX 55 57 69 58 88 59 53 60 54 61 68 63 89 64 56 65 40 66 41 67
REMARK SMILES IDX 49 68 42 69 43 70 47 71 50 72 44 73 45 74 48 75 46 76 72 77
REMARK SMILES IDX 73 78 81 79 74 80 75 81 79 82 82 83 76 84 77 85 80 86 78 87
REMARK SMILES IDX 57 88 58 89 66 90 59 91 60 92 64 93 67 94 61 95 62 96 65 97
REMARK SMILES IDX 63 98
REMARK H PARENT 21 6 11 17 28 32 87 51 55 62
REMARK Flexibility Score: inf
ROOT
ATOM      1  C   UNL A   1      33.119  29.223  25.160  1.00  0.00     0.021 C 
ENDROOT
BRANCH   1   2
ATOM      2  C   UNL A   1      33.037  27.701  25.345  1.00  0.00     0.116 C 
BRANCH   2   3
ATOM      3  N   UNL A   1      33.027  27.069  24.038  1.00  0.00    -0.352 N 
ATOM      4  C   UNL A   1      32.037  26.665  23.185  1.00  0.00     0.256 C 
ATOM      5  O   UNL A   1      32.355  25.843  22.322  1.00  0.00    -0.269 OA
ATOM      6  H   UNL A   1      33.930  26.892  23.690  1.00  0.00     0.163 HD
BRANCH   4   7
ATOM      7  C   UNL A   1      30.651  27.187  23.123  1.00  0.00     0.099 A 
ATOM      8  C   UNL A   1      29.630  26.430  23.769  1.00  0.00     0.056 A 
ATOM      9  C   UNL A   1      28.328  26.949  23.847  1.00  0.00     0.027 A 
ATOM     10  C   UNL A   1      28.004  28.166  23.254  1.00  0.00     0.005 A 
ATOM     11  C   UNL A   1      30.302  28.411  22.549  1.00  0.00     0.138 A 
ATOM     12  C   UNL A   1      28.986  28.882  22.582  1.00  0.00     0.040 A 
ATOM     13  F   UNL A   1      31.216  29.229  22.013  1.00  0.00    -0.206 F 
BRANCH   8  14
ATOM     14  N   UNL A   1      29.928  25.186  24.397  1.00  0.00    -0.325 N 
ATOM     15  O   UNL A   1      30.155  25.875  26.595  1.00  0.00    -0.275 OA
ATOM     16  C   UNL A   1      30.260  25.012  25.725  1.00  0.00     0.224 C 
ATOM     17  H   UNL A   1      29.896  24.380  23.833  1.00  0.00     0.169 HD
BRANCH  16  18
ATOM     18  C   UNL A   1      30.816  23.645  26.084  1.00  0.00     0.105 C 
BRANCH  18  19
ATOM     19  C   UNL A   1      32.249  23.659  26.616  1.00  0.00     0.047 C 
BRANCH  19  20
ATOM     20  C   UNL A   1      33.304  23.639  25.541  1.00  0.00    -0.029 A 
ATOM     21  C   UNL A   1      33.076  23.030  24.304  1.00  0.00     0.007 A 
ATOM     22  C   UNL A   1      34.550  24.229  25.744  1.00  0.00     0.114 A 
ATOM     23  C   UNL A   1      34.101  22.968  23.367  1.00  0.00     0.020 A 
ATOM     24  N   UNL A   1      35.559  24.204  24.843  1.00  0.00    -0.264 NA
ATOM     25  C   UNL A   1      35.316  23.552  23.685  1.00  0.00     0.111 A 
ENDBRANCH  19  20
ENDBRANCH  18  19
ENDBRANCH  16  18
ENDBRANCH   8  14
ENDBRANCH   4   7
ENDBRANCH   2   3
ENDBRANCH   1   2
BRANCH   1  26
ATOM     26  C   UNL A   1      31.791  29.950  25.439  1.00  0.00     0.002 C 
BRANCH  26  27
ATOM     27  C   UNL A   1      31.679  30.586  26.831  1.00  0.00     0.002 C 
BRANCH  27  28
ATOM     28  C   UNL A   1      31.526  32.108  26.834  1.00  0.00     0.021 C 
BRANCH  28  29
ATOM     29  C   UNL A   1      32.792  32.862  27.224  1.00  0.00     0.116 C 
BRANCH  29  30
ATOM     30  N   UNL A   1      32.506  34.234  27.613  1.00  0.00    -0.352 N 
ATOM     31  C   UNL A   1      33.023  34.966  28.655  1.00  0.00     0.251 C 
ATOM     32  H   UNL A   1      31.849  34.706  27.051  1.00  0.00     0.163 HD
ATOM     33  O   UNL A   1      32.517  36.031  28.982  1.00  0.00    -0.269 OA
BRANCH  31  34
ATOM     34  C   UNL A   1      34.193  34.446  29.390  1.00  0.00     0.039 A 
ATOM     35  C   UNL A   1      34.004  33.859  30.644  1.00  0.00     0.014 A 
ATOM     36  C   UNL A   1      35.473  34.539  28.839  1.00  0.00     0.014 A 
ATOM     37  C   UNL A   1      35.097  33.310  31.318  1.00  0.00     0.010 A 
ATOM     38  C   UNL A   1      36.545  33.924  29.475  1.00  0.00     0.010 A 
ATOM     39  C   UNL A   1      36.369  33.308  30.724  1.00  0.00    -0.014 A 
BRANCH  39  40
ATOM     40  C   UNL A   1      37.538  32.683  31.389  1.00  0.00     0.031 A 
ATOM     41  C   UNL A   1      38.266  31.555  30.715  1.00  0.00     0.074 A 
ATOM     42  C   UNL A   1      37.897  33.080  32.626  1.00  0.00     0.049 A 
ATOM     43  N   UNL A   1      39.231  30.800  31.176  1.00  0.00    -0.248 NA
ATOM     44  C   UNL A   1      37.836  31.210  29.350  1.00  0.00     0.031 C 
ATOM     45  C   UNL A   1      37.250  34.146  33.392  1.00  0.00     0.029 A 
ATOM     46  N   UNL A   1      38.886  32.625  33.462  1.00  0.00    -0.354 N 
ATOM     47  C   UNL A   1      39.511  29.889  30.167  1.00  0.00     0.074 A 
ATOM     48  C   UNL A   1      38.581  30.146  29.090  1.00  0.00     0.031 C 
ATOM     49  C   UNL A   1      37.872  34.278  34.573  1.00  0.00     0.029 A 
ATOM     50  C   UNL A   1      38.929  33.274  34.672  1.00  0.00     0.049 A 
ATOM     51  H   UNL A   1      39.506  31.899  33.219  1.00  0.00     0.167 HD
ATOM     52  C   UNL A   1      40.476  28.941  30.133  1.00  0.00     0.037 A 
ATOM     53  C   UNL A   1      39.720  33.075  35.744  1.00  0.00     0.037 A 
ATOM     54  C   UNL A   1      41.418  28.712  31.197  1.00  0.00     0.049 A 
ATOM     55  C   UNL A   1      40.765  31.993  35.694  1.00  0.00     0.074 A 
ATOM     56  C   UNL A   1      42.463  27.806  31.238  1.00  0.00     0.029 A 
ATOM     57  N   UNL A   1      41.430  29.395  32.404  1.00  0.00    -0.354 N 
ATOM     58  N   UNL A   1      41.049  31.165  34.718  1.00  0.00    -0.248 NA
ATOM     59  C   UNL A   1      41.598  31.813  36.891  1.00  0.00     0.031 C 
ATOM     60  C   UNL A   1      43.073  27.902  32.490  1.00  0.00     0.029 A 
ATOM     61  C   UNL A   1      42.451  28.912  33.206  1.00  0.00     0.049 A 
ATOM     62  H   UNL A   1      40.806  30.114  32.654  1.00  0.00     0.167 HD
ATOM     63  C   UNL A   1      42.112  30.393  35.167  1.00  0.00     0.074 A 
ATOM     64  C   UNL A   1      42.426  30.852  36.503  1.00  0.00     0.031 C 
ATOM     65  C   UNL A   1      42.767  29.394  34.527  1.00  0.00     0.037 A 
BRANCH  52  66
ATOM     66  C   UNL A   1      40.585  28.086  28.905  1.00  0.00     0.064 A 
ATOM     67  C   UNL A   1      41.360  28.506  27.813  1.00  0.00     0.173 A 
ATOM     68  C   UNL A   1      39.855  26.896  28.774  1.00  0.00     0.173 A 
ATOM     69  F   UNL A   1      42.074  29.640  27.884  1.00  0.00    -0.203 F 
ATOM     70  C   UNL A   1      41.382  27.775  26.628  1.00  0.00     0.198 A 
ATOM     71  C   UNL A   1      39.905  26.151  27.598  1.00  0.00     0.198 A 
ATOM     72  F   UNL A   1      39.108  26.446  29.793  1.00  0.00    -0.203 F 
ATOM     73  F   UNL A   1      42.095  28.217  25.583  1.00  0.00    -0.200 F 
ATOM     74  C   UNL A   1      40.657  26.598  26.522  1.00  0.00     0.200 A 
ATOM     75  F   UNL A   1      39.223  25.001  27.507  1.00  0.00    -0.200 F 
ATOM     76  F   UNL A   1      40.684  25.893  25.383  1.00  0.00    -0.200 F 
ENDBRANCH  52  66
BRANCH  53  77
ATOM     77  C   UNL A   1      39.569  33.942  36.943  1.00  0.00     0.064 A 
ATOM     78  C   UNL A   1      38.789  33.547  38.040  1.00  0.00     0.173 A 
ATOM     79  C   UNL A   1      40.185  35.199  37.002  1.00  0.00     0.173 A 
ATOM     80  F   UNL A   1      38.173  32.356  38.033  1.00  0.00    -0.203 F 
ATOM     81  C   UNL A   1      38.615  34.385  39.140  1.00  0.00     0.198 A 
ATOM     82  C   UNL A   1      40.036  36.024  38.115  1.00  0.00     0.198 A 
ATOM     83  F   UNL A   1      40.958  35.613  35.987  1.00  0.00    -0.203 F 
ATOM     84  F   UNL A   1      37.835  33.998  40.158  1.00  0.00    -0.200 F 
ATOM     85  C   UNL A   1      39.243  35.621  39.179  1.00  0.00     0.200 A 
ATOM     86  F   UNL A   1      40.665  37.206  38.160  1.00  0.00    -0.200 F 
ATOM     87  F   UNL A   1      39.087  36.420  40.243  1.00  0.00    -0.200 F 
ENDBRANCH  53  77
BRANCH  65  88
ATOM     88  C   UNL A   1      43.923  28.743  35.228  1.00  0.00     0.064 A 
ATOM     89  C   UNL A   1      43.701  27.669  36.104  1.00  0.00     0.173 A 
ATOM     90  C   UNL A   1      45.225  29.253  35.130  1.00  0.00     0.173 A 
ATOM     91  F   UNL A   1      42.470  27.152  36.241  1.00  0.00    -0.203 F 
ATOM     92  C   UNL A   1      44.733  27.150  36.879  1.00  0.00     0.198 A 
ATOM     93  C   UNL A   1      46.262  28.711  35.884  1.00  0.00     0.198 A 
ATOM     94  F   UNL A   1      45.489  30.272  34.298  1.00  0.00    -0.203 F 
ATOM     95  F   UNL A   1      44.486  26.160  37.748  1.00  0.00    -0.200 F 
ATOM     96  C   UNL A   1      46.014  27.672  36.768  1.00  0.00     0.200 A 
ATOM     97  F   UNL A   1      47.503  29.201  35.760  1.00  0.00    -0.200 F 
ATOM     98  F   UNL A   1      47.007  27.173  37.515  1.00  0.00    -0.200 F 
ENDBRANCH  65  88
ENDBRANCH  39  40
ENDBRANCH  31  34
ENDBRANCH  29  30
ENDBRANCH  28  29
ENDBRANCH  27  28
ENDBRANCH  26  27
ENDBRANCH   1  26
TORSDOF 17
ENDMDL
