MODEL 1
REMARK VINA RESULT:     -12.2      0.000      0.000
REMARK SMILES COc1ccc(C(=O)NCCCCCCNC(=O)c2ccc(-c3c4nc(c(-c5c(F)c(F)c(F)c(F)c5F)c5ccc([nH]5)c(-c5c(F)c(F)c(F)c(F)c5F)c5nc(c(-c6c(F)c(F)c(F)c(F)c6F)c6ccc3[nH]6)C=C5)C=C4)cc2)cc1S(=O)(=O)N(C)Cc1cccc(F)c1
REMARK SMILES IDX 11 1 10 2 9 3 7 4 8 5 6 7 3 8 4 9 83 10 5 11 82 12 2 13 1 14
REMARK SMILES IDX 84 15 85 16 86 17 87 18 88 19 89 20 90 21 91 22 96 23 92 24
REMARK SMILES IDX 94 25 93 26 95 27 12 28 13 29 14 30 15 31 16 32 17 33 18 35
REMARK SMILES IDX 19 36 20 37 81 38 21 39 80 40 22 41 23 42 24 43 74 44 25 45
REMARK SMILES IDX 79 46 73 47 75 48 26 49 78 50 72 51 71 52 27 54 59 55 39 56
REMARK SMILES IDX 58 57 40 58 43 59 57 60 76 61 41 62 42 63 56 65 77 66 44 67
REMARK SMILES IDX 28 68 29 69 37 70 30 71 31 72 35 73 38 74 32 75 33 76 36 77
REMARK SMILES IDX 34 78 60 79 61 80 69 81 62 82 63 83 67 84 70 85 64 86 65 87
REMARK SMILES IDX 68 88 66 89 45 90 46 91 54 92 47 93 48 94 52 95 55 96 49 97
REMARK SMILES IDX 50 98 53 99 51 100
REMARK H PARENT 9 6 16 34 75 53 43 64
REMARK Flexibility Score: inf
ROOT
ATOM      1  C   UNL A   1      31.484  28.506  23.585  1.00  0.00     0.021 C 
ENDROOT
BRANCH   1   2
ATOM      2  C   UNL A   1      30.762  27.690  22.510  1.00  0.00     0.116 C 
BRANCH   2   3
ATOM      3  N   UNL A   1      31.732  27.106  21.598  1.00  0.00    -0.352 N 
ATOM      4  C   UNL A   1      32.462  25.947  21.632  1.00  0.00     0.251 C 
ATOM      5  O   UNL A   1      33.224  25.712  20.695  1.00  0.00    -0.269 OA
ATOM      6  H   UNL A   1      31.897  27.654  20.796  1.00  0.00     0.163 HD
BRANCH   4   7
ATOM      7  C   UNL A   1      32.310  24.932  22.708  1.00  0.00     0.041 A 
ATOM      8  C   UNL A   1      31.865  23.211  24.891  1.00  0.00     0.138 A 
ATOM      9  C   UNL A   1      30.791  23.682  24.135  1.00  0.00     0.049 A 
ATOM     10  C   UNL A   1      33.165  23.526  24.499  1.00  0.00     0.125 A 
ATOM     11  C   UNL A   1      31.009  24.556  23.065  1.00  0.00     0.018 A 
ATOM     12  C   UNL A   1      33.382  24.343  23.374  1.00  0.00     0.039 A 
BRANCH   8  13
ATOM     13  O   UNL A   1      31.568  22.370  25.923  1.00  0.00    -0.495 OA
ATOM     14  C   UNL A   1      30.594  22.936  26.800  1.00  0.00     0.278 C 
ENDBRANCH   8  13
BRANCH  10  15
ATOM     15  S   UNL A   1      34.629  23.065  25.385  1.00  0.00     0.246 S 
ATOM     16  O   UNL A   1      35.675  23.962  24.933  1.00  0.00    -0.207 OA
ATOM     17  O   UNL A   1      34.240  23.035  26.780  1.00  0.00    -0.207 OA
BRANCH  15  18
ATOM     18  N   UNL A   1      35.072  21.495  24.931  1.00  0.00    -0.196 NA
ATOM     19  C   UNL A   1      36.517  21.192  24.972  1.00  0.00     0.125 C 
BRANCH  18  20
ATOM     20  C   UNL A   1      34.220  20.421  25.518  1.00  0.00     0.137 C 
BRANCH  20  21
ATOM     21  C   UNL A   1      33.639  19.442  24.523  1.00  0.00    -0.030 A 
ATOM     22  C   UNL A   1      32.546  19.804  23.719  1.00  0.00     0.005 A 
ATOM     23  C   UNL A   1      34.229  18.184  24.331  1.00  0.00     0.044 A 
ATOM     24  C   UNL A   1      32.089  18.956  22.708  1.00  0.00     0.003 A 
ATOM     25  C   UNL A   1      33.757  17.341  23.329  1.00  0.00     0.123 A 
ATOM     26  C   UNL A   1      32.702  17.722  22.509  1.00  0.00     0.039 A 
ATOM     27  F   UNL A   1      34.339  16.150  23.141  1.00  0.00    -0.207 F 
ENDBRANCH  20  21
ENDBRANCH  18  20
ENDBRANCH  15  18
ENDBRANCH  10  15
ENDBRANCH   4   7
ENDBRANCH   2   3
ENDBRANCH   1   2
BRANCH   1  28
ATOM     28  C   UNL A   1      31.137  28.055  25.011  1.00  0.00     0.002 C 
BRANCH  28  29
ATOM     29  C   UNL A   1      32.104  27.024  25.608  1.00  0.00     0.002 C 
BRANCH  29  30
ATOM     30  C   UNL A   1      32.989  27.548  26.743  1.00  0.00     0.021 C 
BRANCH  30  31
ATOM     31  C   UNL A   1      34.081  28.513  26.293  1.00  0.00     0.116 C 
BRANCH  31  32
ATOM     32  N   UNL A   1      33.795  29.879  26.703  1.00  0.00    -0.352 N 
ATOM     33  C   UNL A   1      34.463  30.675  27.599  1.00  0.00     0.251 C 
ATOM     34  H   UNL A   1      33.010  30.292  26.276  1.00  0.00     0.163 HD
ATOM     35  O   UNL A   1      33.960  31.722  27.992  1.00  0.00    -0.269 OA
BRANCH  33  36
ATOM     36  C   UNL A   1      35.790  30.262  28.102  1.00  0.00     0.039 A 
ATOM     37  C   UNL A   1      35.881  29.677  29.368  1.00  0.00     0.014 A 
ATOM     38  C   UNL A   1      36.942  30.470  27.338  1.00  0.00     0.014 A 
ATOM     39  C   UNL A   1      37.123  29.255  29.846  1.00  0.00     0.010 A 
ATOM     40  C   UNL A   1      38.168  29.988  27.787  1.00  0.00     0.010 A 
ATOM     41  C   UNL A   1      38.272  29.383  29.048  1.00  0.00    -0.014 A 
BRANCH  41  42
ATOM     42  C   UNL A   1      39.593  28.901  29.522  1.00  0.00     0.031 A 
ATOM     43  C   UNL A   1      40.373  29.707  30.523  1.00  0.00     0.074 A 
ATOM     44  C   UNL A   1      40.109  27.765  29.016  1.00  0.00     0.049 A 
ATOM     45  N   UNL A   1      41.568  29.491  31.011  1.00  0.00    -0.248 NA
ATOM     46  C   UNL A   1      39.734  30.934  31.025  1.00  0.00     0.031 C 
ATOM     47  C   UNL A   1      39.463  26.915  28.015  1.00  0.00     0.029 A 
ATOM     48  N   UNL A   1      41.301  27.133  29.269  1.00  0.00    -0.354 N 
ATOM     49  C   UNL A   1      41.823  30.552  31.871  1.00  0.00     0.074 A 
ATOM     50  C   UNL A   1      40.685  31.442  31.794  1.00  0.00     0.031 C 
ATOM     51  C   UNL A   1      40.256  25.862  27.755  1.00  0.00     0.029 A 
ATOM     52  C   UNL A   1      41.480  25.982  28.542  1.00  0.00     0.049 A 
ATOM     53  H   UNL A   1      41.965  27.474  29.911  1.00  0.00     0.167 HD
ATOM     54  C   UNL A   1      42.897  30.751  32.672  1.00  0.00     0.037 A 
ATOM     55  C   UNL A   1      42.518  25.126  28.509  1.00  0.00     0.037 A 
ATOM     56  C   UNL A   1      44.022  29.856  32.755  1.00  0.00     0.049 A 
ATOM     57  C   UNL A   1      43.712  25.389  29.388  1.00  0.00     0.074 A 
ATOM     58  C   UNL A   1      45.147  29.955  33.555  1.00  0.00     0.029 A 
ATOM     59  N   UNL A   1      44.161  28.695  32.010  1.00  0.00    -0.354 N 
ATOM     60  N   UNL A   1      43.917  26.366  30.237  1.00  0.00    -0.248 NA
ATOM     61  C   UNL A   1      44.816  24.423  29.308  1.00  0.00     0.031 C 
ATOM     62  C   UNL A   1      45.985  28.873  33.268  1.00  0.00     0.029 A 
ATOM     63  C   UNL A   1      45.360  28.074  32.322  1.00  0.00     0.049 A 
ATOM     64  H   UNL A   1      43.506  28.362  31.355  1.00  0.00     0.167 HD
ATOM     65  C   UNL A   1      45.154  26.114  30.816  1.00  0.00     0.074 A 
ATOM     66  C   UNL A   1      45.645  24.884  30.232  1.00  0.00     0.031 C 
ATOM     67  C   UNL A   1      45.823  26.838  31.746  1.00  0.00     0.037 A 
BRANCH  54  68
ATOM     68  C   UNL A   1      42.898  31.978  33.536  1.00  0.00     0.064 A 
ATOM     69  C   UNL A   1      43.468  33.182  33.094  1.00  0.00     0.173 A 
ATOM     70  C   UNL A   1      42.288  31.966  34.799  1.00  0.00     0.173 A 
ATOM     71  F   UNL A   1      44.073  33.243  31.898  1.00  0.00    -0.203 F 
ATOM     72  C   UNL A   1      43.452  34.320  33.895  1.00  0.00     0.198 A 
ATOM     73  C   UNL A   1      42.248  33.114  35.586  1.00  0.00     0.198 A 
ATOM     74  F   UNL A   1      41.723  30.843  35.268  1.00  0.00    -0.203 F 
ATOM     75  F   UNL A   1      44.043  35.445  33.470  1.00  0.00    -0.200 F 
ATOM     76  C   UNL A   1      42.836  34.288  35.137  1.00  0.00     0.200 A 
ATOM     77  F   UNL A   1      41.640  33.086  36.780  1.00  0.00    -0.200 F 
ATOM     78  F   UNL A   1      42.812  35.387  35.903  1.00  0.00    -0.200 F 
ENDBRANCH  54  68
BRANCH  55  79
ATOM     79  C   UNL A   1      42.473  23.926  27.633  1.00  0.00     0.064 A 
ATOM     80  C   UNL A   1      42.028  22.692  28.131  1.00  0.00     0.173 A 
ATOM     81  C   UNL A   1      42.897  23.975  26.298  1.00  0.00     0.173 A 
ATOM     82  F   UNL A   1      41.634  22.589  29.409  1.00  0.00    -0.203 F 
ATOM     83  C   UNL A   1      42.038  21.548  27.336  1.00  0.00     0.198 A 
ATOM     84  C   UNL A   1      42.877  22.837  25.494  1.00  0.00     0.198 A 
ATOM     85  F   UNL A   1      43.327  25.131  25.772  1.00  0.00    -0.203 F 
ATOM     86  F   UNL A   1      41.663  20.372  27.854  1.00  0.00    -0.200 F 
ATOM     87  C   UNL A   1      42.459  21.623  26.016  1.00  0.00     0.200 A 
ATOM     88  F   UNL A   1      43.273  22.916  24.217  1.00  0.00    -0.200 F 
ATOM     89  F   UNL A   1      42.472  20.522  25.253  1.00  0.00    -0.200 F 
ENDBRANCH  55  79
BRANCH  67  90
ATOM     90  C   UNL A   1      47.136  26.292  32.226  1.00  0.00     0.064 A 
ATOM     91  C   UNL A   1      47.218  25.431  33.329  1.00  0.00     0.173 A 
ATOM     92  C   UNL A   1      48.324  26.612  31.551  1.00  0.00     0.173 A 
ATOM     93  F   UNL A   1      46.113  25.109  34.018  1.00  0.00    -0.203 F 
ATOM     94  C   UNL A   1      48.445  24.931  33.757  1.00  0.00     0.198 A 
ATOM     95  C   UNL A   1      49.545  26.086  31.963  1.00  0.00     0.198 A 
ATOM     96  F   UNL A   1      48.299  27.426  30.486  1.00  0.00    -0.203 F 
ATOM     97  F   UNL A   1      48.506  24.151  34.845  1.00  0.00    -0.200 F 
ATOM     98  C   UNL A   1      49.606  25.253  33.069  1.00  0.00     0.200 A 
ATOM     99  F   UNL A   1      50.665  26.387  31.289  1.00  0.00    -0.200 F 
ATOM    100  F   UNL A   1      50.785  24.766  33.479  1.00  0.00    -0.200 F 
ENDBRANCH  67  90
ENDBRANCH  41  42
ENDBRANCH  33  36
ENDBRANCH  31  32
ENDBRANCH  30  31
ENDBRANCH  29  30
ENDBRANCH  28  29
ENDBRANCH   1  28
TORSDOF 18
ENDMDL
MODEL 2
REMARK VINA RESULT:     -11.9      4.492      9.310
REMARK SMILES COc1ccc(C(=O)NCCCCCCNC(=O)c2ccc(-c3c4nc(c(-c5c(F)c(F)c(F)c(F)c5F)c5ccc([nH]5)c(-c5c(F)c(F)c(F)c(F)c5F)c5nc(c(-c6c(F)c(F)c(F)c(F)c6F)c6ccc3[nH]6)C=C5)C=C4)cc2)cc1S(=O)(=O)N(C)Cc1cccc(F)c1
REMARK SMILES IDX 11 1 10 2 9 3 7 4 8 5 6 7 3 8 4 9 83 10 5 11 82 12 2 13 1 14
REMARK SMILES IDX 84 15 85 16 86 17 87 18 88 19 89 20 90 21 91 22 96 23 92 24
REMARK SMILES IDX 94 25 93 26 95 27 12 28 13 29 14 30 15 31 16 32 17 33 18 35
REMARK SMILES IDX 19 36 20 37 81 38 21 39 80 40 22 41 23 42 24 43 74 44 25 45
REMARK SMILES IDX 79 46 73 47 75 48 26 49 78 50 72 51 71 52 27 54 59 55 39 56
REMARK SMILES IDX 58 57 40 58 43 59 57 60 76 61 41 62 42 63 56 65 77 66 44 67
REMARK SMILES IDX 28 68 29 69 37 70 30 71 31 72 35 73 38 74 32 75 33 76 36 77
REMARK SMILES IDX 34 78 60 79 61 80 69 81 62 82 63 83 67 84 70 85 64 86 65 87
REMARK SMILES IDX 68 88 66 89 45 90 46 91 54 92 47 93 48 94 52 95 55 96 49 97
REMARK SMILES IDX 50 98 53 99 51 100
REMARK H PARENT 9 6 16 34 75 53 43 64
REMARK Flexibility Score: inf
ROOT
ATOM      1  C   UNL A   1      40.648  22.685  27.379  1.00  0.00     0.021 C 
ENDROOT
BRANCH   1   2
ATOM      2  C   UNL A   1      39.352  22.701  26.563  1.00  0.00     0.116 C 
BRANCH   2   3
ATOM      3  N   UNL A   1      39.144  21.403  25.943  1.00  0.00    -0.352 N 
ATOM      4  C   UNL A   1      38.094  20.861  25.247  1.00  0.00     0.251 C 
ATOM      5  O   UNL A   1      38.205  19.709  24.831  1.00  0.00    -0.269 OA
ATOM      6  H   UNL A   1      39.909  20.792  26.042  1.00  0.00     0.163 HD
BRANCH   4   7
ATOM      7  C   UNL A   1      36.870  21.634  24.907  1.00  0.00     0.041 A 
ATOM      8  C   UNL A   1      34.714  23.340  24.302  1.00  0.00     0.138 A 
ATOM      9  C   UNL A   1      35.855  23.333  23.497  1.00  0.00     0.049 A 
ATOM     10  C   UNL A   1      34.616  22.430  25.353  1.00  0.00     0.125 A 
ATOM     11  C   UNL A   1      36.935  22.502  23.811  1.00  0.00     0.018 A 
ATOM     12  C   UNL A   1      35.675  21.543  25.616  1.00  0.00     0.039 A 
BRANCH   8  13
ATOM     13  O   UNL A   1      33.708  24.184  23.933  1.00  0.00    -0.495 OA
ATOM     14  C   UNL A   1      34.039  25.546  24.199  1.00  0.00     0.278 C 
ENDBRANCH   8  13
BRANCH  10  15
ATOM     15  S   UNL A   1      33.270  22.356  26.504  1.00  0.00     0.246 S 
ATOM     16  O   UNL A   1      33.695  21.466  27.567  1.00  0.00    -0.207 OA
ATOM     17  O   UNL A   1      32.935  23.735  26.792  1.00  0.00    -0.207 OA
BRANCH  15  18
ATOM     18  N   UNL A   1      31.936  21.641  25.743  1.00  0.00    -0.196 NA
ATOM     19  C   UNL A   1      30.645  22.338  25.910  1.00  0.00     0.125 C 
BRANCH  18  20
ATOM     20  C   UNL A   1      32.195  21.188  24.346  1.00  0.00     0.137 C 
BRANCH  20  21
ATOM     21  C   UNL A   1      32.410  19.701  24.179  1.00  0.00    -0.030 A 
ATOM     22  C   UNL A   1      32.393  19.116  22.902  1.00  0.00     0.005 A 
ATOM     23  C   UNL A   1      32.706  18.893  25.286  1.00  0.00     0.044 A 
ATOM     24  C   UNL A   1      32.721  17.770  22.727  1.00  0.00     0.003 A 
ATOM     25  C   UNL A   1      33.018  17.549  25.102  1.00  0.00     0.123 A 
ATOM     26  C   UNL A   1      33.041  16.985  23.831  1.00  0.00     0.039 A 
ATOM     27  F   UNL A   1      33.318  16.790  26.163  1.00  0.00    -0.207 F 
ENDBRANCH  20  21
ENDBRANCH  18  20
ENDBRANCH  15  18
ENDBRANCH  10  15
ENDBRANCH   4   7
ENDBRANCH   2   3
ENDBRANCH   1   2
BRANCH   1  28
ATOM     28  C   UNL A   1      41.725  21.777  26.770  1.00  0.00     0.002 C 
BRANCH  28  29
ATOM     29  C   UNL A   1      42.103  20.566  27.633  1.00  0.00     0.002 C 
BRANCH  29  30
ATOM     30  C   UNL A   1      42.475  19.304  26.849  1.00  0.00     0.021 C 
BRANCH  30  31
ATOM     31  C   UNL A   1      42.461  19.478  25.335  1.00  0.00     0.116 C 
BRANCH  31  32
ATOM     32  N   UNL A   1      43.666  18.945  24.719  1.00  0.00    -0.352 N 
ATOM     33  C   UNL A   1      44.809  19.600  24.337  1.00  0.00     0.251 C 
ATOM     34  H   UNL A   1      43.661  17.974  24.554  1.00  0.00     0.163 HD
ATOM     35  O   UNL A   1      45.640  19.036  23.633  1.00  0.00    -0.269 OA
BRANCH  33  36
ATOM     36  C   UNL A   1      45.035  20.996  24.765  1.00  0.00     0.039 A 
ATOM     37  C   UNL A   1      44.764  22.031  23.867  1.00  0.00     0.014 A 
ATOM     38  C   UNL A   1      45.532  21.283  26.040  1.00  0.00     0.014 A 
ATOM     39  C   UNL A   1      44.944  23.357  24.265  1.00  0.00     0.010 A 
ATOM     40  C   UNL A   1      45.646  22.605  26.459  1.00  0.00     0.010 A 
ATOM     41  C   UNL A   1      45.361  23.654  25.573  1.00  0.00    -0.014 A 
BRANCH  41  42
ATOM     42  C   UNL A   1      45.517  25.059  26.028  1.00  0.00     0.031 A 
ATOM     43  C   UNL A   1      46.862  25.727  25.958  1.00  0.00     0.074 A 
ATOM     44  C   UNL A   1      44.460  25.713  26.546  1.00  0.00     0.049 A 
ATOM     45  N   UNL A   1      47.217  26.920  26.365  1.00  0.00    -0.248 NA
ATOM     46  C   UNL A   1      47.961  24.941  25.376  1.00  0.00     0.031 C 
ATOM     47  C   UNL A   1      43.114  25.159  26.698  1.00  0.00     0.029 A 
ATOM     48  N   UNL A   1      44.355  26.985  27.050  1.00  0.00    -0.354 N 
ATOM     49  C   UNL A   1      48.574  27.024  26.091  1.00  0.00     0.074 A 
ATOM     50  C   UNL A   1      48.993  25.754  25.539  1.00  0.00     0.031 C 
ATOM     51  C   UNL A   1      42.313  26.093  27.236  1.00  0.00     0.029 A 
ATOM     52  C   UNL A   1      43.096  27.296  27.501  1.00  0.00     0.049 A 
ATOM     53  H   UNL A   1      45.111  27.615  27.084  1.00  0.00     0.167 HD
ATOM     54  C   UNL A   1      49.390  28.092  26.259  1.00  0.00     0.037 A 
ATOM     55  C   UNL A   1      42.630  28.423  28.072  1.00  0.00     0.037 A 
ATOM     56  C   UNL A   1      48.967  29.358  26.796  1.00  0.00     0.049 A 
ATOM     57  C   UNL A   1      43.568  29.583  28.274  1.00  0.00     0.074 A 
ATOM     58  C   UNL A   1      49.711  30.510  26.982  1.00  0.00     0.029 A 
ATOM     59  N   UNL A   1      47.680  29.638  27.233  1.00  0.00    -0.354 N 
ATOM     60  N   UNL A   1      44.836  29.688  27.960  1.00  0.00    -0.248 NA
ATOM     61  C   UNL A   1      43.004  30.786  28.903  1.00  0.00     0.031 C 
ATOM     62  C   UNL A   1      48.884  31.476  27.565  1.00  0.00     0.029 A 
ATOM     63  C   UNL A   1      47.613  30.941  27.699  1.00  0.00     0.049 A 
ATOM     64  H   UNL A   1      46.928  29.004  27.214  1.00  0.00     0.167 HD
ATOM     65  C   UNL A   1      45.212  30.975  28.322  1.00  0.00     0.074 A 
ATOM     66  C   UNL A   1      44.034  31.618  28.864  1.00  0.00     0.031 C 
ATOM     67  C   UNL A   1      46.425  31.570  28.216  1.00  0.00     0.037 A 
BRANCH  54  68
ATOM     68  C   UNL A   1      50.824  27.939  25.841  1.00  0.00     0.064 A 
ATOM     69  C   UNL A   1      51.212  28.076  24.498  1.00  0.00     0.173 A 
ATOM     70  C   UNL A   1      51.827  27.696  26.791  1.00  0.00     0.173 A 
ATOM     71  F   UNL A   1      50.290  28.298  23.549  1.00  0.00    -0.203 F 
ATOM     72  C   UNL A   1      52.546  27.947  24.120  1.00  0.00     0.198 A 
ATOM     73  C   UNL A   1      53.163  27.598  26.414  1.00  0.00     0.198 A 
ATOM     74  F   UNL A   1      51.512  27.562  28.089  1.00  0.00    -0.203 F 
ATOM     75  F   UNL A   1      52.885  28.037  22.827  1.00  0.00    -0.200 F 
ATOM     76  C   UNL A   1      53.521  27.717  25.078  1.00  0.00     0.200 A 
ATOM     77  F   UNL A   1      54.107  27.388  27.342  1.00  0.00    -0.200 F 
ATOM     78  F   UNL A   1      54.805  27.603  24.714  1.00  0.00    -0.200 F 
ENDBRANCH  54  68
BRANCH  55  79
ATOM     79  C   UNL A   1      41.202  28.525  28.473  1.00  0.00     0.064 A 
ATOM     80  C   UNL A   1      40.785  28.116  29.748  1.00  0.00     0.173 A 
ATOM     81  C   UNL A   1      40.224  29.001  27.589  1.00  0.00     0.173 A 
ATOM     82  F   UNL A   1      41.680  27.633  30.622  1.00  0.00    -0.203 F 
ATOM     83  C   UNL A   1      39.440  28.152  30.112  1.00  0.00     0.198 A 
ATOM     84  C   UNL A   1      38.884  29.065  27.965  1.00  0.00     0.198 A 
ATOM     85  F   UNL A   1      40.570  29.408  26.359  1.00  0.00    -0.203 F 
ATOM     86  F   UNL A   1      39.063  27.701  31.316  1.00  0.00    -0.200 F 
ATOM     87  C   UNL A   1      38.491  28.630  29.221  1.00  0.00     0.200 A 
ATOM     88  F   UNL A   1      37.972  29.539  27.105  1.00  0.00    -0.200 F 
ATOM     89  F   UNL A   1      37.198  28.660  29.570  1.00  0.00    -0.200 F 
ENDBRANCH  55  79
BRANCH  67  90
ATOM     90  C   UNL A   1      46.527  33.003  28.650  1.00  0.00     0.064 A 
ATOM     91  C   UNL A   1      46.310  34.062  27.757  1.00  0.00     0.173 A 
ATOM     92  C   UNL A   1      46.815  33.319  29.987  1.00  0.00     0.173 A 
ATOM     93  F   UNL A   1      46.048  33.813  26.465  1.00  0.00    -0.203 F 
ATOM     94  C   UNL A   1      46.404  35.385  28.179  1.00  0.00     0.198 A 
ATOM     95  C   UNL A   1      46.878  34.643  30.412  1.00  0.00     0.198 A 
ATOM     96  F   UNL A   1      47.024  32.343  30.883  1.00  0.00    -0.203 F 
ATOM     97  F   UNL A   1      46.243  36.381  27.298  1.00  0.00    -0.200 F 
ATOM     98  C   UNL A   1      46.680  35.674  29.507  1.00  0.00     0.200 A 
ATOM     99  F   UNL A   1      47.132  34.920  31.699  1.00  0.00    -0.200 F 
ATOM    100  F   UNL A   1      46.765  36.948  29.913  1.00  0.00    -0.200 F 
ENDBRANCH  67  90
ENDBRANCH  41  42
ENDBRANCH  33  36
ENDBRANCH  31  32
ENDBRANCH  30  31
ENDBRANCH  29  30
ENDBRANCH  28  29
ENDBRANCH   1  28
TORSDOF 18
ENDMDL
MODEL 3
REMARK VINA RESULT:     -11.8      3.740      9.152
REMARK SMILES COc1ccc(C(=O)NCCCCCCNC(=O)c2ccc(-c3c4nc(c(-c5c(F)c(F)c(F)c(F)c5F)c5ccc([nH]5)c(-c5c(F)c(F)c(F)c(F)c5F)c5nc(c(-c6c(F)c(F)c(F)c(F)c6F)c6ccc3[nH]6)C=C5)C=C4)cc2)cc1S(=O)(=O)N(C)Cc1cccc(F)c1
REMARK SMILES IDX 11 1 10 2 9 3 7 4 8 5 6 7 3 8 4 9 83 10 5 11 82 12 2 13 1 14
REMARK SMILES IDX 84 15 85 16 86 17 87 18 88 19 89 20 90 21 91 22 96 23 92 24
REMARK SMILES IDX 94 25 93 26 95 27 12 28 13 29 14 30 15 31 16 32 17 33 18 35
REMARK SMILES IDX 19 36 20 37 81 38 21 39 80 40 22 41 23 42 24 43 74 44 25 45
REMARK SMILES IDX 79 46 73 47 75 48 26 49 78 50 72 51 71 52 27 54 59 55 39 56
REMARK SMILES IDX 58 57 40 58 43 59 57 60 76 61 41 62 42 63 56 65 77 66 44 67
REMARK SMILES IDX 28 68 29 69 37 70 30 71 31 72 35 73 38 74 32 75 33 76 36 77
REMARK SMILES IDX 34 78 60 79 61 80 69 81 62 82 63 83 67 84 70 85 64 86 65 87
REMARK SMILES IDX 68 88 66 89 45 90 46 91 54 92 47 93 48 94 52 95 55 96 49 97
REMARK SMILES IDX 50 98 53 99 51 100
REMARK H PARENT 9 6 16 34 75 53 43 64
REMARK Flexibility Score: inf
ROOT
ATOM      1  C   UNL A   1      34.740  20.606  24.932  1.00  0.00     0.021 C 
ENDROOT
BRANCH   1   2
ATOM      2  C   UNL A   1      33.356  20.348  25.535  1.00  0.00     0.116 C 
BRANCH   2   3
ATOM      3  N   UNL A   1      33.239  21.034  26.812  1.00  0.00    -0.352 N 
ATOM      4  C   UNL A   1      32.843  22.300  27.155  1.00  0.00     0.251 C 
ATOM      5  O   UNL A   1      32.845  22.606  28.347  1.00  0.00    -0.269 OA
ATOM      6  H   UNL A   1      33.495  20.477  27.582  1.00  0.00     0.163 HD
BRANCH   4   7
ATOM      7  C   UNL A   1      32.335  23.282  26.161  1.00  0.00     0.041 A 
ATOM      8  C   UNL A   1      31.498  24.974  24.072  1.00  0.00     0.138 A 
ATOM      9  C   UNL A   1      31.044  23.654  24.136  1.00  0.00     0.049 A 
ATOM     10  C   UNL A   1      32.295  25.471  25.102  1.00  0.00     0.125 A 
ATOM     11  C   UNL A   1      31.479  22.807  25.160  1.00  0.00     0.018 A 
ATOM     12  C   UNL A   1      32.665  24.635  26.171  1.00  0.00     0.039 A 
BRANCH   8  13
ATOM     13  O   UNL A   1      31.035  25.733  23.038  1.00  0.00    -0.495 OA
ATOM     14  C   UNL A   1      31.768  25.490  21.837  1.00  0.00     0.278 C 
ENDBRANCH   8  13
BRANCH  10  15
ATOM     15  S   UNL A   1      33.005  27.094  25.138  1.00  0.00     0.246 S 
ATOM     16  O   UNL A   1      33.833  27.148  26.327  1.00  0.00    -0.207 OA
ATOM     17  O   UNL A   1      33.591  27.286  23.827  1.00  0.00    -0.207 OA
BRANCH  15  18
ATOM     18  N   UNL A   1      31.764  28.231  25.328  1.00  0.00    -0.196 NA
ATOM     19  C   UNL A   1      31.694  28.901  26.642  1.00  0.00     0.125 C 
BRANCH  18  20
ATOM     20  C   UNL A   1      31.599  29.161  24.173  1.00  0.00     0.137 C 
BRANCH  20  21
ATOM     21  C   UNL A   1      30.179  29.341  23.687  1.00  0.00    -0.030 A 
ATOM     22  C   UNL A   1      29.410  28.231  23.301  1.00  0.00     0.005 A 
ATOM     23  C   UNL A   1      29.579  30.608  23.685  1.00  0.00     0.044 A 
ATOM     24  C   UNL A   1      28.059  28.372  22.978  1.00  0.00     0.003 A 
ATOM     25  C   UNL A   1      28.235  30.740  23.349  1.00  0.00     0.123 A 
ATOM     26  C   UNL A   1      27.468  29.633  23.008  1.00  0.00     0.039 A 
ATOM     27  F   UNL A   1      27.667  31.953  23.368  1.00  0.00    -0.207 F 
ENDBRANCH  20  21
ENDBRANCH  18  20
ENDBRANCH  15  18
ENDBRANCH  10  15
ENDBRANCH   4   7
ENDBRANCH   2   3
ENDBRANCH   1   2
BRANCH   1  28
ATOM     28  C   UNL A   1      34.734  21.724  23.879  1.00  0.00     0.002 C 
BRANCH  28  29
ATOM     29  C   UNL A   1      36.042  22.519  23.783  1.00  0.00     0.002 C 
BRANCH  29  30
ATOM     30  C   UNL A   1      36.130  23.733  24.713  1.00  0.00     0.021 C 
BRANCH  30  31
ATOM     31  C   UNL A   1      36.543  23.401  26.142  1.00  0.00     0.116 C 
BRANCH  31  32
ATOM     32  N   UNL A   1      37.690  22.508  26.179  1.00  0.00    -0.352 N 
ATOM     33  C   UNL A   1      39.011  22.798  26.411  1.00  0.00     0.251 C 
ATOM     34  H   UNL A   1      37.490  21.558  26.014  1.00  0.00     0.163 HD
ATOM     35  O   UNL A   1      39.878  21.960  26.187  1.00  0.00    -0.269 OA
BRANCH  33  36
ATOM     36  C   UNL A   1      39.391  24.132  26.921  1.00  0.00     0.039 A 
ATOM     37  C   UNL A   1      39.144  24.439  28.261  1.00  0.00     0.014 A 
ATOM     38  C   UNL A   1      39.968  25.085  26.076  1.00  0.00     0.014 A 
ATOM     39  C   UNL A   1      39.523  25.683  28.767  1.00  0.00     0.010 A 
ATOM     40  C   UNL A   1      40.406  26.299  26.596  1.00  0.00     0.010 A 
ATOM     41  C   UNL A   1      40.182  26.613  27.945  1.00  0.00    -0.014 A 
BRANCH  41  42
ATOM     42  C   UNL A   1      40.630  27.925  28.475  1.00  0.00     0.031 A 
ATOM     43  C   UNL A   1      42.085  28.161  28.766  1.00  0.00     0.074 A 
ATOM     44  C   UNL A   1      39.721  28.883  28.738  1.00  0.00     0.049 A 
ATOM     45  N   UNL A   1      42.665  29.211  29.291  1.00  0.00    -0.248 NA
ATOM     46  C   UNL A   1      43.010  27.062  28.447  1.00  0.00     0.031 C 
ATOM     47  C   UNL A   1      38.277  28.759  28.530  1.00  0.00     0.029 A 
ATOM     48  N   UNL A   1      39.875  30.148  29.245  1.00  0.00    -0.354 N 
ATOM     49  C   UNL A   1      44.016  28.897  29.367  1.00  0.00     0.074 A 
ATOM     50  C   UNL A   1      44.163  27.539  28.891  1.00  0.00     0.031 C 
ATOM     51  C   UNL A   1      37.681  29.910  28.886  1.00  0.00     0.029 A 
ATOM     52  C   UNL A   1      38.695  30.836  29.381  1.00  0.00     0.049 A 
ATOM     53  H   UNL A   1      40.751  30.527  29.490  1.00  0.00     0.167 HD
ATOM     54  C   UNL A   1      45.044  29.681  29.772  1.00  0.00     0.037 A 
ATOM     55  C   UNL A   1      38.458  32.072  29.859  1.00  0.00     0.037 A 
ATOM     56  C   UNL A   1      44.896  31.036  30.233  1.00  0.00     0.049 A 
ATOM     57  C   UNL A   1      39.617  32.910  30.330  1.00  0.00     0.074 A 
ATOM     58  C   UNL A   1      45.878  31.923  30.641  1.00  0.00     0.029 A 
ATOM     59  N   UNL A   1      43.684  31.702  30.346  1.00  0.00    -0.354 N 
ATOM     60  N   UNL A   1      40.895  32.622  30.346  1.00  0.00    -0.248 NA
ATOM     61  C   UNL A   1      39.298  34.249  30.843  1.00  0.00     0.031 C 
ATOM     62  C   UNL A   1      45.258  33.113  31.035  1.00  0.00     0.029 A 
ATOM     63  C   UNL A   1      43.893  32.984  30.829  1.00  0.00     0.049 A 
ATOM     64  H   UNL A   1      42.807  31.320  30.118  1.00  0.00     0.167 HD
ATOM     65  C   UNL A   1      41.535  33.753  30.836  1.00  0.00     0.074 A 
ATOM     66  C   UNL A   1      40.504  34.737  31.091  1.00  0.00     0.031 C 
ATOM     67  C   UNL A   1      42.856  33.957  31.057  1.00  0.00     0.037 A 
BRANCH  54  68
ATOM     68  C   UNL A   1      46.424  29.094  29.718  1.00  0.00     0.064 A 
ATOM     69  C   UNL A   1      47.210  29.179  28.557  1.00  0.00     0.173 A 
ATOM     70  C   UNL A   1      46.987  28.478  30.846  1.00  0.00     0.173 A 
ATOM     71  F   UNL A   1      46.714  29.749  27.448  1.00  0.00    -0.203 F 
ATOM     72  C   UNL A   1      48.495  28.645  28.519  1.00  0.00     0.198 A 
ATOM     73  C   UNL A   1      48.283  27.971  30.814  1.00  0.00     0.198 A 
ATOM     74  F   UNL A   1      46.282  28.375  31.983  1.00  0.00    -0.203 F 
ATOM     75  F   UNL A   1      49.207  28.699  27.386  1.00  0.00    -0.200 F 
ATOM     76  C   UNL A   1      49.034  28.049  29.649  1.00  0.00     0.200 A 
ATOM     77  F   UNL A   1      48.809  27.408  31.910  1.00  0.00    -0.200 F 
ATOM     78  F   UNL A   1      50.275  27.544  29.614  1.00  0.00    -0.200 F 
ENDBRANCH  54  68
BRANCH  55  79
ATOM     79  C   UNL A   1      37.072  32.608  29.896  1.00  0.00     0.064 A 
ATOM     80  C   UNL A   1      36.548  33.318  28.804  1.00  0.00     0.173 A 
ATOM     81  C   UNL A   1      36.255  32.453  31.024  1.00  0.00     0.173 A 
ATOM     82  F   UNL A   1      37.300  33.512  27.710  1.00  0.00    -0.203 F 
ATOM     83  C   UNL A   1      35.273  33.876  28.853  1.00  0.00     0.198 A 
ATOM     84  C   UNL A   1      34.968  32.985  31.059  1.00  0.00     0.198 A 
ATOM     85  F   UNL A   1      36.706  31.780  32.093  1.00  0.00    -0.203 F 
ATOM     86  F   UNL A   1      34.820  34.597  27.819  1.00  0.00    -0.200 F 
ATOM     87  C   UNL A   1      34.482  33.705  29.979  1.00  0.00     0.200 A 
ATOM     88  F   UNL A   1      34.202  32.807  32.145  1.00  0.00    -0.200 F 
ATOM     89  F   UNL A   1      33.256  34.245  30.027  1.00  0.00    -0.200 F 
ENDBRANCH  55  79
BRANCH  67  90
ATOM     90  C   UNL A   1      43.267  35.312  31.554  1.00  0.00     0.064 A 
ATOM     91  C   UNL A   1      43.677  36.327  30.678  1.00  0.00     0.173 A 
ATOM     92  C   UNL A   1      43.219  35.606  32.926  1.00  0.00     0.173 A 
ATOM     93  F   UNL A   1      43.756  36.090  29.360  1.00  0.00    -0.203 F 
ATOM     94  C   UNL A   1      44.051  37.579  31.159  1.00  0.00     0.198 A 
ATOM     95  C   UNL A   1      43.564  36.869  33.400  1.00  0.00     0.198 A 
ATOM     96  F   UNL A   1      42.827  34.673  33.805  1.00  0.00    -0.203 F 
ATOM     97  F   UNL A   1      44.488  38.518  30.308  1.00  0.00    -0.200 F 
ATOM     98  C   UNL A   1      43.986  37.851  32.517  1.00  0.00     0.200 A 
ATOM     99  F   UNL A   1      43.489  37.134  34.712  1.00  0.00    -0.200 F 
ATOM    100  F   UNL A   1      44.341  39.059  32.977  1.00  0.00    -0.200 F 
ENDBRANCH  67  90
ENDBRANCH  41  42
ENDBRANCH  33  36
ENDBRANCH  31  32
ENDBRANCH  30  31
ENDBRANCH  29  30
ENDBRANCH  28  29
ENDBRANCH   1  28
TORSDOF 18
ENDMDL
