MODEL 1
REMARK VINA RESULT:     -12.9      0.000      0.000
REMARK SMILES Cc1ccc(S(=O)(=O)n2cc(C(=O)C(=O)N[C@@H](Cc3cnc[nH]3)C(=O)NCCCCCCNC(=O)c3ccc(-c4c5nc(c(-c6c(F)c(F)c(F)c(F)c6F)c6ccc([nH]6)c(-c6c(F)c(F)c(F)c(F)c6F)c6nc(c(-c7c(F)c(F)c(F)c(F)c7F)c7ccc4[nH]7)C=C6)C=C5)cc3)c3ccccc32)cc1
REMARK SMILES IDX 28 1 27 2 26 3 24 4 25 5 17 7 16 8 14 9 15 10 12 12 13 13
REMARK SMILES IDX 11 14 9 15 10 16 104 17 99 18 103 19 100 20 102 21 101 22
REMARK SMILES IDX 6 23 7 24 8 25 5 26 1 27 2 28 3 29 106 30 4 31 105 32 18 33
REMARK SMILES IDX 19 34 20 35 23 36 21 37 22 38 29 40 30 41 31 42 32 43 33 44
REMARK SMILES IDX 34 45 35 47 36 48 37 49 98 50 38 51 97 52 39 53 40 54 41 55
REMARK SMILES IDX 91 56 42 57 96 58 90 59 92 60 43 61 95 62 89 63 88 64 44 66
REMARK SMILES IDX 76 67 56 68 75 69 57 70 60 71 74 72 93 73 58 74 59 75 73 77
REMARK SMILES IDX 94 78 61 79 45 80 46 81 54 82 47 83 48 84 52 85 55 86 49 87
REMARK SMILES IDX 50 88 53 89 51 90 77 91 78 92 86 93 79 94 80 95 84 96 87 97
REMARK SMILES IDX 81 98 82 99 85 100 83 101 62 102 63 103 71 104 64 105 65 106
REMARK SMILES IDX 69 107 72 108 66 109 67 110 70 111 68 112
REMARK H PARENT 26 6 16 11 23 39 33 46 92 65 60 76
REMARK Flexibility Score: inf
ROOT
ATOM      1  C   UNL A   1      37.287  23.089  26.220  1.00  0.00     0.021 C 
ENDROOT
BRANCH   1   2
ATOM      2  C   UNL A   1      35.857  23.605  26.286  1.00  0.00     0.116 C 
BRANCH   2   3
ATOM      3  N   UNL A   1      34.929  22.754  26.990  1.00  0.00    -0.354 N 
ATOM      4  C   UNL A   1      34.139  21.763  26.477  1.00  0.00     0.242 C 
ATOM      5  O   UNL A   1      33.873  20.826  27.237  1.00  0.00    -0.273 OA
ATOM      6  H   UNL A   1      34.855  22.906  27.960  1.00  0.00     0.163 HD
BRANCH   4   7
ATOM      7  C   UNL A   1      33.683  21.720  24.994  1.00  0.00     0.177 C 
BRANCH   7   8
ATOM      8  N   UNL A   1      34.768  21.958  24.031  1.00  0.00    -0.337 N 
ATOM      9  C   UNL A   1      34.898  22.883  23.017  1.00  0.00     0.293 C 
ATOM     10  O   UNL A   1      36.007  23.008  22.505  1.00  0.00    -0.265 OA
ATOM     11  H   UNL A   1      35.536  21.350  24.126  1.00  0.00     0.164 HD
BRANCH   9  12
ATOM     12  C   UNL A   1      33.692  23.708  22.500  1.00  0.00     0.252 C 
ATOM     13  O   UNL A   1      33.170  23.379  21.439  1.00  0.00    -0.283 OA
BRANCH  12  14
ATOM     14  C   UNL A   1      33.186  24.889  23.215  1.00  0.00     0.054 A 
ATOM     15  N   UNL A   1      32.815  26.977  23.912  1.00  0.00    -0.240 N 
ATOM     16  C   UNL A   1      33.581  26.207  23.075  1.00  0.00     0.117 A 
ATOM     17  C   UNL A   1      31.914  26.208  24.617  1.00  0.00     0.065 A 
ATOM     18  C   UNL A   1      32.152  24.885  24.221  1.00  0.00     0.012 A 
ATOM     19  C   UNL A   1      30.935  26.529  25.575  1.00  0.00     0.028 A 
ATOM     20  C   UNL A   1      31.390  23.857  24.823  1.00  0.00     0.011 A 
ATOM     21  C   UNL A   1      30.210  25.486  26.159  1.00  0.00     0.002 A 
ATOM     22  C   UNL A   1      30.435  24.167  25.791  1.00  0.00     0.001 A 
BRANCH  15  23
ATOM     23  S   UNL A   1      32.999  28.661  24.078  1.00  0.00     0.268 S 
ATOM     24  O   UNL A   1      33.873  29.055  22.996  1.00  0.00    -0.201 OA
ATOM     25  O   UNL A   1      33.351  28.883  25.474  1.00  0.00    -0.201 OA
BRANCH  23  26
ATOM     26  C   UNL A   1      31.421  29.422  23.811  1.00  0.00     0.088 A 
ATOM     27  C   UNL A   1      27.770  31.623  23.239  1.00  0.00     0.044 C 
ATOM     28  C   UNL A   1      29.030  30.834  23.445  1.00  0.00    -0.051 A 
ATOM     29  C   UNL A   1      29.824  31.072  24.573  1.00  0.00     0.005 A 
ATOM     30  C   UNL A   1      29.427  29.858  22.523  1.00  0.00     0.005 A 
ATOM     31  C   UNL A   1      31.018  30.373  24.755  1.00  0.00     0.022 A 
ATOM     32  C   UNL A   1      30.613  29.141  22.709  1.00  0.00     0.022 A 
ENDBRANCH  23  26
ENDBRANCH  15  23
ENDBRANCH  12  14
ENDBRANCH   9  12
ENDBRANCH   7   8
BRANCH   7  33
ATOM     33  C   UNL A   1      32.778  20.528  24.628  1.00  0.00     0.090 C 
BRANCH  33  34
ATOM     34  C   UNL A   1      33.453  19.235  24.327  1.00  0.00     0.037 A 
ATOM     35  C   UNL A   1      33.122  18.172  23.511  1.00  0.00     0.134 A 
ATOM     36  N   UNL A   1      34.625  18.847  24.936  1.00  0.00    -0.348 N 
ATOM     37  N   UNL A   1      34.111  17.224  23.523  1.00  0.00    -0.245 NA
ATOM     38  C   UNL A   1      34.987  17.642  24.406  1.00  0.00     0.196 A 
ATOM     39  H   UNL A   1      35.112  19.348  25.629  1.00  0.00     0.167 HD
ENDBRANCH  33  34
ENDBRANCH   7  33
ENDBRANCH   4   7
ENDBRANCH   2   3
ENDBRANCH   1   2
BRANCH   1  40
ATOM     40  C   UNL A   1      38.376  24.092  26.612  1.00  0.00     0.002 C 
BRANCH  40  41
ATOM     41  C   UNL A   1      39.837  23.644  26.444  1.00  0.00     0.002 C 
BRANCH  41  42
ATOM     42  C   UNL A   1      40.277  22.411  27.232  1.00  0.00     0.021 C 
BRANCH  42  43
ATOM     43  C   UNL A   1      41.775  22.271  27.424  1.00  0.00     0.116 C 
BRANCH  43  44
ATOM     44  N   UNL A   1      42.417  21.405  26.443  1.00  0.00    -0.352 N 
ATOM     45  C   UNL A   1      43.473  21.673  25.588  1.00  0.00     0.251 C 
ATOM     46  H   UNL A   1      42.044  20.496  26.378  1.00  0.00     0.163 HD
ATOM     47  O   UNL A   1      43.816  20.851  24.745  1.00  0.00    -0.269 OA
BRANCH  45  48
ATOM     48  C   UNL A   1      44.310  22.867  25.837  1.00  0.00     0.039 A 
ATOM     49  C   UNL A   1      45.128  22.811  26.974  1.00  0.00     0.014 A 
ATOM     50  C   UNL A   1      43.975  24.085  25.260  1.00  0.00     0.014 A 
ATOM     51  C   UNL A   1      45.306  23.961  27.724  1.00  0.00     0.010 A 
ATOM     52  C   UNL A   1      44.026  25.197  26.060  1.00  0.00     0.010 A 
ATOM     53  C   UNL A   1      44.621  25.103  27.320  1.00  0.00    -0.014 A 
BRANCH  53  54
ATOM     54  C   UNL A   1      44.463  26.271  28.156  1.00  0.00     0.031 A 
ATOM     55  C   UNL A   1      43.109  26.818  28.286  1.00  0.00     0.074 A 
ATOM     56  C   UNL A   1      45.535  26.722  28.842  1.00  0.00     0.049 A 
ATOM     57  N   UNL A   1      42.839  28.048  28.532  1.00  0.00    -0.248 NA
ATOM     58  C   UNL A   1      41.922  25.999  28.062  1.00  0.00     0.031 C 
ATOM     59  C   UNL A   1      45.577  27.709  29.915  1.00  0.00     0.029 A 
ATOM     60  N   UNL A   1      46.887  26.467  28.552  1.00  0.00    -0.354 N 
ATOM     61  C   UNL A   1      41.487  28.126  28.793  1.00  0.00     0.074 A 
ATOM     62  C   UNL A   1      40.948  26.858  28.369  1.00  0.00     0.031 C 
ATOM     63  C   UNL A   1      46.827  28.201  29.999  1.00  0.00     0.029 A 
ATOM     64  C   UNL A   1      47.579  27.655  28.880  1.00  0.00     0.049 A 
ATOM     65  H   UNL A   1      47.273  25.634  28.197  1.00  0.00     0.167 HD
ATOM     66  C   UNL A   1      41.029  29.198  29.500  1.00  0.00     0.037 A 
ATOM     67  C   UNL A   1      48.166  28.400  27.896  1.00  0.00     0.037 A 
ATOM     68  C   UNL A   1      42.136  30.116  29.761  1.00  0.00     0.049 A 
ATOM     69  C   UNL A   1      47.541  29.768  27.760  1.00  0.00     0.074 A 
ATOM     70  C   UNL A   1      43.002  30.221  30.837  1.00  0.00     0.029 A 
ATOM     71  N   UNL A   1      42.736  30.787  28.701  1.00  0.00    -0.354 N 
ATOM     72  N   UNL A   1      46.314  30.044  28.111  1.00  0.00    -0.248 NA
ATOM     73  C   UNL A   1      48.250  30.927  27.226  1.00  0.00     0.031 C 
ATOM     74  C   UNL A   1      44.169  30.890  30.393  1.00  0.00     0.029 A 
ATOM     75  C   UNL A   1      43.999  31.220  29.058  1.00  0.00     0.049 A 
ATOM     76  H   UNL A   1      42.320  30.932  27.820  1.00  0.00     0.167 HD
ATOM     77  C   UNL A   1      46.059  31.366  27.861  1.00  0.00     0.074 A 
ATOM     78  C   UNL A   1      47.305  31.877  27.319  1.00  0.00     0.031 C 
ATOM     79  C   UNL A   1      44.844  31.936  28.112  1.00  0.00     0.037 A 
BRANCH  66  80
ATOM     80  C   UNL A   1      39.705  29.262  30.236  1.00  0.00     0.064 A 
ATOM     81  C   UNL A   1      38.512  29.509  29.520  1.00  0.00     0.173 A 
ATOM     82  C   UNL A   1      39.533  29.145  31.628  1.00  0.00     0.173 A 
ATOM     83  F   UNL A   1      38.496  29.556  28.181  1.00  0.00    -0.203 F 
ATOM     84  C   UNL A   1      37.281  29.721  30.148  1.00  0.00     0.198 A 
ATOM     85  C   UNL A   1      38.309  29.396  32.262  1.00  0.00     0.198 A 
ATOM     86  F   UNL A   1      40.518  28.729  32.429  1.00  0.00    -0.203 F 
ATOM     87  F   UNL A   1      36.191  29.963  29.407  1.00  0.00    -0.200 F 
ATOM     88  C   UNL A   1      37.185  29.692  31.522  1.00  0.00     0.200 A 
ATOM     89  F   UNL A   1      38.231  29.339  33.599  1.00  0.00    -0.200 F 
ATOM     90  F   UNL A   1      36.011  29.917  32.127  1.00  0.00    -0.200 F 
ENDBRANCH  66  80
BRANCH  67  91
ATOM     91  C   UNL A   1      48.658  27.565  26.762  1.00  0.00     0.064 A 
ATOM     92  C   UNL A   1      47.887  27.537  25.581  1.00  0.00     0.173 A 
ATOM     93  C   UNL A   1      49.996  27.161  26.666  1.00  0.00     0.173 A 
ATOM     94  F   UNL A   1      46.594  27.898  25.618  1.00  0.00    -0.203 F 
ATOM     95  C   UNL A   1      48.466  27.273  24.341  1.00  0.00     0.198 A 
ATOM     96  C   UNL A   1      50.564  26.867  25.422  1.00  0.00     0.198 A 
ATOM     97  F   UNL A   1      50.786  27.163  27.748  1.00  0.00    -0.203 F 
ATOM     98  F   UNL A   1      47.735  27.399  23.223  1.00  0.00    -0.200 F 
ATOM     99  C   UNL A   1      49.811  26.967  24.260  1.00  0.00     0.200 A 
ATOM    100  F   UNL A   1      51.871  26.577  25.341  1.00  0.00    -0.200 F 
ATOM    101  F   UNL A   1      50.391  26.807  23.063  1.00  0.00    -0.200 F 
ENDBRANCH  67  91
BRANCH  79 102
ATOM    102  C   UNL A   1      44.381  33.271  27.581  1.00  0.00     0.064 A 
ATOM    103  C   UNL A   1      43.887  33.461  26.280  1.00  0.00     0.173 A 
ATOM    104  C   UNL A   1      44.285  34.396  28.437  1.00  0.00     0.173 A 
ATOM    105  F   UNL A   1      43.775  32.442  25.418  1.00  0.00    -0.203 F 
ATOM    106  C   UNL A   1      43.427  34.703  25.838  1.00  0.00     0.198 A 
ATOM    107  C   UNL A   1      43.754  35.613  28.014  1.00  0.00     0.198 A 
ATOM    108  F   UNL A   1      44.675  34.343  29.719  1.00  0.00    -0.203 F 
ATOM    109  F   UNL A   1      43.031  34.845  24.566  1.00  0.00    -0.200 F 
ATOM    110  C   UNL A   1      43.352  35.775  26.706  1.00  0.00     0.200 A 
ATOM    111  F   UNL A   1      43.619  36.619  28.889  1.00  0.00    -0.200 F 
ATOM    112  F   UNL A   1      42.871  36.953  26.288  1.00  0.00    -0.200 F 
ENDBRANCH  79 102
ENDBRANCH  53  54
ENDBRANCH  45  48
ENDBRANCH  43  44
ENDBRANCH  42  43
ENDBRANCH  41  42
ENDBRANCH  40  41
ENDBRANCH   1  40
TORSDOF 20
ENDMDL
MODEL 2
REMARK VINA RESULT:     -12.9      4.449     10.566
REMARK SMILES Cc1ccc(S(=O)(=O)n2cc(C(=O)C(=O)N[C@@H](Cc3cnc[nH]3)C(=O)NCCCCCCNC(=O)c3ccc(-c4c5nc(c(-c6c(F)c(F)c(F)c(F)c6F)c6ccc([nH]6)c(-c6c(F)c(F)c(F)c(F)c6F)c6nc(c(-c7c(F)c(F)c(F)c(F)c7F)c7ccc4[nH]7)C=C6)C=C5)cc3)c3ccccc32)cc1
REMARK SMILES IDX 28 1 27 2 26 3 24 4 25 5 17 7 16 8 14 9 15 10 12 12 13 13
REMARK SMILES IDX 11 14 9 15 10 16 104 17 99 18 103 19 100 20 102 21 101 22
REMARK SMILES IDX 6 23 7 24 8 25 5 26 1 27 2 28 3 29 106 30 4 31 105 32 18 33
REMARK SMILES IDX 19 34 20 35 23 36 21 37 22 38 29 40 30 41 31 42 32 43 33 44
REMARK SMILES IDX 34 45 35 47 36 48 37 49 98 50 38 51 97 52 39 53 40 54 41 55
REMARK SMILES IDX 91 56 42 57 96 58 90 59 92 60 43 61 95 62 89 63 88 64 44 66
REMARK SMILES IDX 76 67 56 68 75 69 57 70 60 71 74 72 93 73 58 74 59 75 73 77
REMARK SMILES IDX 94 78 61 79 45 80 46 81 54 82 47 83 48 84 52 85 55 86 49 87
REMARK SMILES IDX 50 88 53 89 51 90 77 91 78 92 86 93 79 94 80 95 84 96 87 97
REMARK SMILES IDX 81 98 82 99 85 100 83 101 62 102 63 103 71 104 64 105 65 106
REMARK SMILES IDX 69 107 72 108 66 109 67 110 70 111 68 112
REMARK H PARENT 26 6 16 11 23 39 33 46 92 65 60 76
REMARK Flexibility Score: inf
ROOT
ATOM      1  C   UNL A   1      33.272  32.384  28.051  1.00  0.00     0.021 C 
ENDROOT
BRANCH   1   2
ATOM      2  C   UNL A   1      33.516  31.314  26.997  1.00  0.00     0.116 C 
BRANCH   2   3
ATOM      3  N   UNL A   1      32.815  30.071  27.210  1.00  0.00    -0.354 N 
ATOM      4  C   UNL A   1      32.382  29.178  26.270  1.00  0.00     0.242 C 
ATOM      5  O   UNL A   1      32.334  27.994  26.621  1.00  0.00    -0.273 OA
ATOM      6  H   UNL A   1      32.626  29.838  28.147  1.00  0.00     0.163 HD
BRANCH   4   7
ATOM      7  C   UNL A   1      32.074  29.570  24.800  1.00  0.00     0.177 C 
BRANCH   7   8
ATOM      8  N   UNL A   1      33.195  29.341  23.877  1.00  0.00    -0.337 N 
ATOM      9  C   UNL A   1      33.399  28.375  22.915  1.00  0.00     0.293 C 
ATOM     10  O   UNL A   1      34.328  28.547  22.130  1.00  0.00    -0.265 OA
ATOM     11  H   UNL A   1      33.930  29.990  23.963  1.00  0.00     0.164 HD
BRANCH   9  12
ATOM     12  C   UNL A   1      32.530  27.094  22.841  1.00  0.00     0.252 C 
ATOM     13  O   UNL A   1      31.608  27.058  22.032  1.00  0.00    -0.283 OA
BRANCH  12  14
ATOM     14  C   UNL A   1      32.749  25.946  23.733  1.00  0.00     0.054 A 
ATOM     15  N   UNL A   1      33.655  24.224  24.828  1.00  0.00    -0.240 N 
ATOM     16  C   UNL A   1      33.877  25.153  23.845  1.00  0.00     0.117 A 
ATOM     17  C   UNL A   1      32.400  24.369  25.381  1.00  0.00     0.065 A 
ATOM     18  C   UNL A   1      31.797  25.424  24.683  1.00  0.00     0.012 A 
ATOM     19  C   UNL A   1      31.724  23.672  26.398  1.00  0.00     0.028 A 
ATOM     20  C   UNL A   1      30.467  25.773  25.013  1.00  0.00     0.011 A 
ATOM     21  C   UNL A   1      30.405  24.035  26.689  1.00  0.00     0.002 A 
ATOM     22  C   UNL A   1      29.783  25.069  26.005  1.00  0.00     0.001 A 
BRANCH  15  23
ATOM     23  S   UNL A   1      34.781  23.025  25.266  1.00  0.00     0.268 S 
ATOM     24  O   UNL A   1      34.765  22.998  26.711  1.00  0.00    -0.201 OA
ATOM     25  O   UNL A   1      35.991  23.328  24.513  1.00  0.00    -0.201 OA
BRANCH  23  26
ATOM     26  C   UNL A   1      34.183  21.462  24.682  1.00  0.00     0.088 A 
ATOM     27  C   UNL A   1      32.802  17.524  23.639  1.00  0.00     0.044 C 
ATOM     28  C   UNL A   1      33.290  18.902  23.978  1.00  0.00    -0.051 A 
ATOM     29  C   UNL A   1      34.507  19.064  24.650  1.00  0.00     0.005 A 
ATOM     30  C   UNL A   1      32.544  20.036  23.633  1.00  0.00     0.005 A 
ATOM     31  C   UNL A   1      34.952  20.338  25.006  1.00  0.00     0.022 A 
ATOM     32  C   UNL A   1      32.993  21.316  23.970  1.00  0.00     0.022 A 
ENDBRANCH  23  26
ENDBRANCH  15  23
ENDBRANCH  12  14
ENDBRANCH   9  12
ENDBRANCH   7   8
BRANCH   7  33
ATOM     33  C   UNL A   1      30.717  29.072  24.266  1.00  0.00     0.090 C 
BRANCH  33  34
ATOM     34  C   UNL A   1      29.906  30.042  23.478  1.00  0.00     0.037 A 
ATOM     35  C   UNL A   1      29.407  30.017  22.191  1.00  0.00     0.134 A 
ATOM     36  N   UNL A   1      29.536  31.274  23.965  1.00  0.00    -0.348 N 
ATOM     37  N   UNL A   1      28.657  31.136  21.939  1.00  0.00    -0.245 NA
ATOM     38  C   UNL A   1      28.773  31.884  23.011  1.00  0.00     0.196 A 
ATOM     39  H   UNL A   1      29.780  31.648  24.843  1.00  0.00     0.167 HD
ENDBRANCH  33  34
ENDBRANCH   7  33
ENDBRANCH   4   7
ENDBRANCH   2   3
ENDBRANCH   1   2
BRANCH   1  40
ATOM     40  C   UNL A   1      34.339  33.479  28.147  1.00  0.00     0.002 C 
BRANCH  40  41
ATOM     41  C   UNL A   1      35.340  33.385  29.311  1.00  0.00     0.002 C 
BRANCH  41  42
ATOM     42  C   UNL A   1      35.544  32.006  29.936  1.00  0.00     0.021 C 
BRANCH  42  43
ATOM     43  C   UNL A   1      35.181  31.906  31.405  1.00  0.00     0.116 C 
BRANCH  43  44
ATOM     44  N   UNL A   1      34.498  33.084  31.925  1.00  0.00    -0.352 N 
ATOM     45  C   UNL A   1      34.873  33.941  32.946  1.00  0.00     0.251 C 
ATOM     46  H   UNL A   1      33.643  33.302  31.487  1.00  0.00     0.163 HD
ATOM     47  O   UNL A   1      34.116  34.827  33.326  1.00  0.00    -0.269 OA
BRANCH  45  48
ATOM     48  C   UNL A   1      36.271  33.907  33.433  1.00  0.00     0.039 A 
ATOM     49  C   UNL A   1      37.178  34.711  32.731  1.00  0.00     0.014 A 
ATOM     50  C   UNL A   1      36.713  32.842  34.207  1.00  0.00     0.014 A 
ATOM     51  C   UNL A   1      38.463  34.240  32.521  1.00  0.00     0.010 A 
ATOM     52  C   UNL A   1      37.932  32.299  33.894  1.00  0.00     0.010 A 
ATOM     53  C   UNL A   1      38.763  32.965  32.990  1.00  0.00    -0.014 A 
BRANCH  53  54
ATOM     54  C   UNL A   1      39.939  32.227  32.586  1.00  0.00     0.031 A 
ATOM     55  C   UNL A   1      39.730  31.075  31.704  1.00  0.00     0.074 A 
ATOM     56  C   UNL A   1      41.150  32.695  32.953  1.00  0.00     0.049 A 
ATOM     57  N   UNL A   1      40.500  30.051  31.646  1.00  0.00    -0.248 NA
ATOM     58  C   UNL A   1      38.550  30.960  30.851  1.00  0.00     0.031 C 
ATOM     59  C   UNL A   1      42.465  32.281  32.479  1.00  0.00     0.029 A 
ATOM     60  N   UNL A   1      41.426  33.576  34.015  1.00  0.00    -0.354 N 
ATOM     61  C   UNL A   1      40.100  29.298  30.561  1.00  0.00     0.074 A 
ATOM     62  C   UNL A   1      38.819  29.838  30.181  1.00  0.00     0.031 C 
ATOM     63  C   UNL A   1      43.386  32.640  33.393  1.00  0.00     0.029 A 
ATOM     64  C   UNL A   1      42.666  33.156  34.547  1.00  0.00     0.049 A 
ATOM     65  H   UNL A   1      40.872  34.329  34.322  1.00  0.00     0.167 HD
ATOM     66  C   UNL A   1      40.995  28.425  30.019  1.00  0.00     0.037 A 
ATOM     67  C   UNL A   1      42.730  32.627  35.805  1.00  0.00     0.037 A 
ATOM     68  C   UNL A   1      42.221  28.429  30.816  1.00  0.00     0.049 A 
ATOM     69  C   UNL A   1      43.168  31.182  35.802  1.00  0.00     0.074 A 
ATOM     70  C   UNL A   1      43.391  29.161  30.689  1.00  0.00     0.029 A 
ATOM     71  N   UNL A   1      42.195  27.943  32.118  1.00  0.00    -0.354 N 
ATOM     72  N   UNL A   1      43.002  30.376  34.789  1.00  0.00    -0.248 NA
ATOM     73  C   UNL A   1      43.829  30.540  36.933  1.00  0.00     0.031 C 
ATOM     74  C   UNL A   1      44.030  29.181  31.953  1.00  0.00     0.029 A 
ATOM     75  C   UNL A   1      43.267  28.436  32.838  1.00  0.00     0.049 A 
ATOM     76  H   UNL A   1      41.510  27.333  32.477  1.00  0.00     0.167 HD
ATOM     77  C   UNL A   1      43.507  29.143  35.105  1.00  0.00     0.074 A 
ATOM     78  C   UNL A   1      44.024  29.300  36.452  1.00  0.00     0.031 C 
ATOM     79  C   UNL A   1      43.456  28.088  34.239  1.00  0.00     0.037 A 
BRANCH  66  80
ATOM     80  C   UNL A   1      40.914  27.840  28.623  1.00  0.00     0.064 A 
ATOM     81  C   UNL A   1      40.148  26.674  28.391  1.00  0.00     0.173 A 
ATOM     82  C   UNL A   1      41.590  28.326  27.488  1.00  0.00     0.173 A 
ATOM     83  F   UNL A   1      39.376  26.142  29.349  1.00  0.00    -0.203 F 
ATOM     84  C   UNL A   1      40.142  26.003  27.165  1.00  0.00     0.198 A 
ATOM     85  C   UNL A   1      41.616  27.633  26.271  1.00  0.00     0.198 A 
ATOM     86  F   UNL A   1      42.201  29.513  27.485  1.00  0.00    -0.203 F 
ATOM     87  F   UNL A   1      39.402  24.896  27.019  1.00  0.00    -0.200 F 
ATOM     88  C   UNL A   1      40.899  26.467  26.112  1.00  0.00     0.200 A 
ATOM     89  F   UNL A   1      42.340  28.115  25.249  1.00  0.00    -0.200 F 
ATOM     90  F   UNL A   1      40.913  25.813  24.943  1.00  0.00    -0.200 F 
ENDBRANCH  66  80
BRANCH  67  91
ATOM     91  C   UNL A   1      41.708  33.212  36.723  1.00  0.00     0.064 A 
ATOM     92  C   UNL A   1      41.958  34.494  37.257  1.00  0.00     0.173 A 
ATOM     93  C   UNL A   1      40.385  32.753  36.746  1.00  0.00     0.173 A 
ATOM     94  F   UNL A   1      43.211  34.978  37.275  1.00  0.00    -0.203 F 
ATOM     95  C   UNL A   1      40.917  35.334  37.645  1.00  0.00     0.198 A 
ATOM     96  C   UNL A   1      39.347  33.590  37.168  1.00  0.00     0.198 A 
ATOM     97  F   UNL A   1      40.076  31.545  36.255  1.00  0.00    -0.203 F 
ATOM     98  F   UNL A   1      41.181  36.599  38.010  1.00  0.00    -0.200 F 
ATOM     99  C   UNL A   1      39.610  34.892  37.572  1.00  0.00     0.200 A 
ATOM    100  F   UNL A   1      38.077  33.165  37.090  1.00  0.00    -0.200 F 
ATOM    101  F   UNL A   1      38.602  35.729  37.855  1.00  0.00    -0.200 F 
ENDBRANCH  67  91
BRANCH  79 102
ATOM    102  C   UNL A   1      43.688  26.644  34.611  1.00  0.00     0.064 A 
ATOM    103  C   UNL A   1      44.963  26.076  34.768  1.00  0.00     0.173 A 
ATOM    104  C   UNL A   1      42.602  25.807  34.971  1.00  0.00     0.173 A 
ATOM    105  F   UNL A   1      46.076  26.804  34.612  1.00  0.00    -0.203 F 
ATOM    106  C   UNL A   1      45.137  24.747  35.156  1.00  0.00     0.198 A 
ATOM    107  C   UNL A   1      42.785  24.504  35.431  1.00  0.00     0.198 A 
ATOM    108  F   UNL A   1      41.333  26.234  34.916  1.00  0.00    -0.203 F 
ATOM    109  F   UNL A   1      46.375  24.236  35.223  1.00  0.00    -0.200 F 
ATOM    110  C   UNL A   1      44.051  23.964  35.496  1.00  0.00     0.200 A 
ATOM    111  F   UNL A   1      41.726  23.785  35.828  1.00  0.00    -0.200 F 
ATOM    112  F   UNL A   1      44.227  22.702  35.908  1.00  0.00    -0.200 F 
ENDBRANCH  79 102
ENDBRANCH  53  54
ENDBRANCH  45  48
ENDBRANCH  43  44
ENDBRANCH  42  43
ENDBRANCH  41  42
ENDBRANCH  40  41
ENDBRANCH   1  40
TORSDOF 20
ENDMDL
MODEL 3
REMARK VINA RESULT:     -12.8      1.543      2.206
REMARK SMILES Cc1ccc(S(=O)(=O)n2cc(C(=O)C(=O)N[C@@H](Cc3cnc[nH]3)C(=O)NCCCCCCNC(=O)c3ccc(-c4c5nc(c(-c6c(F)c(F)c(F)c(F)c6F)c6ccc([nH]6)c(-c6c(F)c(F)c(F)c(F)c6F)c6nc(c(-c7c(F)c(F)c(F)c(F)c7F)c7ccc4[nH]7)C=C6)C=C5)cc3)c3ccccc32)cc1
REMARK SMILES IDX 28 1 27 2 26 3 24 4 25 5 17 7 16 8 14 9 15 10 12 12 13 13
REMARK SMILES IDX 11 14 9 15 10 16 104 17 99 18 103 19 100 20 102 21 101 22
REMARK SMILES IDX 6 23 7 24 8 25 5 26 1 27 2 28 3 29 106 30 4 31 105 32 18 33
REMARK SMILES IDX 19 34 20 35 23 36 21 37 22 38 29 40 30 41 31 42 32 43 33 44
REMARK SMILES IDX 34 45 35 47 36 48 37 49 98 50 38 51 97 52 39 53 40 54 41 55
REMARK SMILES IDX 91 56 42 57 96 58 90 59 92 60 43 61 95 62 89 63 88 64 44 66
REMARK SMILES IDX 76 67 56 68 75 69 57 70 60 71 74 72 93 73 58 74 59 75 73 77
REMARK SMILES IDX 94 78 61 79 45 80 46 81 54 82 47 83 48 84 52 85 55 86 49 87
REMARK SMILES IDX 50 88 53 89 51 90 77 91 78 92 86 93 79 94 80 95 84 96 87 97
REMARK SMILES IDX 81 98 82 99 85 100 83 101 62 102 63 103 71 104 64 105 65 106
REMARK SMILES IDX 69 107 72 108 66 109 67 110 70 111 68 112
REMARK H PARENT 26 6 16 11 23 39 33 46 92 65 60 76
REMARK Flexibility Score: inf
ROOT
ATOM      1  C   UNL A   1      39.188  22.430  25.839  1.00  0.00     0.021 C 
ENDROOT
BRANCH   1   2
ATOM      2  C   UNL A   1      37.694  22.315  25.574  1.00  0.00     0.116 C 
BRANCH   2   3
ATOM      3  N   UNL A   1      37.165  20.973  25.609  1.00  0.00    -0.354 N 
ATOM      4  C   UNL A   1      35.935  20.542  25.198  1.00  0.00     0.242 C 
ATOM      5  O   UNL A   1      35.870  19.379  24.786  1.00  0.00    -0.273 OA
ATOM      6  H   UNL A   1      37.765  20.282  25.973  1.00  0.00     0.163 HD
BRANCH   4   7
ATOM      7  C   UNL A   1      34.689  21.466  25.125  1.00  0.00     0.177 C 
BRANCH   7   8
ATOM      8  N   UNL A   1      34.443  22.025  23.788  1.00  0.00    -0.337 N 
ATOM      9  C   UNL A   1      34.420  23.328  23.337  1.00  0.00     0.293 C 
ATOM     10  O   UNL A   1      34.409  23.505  22.122  1.00  0.00    -0.265 OA
ATOM     11  H   UNL A   1      34.260  21.352  23.094  1.00  0.00     0.164 HD
BRANCH   9  12
ATOM     12  C   UNL A   1      34.365  24.533  24.310  1.00  0.00     0.252 C 
ATOM     13  O   UNL A   1      35.370  24.810  24.956  1.00  0.00    -0.283 OA
BRANCH  12  14
ATOM     14  C   UNL A   1      33.140  25.322  24.511  1.00  0.00     0.054 A 
ATOM     15  N   UNL A   1      31.040  26.077  24.439  1.00  0.00    -0.240 N 
ATOM     16  C   UNL A   1      31.896  25.131  23.937  1.00  0.00     0.117 A 
ATOM     17  C   UNL A   1      31.679  26.905  25.337  1.00  0.00     0.065 A 
ATOM     18  C   UNL A   1      33.012  26.471  25.372  1.00  0.00     0.012 A 
ATOM     19  C   UNL A   1      31.237  28.002  26.100  1.00  0.00     0.028 A 
ATOM     20  C   UNL A   1      33.924  27.177  26.190  1.00  0.00     0.011 A 
ATOM     21  C   UNL A   1      32.170  28.683  26.887  1.00  0.00     0.002 A 
ATOM     22  C   UNL A   1      33.497  28.279  26.930  1.00  0.00     0.001 A 
BRANCH  15  23
ATOM     23  S   UNL A   1      29.411  26.221  23.967  1.00  0.00     0.268 S 
ATOM     24  O   UNL A   1      28.659  26.239  25.202  1.00  0.00    -0.201 OA
ATOM     25  O   UNL A   1      29.203  25.198  22.952  1.00  0.00    -0.201 OA
BRANCH  23  26
ATOM     26  C   UNL A   1      29.199  27.792  23.175  1.00  0.00     0.088 A 
ATOM     27  C   UNL A   1      28.493  31.727  21.588  1.00  0.00     0.044 C 
ATOM     28  C   UNL A   1      28.740  30.345  22.118  1.00  0.00    -0.051 A 
ATOM     29  C   UNL A   1      27.693  29.628  22.708  1.00  0.00     0.005 A 
ATOM     30  C   UNL A   1      30.008  29.757  22.031  1.00  0.00     0.005 A 
ATOM     31  C   UNL A   1      27.920  28.358  23.240  1.00  0.00     0.022 A 
ATOM     32  C   UNL A   1      30.238  28.477  22.545  1.00  0.00     0.022 A 
ENDBRANCH  23  26
ENDBRANCH  15  23
ENDBRANCH  12  14
ENDBRANCH   9  12
ENDBRANCH   7   8
BRANCH   7  33
ATOM     33  C   UNL A   1      33.427  20.909  25.809  1.00  0.00     0.090 C 
BRANCH  33  34
ATOM     34  C   UNL A   1      32.433  21.903  26.304  1.00  0.00     0.037 A 
ATOM     35  C   UNL A   1      32.520  22.947  27.203  1.00  0.00     0.134 A 
ATOM     36  N   UNL A   1      31.111  21.887  25.925  1.00  0.00    -0.348 N 
ATOM     37  N   UNL A   1      31.330  23.622  27.281  1.00  0.00    -0.245 NA
ATOM     38  C   UNL A   1      30.496  22.949  26.524  1.00  0.00     0.196 A 
ATOM     39  H   UNL A   1      30.685  21.227  25.331  1.00  0.00     0.167 HD
ENDBRANCH  33  34
ENDBRANCH   7  33
ENDBRANCH   4   7
ENDBRANCH   2   3
ENDBRANCH   1   2
BRANCH   1  40
ATOM     40  C   UNL A   1      39.600  23.462  26.892  1.00  0.00     0.002 C 
BRANCH  40  41
ATOM     41  C   UNL A   1      40.721  23.063  27.867  1.00  0.00     0.002 C 
BRANCH  41  42
ATOM     42  C   UNL A   1      41.079  21.579  27.937  1.00  0.00     0.021 C 
BRANCH  42  43
ATOM     43  C   UNL A   1      42.495  21.238  27.516  1.00  0.00     0.116 C 
BRANCH  43  44
ATOM     44  N   UNL A   1      42.731  21.365  26.082  1.00  0.00    -0.352 N 
ATOM     45  C   UNL A   1      43.432  22.336  25.388  1.00  0.00     0.251 C 
ATOM     46  H   UNL A   1      42.331  20.656  25.528  1.00  0.00     0.163 HD
ATOM     47  O   UNL A   1      43.436  22.344  24.161  1.00  0.00    -0.269 OA
BRANCH  45  48
ATOM     48  C   UNL A   1      44.338  23.237  26.133  1.00  0.00     0.039 A 
ATOM     49  C   UNL A   1      44.445  22.990  27.509  1.00  0.00     0.014 A 
ATOM     50  C   UNL A   1      44.683  24.473  25.602  1.00  0.00     0.014 A 
ATOM     51  C   UNL A   1      44.549  24.067  28.373  1.00  0.00     0.010 A 
ATOM     52  C   UNL A   1      44.647  25.554  26.446  1.00  0.00     0.010 A 
ATOM     53  C   UNL A   1      44.499  25.342  27.818  1.00  0.00    -0.014 A 
BRANCH  53  54
ATOM     54  C   UNL A   1      44.289  26.540  28.600  1.00  0.00     0.031 A 
ATOM     55  C   UNL A   1      42.926  27.080  28.633  1.00  0.00     0.074 A 
ATOM     56  C   UNL A   1      45.318  27.024  29.326  1.00  0.00     0.049 A 
ATOM     57  N   UNL A   1      42.636  28.317  28.817  1.00  0.00    -0.248 NA
ATOM     58  C   UNL A   1      41.758  26.245  28.375  1.00  0.00     0.031 C 
ATOM     59  C   UNL A   1      45.295  28.050  30.361  1.00  0.00     0.029 A 
ATOM     60  N   UNL A   1      46.686  26.768  29.122  1.00  0.00    -0.354 N 
ATOM     61  C   UNL A   1      41.271  28.394  29.000  1.00  0.00     0.074 A 
ATOM     62  C   UNL A   1      40.764  27.107  28.595  1.00  0.00     0.031 C 
ATOM     63  C   UNL A   1      46.536  28.555  30.495  1.00  0.00     0.029 A 
ATOM     64  C   UNL A   1      47.352  27.973  29.442  1.00  0.00     0.049 A 
ATOM     65  H   UNL A   1      47.095  25.925  28.820  1.00  0.00     0.167 HD
ATOM     66  C   UNL A   1      40.769  29.488  29.639  1.00  0.00     0.037 A 
ATOM     67  C   UNL A   1      47.989  28.685  28.465  1.00  0.00     0.037 A 
ATOM     68  C   UNL A   1      41.855  30.424  29.925  1.00  0.00     0.049 A 
ATOM     69  C   UNL A   1      47.365  30.043  28.242  1.00  0.00     0.074 A 
ATOM     70  C   UNL A   1      42.659  30.576  31.044  1.00  0.00     0.029 A 
ATOM     71  N   UNL A   1      42.509  31.059  28.876  1.00  0.00    -0.354 N 
ATOM     72  N   UNL A   1      46.119  30.322  28.514  1.00  0.00    -0.248 NA
ATOM     73  C   UNL A   1      48.096  31.185  27.705  1.00  0.00     0.031 C 
ATOM     74  C   UNL A   1      43.845  31.237  30.639  1.00  0.00     0.029 A 
ATOM     75  C   UNL A   1      43.748  31.515  29.286  1.00  0.00     0.049 A 
ATOM     76  H   UNL A   1      42.142  31.168  27.968  1.00  0.00     0.167 HD
ATOM     77  C   UNL A   1      45.871  31.632  28.200  1.00  0.00     0.074 A 
ATOM     78  C   UNL A   1      47.142  32.131  27.709  1.00  0.00     0.031 C 
ATOM     79  C   UNL A   1      44.640  32.202  28.362  1.00  0.00     0.037 A 
BRANCH  66  80
ATOM     80  C   UNL A   1      39.406  29.570  30.297  1.00  0.00     0.064 A 
ATOM     81  C   UNL A   1      38.451  30.500  29.828  1.00  0.00     0.173 A 
ATOM     82  C   UNL A   1      38.986  28.819  31.412  1.00  0.00     0.173 A 
ATOM     83  F   UNL A   1      38.665  31.225  28.721  1.00  0.00    -0.203 F 
ATOM     84  C   UNL A   1      37.232  30.727  30.474  1.00  0.00     0.198 A 
ATOM     85  C   UNL A   1      37.783  29.072  32.083  1.00  0.00     0.198 A 
ATOM     86  F   UNL A   1      39.685  27.774  31.862  1.00  0.00    -0.203 F 
ATOM     87  F   UNL A   1      36.378  31.633  29.980  1.00  0.00    -0.200 F 
ATOM     88  C   UNL A   1      36.910  30.032  31.619  1.00  0.00     0.200 A 
ATOM     89  F   UNL A   1      37.476  28.368  33.182  1.00  0.00    -0.200 F 
ATOM     90  F   UNL A   1      35.753  30.264  32.253  1.00  0.00    -0.200 F 
ENDBRANCH  66  80
BRANCH  67  91
ATOM     91  C   UNL A   1      48.547  27.812  27.392  1.00  0.00     0.064 A 
ATOM     92  C   UNL A   1      47.846  27.736  26.171  1.00  0.00     0.173 A 
ATOM     93  C   UNL A   1      49.890  27.412  27.387  1.00  0.00     0.173 A 
ATOM     94  F   UNL A   1      46.551  28.092  26.120  1.00  0.00    -0.203 F 
ATOM     95  C   UNL A   1      48.495  27.431  24.977  1.00  0.00     0.198 A 
ATOM     96  C   UNL A   1      50.529  27.075  26.190  1.00  0.00     0.198 A 
ATOM     97  F   UNL A   1      50.616  27.458  28.512  1.00  0.00    -0.203 F 
ATOM     98  F   UNL A   1      47.829  27.511  23.814  1.00  0.00    -0.200 F 
ATOM     99  C   UNL A   1      49.844  27.129  24.984  1.00  0.00     0.200 A 
ATOM    100  F   UNL A   1      51.840  26.790  26.194  1.00  0.00    -0.200 F 
ATOM    101  F   UNL A   1      50.493  26.928  23.828  1.00  0.00    -0.200 F 
ENDBRANCH  67  91
BRANCH  79 102
ATOM    102  C   UNL A   1      44.200  33.512  27.756  1.00  0.00     0.064 A 
ATOM    103  C   UNL A   1      43.863  33.667  26.401  1.00  0.00     0.173 A 
ATOM    104  C   UNL A   1      43.961  34.643  28.575  1.00  0.00     0.173 A 
ATOM    105  F   UNL A   1      43.894  32.634  25.549  1.00  0.00    -0.203 F 
ATOM    106  C   UNL A   1      43.419  34.886  25.885  1.00  0.00     0.198 A 
ATOM    107  C   UNL A   1      43.445  35.835  28.069  1.00  0.00     0.198 A 
ATOM    108  F   UNL A   1      44.192  34.621  29.895  1.00  0.00    -0.203 F 
ATOM    109  F   UNL A   1      43.177  34.998  24.572  1.00  0.00    -0.200 F 
ATOM    110  C   UNL A   1      43.201  35.966  26.719  1.00  0.00     0.200 A 
ATOM    111  F   UNL A   1      43.168  36.846  28.904  1.00  0.00    -0.200 F 
ATOM    112  F   UNL A   1      42.734  37.120  26.226  1.00  0.00    -0.200 F 
ENDBRANCH  79 102
ENDBRANCH  53  54
ENDBRANCH  45  48
ENDBRANCH  43  44
ENDBRANCH  42  43
ENDBRANCH  41  42
ENDBRANCH  40  41
ENDBRANCH   1  40
TORSDOF 20
ENDMDL
