MODEL 1
REMARK VINA RESULT:     -13.8      0.000      0.000
REMARK SMILES Cc1cc(F)cc(N[C@@](C)(C(=O)NCCCCCCNC(=O)c2ccc(-c3c4nc(c(-c5c(F)c(F)c(F)c(F)c5F)c5ccc([nH]5)c(-c5c(F)c(F)c(F)c(F)c5F)c5nc(c(-c6c(F)c(F)c(F)c(F)c6F)c6ccc3[nH]6)C=C5)C=C4)cc2)c2ccc(O)cc2)c1
REMARK SMILES IDX 16 1 15 2 14 3 13 4 11 5 12 6 9 8 10 9 8 10 7 12 1 13 2 14
REMARK SMILES IDX 3 15 93 16 4 17 5 18 6 19 86 20 87 21 92 22 88 23 91 24
REMARK SMILES IDX 89 25 90 26 17 28 18 29 19 30 20 31 21 32 22 34 23 35 24 36
REMARK SMILES IDX 85 37 25 38 84 39 26 40 27 41 28 42 78 43 29 44 83 45 77 46
REMARK SMILES IDX 79 47 30 48 82 49 76 50 75 51 31 53 63 54 43 55 62 56 44 57
REMARK SMILES IDX 47 58 61 59 80 60 45 61 46 62 60 64 81 65 48 66 32 67 33 68
REMARK SMILES IDX 41 69 34 70 35 71 39 72 42 73 36 74 37 75 40 76 38 77 64 78
REMARK SMILES IDX 65 79 73 80 66 81 67 82 71 83 74 84 68 85 69 86 72 87 70 88
REMARK SMILES IDX 49 89 50 90 58 91 51 92 52 93 56 94 59 95 53 96 54 97 57 98
REMARK SMILES IDX 55 99
REMARK H PARENT 13 7 8 11 90 27 20 33 79 52 47 63
REMARK Flexibility Score: inf
ROOT
ATOM      1  C   UNL A   1      35.733  23.018  23.391  1.00  0.00     0.002 C 
ENDROOT
BRANCH   1   2
ATOM      2  C   UNL A   1      34.470  23.420  24.159  1.00  0.00     0.021 C 
BRANCH   2   3
ATOM      3  C   UNL A   1      33.248  23.674  23.285  1.00  0.00     0.116 C 
BRANCH   3   4
ATOM      4  N   UNL A   1      33.475  24.758  22.363  1.00  0.00    -0.354 N 
ATOM      5  C   UNL A   1      32.803  25.926  22.139  1.00  0.00     0.250 C 
ATOM      6  O   UNL A   1      33.176  26.525  21.123  1.00  0.00    -0.272 OA
ATOM      7  H   UNL A   1      34.263  24.634  21.785  1.00  0.00     0.163 HD
BRANCH   5   8
ATOM      8  C   UNL A   1      31.641  26.435  23.097  1.00  0.00     0.139 C 
ATOM      9  C   UNL A   1      30.706  25.265  23.494  1.00  0.00     0.051 C 
BRANCH   8  10
ATOM     10  N   UNL A   1      30.836  27.425  22.319  1.00  0.00    -0.368 N 
ATOM     11  H   UNL A   1      31.083  27.480  21.368  1.00  0.00     0.161 HD
BRANCH  10  12
ATOM     12  C   UNL A   1      29.809  28.278  22.680  1.00  0.00     0.038 A 
ATOM     13  C   UNL A   1      28.966  31.960  21.981  1.00  0.00     0.044 C 
ATOM     14  C   UNL A   1      28.826  30.519  22.369  1.00  0.00    -0.046 A 
ATOM     15  C   UNL A   1      27.581  30.017  22.743  1.00  0.00     0.042 A 
ATOM     16  C   UNL A   1      29.917  29.634  22.309  1.00  0.00     0.029 A 
ATOM     17  C   UNL A   1      27.488  28.713  23.203  1.00  0.00     0.125 A 
ATOM     18  F   UNL A   1      26.292  28.234  23.571  1.00  0.00    -0.207 F 
ATOM     19  C   UNL A   1      28.601  27.877  23.246  1.00  0.00     0.065 A 
ENDBRANCH  10  12
ENDBRANCH   8  10
BRANCH   8  20
ATOM     20  C   UNL A   1      32.154  26.952  24.469  1.00  0.00    -0.013 A 
ATOM     21  C   UNL A   1      31.342  26.913  25.620  1.00  0.00     0.010 A 
ATOM     22  C   UNL A   1      33.462  27.451  24.627  1.00  0.00     0.010 A 
ATOM     23  C   UNL A   1      31.725  27.570  26.791  1.00  0.00     0.046 A 
ATOM     24  C   UNL A   1      33.861  28.084  25.804  1.00  0.00     0.046 A 
ATOM     25  C   UNL A   1      32.967  28.183  26.859  1.00  0.00     0.115 A 
BRANCH  25  26
ATOM     26  O   UNL A   1      33.277  28.887  27.983  1.00  0.00    -0.508 OA
ATOM     27  H   UNL A   1      33.729  28.468  28.688  1.00  0.00     0.293 HD
ENDBRANCH  25  26
ENDBRANCH   8  20
ENDBRANCH   5   8
ENDBRANCH   3   4
ENDBRANCH   2   3
ENDBRANCH   1   2
BRANCH   1  28
ATOM     28  C   UNL A   1      36.990  22.751  24.240  1.00  0.00     0.002 C 
BRANCH  28  29
ATOM     29  C   UNL A   1      36.908  23.088  25.737  1.00  0.00     0.021 C 
BRANCH  29  30
ATOM     30  C   UNL A   1      37.875  24.174  26.144  1.00  0.00     0.116 C 
BRANCH  30  31
ATOM     31  N   UNL A   1      39.199  23.662  26.493  1.00  0.00    -0.352 N 
ATOM     32  C   UNL A   1      40.323  24.391  26.823  1.00  0.00     0.251 C 
ATOM     33  H   UNL A   1      39.301  22.683  26.491  1.00  0.00     0.163 HD
ATOM     34  O   UNL A   1      41.451  23.898  26.738  1.00  0.00    -0.269 OA
BRANCH  32  35
ATOM     35  C   UNL A   1      40.152  25.768  27.312  1.00  0.00     0.039 A 
ATOM     36  C   UNL A   1      40.432  26.904  26.545  1.00  0.00     0.014 A 
ATOM     37  C   UNL A   1      39.760  25.905  28.637  1.00  0.00     0.014 A 
ATOM     38  C   UNL A   1      40.307  28.160  27.137  1.00  0.00     0.010 A 
ATOM     39  C   UNL A   1      39.346  27.103  29.108  1.00  0.00     0.010 A 
ATOM     40  C   UNL A   1      39.768  28.231  28.425  1.00  0.00    -0.014 A 
BRANCH  40  41
ATOM     41  C   UNL A   1      39.685  29.418  29.249  1.00  0.00     0.031 A 
ATOM     42  C   UNL A   1      38.639  30.385  28.965  1.00  0.00     0.074 A 
ATOM     43  C   UNL A   1      40.506  29.458  30.323  1.00  0.00     0.049 A 
ATOM     44  N   UNL A   1      38.770  31.654  29.085  1.00  0.00    -0.248 NA
ATOM     45  C   UNL A   1      37.333  29.970  28.466  1.00  0.00     0.031 C 
ATOM     46  C   UNL A   1      40.561  30.366  31.452  1.00  0.00     0.029 A 
ATOM     47  N   UNL A   1      41.627  28.626  30.516  1.00  0.00    -0.354 N 
ATOM     48  C   UNL A   1      37.495  32.171  29.069  1.00  0.00     0.074 A 
ATOM     49  C   UNL A   1      36.678  31.135  28.479  1.00  0.00     0.031 C 
ATOM     50  C   UNL A   1      41.800  30.297  31.983  1.00  0.00     0.029 A 
ATOM     51  C   UNL A   1      42.601  29.414  31.143  1.00  0.00     0.049 A 
ATOM     52  H   UNL A   1      41.708  27.677  30.262  1.00  0.00     0.167 HD
ATOM     53  C   UNL A   1      37.251  33.305  29.788  1.00  0.00     0.037 A 
ATOM     54  C   UNL A   1      43.688  29.752  30.385  1.00  0.00     0.037 A 
ATOM     55  C   UNL A   1      38.480  33.731  30.478  1.00  0.00     0.049 A 
ATOM     56  C   UNL A   1      43.643  31.200  29.949  1.00  0.00     0.074 A 
ATOM     57  C   UNL A   1      38.946  33.572  31.775  1.00  0.00     0.029 A 
ATOM     58  N   UNL A   1      39.594  34.060  29.723  1.00  0.00    -0.354 N 
ATOM     59  N   UNL A   1      42.626  31.991  30.160  1.00  0.00    -0.248 NA
ATOM     60  C   UNL A   1      44.716  31.860  29.212  1.00  0.00     0.031 C 
ATOM     61  C   UNL A   1      40.362  33.762  31.768  1.00  0.00     0.029 A 
ATOM     62  C   UNL A   1      40.757  34.046  30.472  1.00  0.00     0.049 A 
ATOM     63  H   UNL A   1      39.561  34.278  28.765  1.00  0.00     0.167 HD
ATOM     64  C   UNL A   1      42.887  33.229  29.654  1.00  0.00     0.074 A 
ATOM     65  C   UNL A   1      44.194  33.085  29.029  1.00  0.00     0.031 C 
ATOM     66  C   UNL A   1      42.027  34.282  29.798  1.00  0.00     0.037 A 
BRANCH  53  67
ATOM     67  C   UNL A   1      35.872  33.822  30.144  1.00  0.00     0.064 A 
ATOM     68  C   UNL A   1      35.034  34.361  29.143  1.00  0.00     0.173 A 
ATOM     69  C   UNL A   1      35.314  33.837  31.439  1.00  0.00     0.173 A 
ATOM     70  F   UNL A   1      35.369  34.307  27.848  1.00  0.00    -0.203 F 
ATOM     71  C   UNL A   1      33.807  34.966  29.431  1.00  0.00     0.198 A 
ATOM     72  C   UNL A   1      34.107  34.483  31.735  1.00  0.00     0.198 A 
ATOM     73  F   UNL A   1      35.873  33.171  32.454  1.00  0.00    -0.203 F 
ATOM     74  F   UNL A   1      33.067  35.466  28.432  1.00  0.00    -0.200 F 
ATOM     75  C   UNL A   1      33.359  35.058  30.730  1.00  0.00     0.200 A 
ATOM     76  F   UNL A   1      33.673  34.533  33.002  1.00  0.00    -0.200 F 
ATOM     77  F   UNL A   1      32.197  35.662  31.009  1.00  0.00    -0.200 F 
ENDBRANCH  53  67
BRANCH  54  78
ATOM     78  C   UNL A   1      44.151  28.581  29.563  1.00  0.00     0.064 A 
ATOM     79  C   UNL A   1      43.942  28.663  28.167  1.00  0.00     0.173 A 
ATOM     80  C   UNL A   1      45.153  27.706  30.007  1.00  0.00     0.173 A 
ATOM     81  F   UNL A   1      42.978  29.461  27.681  1.00  0.00    -0.203 F 
ATOM     82  C   UNL A   1      44.825  28.074  27.264  1.00  0.00     0.198 A 
ATOM     83  C   UNL A   1      46.003  27.072  29.093  1.00  0.00     0.198 A 
ATOM     84  F   UNL A   1      45.393  27.556  31.317  1.00  0.00    -0.203 F 
ATOM     85  F   UNL A   1      44.713  28.333  25.953  1.00  0.00    -0.200 F 
ATOM     86  C   UNL A   1      45.878  27.308  27.730  1.00  0.00     0.200 A 
ATOM     87  F   UNL A   1      46.999  26.295  29.539  1.00  0.00    -0.200 F 
ATOM     88  F   UNL A   1      46.794  26.845  26.868  1.00  0.00    -0.200 F 
ENDBRANCH  54  78
BRANCH  66  89
ATOM     89  C   UNL A   1      42.350  35.665  29.313  1.00  0.00     0.064 A 
ATOM     90  C   UNL A   1      41.843  36.165  28.104  1.00  0.00     0.173 A 
ATOM     91  C   UNL A   1      43.270  36.494  29.989  1.00  0.00     0.173 A 
ATOM     92  F   UNL A   1      41.055  35.413  27.323  1.00  0.00    -0.203 F 
ATOM     93  C   UNL A   1      42.154  37.449  27.658  1.00  0.00     0.198 A 
ATOM     94  C   UNL A   1      43.639  37.743  29.502  1.00  0.00     0.198 A 
ATOM     95  F   UNL A   1      43.823  36.138  31.156  1.00  0.00    -0.203 F 
ATOM     96  F   UNL A   1      41.575  37.921  26.547  1.00  0.00    -0.200 F 
ATOM     97  C   UNL A   1      43.057  38.233  28.352  1.00  0.00     0.200 A 
ATOM     98  F   UNL A   1      44.550  38.469  30.163  1.00  0.00    -0.200 F 
ATOM     99  F   UNL A   1      43.366  39.461  27.916  1.00  0.00    -0.200 F 
ENDBRANCH  66  89
ENDBRANCH  40  41
ENDBRANCH  32  35
ENDBRANCH  30  31
ENDBRANCH  29  30
ENDBRANCH  28  29
ENDBRANCH   1  28
TORSDOF 17
ENDMDL
MODEL 2
REMARK VINA RESULT:     -13.7      4.136     10.413
REMARK SMILES Cc1cc(F)cc(N[C@@](C)(C(=O)NCCCCCCNC(=O)c2ccc(-c3c4nc(c(-c5c(F)c(F)c(F)c(F)c5F)c5ccc([nH]5)c(-c5c(F)c(F)c(F)c(F)c5F)c5nc(c(-c6c(F)c(F)c(F)c(F)c6F)c6ccc3[nH]6)C=C5)C=C4)cc2)c2ccc(O)cc2)c1
REMARK SMILES IDX 16 1 15 2 14 3 13 4 11 5 12 6 9 8 10 9 8 10 7 12 1 13 2 14
REMARK SMILES IDX 3 15 93 16 4 17 5 18 6 19 86 20 87 21 92 22 88 23 91 24
REMARK SMILES IDX 89 25 90 26 17 28 18 29 19 30 20 31 21 32 22 34 23 35 24 36
REMARK SMILES IDX 85 37 25 38 84 39 26 40 27 41 28 42 78 43 29 44 83 45 77 46
REMARK SMILES IDX 79 47 30 48 82 49 76 50 75 51 31 53 63 54 43 55 62 56 44 57
REMARK SMILES IDX 47 58 61 59 80 60 45 61 46 62 60 64 81 65 48 66 32 67 33 68
REMARK SMILES IDX 41 69 34 70 35 71 39 72 42 73 36 74 37 75 40 76 38 77 64 78
REMARK SMILES IDX 65 79 73 80 66 81 67 82 71 83 74 84 68 85 69 86 72 87 70 88
REMARK SMILES IDX 49 89 50 90 58 91 51 92 52 93 56 94 59 95 53 96 54 97 57 98
REMARK SMILES IDX 55 99
REMARK H PARENT 13 7 8 11 90 27 20 33 79 52 47 63
REMARK Flexibility Score: inf
ROOT
ATOM      1  C   UNL A   1      31.558  28.128  25.525  1.00  0.00     0.002 C 
ENDROOT
BRANCH   1   2
ATOM      2  C   UNL A   1      31.477  26.942  26.490  1.00  0.00     0.021 C 
BRANCH   2   3
ATOM      3  C   UNL A   1      31.377  25.579  25.816  1.00  0.00     0.116 C 
BRANCH   3   4
ATOM      4  N   UNL A   1      31.246  24.519  26.784  1.00  0.00    -0.354 N 
ATOM      5  C   UNL A   1      31.461  23.174  26.704  1.00  0.00     0.250 C 
ATOM      6  O   UNL A   1      31.051  22.546  27.688  1.00  0.00    -0.272 OA
ATOM      7  H   UNL A   1      30.945  24.823  27.672  1.00  0.00     0.163 HD
BRANCH   5   8
ATOM      8  C   UNL A   1      32.156  22.498  25.444  1.00  0.00     0.139 C 
ATOM      9  C   UNL A   1      31.467  22.948  24.131  1.00  0.00     0.051 C 
BRANCH   8  10
ATOM     10  N   UNL A   1      31.967  21.021  25.580  1.00  0.00    -0.368 N 
ATOM     11  H   UNL A   1      31.402  20.760  26.342  1.00  0.00     0.161 HD
BRANCH  10  12
ATOM     12  C   UNL A   1      32.435  19.951  24.839  1.00  0.00     0.038 A 
ATOM     13  C   UNL A   1      33.412  16.322  25.630  1.00  0.00     0.044 C 
ATOM     14  C   UNL A   1      33.013  17.554  24.875  1.00  0.00    -0.046 A 
ATOM     15  C   UNL A   1      32.787  17.486  23.502  1.00  0.00     0.042 A 
ATOM     16  C   UNL A   1      32.799  18.778  25.532  1.00  0.00     0.029 A 
ATOM     17  C   UNL A   1      32.526  18.652  22.801  1.00  0.00     0.125 A 
ATOM     18  F   UNL A   1      32.318  18.587  21.479  1.00  0.00    -0.207 F 
ATOM     19  C   UNL A   1      32.429  19.882  23.448  1.00  0.00     0.065 A 
ENDBRANCH  10  12
ENDBRANCH   8  10
BRANCH   8  20
ATOM     20  C   UNL A   1      33.628  22.947  25.237  1.00  0.00    -0.013 A 
ATOM     21  C   UNL A   1      34.166  23.132  23.948  1.00  0.00     0.010 A 
ATOM     22  C   UNL A   1      34.477  23.217  26.328  1.00  0.00     0.010 A 
ATOM     23  C   UNL A   1      35.537  23.324  23.763  1.00  0.00     0.046 A 
ATOM     24  C   UNL A   1      35.843  23.438  26.149  1.00  0.00     0.046 A 
ATOM     25  C   UNL A   1      36.369  23.437  24.866  1.00  0.00     0.115 A 
BRANCH  25  26
ATOM     26  O   UNL A   1      37.710  23.538  24.654  1.00  0.00    -0.508 OA
ATOM     27  H   UNL A   1      38.280  22.842  24.915  1.00  0.00     0.293 HD
ENDBRANCH  25  26
ENDBRANCH   8  20
ENDBRANCH   5   8
ENDBRANCH   3   4
ENDBRANCH   2   3
ENDBRANCH   1   2
BRANCH   1  28
ATOM     28  C   UNL A   1      32.579  29.225  25.878  1.00  0.00     0.002 C 
BRANCH  28  29
ATOM     29  C   UNL A   1      34.067  28.862  25.752  1.00  0.00     0.021 C 
BRANCH  29  30
ATOM     30  C   UNL A   1      34.792  28.904  27.076  1.00  0.00     0.116 C 
BRANCH  30  31
ATOM     31  N   UNL A   1      35.182  30.255  27.475  1.00  0.00    -0.352 N 
ATOM     32  C   UNL A   1      36.235  30.622  28.288  1.00  0.00     0.251 C 
ATOM     33  H   UNL A   1      34.628  30.988  27.122  1.00  0.00     0.163 HD
ATOM     34  O   UNL A   1      36.254  31.720  28.849  1.00  0.00    -0.269 OA
BRANCH  32  35
ATOM     35  C   UNL A   1      37.357  29.686  28.452  1.00  0.00     0.039 A 
ATOM     36  C   UNL A   1      37.501  28.833  29.552  1.00  0.00     0.014 A 
ATOM     37  C   UNL A   1      38.346  29.736  27.479  1.00  0.00     0.014 A 
ATOM     38  C   UNL A   1      38.647  28.044  29.642  1.00  0.00     0.010 A 
ATOM     39  C   UNL A   1      39.285  28.766  27.407  1.00  0.00     0.010 A 
ATOM     40  C   UNL A   1      39.529  28.034  28.557  1.00  0.00    -0.014 A 
BRANCH  40  41
ATOM     41  C   UNL A   1      40.823  27.390  28.518  1.00  0.00     0.031 A 
ATOM     42  C   UNL A   1      40.877  25.956  28.292  1.00  0.00     0.074 A 
ATOM     43  C   UNL A   1      41.900  28.210  28.547  1.00  0.00     0.049 A 
ATOM     44  N   UNL A   1      41.731  25.166  28.830  1.00  0.00    -0.248 NA
ATOM     45  C   UNL A   1      39.902  25.283  27.441  1.00  0.00     0.031 C 
ATOM     46  C   UNL A   1      43.309  27.947  28.331  1.00  0.00     0.029 A 
ATOM     47  N   UNL A   1      41.874  29.565  28.931  1.00  0.00    -0.354 N 
ATOM     48  C   UNL A   1      41.671  23.996  28.108  1.00  0.00     0.074 A 
ATOM     49  C   UNL A   1      40.402  24.043  27.418  1.00  0.00     0.031 C 
ATOM     50  C   UNL A   1      44.013  28.935  28.921  1.00  0.00     0.029 A 
ATOM     51  C   UNL A   1      43.072  29.804  29.618  1.00  0.00     0.049 A 
ATOM     52  H   UNL A   1      41.156  30.215  28.752  1.00  0.00     0.167 HD
ATOM     53  C   UNL A   1      42.812  23.256  27.988  1.00  0.00     0.037 A 
ATOM     54  C   UNL A   1      42.969  30.002  30.967  1.00  0.00     0.037 A 
ATOM     55  C   UNL A   1      43.920  23.934  28.681  1.00  0.00     0.049 A 
ATOM     56  C   UNL A   1      43.448  28.801  31.752  1.00  0.00     0.074 A 
ATOM     57  C   UNL A   1      44.960  24.743  28.248  1.00  0.00     0.029 A 
ATOM     58  N   UNL A   1      43.822  24.157  30.045  1.00  0.00    -0.354 N 
ATOM     59  N   UNL A   1      43.791  27.666  31.205  1.00  0.00    -0.248 NA
ATOM     60  C   UNL A   1      43.542  28.767  33.207  1.00  0.00     0.031 C 
ATOM     61  C   UNL A   1      45.443  25.489  29.368  1.00  0.00     0.029 A 
ATOM     62  C   UNL A   1      44.707  25.125  30.482  1.00  0.00     0.049 A 
ATOM     63  H   UNL A   1      43.196  23.680  30.634  1.00  0.00     0.167 HD
ATOM     64  C   UNL A   1      44.177  26.783  32.169  1.00  0.00     0.074 A 
ATOM     65  C   UNL A   1      43.961  27.506  33.414  1.00  0.00     0.031 C 
ATOM     66  C   UNL A   1      44.660  25.538  31.879  1.00  0.00     0.037 A 
BRANCH  53  67
ATOM     67  C   UNL A   1      43.014  22.137  26.986  1.00  0.00     0.064 A 
ATOM     68  C   UNL A   1      42.299  20.927  27.118  1.00  0.00     0.173 A 
ATOM     69  C   UNL A   1      43.898  22.172  25.888  1.00  0.00     0.173 A 
ATOM     70  F   UNL A   1      41.333  20.783  28.034  1.00  0.00    -0.203 F 
ATOM     71  C   UNL A   1      42.535  19.817  26.302  1.00  0.00     0.198 A 
ATOM     72  C   UNL A   1      44.169  21.048  25.099  1.00  0.00     0.198 A 
ATOM     73  F   UNL A   1      44.481  23.307  25.490  1.00  0.00    -0.203 F 
ATOM     74  F   UNL A   1      41.825  18.696  26.488  1.00  0.00    -0.200 F 
ATOM     75  C   UNL A   1      43.494  19.866  25.314  1.00  0.00     0.200 A 
ATOM     76  F   UNL A   1      45.084  21.126  24.122  1.00  0.00    -0.200 F 
ATOM     77  F   UNL A   1      43.740  18.793  24.550  1.00  0.00    -0.200 F 
ENDBRANCH  53  67
BRANCH  54  78
ATOM     78  C   UNL A   1      41.787  30.873  31.290  1.00  0.00     0.064 A 
ATOM     79  C   UNL A   1      40.704  30.252  31.954  1.00  0.00     0.173 A 
ATOM     80  C   UNL A   1      41.896  32.266  31.415  1.00  0.00     0.173 A 
ATOM     81  F   UNL A   1      40.529  28.925  31.849  1.00  0.00    -0.203 F 
ATOM     82  C   UNL A   1      39.910  30.951  32.861  1.00  0.00     0.198 A 
ATOM     83  C   UNL A   1      41.058  32.972  32.287  1.00  0.00     0.198 A 
ATOM     84  F   UNL A   1      42.882  32.928  30.794  1.00  0.00    -0.203 F 
ATOM     85  F   UNL A   1      39.021  30.291  33.618  1.00  0.00    -0.200 F 
ATOM     86  C   UNL A   1      40.112  32.305  33.054  1.00  0.00     0.200 A 
ATOM     87  F   UNL A   1      41.223  34.292  32.444  1.00  0.00    -0.200 F 
ATOM     88  F   UNL A   1      39.432  32.948  34.013  1.00  0.00    -0.200 F 
ENDBRANCH  54  78
BRANCH  66  89
ATOM     89  C   UNL A   1      45.162  24.597  32.935  1.00  0.00     0.064 A 
ATOM     90  C   UNL A   1      46.426  24.749  33.524  1.00  0.00     0.173 A 
ATOM     91  C   UNL A   1      44.437  23.446  33.311  1.00  0.00     0.173 A 
ATOM     92  F   UNL A   1      47.247  25.742  33.151  1.00  0.00    -0.203 F 
ATOM     93  C   UNL A   1      46.887  23.866  34.500  1.00  0.00     0.198 A 
ATOM     94  C   UNL A   1      44.933  22.525  34.227  1.00  0.00     0.198 A 
ATOM     95  F   UNL A   1      43.216  23.186  32.827  1.00  0.00    -0.203 F 
ATOM     96  F   UNL A   1      48.060  24.100  35.103  1.00  0.00    -0.200 F 
ATOM     97  C   UNL A   1      46.145  22.752  34.845  1.00  0.00     0.200 A 
ATOM     98  F   UNL A   1      44.221  21.427  34.514  1.00  0.00    -0.200 F 
ATOM     99  F   UNL A   1      46.594  21.897  35.772  1.00  0.00    -0.200 F 
ENDBRANCH  66  89
ENDBRANCH  40  41
ENDBRANCH  32  35
ENDBRANCH  30  31
ENDBRANCH  29  30
ENDBRANCH  28  29
ENDBRANCH   1  28
TORSDOF 17
ENDMDL
MODEL 3
REMARK VINA RESULT:     -13.5      1.514      2.879
REMARK SMILES Cc1cc(F)cc(N[C@@](C)(C(=O)NCCCCCCNC(=O)c2ccc(-c3c4nc(c(-c5c(F)c(F)c(F)c(F)c5F)c5ccc([nH]5)c(-c5c(F)c(F)c(F)c(F)c5F)c5nc(c(-c6c(F)c(F)c(F)c(F)c6F)c6ccc3[nH]6)C=C5)C=C4)cc2)c2ccc(O)cc2)c1
REMARK SMILES IDX 16 1 15 2 14 3 13 4 11 5 12 6 9 8 10 9 8 10 7 12 1 13 2 14
REMARK SMILES IDX 3 15 93 16 4 17 5 18 6 19 86 20 87 21 92 22 88 23 91 24
REMARK SMILES IDX 89 25 90 26 17 28 18 29 19 30 20 31 21 32 22 34 23 35 24 36
REMARK SMILES IDX 85 37 25 38 84 39 26 40 27 41 28 42 78 43 29 44 83 45 77 46
REMARK SMILES IDX 79 47 30 48 82 49 76 50 75 51 31 53 63 54 43 55 62 56 44 57
REMARK SMILES IDX 47 58 61 59 80 60 45 61 46 62 60 64 81 65 48 66 32 67 33 68
REMARK SMILES IDX 41 69 34 70 35 71 39 72 42 73 36 74 37 75 40 76 38 77 64 78
REMARK SMILES IDX 65 79 73 80 66 81 67 82 71 83 74 84 68 85 69 86 72 87 70 88
REMARK SMILES IDX 49 89 50 90 58 91 51 92 52 93 56 94 59 95 53 96 54 97 57 98
REMARK SMILES IDX 55 99
REMARK H PARENT 13 7 8 11 90 27 20 33 79 52 47 63
REMARK Flexibility Score: inf
ROOT
ATOM      1  C   UNL A   1      35.057  24.946  25.379  1.00  0.00     0.002 C 
ENDROOT
BRANCH   1   2
ATOM      2  C   UNL A   1      34.195  25.187  24.137  1.00  0.00     0.021 C 
BRANCH   2   3
ATOM      3  C   UNL A   1      33.759  26.633  23.936  1.00  0.00     0.116 C 
BRANCH   3   4
ATOM      4  N   UNL A   1      32.962  26.784  22.744  1.00  0.00    -0.354 N 
ATOM      5  C   UNL A   1      31.620  26.943  22.555  1.00  0.00     0.250 C 
ATOM      6  O   UNL A   1      31.271  26.840  21.372  1.00  0.00    -0.272 OA
ATOM      7  H   UNL A   1      33.485  26.771  21.909  1.00  0.00     0.163 HD
BRANCH   5   8
ATOM      8  C   UNL A   1      30.617  27.213  23.758  1.00  0.00     0.139 C 
ATOM      9  C   UNL A   1      31.390  27.657  25.026  1.00  0.00     0.051 C 
BRANCH   8  10
ATOM     10  N   UNL A   1      29.940  25.916  24.063  1.00  0.00    -0.368 N 
ATOM     11  H   UNL A   1      28.963  25.941  23.951  1.00  0.00     0.161 HD
BRANCH  10  12
ATOM     12  C   UNL A   1      30.425  24.687  24.472  1.00  0.00     0.038 A 
ATOM     13  C   UNL A   1      32.040  21.681  22.709  1.00  0.00     0.044 C 
ATOM     14  C   UNL A   1      31.610  22.638  23.780  1.00  0.00    -0.046 A 
ATOM     15  C   UNL A   1      32.016  22.435  25.097  1.00  0.00     0.042 A 
ATOM     16  C   UNL A   1      30.849  23.780  23.479  1.00  0.00     0.029 A 
ATOM     17  C   UNL A   1      31.522  23.265  26.092  1.00  0.00     0.125 A 
ATOM     18  F   UNL A   1      31.905  23.063  27.360  1.00  0.00    -0.207 F 
ATOM     19  C   UNL A   1      30.674  24.329  25.795  1.00  0.00     0.065 A 
ENDBRANCH  10  12
ENDBRANCH   8  10
BRANCH   8  20
ATOM     20  C   UNL A   1      29.653  28.403  23.503  1.00  0.00    -0.013 A 
ATOM     21  C   UNL A   1      30.097  29.738  23.574  1.00  0.00     0.010 A 
ATOM     22  C   UNL A   1      28.303  28.198  23.159  1.00  0.00     0.010 A 
ATOM     23  C   UNL A   1      29.189  30.799  23.558  1.00  0.00     0.046 A 
ATOM     24  C   UNL A   1      27.395  29.256  23.113  1.00  0.00     0.046 A 
ATOM     25  C   UNL A   1      27.840  30.544  23.365  1.00  0.00     0.115 A 
BRANCH  25  26
ATOM     26  O   UNL A   1      26.970  31.589  23.438  1.00  0.00    -0.508 OA
ATOM     27  H   UNL A   1      27.031  32.202  24.144  1.00  0.00     0.293 HD
ENDBRANCH  25  26
ENDBRANCH   8  20
ENDBRANCH   5   8
ENDBRANCH   3   4
ENDBRANCH   2   3
ENDBRANCH   1   2
BRANCH   1  28
ATOM     28  C   UNL A   1      35.355  23.475  25.727  1.00  0.00     0.002 C 
BRANCH  28  29
ATOM     29  C   UNL A   1      36.830  23.049  25.760  1.00  0.00     0.021 C 
BRANCH  29  30
ATOM     30  C   UNL A   1      37.724  24.084  26.400  1.00  0.00     0.116 C 
BRANCH  30  31
ATOM     31  N   UNL A   1      39.046  23.566  26.747  1.00  0.00    -0.352 N 
ATOM     32  C   UNL A   1      40.182  24.290  27.047  1.00  0.00     0.251 C 
ATOM     33  H   UNL A   1      39.136  22.586  26.768  1.00  0.00     0.163 HD
ATOM     34  O   UNL A   1      41.302  23.782  26.962  1.00  0.00    -0.269 OA
BRANCH  32  35
ATOM     35  C   UNL A   1      40.031  25.679  27.504  1.00  0.00     0.039 A 
ATOM     36  C   UNL A   1      40.337  26.793  26.714  1.00  0.00     0.014 A 
ATOM     37  C   UNL A   1      39.631  25.854  28.823  1.00  0.00     0.014 A 
ATOM     38  C   UNL A   1      40.231  28.064  27.277  1.00  0.00     0.010 A 
ATOM     39  C   UNL A   1      39.235  27.069  29.263  1.00  0.00     0.010 A 
ATOM     40  C   UNL A   1      39.683  28.174  28.559  1.00  0.00    -0.014 A 
BRANCH  40  41
ATOM     41  C   UNL A   1      39.615  29.380  29.355  1.00  0.00     0.031 A 
ATOM     42  C   UNL A   1      38.577  30.351  29.053  1.00  0.00     0.074 A 
ATOM     43  C   UNL A   1      40.441  29.437  30.425  1.00  0.00     0.049 A 
ATOM     44  N   UNL A   1      38.722  31.621  29.143  1.00  0.00    -0.248 NA
ATOM     45  C   UNL A   1      37.265  29.938  28.570  1.00  0.00     0.031 C 
ATOM     46  C   UNL A   1      40.511  30.370  31.532  1.00  0.00     0.029 A 
ATOM     47  N   UNL A   1      41.555  28.598  30.632  1.00  0.00    -0.354 N 
ATOM     48  C   UNL A   1      37.451  32.150  29.120  1.00  0.00     0.074 A 
ATOM     49  C   UNL A   1      36.621  31.109  28.558  1.00  0.00     0.031 C 
ATOM     50  C   UNL A   1      41.751  30.302  32.059  1.00  0.00     0.029 A 
ATOM     51  C   UNL A   1      42.539  29.392  31.236  1.00  0.00     0.049 A 
ATOM     52  H   UNL A   1      41.625  27.644  30.399  1.00  0.00     0.167 HD
ATOM     53  C   UNL A   1      37.222  33.303  29.814  1.00  0.00     0.037 A 
ATOM     54  C   UNL A   1      43.626  29.702  30.466  1.00  0.00     0.037 A 
ATOM     55  C   UNL A   1      38.458  33.732  30.489  1.00  0.00     0.049 A 
ATOM     56  C   UNL A   1      43.594  31.139  29.997  1.00  0.00     0.074 A 
ATOM     57  C   UNL A   1      38.927  33.599  31.787  1.00  0.00     0.029 A 
ATOM     58  N   UNL A   1      39.572  34.032  29.722  1.00  0.00    -0.354 N 
ATOM     59  N   UNL A   1      42.585  31.945  30.194  1.00  0.00    -0.248 NA
ATOM     60  C   UNL A   1      44.670  31.771  29.241  1.00  0.00     0.031 C 
ATOM     61  C   UNL A   1      40.346  33.774  31.770  1.00  0.00     0.029 A 
ATOM     62  C   UNL A   1      40.737  34.025  30.466  1.00  0.00     0.049 A 
ATOM     63  H   UNL A   1      39.537  34.229  28.759  1.00  0.00     0.167 HD
ATOM     64  C   UNL A   1      42.856  33.168  29.658  1.00  0.00     0.074 A 
ATOM     65  C   UNL A   1      44.159  32.997  29.032  1.00  0.00     0.031 C 
ATOM     66  C   UNL A   1      42.007  34.233  29.781  1.00  0.00     0.037 A 
BRANCH  53  67
ATOM     67  C   UNL A   1      35.849  33.841  30.164  1.00  0.00     0.064 A 
ATOM     68  C   UNL A   1      35.010  34.359  29.154  1.00  0.00     0.173 A 
ATOM     69  C   UNL A   1      35.299  33.897  31.461  1.00  0.00     0.173 A 
ATOM     70  F   UNL A   1      35.336  34.266  27.858  1.00  0.00    -0.203 F 
ATOM     71  C   UNL A   1      33.790  34.983  29.431  1.00  0.00     0.198 A 
ATOM     72  C   UNL A   1      34.100  34.561  31.746  1.00  0.00     0.198 A 
ATOM     73  F   UNL A   1      35.859  33.255  32.491  1.00  0.00    -0.203 F 
ATOM     74  F   UNL A   1      33.047  35.460  28.423  1.00  0.00    -0.200 F 
ATOM     75  C   UNL A   1      33.350  35.114  30.730  1.00  0.00     0.200 A 
ATOM     76  F   UNL A   1      33.674  34.650  33.014  1.00  0.00    -0.200 F 
ATOM     77  F   UNL A   1      32.195  35.736  30.999  1.00  0.00    -0.200 F 
ENDBRANCH  53  67
BRANCH  54  78
ATOM     78  C   UNL A   1      44.074  28.507  29.670  1.00  0.00     0.064 A 
ATOM     79  C   UNL A   1      43.870  28.563  28.272  1.00  0.00     0.173 A 
ATOM     80  C   UNL A   1      45.063  27.628  30.134  1.00  0.00     0.173 A 
ATOM     81  F   UNL A   1      42.918  29.364  27.768  1.00  0.00    -0.203 F 
ATOM     82  C   UNL A   1      44.746  27.943  27.384  1.00  0.00     0.198 A 
ATOM     83  C   UNL A   1      45.906  26.962  29.235  1.00  0.00     0.198 A 
ATOM     84  F   UNL A   1      45.297  27.501  31.448  1.00  0.00    -0.203 F 
ATOM     85  F   UNL A   1      44.640  28.176  26.067  1.00  0.00    -0.200 F 
ATOM     86  C   UNL A   1      45.787  27.172  27.867  1.00  0.00     0.200 A 
ATOM     87  F   UNL A   1      46.890  26.180  29.700  1.00  0.00    -0.200 F 
ATOM     88  F   UNL A   1      46.698  26.678  27.018  1.00  0.00    -0.200 F 
ENDBRANCH  54  78
BRANCH  66  89
ATOM     89  C   UNL A   1      42.342  35.601  29.263  1.00  0.00     0.064 A 
ATOM     90  C   UNL A   1      41.828  36.081  28.049  1.00  0.00     0.173 A 
ATOM     91  C   UNL A   1      43.278  36.433  29.912  1.00  0.00     0.173 A 
ATOM     92  F   UNL A   1      41.022  35.321  27.292  1.00  0.00    -0.203 F 
ATOM     93  C   UNL A   1      42.149  37.350  27.572  1.00  0.00     0.198 A 
ATOM     94  C   UNL A   1      43.657  37.667  29.393  1.00  0.00     0.198 A 
ATOM     95  F   UNL A   1      43.839  36.095  31.080  1.00  0.00    -0.203 F 
ATOM     96  F   UNL A   1      41.564  37.806  26.457  1.00  0.00    -0.200 F 
ATOM     97  C   UNL A   1      43.068  38.139  28.240  1.00  0.00     0.200 A 
ATOM     98  F   UNL A   1      44.583  38.396  30.030  1.00  0.00    -0.200 F 
ATOM     99  F   UNL A   1      43.387  39.353  27.773  1.00  0.00    -0.200 F 
ENDBRANCH  66  89
ENDBRANCH  40  41
ENDBRANCH  32  35
ENDBRANCH  30  31
ENDBRANCH  29  30
ENDBRANCH  28  29
ENDBRANCH   1  28
TORSDOF 17
ENDMDL
