MODEL 1
REMARK VINA RESULT:     -12.0      0.000      0.000
REMARK SMILES Cc1ccc(/C=C/C(=O)N[C@](C)(C(=O)NCCCCCCNC(=O)c2ccc(-c3c4nc(c(-c5c(F)c(F)c(F)c(F)c5F)c5ccc([nH]5)c(-c5c(F)c(F)c(F)c(F)c5F)c5nc(c(-c6c(F)c(F)c(F)c(F)c6F)c6ccc3[nH]6)C=C5)C=C4)cc2)C(F)(F)F)o1
REMARK SMILES IDX 18 1 17 2 16 3 15 4 13 5 14 6 11 8 12 9 10 10 8 11 9 12 7 14
REMARK SMILES IDX 6 15 5 16 1 17 2 18 3 19 92 20 4 21 88 22 89 23 90 24 91 25
REMARK SMILES IDX 19 26 20 27 21 28 22 29 23 30 24 32 25 33 26 34 87 35 27 36
REMARK SMILES IDX 86 37 28 38 29 39 30 40 80 41 31 42 85 43 79 44 81 45 32 46
REMARK SMILES IDX 84 47 78 48 77 49 33 51 65 52 45 53 64 54 46 55 49 56 63 57
REMARK SMILES IDX 82 58 47 59 48 60 62 62 83 63 50 64 34 65 35 66 43 67 36 68
REMARK SMILES IDX 37 69 41 70 44 71 38 72 39 73 42 74 40 75 66 76 67 77 75 78
REMARK SMILES IDX 68 79 69 80 73 81 76 82 70 83 71 84 74 85 72 86 51 87 52 88
REMARK SMILES IDX 60 89 53 90 54 91 58 92 61 93 55 94 56 95 59 96 57 97
REMARK H PARENT 15 7 10 13 22 31 81 50 49 61
REMARK Flexibility Score: inf
ROOT
ATOM      1  C   UNL A   1      31.903  29.509  26.201  1.00  0.00     0.002 C 
ENDROOT
BRANCH   1   2
ATOM      2  C   UNL A   1      33.338  29.222  25.756  1.00  0.00     0.021 C 
BRANCH   2   3
ATOM      3  C   UNL A   1      33.698  27.732  25.665  1.00  0.00     0.116 C 
BRANCH   3   4
ATOM      4  N   UNL A   1      32.640  26.914  26.239  1.00  0.00    -0.354 N 
ATOM      5  C   UNL A   1      32.088  25.700  25.976  1.00  0.00     0.254 C 
ATOM      6  O   UNL A   1      31.053  25.485  26.622  1.00  0.00    -0.272 OA
ATOM      7  H   UNL A   1      32.216  27.351  27.014  1.00  0.00     0.163 HD
BRANCH   5   8
ATOM      8  C   UNL A   1      32.559  24.673  24.909  1.00  0.00     0.212 C 
ATOM      9  C   UNL A   1      31.442  23.637  24.661  1.00  0.00     0.056 C 
BRANCH   8  10
ATOM     10  N   UNL A   1      33.149  25.237  23.641  1.00  0.00    -0.331 N 
ATOM     11  C   UNL A   1      32.758  25.938  22.553  1.00  0.00     0.245 C 
ATOM     12  O   UNL A   1      33.582  26.082  21.649  1.00  0.00    -0.270 OA
ATOM     13  H   UNL A   1      34.111  25.032  23.591  1.00  0.00     0.165 HD
BRANCH  11  14
ATOM     14  C   UNL A   1      31.429  26.555  22.379  1.00  0.00     0.075 C 
ATOM     15  C   UNL A   1      31.118  27.757  22.865  1.00  0.00     0.053 C 
BRANCH  15  16
ATOM     16  C   UNL A   1      29.899  28.424  22.608  1.00  0.00     0.127 A 
ATOM     17  C   UNL A   1      28.089  31.078  21.011  1.00  0.00     0.087 C 
ATOM     18  C   UNL A   1      28.455  29.912  21.836  1.00  0.00     0.101 A 
ATOM     19  C   UNL A   1      27.764  29.159  22.753  1.00  0.00     0.046 A 
ATOM     20  O   UNL A   1      29.735  29.460  21.722  1.00  0.00    -0.462 OA
ATOM     21  C   UNL A   1      28.685  28.215  23.251  1.00  0.00     0.050 A 
ENDBRANCH  15  16
ENDBRANCH  11  14
ENDBRANCH   8  10
BRANCH   8  22
ATOM     22  C   UNL A   1      33.697  23.897  25.645  1.00  0.00     0.420 C 
ATOM     23  F   UNL A   1      34.114  22.775  25.025  1.00  0.00    -0.168 F 
ATOM     24  F   UNL A   1      34.793  24.694  25.770  1.00  0.00    -0.168 F 
ATOM     25  F   UNL A   1      33.321  23.568  26.905  1.00  0.00    -0.168 F 
ENDBRANCH   8  22
ENDBRANCH   5   8
ENDBRANCH   3   4
ENDBRANCH   2   3
ENDBRANCH   1   2
BRANCH   1  26
ATOM     26  C   UNL A   1      31.225  30.681  25.484  1.00  0.00     0.002 C 
BRANCH  26  27
ATOM     27  C   UNL A   1      31.160  31.996  26.269  1.00  0.00     0.021 C 
BRANCH  27  28
ATOM     28  C   UNL A   1      32.437  32.387  27.014  1.00  0.00     0.116 C 
BRANCH  28  29
ATOM     29  N   UNL A   1      32.427  33.781  27.426  1.00  0.00    -0.352 N 
ATOM     30  C   UNL A   1      33.155  34.428  28.387  1.00  0.00     0.251 C 
ATOM     31  H   UNL A   1      31.794  34.352  26.934  1.00  0.00     0.163 HD
ATOM     32  O   UNL A   1      32.843  35.577  28.707  1.00  0.00    -0.269 OA
BRANCH  30  33
ATOM     33  C   UNL A   1      34.305  33.780  29.056  1.00  0.00     0.039 A 
ATOM     34  C   UNL A   1      35.596  34.175  28.690  1.00  0.00     0.014 A 
ATOM     35  C   UNL A   1      34.134  32.743  29.978  1.00  0.00     0.014 A 
ATOM     36  C   UNL A   1      36.707  33.557  29.268  1.00  0.00     0.010 A 
ATOM     37  C   UNL A   1      35.244  32.167  30.600  1.00  0.00     0.010 A 
ATOM     38  C   UNL A   1      36.543  32.560  30.242  1.00  0.00    -0.014 A 
BRANCH  38  39
ATOM     39  C   UNL A   1      37.728  31.929  30.880  1.00  0.00     0.031 A 
ATOM     40  C   UNL A   1      38.166  32.335  32.262  1.00  0.00     0.074 A 
ATOM     41  C   UNL A   1      38.433  31.005  30.198  1.00  0.00     0.049 A 
ATOM     42  N   UNL A   1      39.164  31.883  32.980  1.00  0.00    -0.248 NA
ATOM     43  C   UNL A   1      37.399  33.407  32.915  1.00  0.00     0.031 C 
ATOM     44  C   UNL A   1      38.156  30.577  28.825  1.00  0.00     0.029 A 
ATOM     45  N   UNL A   1      39.530  30.265  30.561  1.00  0.00    -0.354 N 
ATOM     46  C   UNL A   1      39.156  32.625  34.154  1.00  0.00     0.074 A 
ATOM     47  C   UNL A   1      38.079  33.584  34.039  1.00  0.00     0.031 C 
ATOM     48  C   UNL A   1      39.046  29.637  28.470  1.00  0.00     0.029 A 
ATOM     49  C   UNL A   1      39.967  29.409  29.579  1.00  0.00     0.049 A 
ATOM     50  H   UNL A   1      39.963  30.340  31.442  1.00  0.00     0.167 HD
ATOM     51  C   UNL A   1      39.962  32.503  35.236  1.00  0.00     0.037 A 
ATOM     52  C   UNL A   1      40.991  28.535  29.577  1.00  0.00     0.037 A 
ATOM     53  C   UNL A   1      41.003  31.517  35.369  1.00  0.00     0.049 A 
ATOM     54  C   UNL A   1      41.826  28.377  30.819  1.00  0.00     0.074 A 
ATOM     55  C   UNL A   1      41.810  31.256  36.464  1.00  0.00     0.029 A 
ATOM     56  N   UNL A   1      41.381  30.629  34.374  1.00  0.00    -0.354 N 
ATOM     57  N   UNL A   1      41.742  29.016  31.961  1.00  0.00    -0.248 NA
ATOM     58  C   UNL A   1      42.885  27.359  30.779  1.00  0.00     0.031 C 
ATOM     59  C   UNL A   1      42.703  30.236  36.118  1.00  0.00     0.029 A 
ATOM     60  C   UNL A   1      42.421  29.831  34.823  1.00  0.00     0.049 A 
ATOM     61  H   UNL A   1      40.971  30.573  33.481  1.00  0.00     0.167 HD
ATOM     62  C   UNL A   1      42.716  28.463  32.780  1.00  0.00     0.074 A 
ATOM     63  C   UNL A   1      43.363  27.418  32.013  1.00  0.00     0.031 C 
ATOM     64  C   UNL A   1      43.051  28.793  34.051  1.00  0.00     0.037 A 
BRANCH  51  65
ATOM     65  C   UNL A   1      39.750  33.451  36.380  1.00  0.00     0.064 A 
ATOM     66  C   UNL A   1      40.359  34.715  36.411  1.00  0.00     0.173 A 
ATOM     67  C   UNL A   1      38.868  33.121  37.421  1.00  0.00     0.173 A 
ATOM     68  F   UNL A   1      41.218  35.075  35.445  1.00  0.00    -0.203 F 
ATOM     69  C   UNL A   1      40.104  35.607  37.449  1.00  0.00     0.198 A 
ATOM     70  C   UNL A   1      38.596  34.026  38.444  1.00  0.00     0.198 A 
ATOM     71  F   UNL A   1      38.256  31.929  37.435  1.00  0.00    -0.203 F 
ATOM     72  F   UNL A   1      40.721  36.797  37.476  1.00  0.00    -0.200 F 
ATOM     73  C   UNL A   1      39.216  35.266  38.460  1.00  0.00     0.200 A 
ATOM     74  F   UNL A   1      37.729  33.699  39.412  1.00  0.00    -0.200 F 
ATOM     75  F   UNL A   1      38.961  36.132  39.450  1.00  0.00    -0.200 F 
ENDBRANCH  51  65
BRANCH  52  76
ATOM     76  C   UNL A   1      41.271  27.715  28.369  1.00  0.00     0.064 A 
ATOM     77  C   UNL A   1      42.166  28.160  27.386  1.00  0.00     0.173 A 
ATOM     78  C   UNL A   1      40.629  26.486  28.161  1.00  0.00     0.173 A 
ATOM     79  F   UNL A   1      42.788  29.339  27.531  1.00  0.00    -0.203 F 
ATOM     80  C   UNL A   1      42.382  27.422  26.224  1.00  0.00     0.198 A 
ATOM     81  C   UNL A   1      40.869  25.735  27.013  1.00  0.00     0.198 A 
ATOM     82  F   UNL A   1      39.770  26.014  29.075  1.00  0.00    -0.203 F 
ATOM     83  F   UNL A   1      43.198  27.899  25.273  1.00  0.00    -0.200 F 
ATOM     84  C   UNL A   1      41.736  26.209  26.039  1.00  0.00     0.200 A 
ATOM     85  F   UNL A   1      40.253  24.558  26.844  1.00  0.00    -0.200 F 
ATOM     86  F   UNL A   1      41.941  25.503  24.919  1.00  0.00    -0.200 F 
ENDBRANCH  52  76
BRANCH  64  87
ATOM     87  C   UNL A   1      44.145  27.994  34.697  1.00  0.00     0.064 A 
ATOM     88  C   UNL A   1      43.869  26.832  35.433  1.00  0.00     0.173 A 
ATOM     89  C   UNL A   1      45.484  28.391  34.571  1.00  0.00     0.173 A 
ATOM     90  F   UNL A   1      42.602  26.419  35.594  1.00  0.00    -0.203 F 
ATOM     91  C   UNL A   1      44.892  26.118  36.053  1.00  0.00     0.198 A 
ATOM     92  C   UNL A   1      46.507  27.658  35.167  1.00  0.00     0.198 A 
ATOM     93  F   UNL A   1      45.802  29.489  33.871  1.00  0.00    -0.203 F 
ATOM     94  F   UNL A   1      44.599  25.047  36.802  1.00  0.00    -0.200 F 
ATOM     95  C   UNL A   1      46.209  26.529  35.916  1.00  0.00     0.200 A 
ATOM     96  F   UNL A   1      47.781  28.049  35.024  1.00  0.00    -0.200 F 
ATOM     97  F   UNL A   1      47.192  25.844  36.517  1.00  0.00    -0.200 F 
ENDBRANCH  64  87
ENDBRANCH  38  39
ENDBRANCH  30  33
ENDBRANCH  28  29
ENDBRANCH  27  28
ENDBRANCH  26  27
ENDBRANCH   1  26
TORSDOF 17
ENDMDL
MODEL 2
REMARK VINA RESULT:     -11.9      0.181      1.655
REMARK SMILES Cc1ccc(/C=C/C(=O)N[C@](C)(C(=O)NCCCCCCNC(=O)c2ccc(-c3c4nc(c(-c5c(F)c(F)c(F)c(F)c5F)c5ccc([nH]5)c(-c5c(F)c(F)c(F)c(F)c5F)c5nc(c(-c6c(F)c(F)c(F)c(F)c6F)c6ccc3[nH]6)C=C5)C=C4)cc2)C(F)(F)F)o1
REMARK SMILES IDX 18 1 17 2 16 3 15 4 13 5 14 6 11 8 12 9 10 10 8 11 9 12 7 14
REMARK SMILES IDX 6 15 5 16 1 17 2 18 3 19 92 20 4 21 88 22 89 23 90 24 91 25
REMARK SMILES IDX 19 26 20 27 21 28 22 29 23 30 24 32 25 33 26 34 87 35 27 36
REMARK SMILES IDX 86 37 28 38 29 39 30 40 80 41 31 42 85 43 79 44 81 45 32 46
REMARK SMILES IDX 84 47 78 48 77 49 33 51 65 52 45 53 64 54 46 55 49 56 63 57
REMARK SMILES IDX 82 58 47 59 48 60 62 62 83 63 50 64 34 65 35 66 43 67 36 68
REMARK SMILES IDX 37 69 41 70 44 71 38 72 39 73 42 74 40 75 66 76 67 77 75 78
REMARK SMILES IDX 68 79 69 80 73 81 76 82 70 83 71 84 74 85 72 86 51 87 52 88
REMARK SMILES IDX 60 89 53 90 54 91 58 92 61 93 55 94 56 95 59 96 57 97
REMARK H PARENT 15 7 10 13 22 31 81 50 49 61
REMARK Flexibility Score: inf
ROOT
ATOM      1  C   UNL A   1      31.786  29.434  26.273  1.00  0.00     0.002 C 
ENDROOT
BRANCH   1   2
ATOM      2  C   UNL A   1      33.239  29.123  25.907  1.00  0.00     0.021 C 
BRANCH   2   3
ATOM      3  C   UNL A   1      33.564  27.627  25.780  1.00  0.00     0.116 C 
BRANCH   3   4
ATOM      4  N   UNL A   1      32.432  26.819  26.209  1.00  0.00    -0.354 N 
ATOM      5  C   UNL A   1      31.868  25.643  25.828  1.00  0.00     0.254 C 
ATOM      6  O   UNL A   1      30.772  25.431  26.366  1.00  0.00    -0.272 OA
ATOM      7  H   UNL A   1      31.954  27.229  26.967  1.00  0.00     0.163 HD
BRANCH   5   8
ATOM      8  C   UNL A   1      32.401  24.658  24.750  1.00  0.00     0.212 C 
ATOM      9  C   UNL A   1      31.302  23.633  24.398  1.00  0.00     0.056 C 
BRANCH   8  10
ATOM     10  N   UNL A   1      33.062  25.272  23.541  1.00  0.00    -0.331 N 
ATOM     11  C   UNL A   1      32.735  26.025  22.468  1.00  0.00     0.245 C 
ATOM     12  O   UNL A   1      33.606  26.200  21.615  1.00  0.00    -0.270 OA
ATOM     13  H   UNL A   1      34.023  25.059  23.532  1.00  0.00     0.165 HD
BRANCH  11  14
ATOM     14  C   UNL A   1      31.423  26.665  22.253  1.00  0.00     0.075 C 
ATOM     15  C   UNL A   1      31.054  27.790  22.866  1.00  0.00     0.053 C 
BRANCH  15  16
ATOM     16  C   UNL A   1      29.858  28.490  22.587  1.00  0.00     0.127 A 
ATOM     17  C   UNL A   1      28.149  31.180  20.942  1.00  0.00     0.087 C 
ATOM     18  C   UNL A   1      28.469  30.012  21.783  1.00  0.00     0.101 A 
ATOM     19  C   UNL A   1      27.744  29.288  22.697  1.00  0.00     0.046 A 
ATOM     20  O   UNL A   1      29.736  29.522  21.690  1.00  0.00    -0.462 OA
ATOM     21  C   UNL A   1      28.631  28.322  23.216  1.00  0.00     0.050 A 
ENDBRANCH  15  16
ENDBRANCH  11  14
ENDBRANCH   8  10
BRANCH   8  22
ATOM     22  C   UNL A   1      33.496  23.853  25.519  1.00  0.00     0.420 C 
ATOM     23  F   UNL A   1      33.690  22.593  25.080  1.00  0.00    -0.168 F 
ATOM     24  F   UNL A   1      34.697  24.484  25.408  1.00  0.00    -0.168 F 
ATOM     25  F   UNL A   1      33.217  23.801  26.845  1.00  0.00    -0.168 F 
ENDBRANCH   8  22
ENDBRANCH   5   8
ENDBRANCH   3   4
ENDBRANCH   2   3
ENDBRANCH   1   2
BRANCH   1  26
ATOM     26  C   UNL A   1      31.187  30.653  25.565  1.00  0.00     0.002 C 
BRANCH  26  27
ATOM     27  C   UNL A   1      31.133  31.944  26.389  1.00  0.00     0.021 C 
BRANCH  27  28
ATOM     28  C   UNL A   1      32.459  32.395  27.002  1.00  0.00     0.116 C 
BRANCH  28  29
ATOM     29  N   UNL A   1      32.410  33.772  27.464  1.00  0.00    -0.352 N 
ATOM     30  C   UNL A   1      33.153  34.416  28.416  1.00  0.00     0.251 C 
ATOM     31  H   UNL A   1      31.732  34.332  27.021  1.00  0.00     0.163 HD
ATOM     32  O   UNL A   1      32.807  35.539  28.792  1.00  0.00    -0.269 OA
BRANCH  30  33
ATOM     33  C   UNL A   1      34.357  33.796  29.011  1.00  0.00     0.039 A 
ATOM     34  C   UNL A   1      34.186  32.744  29.917  1.00  0.00     0.014 A 
ATOM     35  C   UNL A   1      35.642  34.283  28.751  1.00  0.00     0.014 A 
ATOM     36  C   UNL A   1      35.296  32.161  30.531  1.00  0.00     0.010 A 
ATOM     37  C   UNL A   1      36.757  33.660  29.320  1.00  0.00     0.010 A 
ATOM     38  C   UNL A   1      36.594  32.600  30.225  1.00  0.00    -0.014 A 
BRANCH  38  39
ATOM     39  C   UNL A   1      37.775  31.955  30.855  1.00  0.00     0.031 A 
ATOM     40  C   UNL A   1      38.223  32.351  32.237  1.00  0.00     0.074 A 
ATOM     41  C   UNL A   1      38.468  31.027  30.165  1.00  0.00     0.049 A 
ATOM     42  N   UNL A   1      39.220  31.885  32.948  1.00  0.00    -0.248 NA
ATOM     43  C   UNL A   1      37.469  33.427  32.898  1.00  0.00     0.031 C 
ATOM     44  C   UNL A   1      38.180  30.608  28.792  1.00  0.00     0.029 A 
ATOM     45  N   UNL A   1      39.559  30.275  30.520  1.00  0.00    -0.354 N 
ATOM     46  C   UNL A   1      39.224  32.622  34.125  1.00  0.00     0.074 A 
ATOM     47  C   UNL A   1      38.156  33.592  34.020  1.00  0.00     0.031 C 
ATOM     48  C   UNL A   1      39.060  29.661  28.429  1.00  0.00     0.029 A 
ATOM     49  C   UNL A   1      39.984  29.419  29.532  1.00  0.00     0.049 A 
ATOM     50  H   UNL A   1      39.997  30.342  31.399  1.00  0.00     0.167 HD
ATOM     51  C   UNL A   1      40.034  32.487  35.204  1.00  0.00     0.037 A 
ATOM     52  C   UNL A   1      40.999  28.535  29.522  1.00  0.00     0.037 A 
ATOM     53  C   UNL A   1      41.066  31.491  35.327  1.00  0.00     0.049 A 
ATOM     54  C   UNL A   1      41.837  28.364  30.760  1.00  0.00     0.074 A 
ATOM     55  C   UNL A   1      41.875  31.216  36.417  1.00  0.00     0.029 A 
ATOM     56  N   UNL A   1      41.431  30.603  34.326  1.00  0.00    -0.354 N 
ATOM     57  N   UNL A   1      41.765  28.998  31.905  1.00  0.00    -0.248 NA
ATOM     58  C   UNL A   1      42.887  27.335  30.710  1.00  0.00     0.031 C 
ATOM     59  C   UNL A   1      42.756  30.189  36.062  1.00  0.00     0.029 A 
ATOM     60  C   UNL A   1      42.465  29.793  34.767  1.00  0.00     0.049 A 
ATOM     61  H   UNL A   1      41.016  30.555  33.435  1.00  0.00     0.167 HD
ATOM     62  C   UNL A   1      42.738  28.431  32.717  1.00  0.00     0.074 A 
ATOM     63  C   UNL A   1      43.370  27.383  31.942  1.00  0.00     0.031 C 
ATOM     64  C   UNL A   1      43.081  28.752  33.988  1.00  0.00     0.037 A 
BRANCH  51  65
ATOM     65  C   UNL A   1      39.837  33.432  36.353  1.00  0.00     0.064 A 
ATOM     66  C   UNL A   1      38.982  33.123  37.422  1.00  0.00     0.173 A 
ATOM     67  C   UNL A   1      40.569  34.627  36.421  1.00  0.00     0.173 A 
ATOM     68  F   UNL A   1      38.254  31.997  37.400  1.00  0.00    -0.203 F 
ATOM     69  C   UNL A   1      38.858  33.983  38.510  1.00  0.00     0.198 A 
ATOM     70  C   UNL A   1      40.460  35.473  37.523  1.00  0.00     0.198 A 
ATOM     71  F   UNL A   1      41.404  34.967  35.428  1.00  0.00    -0.203 F 
ATOM     72  F   UNL A   1      38.011  33.683  39.506  1.00  0.00    -0.200 F 
ATOM     73  C   UNL A   1      39.602  35.152  38.564  1.00  0.00     0.200 A 
ATOM     74  F   UNL A   1      41.190  36.595  37.579  1.00  0.00    -0.200 F 
ATOM     75  F   UNL A   1      39.492  35.970  39.619  1.00  0.00    -0.200 F 
ENDBRANCH  51  65
BRANCH  52  76
ATOM     76  C   UNL A   1      41.265  27.718  28.309  1.00  0.00     0.064 A 
ATOM     77  C   UNL A   1      40.632  26.483  28.117  1.00  0.00     0.173 A 
ATOM     78  C   UNL A   1      42.180  28.143  27.334  1.00  0.00     0.173 A 
ATOM     79  F   UNL A   1      39.765  26.025  29.032  1.00  0.00    -0.203 F 
ATOM     80  C   UNL A   1      40.927  25.687  27.012  1.00  0.00     0.198 A 
ATOM     81  C   UNL A   1      42.452  27.360  26.215  1.00  0.00     0.198 A 
ATOM     82  F   UNL A   1      42.807  29.320  27.469  1.00  0.00    -0.203 F 
ATOM     83  F   UNL A   1      40.351  24.484  26.883  1.00  0.00    -0.200 F 
ATOM     84  C   UNL A   1      41.835  26.127  26.060  1.00  0.00     0.200 A 
ATOM     85  F   UNL A   1      43.320  27.794  25.291  1.00  0.00    -0.200 F 
ATOM     86  F   UNL A   1      42.122  25.359  25.001  1.00  0.00    -0.200 F 
ENDBRANCH  52  76
BRANCH  64  87
ATOM     87  C   UNL A   1      44.170  27.940  34.625  1.00  0.00     0.064 A 
ATOM     88  C   UNL A   1      43.893  26.742  35.302  1.00  0.00     0.173 A 
ATOM     89  C   UNL A   1      45.506  28.359  34.550  1.00  0.00     0.173 A 
ATOM     90  F   UNL A   1      42.628  26.306  35.413  1.00  0.00    -0.203 F 
ATOM     91  C   UNL A   1      44.910  26.015  35.915  1.00  0.00     0.198 A 
ATOM     92  C   UNL A   1      46.524  27.614  35.139  1.00  0.00     0.198 A 
ATOM     93  F   UNL A   1      45.826  29.492  33.908  1.00  0.00    -0.203 F 
ATOM     94  F   UNL A   1      44.613  24.908  36.608  1.00  0.00    -0.200 F 
ATOM     95  C   UNL A   1      46.224  26.450  35.829  1.00  0.00     0.200 A 
ATOM     96  F   UNL A   1      47.796  28.027  35.045  1.00  0.00    -0.200 F 
ATOM     97  F   UNL A   1      47.202  25.751  36.424  1.00  0.00    -0.200 F 
ENDBRANCH  64  87
ENDBRANCH  38  39
ENDBRANCH  30  33
ENDBRANCH  28  29
ENDBRANCH  27  28
ENDBRANCH  26  27
ENDBRANCH   1  26
TORSDOF 17
ENDMDL
MODEL 3
REMARK VINA RESULT:     -11.6      5.277     10.822
REMARK SMILES Cc1ccc(/C=C/C(=O)N[C@](C)(C(=O)NCCCCCCNC(=O)c2ccc(-c3c4nc(c(-c5c(F)c(F)c(F)c(F)c5F)c5ccc([nH]5)c(-c5c(F)c(F)c(F)c(F)c5F)c5nc(c(-c6c(F)c(F)c(F)c(F)c6F)c6ccc3[nH]6)C=C5)C=C4)cc2)C(F)(F)F)o1
REMARK SMILES IDX 18 1 17 2 16 3 15 4 13 5 14 6 11 8 12 9 10 10 8 11 9 12 7 14
REMARK SMILES IDX 6 15 5 16 1 17 2 18 3 19 92 20 4 21 88 22 89 23 90 24 91 25
REMARK SMILES IDX 19 26 20 27 21 28 22 29 23 30 24 32 25 33 26 34 87 35 27 36
REMARK SMILES IDX 86 37 28 38 29 39 30 40 80 41 31 42 85 43 79 44 81 45 32 46
REMARK SMILES IDX 84 47 78 48 77 49 33 51 65 52 45 53 64 54 46 55 49 56 63 57
REMARK SMILES IDX 82 58 47 59 48 60 62 62 83 63 50 64 34 65 35 66 43 67 36 68
REMARK SMILES IDX 37 69 41 70 44 71 38 72 39 73 42 74 40 75 66 76 67 77 75 78
REMARK SMILES IDX 68 79 69 80 73 81 76 82 70 83 71 84 74 85 72 86 51 87 52 88
REMARK SMILES IDX 60 89 53 90 54 91 58 92 61 93 55 94 56 95 59 96 57 97
REMARK H PARENT 15 7 10 13 22 31 81 50 49 61
REMARK Flexibility Score: inf
ROOT
ATOM      1  C   UNL A   1      36.953  21.835  24.512  1.00  0.00     0.002 C 
ENDROOT
BRANCH   1   2
ATOM      2  C   UNL A   1      36.810  22.718  25.753  1.00  0.00     0.021 C 
BRANCH   2   3
ATOM      3  C   UNL A   1      35.831  23.892  25.600  1.00  0.00     0.116 C 
BRANCH   3   4
ATOM      4  N   UNL A   1      35.343  23.974  24.231  1.00  0.00    -0.354 N 
ATOM      5  C   UNL A   1      34.166  24.286  23.628  1.00  0.00     0.254 C 
ATOM      6  O   UNL A   1      34.155  24.028  22.416  1.00  0.00    -0.272 OA
ATOM      7  H   UNL A   1      36.043  23.747  23.576  1.00  0.00     0.163 HD
BRANCH   5   8
ATOM      8  C   UNL A   1      32.871  24.799  24.318  1.00  0.00     0.212 C 
ATOM      9  C   UNL A   1      31.703  24.775  23.309  1.00  0.00     0.056 C 
BRANCH   8  10
ATOM     10  N   UNL A   1      32.527  24.186  25.652  1.00  0.00    -0.331 N 
ATOM     11  C   UNL A   1      32.101  23.007  26.157  1.00  0.00     0.245 C 
ATOM     12  O   UNL A   1      31.810  22.979  27.354  1.00  0.00    -0.270 OA
ATOM     13  H   UNL A   1      32.651  24.845  26.374  1.00  0.00     0.165 HD
BRANCH  11  14
ATOM     14  C   UNL A   1      31.976  21.754  25.388  1.00  0.00     0.075 C 
ATOM     15  C   UNL A   1      33.028  21.086  24.913  1.00  0.00     0.053 C 
BRANCH  15  16
ATOM     16  C   UNL A   1      32.946  19.824  24.282  1.00  0.00     0.127 A 
ATOM     17  C   UNL A   1      34.140  16.463  23.899  1.00  0.00     0.087 C 
ATOM     18  C   UNL A   1      33.404  17.731  23.734  1.00  0.00     0.101 A 
ATOM     19  C   UNL A   1      32.484  18.167  22.813  1.00  0.00     0.046 A 
ATOM     20  O   UNL A   1      33.670  18.713  24.639  1.00  0.00    -0.462 OA
ATOM     21  C   UNL A   1      32.196  19.503  23.158  1.00  0.00     0.050 A 
ENDBRANCH  15  16
ENDBRANCH  11  14
ENDBRANCH   8  10
BRANCH   8  22
ATOM     22  C   UNL A   1      33.180  26.310  24.568  1.00  0.00     0.420 C 
ATOM     23  F   UNL A   1      32.097  27.112  24.615  1.00  0.00    -0.168 F 
ATOM     24  F   UNL A   1      33.819  26.460  25.760  1.00  0.00    -0.168 F 
ATOM     25  F   UNL A   1      34.023  26.794  23.622  1.00  0.00    -0.168 F 
ENDBRANCH   8  22
ENDBRANCH   5   8
ENDBRANCH   3   4
ENDBRANCH   2   3
ENDBRANCH   1   2
BRANCH   1  26
ATOM     26  C   UNL A   1      36.776  20.335  24.761  1.00  0.00     0.002 C 
BRANCH  26  27
ATOM     27  C   UNL A   1      38.068  19.513  24.835  1.00  0.00     0.021 C 
BRANCH  27  28
ATOM     28  C   UNL A   1      39.035  19.897  25.955  1.00  0.00     0.116 C 
BRANCH  28  29
ATOM     29  N   UNL A   1      40.247  19.095  25.934  1.00  0.00    -0.352 N 
ATOM     30  C   UNL A   1      41.560  19.467  26.024  1.00  0.00     0.251 C 
ATOM     31  H   UNL A   1      40.098  18.126  25.839  1.00  0.00     0.163 HD
ATOM     32  O   UNL A   1      42.440  18.637  25.783  1.00  0.00    -0.269 OA
BRANCH  30  33
ATOM     33  C   UNL A   1      41.952  20.844  26.400  1.00  0.00     0.039 A 
ATOM     34  C   UNL A   1      42.149  21.781  25.380  1.00  0.00     0.014 A 
ATOM     35  C   UNL A   1      42.202  21.203  27.728  1.00  0.00     0.014 A 
ATOM     36  C   UNL A   1      42.560  23.079  25.691  1.00  0.00     0.010 A 
ATOM     37  C   UNL A   1      42.555  22.518  28.044  1.00  0.00     0.010 A 
ATOM     38  C   UNL A   1      42.749  23.466  27.027  1.00  0.00    -0.014 A 
BRANCH  38  39
ATOM     39  C   UNL A   1      43.154  24.858  27.358  1.00  0.00     0.031 A 
ATOM     40  C   UNL A   1      44.559  25.331  27.102  1.00  0.00     0.074 A 
ATOM     41  C   UNL A   1      42.257  25.691  27.921  1.00  0.00     0.049 A 
ATOM     42  N   UNL A   1      45.085  26.513  27.313  1.00  0.00    -0.248 NA
ATOM     43  C   UNL A   1      45.507  24.344  26.562  1.00  0.00     0.031 C 
ATOM     44  C   UNL A   1      40.885  25.332  28.285  1.00  0.00     0.029 A 
ATOM     45  N   UNL A   1      42.365  27.008  28.291  1.00  0.00    -0.354 N 
ATOM     46  C   UNL A   1      46.422  26.405  26.952  1.00  0.00     0.074 A 
ATOM     47  C   UNL A   1      46.639  25.034  26.544  1.00  0.00     0.031 C 
ATOM     48  C   UNL A   1      40.274  26.407  28.809  1.00  0.00     0.029 A 
ATOM     49  C   UNL A   1      41.213  27.523  28.835  1.00  0.00     0.049 A 
ATOM     50  H   UNL A   1      43.189  27.534  28.178  1.00  0.00     0.167 HD
ATOM     51  C   UNL A   1      47.375  27.368  26.943  1.00  0.00     0.037 A 
ATOM     52  C   UNL A   1      40.944  28.760  29.295  1.00  0.00     0.037 A 
ATOM     53  C   UNL A   1      47.147  28.743  27.304  1.00  0.00     0.049 A 
ATOM     54  C   UNL A   1      42.005  29.823  29.209  1.00  0.00     0.074 A 
ATOM     55  C   UNL A   1      48.027  29.810  27.238  1.00  0.00     0.029 A 
ATOM     56  N   UNL A   1      45.951  29.242  27.798  1.00  0.00    -0.354 N 
ATOM     57  N   UNL A   1      43.237  29.732  28.770  1.00  0.00    -0.248 NA
ATOM     58  C   UNL A   1      41.630  31.170  29.664  1.00  0.00     0.031 C 
ATOM     59  C   UNL A   1      47.375  30.947  27.729  1.00  0.00     0.029 A 
ATOM     60  C   UNL A   1      46.076  30.597  28.058  1.00  0.00     0.049 A 
ATOM     61  H   UNL A   1      45.135  28.712  27.942  1.00  0.00     0.167 HD
ATOM     62  C   UNL A   1      43.773  31.008  28.872  1.00  0.00     0.074 A 
ATOM     63  C   UNL A   1      42.725  31.863  29.391  1.00  0.00     0.031 C 
ATOM     64  C   UNL A   1      45.024  31.435  28.569  1.00  0.00     0.037 A 
BRANCH  51  65
ATOM     65  C   UNL A   1      48.762  26.980  26.519  1.00  0.00     0.064 A 
ATOM     66  C   UNL A   1      49.166  27.046  25.177  1.00  0.00     0.173 A 
ATOM     67  C   UNL A   1      49.719  26.610  27.476  1.00  0.00     0.173 A 
ATOM     68  F   UNL A   1      48.287  27.386  24.223  1.00  0.00    -0.203 F 
ATOM     69  C   UNL A   1      50.474  26.742  24.808  1.00  0.00     0.198 A 
ATOM     70  C   UNL A   1      51.032  26.331  27.106  1.00  0.00     0.198 A 
ATOM     71  F   UNL A   1      49.385  26.537  28.773  1.00  0.00    -0.203 F 
ATOM     72  F   UNL A   1      50.831  26.780  23.516  1.00  0.00    -0.200 F 
ATOM     73  C   UNL A   1      51.408  26.393  25.773  1.00  0.00     0.200 A 
ATOM     74  F   UNL A   1      51.935  26.006  28.041  1.00  0.00    -0.200 F 
ATOM     75  F   UNL A   1      52.669  26.115  25.417  1.00  0.00    -0.200 F 
ENDBRANCH  51  65
BRANCH  52  76
ATOM     76  C   UNL A   1      39.603  29.074  29.853  1.00  0.00     0.064 A 
ATOM     77  C   UNL A   1      38.602  29.642  29.052  1.00  0.00     0.173 A 
ATOM     78  C   UNL A   1      39.305  28.839  31.203  1.00  0.00     0.173 A 
ATOM     79  F   UNL A   1      38.847  29.904  27.760  1.00  0.00    -0.203 F 
ATOM     80  C   UNL A   1      37.365  29.994  29.588  1.00  0.00     0.198 A 
ATOM     81  C   UNL A   1      38.057  29.164  31.731  1.00  0.00     0.198 A 
ATOM     82  F   UNL A   1      40.225  28.291  32.009  1.00  0.00    -0.203 F 
ATOM     83  F   UNL A   1      36.448  30.590  28.813  1.00  0.00    -0.200 F 
ATOM     84  C   UNL A   1      37.092  29.752  30.926  1.00  0.00     0.200 A 
ATOM     85  F   UNL A   1      37.793  28.918  33.021  1.00  0.00    -0.200 F 
ATOM     86  F   UNL A   1      35.905  30.096  31.442  1.00  0.00    -0.200 F 
ENDBRANCH  52  76
BRANCH  64  87
ATOM     87  C   UNL A   1      45.311  32.894  28.764  1.00  0.00     0.064 A 
ATOM     88  C   UNL A   1      45.860  33.381  29.960  1.00  0.00     0.173 A 
ATOM     89  C   UNL A   1      45.043  33.815  27.741  1.00  0.00     0.173 A 
ATOM     90  F   UNL A   1      46.121  32.542  30.975  1.00  0.00    -0.203 F 
ATOM     91  C   UNL A   1      46.092  34.743  30.139  1.00  0.00     0.198 A 
ATOM     92  C   UNL A   1      45.304  35.172  27.912  1.00  0.00     0.198 A 
ATOM     93  F   UNL A   1      44.526  33.401  26.575  1.00  0.00    -0.203 F 
ATOM     94  F   UNL A   1      46.558  35.192  31.312  1.00  0.00    -0.200 F 
ATOM     95  C   UNL A   1      45.818  35.635  29.114  1.00  0.00     0.200 A 
ATOM     96  F   UNL A   1      45.051  36.033  26.917  1.00  0.00    -0.200 F 
ATOM     97  F   UNL A   1      46.038  36.946  29.289  1.00  0.00    -0.200 F 
ENDBRANCH  64  87
ENDBRANCH  38  39
ENDBRANCH  30  33
ENDBRANCH  28  29
ENDBRANCH  27  28
ENDBRANCH  26  27
ENDBRANCH   1  26
TORSDOF 17
ENDMDL
