MODEL 1
REMARK VINA RESULT:     -10.2      0.000      0.000
REMARK SMILES C[C@H](Cc1ccco1)[NH2+]Cc1cc(C(=O)NCCCCCCNC(=O)c2ccc(-c3c4nc(c(-c5c(F)c(F)c(F)c(F)c5F)c5ccc([nH]5)c(-c5c(F)c(F)c(F)c(F)c5F)c5nc(c(-c6c(F)c(F)c(F)c(F)c6F)c6ccc3[nH]6)C=C5)C=C4)cc2)cs1
REMARK SMILES IDX 18 1 17 2 16 3 14 4 15 5 13 7 11 8 12 9 90 10 89 11 10 12
REMARK SMILES IDX 9 13 2 16 1 17 3 18 4 19 5 20 8 21 6 22 7 23 19 24 20 25
REMARK SMILES IDX 21 26 22 27 23 28 24 29 25 31 26 32 27 33 88 34 28 35 87 36
REMARK SMILES IDX 29 37 30 38 31 39 81 40 32 41 86 42 80 43 82 44 33 45 85 46
REMARK SMILES IDX 79 47 78 48 34 50 66 51 46 52 65 53 47 54 50 55 64 56 83 57
REMARK SMILES IDX 48 58 49 59 63 61 84 62 51 63 35 64 36 65 44 66 37 67 38 68
REMARK SMILES IDX 42 69 45 70 39 71 40 72 43 73 41 74 67 75 68 76 76 77 69 78
REMARK SMILES IDX 70 79 74 80 77 81 71 82 72 83 75 84 73 85 52 86 53 87 61 88
REMARK SMILES IDX 54 89 55 90 59 91 62 92 56 93 57 94 60 95 58 96
REMARK H PARENT 16 6 9 14 9 15 23 30 82 49 50 60
REMARK Flexibility Score: inf
ROOT
ATOM      1  C   UNL A   1      39.263  23.001  26.368  1.00  0.00     0.021 C 
ENDROOT
BRANCH   1   2
ATOM      2  C   UNL A   1      37.851  23.422  25.967  1.00  0.00     0.116 C 
BRANCH   2   3
ATOM      3  N   UNL A   1      36.943  22.304  26.127  1.00  0.00    -0.352 N 
ATOM      4  C   UNL A   1      35.627  22.150  25.771  1.00  0.00     0.252 C 
ATOM      5  O   UNL A   1      35.096  21.064  25.971  1.00  0.00    -0.269 OA
ATOM      6  H   UNL A   1      37.338  21.519  26.570  1.00  0.00     0.163 HD
BRANCH   4   7
ATOM      7  C   UNL A   1      34.941  23.236  25.080  1.00  0.00     0.051 A 
ATOM      8  C   UNL A   1      34.025  25.349  24.628  1.00  0.00     0.059 A 
ATOM      9  C   UNL A   1      34.404  24.454  25.609  1.00  0.00     0.035 A 
ATOM     10  S   UNL A   1      34.135  24.637  23.073  1.00  0.00    -0.142 S 
ATOM     11  C   UNL A   1      34.694  23.163  23.720  1.00  0.00     0.079 A 
BRANCH   8  12
ATOM     12  C   UNL A   1      33.594  26.778  24.813  1.00  0.00     0.308 C 
BRANCH  12  13
ATOM     13  N   UNL A   1      32.223  27.032  24.393  1.00  0.00    -0.339 N 
ATOM     14  H   UNL A   1      32.238  27.819  23.744  1.00  0.00     0.346 HD
ATOM     15  H   UNL A   1      31.897  26.155  23.987  1.00  0.00     0.346 HD
BRANCH  13  16
ATOM     16  C   UNL A   1      31.261  27.349  25.461  1.00  0.00     0.187 C 
ATOM     17  C   UNL A   1      31.840  27.486  26.877  1.00  0.00     0.075 C 
BRANCH  16  18
ATOM     18  C   UNL A   1      30.097  26.327  25.424  1.00  0.00     0.140 C 
BRANCH  18  19
ATOM     19  C   UNL A   1      30.520  24.896  25.483  1.00  0.00     0.109 A 
ATOM     20  C   UNL A   1      30.781  23.998  26.499  1.00  0.00     0.046 A 
ATOM     21  O   UNL A   1      30.691  24.281  24.276  1.00  0.00    -0.469 OA
ATOM     22  C   UNL A   1      31.086  22.763  25.879  1.00  0.00     0.042 A 
ATOM     23  C   UNL A   1      31.036  22.994  24.526  1.00  0.00     0.195 A 
ENDBRANCH  18  19
ENDBRANCH  16  18
ENDBRANCH  13  16
ENDBRANCH  12  13
ENDBRANCH   8  12
ENDBRANCH   4   7
ENDBRANCH   2   3
ENDBRANCH   1   2
BRANCH   1  24
ATOM     24  C   UNL A   1      39.494  21.495  26.197  1.00  0.00     0.002 C 
BRANCH  24  25
ATOM     25  C   UNL A   1      40.943  21.051  26.438  1.00  0.00     0.002 C 
BRANCH  25  26
ATOM     26  C   UNL A   1      41.220  19.582  26.107  1.00  0.00     0.021 C 
BRANCH  26  27
ATOM     27  C   UNL A   1      42.594  19.100  26.555  1.00  0.00     0.116 C 
BRANCH  27  28
ATOM     28  N   UNL A   1      43.438  18.777  25.418  1.00  0.00    -0.352 N 
ATOM     29  C   UNL A   1      44.155  19.609  24.601  1.00  0.00     0.251 C 
ATOM     30  H   UNL A   1      43.504  17.819  25.202  1.00  0.00     0.163 HD
ATOM     31  O   UNL A   1      44.594  19.191  23.534  1.00  0.00    -0.269 OA
BRANCH  29  32
ATOM     32  C   UNL A   1      44.404  21.008  25.004  1.00  0.00     0.039 A 
ATOM     33  C   UNL A   1      45.274  21.252  26.069  1.00  0.00     0.014 A 
ATOM     34  C   UNL A   1      43.741  22.069  24.380  1.00  0.00     0.014 A 
ATOM     35  C   UNL A   1      45.489  22.561  26.497  1.00  0.00     0.010 A 
ATOM     36  C   UNL A   1      44.023  23.380  24.751  1.00  0.00     0.010 A 
ATOM     37  C   UNL A   1      44.875  23.637  25.834  1.00  0.00    -0.014 A 
BRANCH  37  38
ATOM     38  C   UNL A   1      45.084  25.029  26.302  1.00  0.00     0.031 A 
ATOM     39  C   UNL A   1      46.442  25.668  26.195  1.00  0.00     0.074 A 
ATOM     40  C   UNL A   1      44.053  25.709  26.837  1.00  0.00     0.049 A 
ATOM     41  N   UNL A   1      46.815  26.878  26.528  1.00  0.00    -0.248 NA
ATOM     42  C   UNL A   1      47.530  24.829  25.670  1.00  0.00     0.031 C 
ATOM     43  C   UNL A   1      42.705  25.176  27.043  1.00  0.00     0.029 A 
ATOM     44  N   UNL A   1      43.976  26.998  27.299  1.00  0.00    -0.354 N 
ATOM     45  C   UNL A   1      48.177  26.940  26.260  1.00  0.00     0.074 A 
ATOM     46  C   UNL A   1      48.579  25.628  25.804  1.00  0.00     0.031 C 
ATOM     47  C   UNL A   1      41.925  26.141  27.554  1.00  0.00     0.029 A 
ATOM     48  C   UNL A   1      42.724  27.348  27.742  1.00  0.00     0.049 A 
ATOM     49  H   UNL A   1      44.744  27.614  27.311  1.00  0.00     0.167 HD
ATOM     50  C   UNL A   1      49.011  28.003  26.357  1.00  0.00     0.037 A 
ATOM     51  C   UNL A   1      42.273  28.515  28.238  1.00  0.00     0.037 A 
ATOM     52  C   UNL A   1      48.600  29.311  26.795  1.00  0.00     0.049 A 
ATOM     53  C   UNL A   1      43.218  29.683  28.328  1.00  0.00     0.074 A 
ATOM     54  C   UNL A   1      49.352  30.470  26.881  1.00  0.00     0.029 A 
ATOM     55  N   UNL A   1      47.321  29.632  27.226  1.00  0.00    -0.354 N 
ATOM     56  N   UNL A   1      44.486  29.752  28.001  1.00  0.00    -0.248 NA
ATOM     57  C   UNL A   1      42.662  30.941  28.841  1.00  0.00     0.031 C 
ATOM     58  C   UNL A   1      48.543  31.478  27.416  1.00  0.00     0.029 A 
ATOM     59  C   UNL A   1      47.267  30.967  27.601  1.00  0.00     0.049 A 
ATOM     60  H   UNL A   1      46.562  29.006  27.260  1.00  0.00     0.167 HD
ATOM     61  C   UNL A   1      44.871  31.066  28.236  1.00  0.00     0.074 A 
ATOM     62  C   UNL A   1      43.693  31.762  28.712  1.00  0.00     0.031 C 
ATOM     63  C   UNL A   1      46.087  31.644  28.074  1.00  0.00     0.037 A 
BRANCH  50  64
ATOM     64  C   UNL A   1      50.452  27.791  25.984  1.00  0.00     0.064 A 
ATOM     65  C   UNL A   1      51.437  27.532  26.952  1.00  0.00     0.173 A 
ATOM     66  C   UNL A   1      50.852  27.826  24.639  1.00  0.00     0.173 A 
ATOM     67  F   UNL A   1      51.113  27.501  28.253  1.00  0.00    -0.203 F 
ATOM     68  C   UNL A   1      52.769  27.352  26.590  1.00  0.00     0.198 A 
ATOM     69  C   UNL A   1      52.180  27.609  24.279  1.00  0.00     0.198 A 
ATOM     70  F   UNL A   1      49.955  28.065  23.672  1.00  0.00    -0.203 F 
ATOM     71  F   UNL A   1      53.700  27.166  27.537  1.00  0.00    -0.200 F 
ATOM     72  C   UNL A   1      53.139  27.382  25.255  1.00  0.00     0.200 A 
ATOM     73  F   UNL A   1      52.533  27.625  22.985  1.00  0.00    -0.200 F 
ATOM     74  F   UNL A   1      54.421  27.203  24.907  1.00  0.00    -0.200 F 
ENDBRANCH  50  64
BRANCH  51  75
ATOM     75  C   UNL A   1      40.851  28.646  28.651  1.00  0.00     0.064 A 
ATOM     76  C   UNL A   1      40.451  28.361  29.964  1.00  0.00     0.173 A 
ATOM     77  C   UNL A   1      39.863  29.052  27.742  1.00  0.00     0.173 A 
ATOM     78  F   UNL A   1      41.356  27.953  30.866  1.00  0.00    -0.203 F 
ATOM     79  C   UNL A   1      39.113  28.448  30.345  1.00  0.00     0.198 A 
ATOM     80  C   UNL A   1      38.531  29.171  28.134  1.00  0.00     0.198 A 
ATOM     81  F   UNL A   1      40.194  29.346  26.477  1.00  0.00    -0.203 F 
ATOM     82  F   UNL A   1      38.752  28.119  31.593  1.00  0.00    -0.200 F 
ATOM     83  C   UNL A   1      38.156  28.860  29.431  1.00  0.00     0.200 A 
ATOM     84  F   UNL A   1      37.612  29.585  27.251  1.00  0.00    -0.200 F 
ATOM     85  F   UNL A   1      36.870  28.947  29.798  1.00  0.00    -0.200 F 
ENDBRANCH  51  75
BRANCH  63  86
ATOM     86  C   UNL A   1      46.189  33.114  28.376  1.00  0.00     0.064 A 
ATOM     87  C   UNL A   1      46.527  33.587  29.653  1.00  0.00     0.173 A 
ATOM     88  C   UNL A   1      45.947  34.062  27.369  1.00  0.00     0.173 A 
ATOM     89  F   UNL A   1      46.758  32.724  30.654  1.00  0.00    -0.203 F 
ATOM     90  C   UNL A   1      46.569  34.953  29.922  1.00  0.00     0.198 A 
ATOM     91  C   UNL A   1      46.029  35.426  27.632  1.00  0.00     0.198 A 
ATOM     92  F   UNL A   1      45.631  33.664  26.127  1.00  0.00    -0.203 F 
ATOM     93  F   UNL A   1      46.820  35.381  31.168  1.00  0.00    -0.200 F 
ATOM     94  C   UNL A   1      46.325  35.870  28.911  1.00  0.00     0.200 A 
ATOM     95  F   UNL A   1      45.811  36.311  26.649  1.00  0.00    -0.200 F 
ATOM     96  F   UNL A   1      46.364  37.184  29.173  1.00  0.00    -0.200 F 
ENDBRANCH  63  86
ENDBRANCH  37  38
ENDBRANCH  29  32
ENDBRANCH  27  28
ENDBRANCH  26  27
ENDBRANCH  25  26
ENDBRANCH  24  25
ENDBRANCH   1  24
TORSDOF 18
ENDMDL
MODEL 2
REMARK VINA RESULT:     -10.1      0.977      2.538
REMARK SMILES C[C@H](Cc1ccco1)[NH2+]Cc1cc(C(=O)NCCCCCCNC(=O)c2ccc(-c3c4nc(c(-c5c(F)c(F)c(F)c(F)c5F)c5ccc([nH]5)c(-c5c(F)c(F)c(F)c(F)c5F)c5nc(c(-c6c(F)c(F)c(F)c(F)c6F)c6ccc3[nH]6)C=C5)C=C4)cc2)cs1
REMARK SMILES IDX 18 1 17 2 16 3 14 4 15 5 13 7 11 8 12 9 90 10 89 11 10 12
REMARK SMILES IDX 9 13 2 16 1 17 3 18 4 19 5 20 8 21 6 22 7 23 19 24 20 25
REMARK SMILES IDX 21 26 22 27 23 28 24 29 25 31 26 32 27 33 88 34 28 35 87 36
REMARK SMILES IDX 29 37 30 38 31 39 81 40 32 41 86 42 80 43 82 44 33 45 85 46
REMARK SMILES IDX 79 47 78 48 34 50 66 51 46 52 65 53 47 54 50 55 64 56 83 57
REMARK SMILES IDX 48 58 49 59 63 61 84 62 51 63 35 64 36 65 44 66 37 67 38 68
REMARK SMILES IDX 42 69 45 70 39 71 40 72 43 73 41 74 67 75 68 76 76 77 69 78
REMARK SMILES IDX 70 79 74 80 77 81 71 82 72 83 75 84 73 85 52 86 53 87 61 88
REMARK SMILES IDX 54 89 55 90 59 91 62 92 56 93 57 94 60 95 58 96
REMARK H PARENT 16 6 9 14 9 15 23 30 82 49 50 60
REMARK Flexibility Score: inf
ROOT
ATOM      1  C   UNL A   1      40.037  22.761  27.110  1.00  0.00     0.021 C 
ENDROOT
BRANCH   1   2
ATOM      2  C   UNL A   1      38.817  22.678  26.196  1.00  0.00     0.116 C 
BRANCH   2   3
ATOM      3  N   UNL A   1      38.703  21.338  25.652  1.00  0.00    -0.352 N 
ATOM      4  C   UNL A   1      37.668  20.709  25.008  1.00  0.00     0.252 C 
ATOM      5  O   UNL A   1      37.851  19.572  24.591  1.00  0.00    -0.269 OA
ATOM      6  H   UNL A   1      39.507  20.783  25.768  1.00  0.00     0.163 HD
BRANCH   4   7
ATOM      7  C   UNL A   1      36.433  21.442  24.752  1.00  0.00     0.051 A 
ATOM      8  C   UNL A   1      34.254  22.276  25.011  1.00  0.00     0.059 A 
ATOM      9  C   UNL A   1      35.130  21.255  25.319  1.00  0.00     0.035 A 
ATOM     10  S   UNL A   1      34.948  23.357  23.876  1.00  0.00    -0.142 S 
ATOM     11  C   UNL A   1      36.400  22.465  23.822  1.00  0.00     0.079 A 
BRANCH   8  12
ATOM     12  C   UNL A   1      32.878  22.500  25.574  1.00  0.00     0.308 C 
BRANCH  12  13
ATOM     13  N   UNL A   1      32.452  23.892  25.535  1.00  0.00    -0.339 N 
ATOM     14  H   UNL A   1      33.271  24.472  25.715  1.00  0.00     0.346 HD
ATOM     15  H   UNL A   1      32.036  24.022  24.613  1.00  0.00     0.346 HD
BRANCH  13  16
ATOM     16  C   UNL A   1      31.406  24.282  26.495  1.00  0.00     0.187 C 
ATOM     17  C   UNL A   1      30.261  23.279  26.695  1.00  0.00     0.075 C 
BRANCH  16  18
ATOM     18  C   UNL A   1      30.867  25.687  26.123  1.00  0.00     0.140 C 
BRANCH  18  19
ATOM     19  C   UNL A   1      31.787  26.816  26.452  1.00  0.00     0.109 A 
ATOM     20  C   UNL A   1      31.706  27.936  27.256  1.00  0.00     0.046 A 
ATOM     21  O   UNL A   1      33.012  26.773  25.852  1.00  0.00    -0.469 OA
ATOM     22  C   UNL A   1      32.960  28.585  27.173  1.00  0.00     0.042 A 
ATOM     23  C   UNL A   1      33.713  27.848  26.291  1.00  0.00     0.195 A 
ENDBRANCH  18  19
ENDBRANCH  16  18
ENDBRANCH  13  16
ENDBRANCH  12  13
ENDBRANCH   8  12
ENDBRANCH   4   7
ENDBRANCH   2   3
ENDBRANCH   1   2
BRANCH   1  24
ATOM     24  C   UNL A   1      41.213  21.926  26.593  1.00  0.00     0.002 C 
BRANCH  24  25
ATOM     25  C   UNL A   1      41.887  21.058  27.664  1.00  0.00     0.002 C 
BRANCH  25  26
ATOM     26  C   UNL A   1      42.268  19.651  27.195  1.00  0.00     0.021 C 
BRANCH  26  27
ATOM     27  C   UNL A   1      42.020  19.410  25.711  1.00  0.00     0.116 C 
BRANCH  27  28
ATOM     28  N   UNL A   1      43.211  18.903  25.052  1.00  0.00    -0.352 N 
ATOM     29  C   UNL A   1      44.301  19.582  24.579  1.00  0.00     0.251 C 
ATOM     30  H   UNL A   1      43.239  17.927  24.927  1.00  0.00     0.163 HD
ATOM     31  O   UNL A   1      45.086  19.027  23.817  1.00  0.00    -0.269 OA
BRANCH  29  32
ATOM     32  C   UNL A   1      44.535  20.982  24.987  1.00  0.00     0.039 A 
ATOM     33  C   UNL A   1      45.273  21.226  26.148  1.00  0.00     0.014 A 
ATOM     34  C   UNL A   1      43.983  22.047  24.269  1.00  0.00     0.014 A 
ATOM     35  C   UNL A   1      45.468  22.537  26.578  1.00  0.00     0.010 A 
ATOM     36  C   UNL A   1      44.253  23.357  24.651  1.00  0.00     0.010 A 
ATOM     37  C   UNL A   1      44.970  23.614  25.827  1.00  0.00    -0.014 A 
BRANCH  37  38
ATOM     38  C   UNL A   1      45.156  25.010  26.295  1.00  0.00     0.031 A 
ATOM     39  C   UNL A   1      46.505  25.668  26.193  1.00  0.00     0.074 A 
ATOM     40  C   UNL A   1      44.113  25.675  26.825  1.00  0.00     0.049 A 
ATOM     41  N   UNL A   1      46.859  26.884  26.527  1.00  0.00    -0.248 NA
ATOM     42  C   UNL A   1      47.608  24.845  25.674  1.00  0.00     0.031 C 
ATOM     43  C   UNL A   1      42.773  25.122  27.025  1.00  0.00     0.029 A 
ATOM     44  N   UNL A   1      44.015  26.963  27.285  1.00  0.00    -0.354 N 
ATOM     45  C   UNL A   1      48.221  26.965  26.265  1.00  0.00     0.074 A 
ATOM     46  C   UNL A   1      48.644  25.659  25.812  1.00  0.00     0.031 C 
ATOM     47  C   UNL A   1      41.976  26.077  27.532  1.00  0.00     0.029 A 
ATOM     48  C   UNL A   1      42.756  27.295  27.722  1.00  0.00     0.049 A 
ATOM     49  H   UNL A   1      44.774  27.590  27.300  1.00  0.00     0.167 HD
ATOM     50  C   UNL A   1      49.040  28.041  26.365  1.00  0.00     0.037 A 
ATOM     51  C   UNL A   1      42.286  28.456  28.215  1.00  0.00     0.037 A 
ATOM     52  C   UNL A   1      48.608  29.343  26.800  1.00  0.00     0.049 A 
ATOM     53  C   UNL A   1      43.214  29.637  28.308  1.00  0.00     0.074 A 
ATOM     54  C   UNL A   1      49.342  30.513  26.889  1.00  0.00     0.029 A 
ATOM     55  N   UNL A   1      47.322  29.646  27.225  1.00  0.00    -0.354 N 
ATOM     56  N   UNL A   1      44.482  29.725  27.986  1.00  0.00    -0.248 NA
ATOM     57  C   UNL A   1      42.637  30.888  28.817  1.00  0.00     0.031 C 
ATOM     58  C   UNL A   1      48.515  31.509  27.420  1.00  0.00     0.029 A 
ATOM     59  C   UNL A   1      47.247  30.980  27.599  1.00  0.00     0.049 A 
ATOM     60  H   UNL A   1      46.572  29.009  27.256  1.00  0.00     0.167 HD
ATOM     61  C   UNL A   1      44.846  31.044  28.223  1.00  0.00     0.074 A 
ATOM     62  C   UNL A   1      43.657  31.724  28.693  1.00  0.00     0.031 C 
ATOM     63  C   UNL A   1      46.055  31.640  28.066  1.00  0.00     0.037 A 
BRANCH  50  64
ATOM     64  C   UNL A   1      50.485  27.849  25.999  1.00  0.00     0.064 A 
ATOM     65  C   UNL A   1      50.923  27.903  24.665  1.00  0.00     0.173 A 
ATOM     66  C   UNL A   1      51.450  27.630  26.994  1.00  0.00     0.173 A 
ATOM     67  F   UNL A   1      50.043  28.097  23.672  1.00  0.00    -0.203 F 
ATOM     68  C   UNL A   1      52.264  27.710  24.342  1.00  0.00     0.198 A 
ATOM     69  C   UNL A   1      52.795  27.473  26.669  1.00  0.00     0.198 A 
ATOM     70  F   UNL A   1      51.089  27.572  28.284  1.00  0.00    -0.203 F 
ATOM     71  F   UNL A   1      52.648  27.707  23.057  1.00  0.00    -0.200 F 
ATOM     72  C   UNL A   1      53.200  27.504  25.343  1.00  0.00     0.200 A 
ATOM     73  F   UNL A   1      53.700  27.288  27.640  1.00  0.00    -0.200 F 
ATOM     74  F   UNL A   1      54.490  27.324  25.031  1.00  0.00    -0.200 F 
ENDBRANCH  50  64
BRANCH  51  75
ATOM     75  C   UNL A   1      40.861  28.567  28.621  1.00  0.00     0.064 A 
ATOM     76  C   UNL A   1      39.882  28.998  27.714  1.00  0.00     0.173 A 
ATOM     77  C   UNL A   1      40.447  28.251  29.924  1.00  0.00     0.173 A 
ATOM     78  F   UNL A   1      40.230  29.328  26.461  1.00  0.00    -0.203 F 
ATOM     79  C   UNL A   1      38.551  29.137  28.102  1.00  0.00     0.198 A 
ATOM     80  C   UNL A   1      39.110  28.358  30.300  1.00  0.00     0.198 A 
ATOM     81  F   UNL A   1      41.342  27.825  30.827  1.00  0.00    -0.203 F 
ATOM     82  F   UNL A   1      37.647  29.602  27.229  1.00  0.00    -0.200 F 
ATOM     83  C   UNL A   1      38.166  28.810  29.393  1.00  0.00     0.200 A 
ATOM     84  F   UNL A   1      38.739  28.025  31.544  1.00  0.00    -0.200 F 
ATOM     85  F   UNL A   1      36.885  28.941  29.764  1.00  0.00    -0.200 F 
ENDBRANCH  51  75
BRANCH  63  86
ATOM     86  C   UNL A   1      46.133  33.111  28.367  1.00  0.00     0.064 A 
ATOM     87  C   UNL A   1      45.890  34.083  27.385  1.00  0.00     0.173 A 
ATOM     88  C   UNL A   1      46.454  33.553  29.661  1.00  0.00     0.173 A 
ATOM     89  F   UNL A   1      45.590  33.717  26.130  1.00  0.00    -0.203 F 
ATOM     90  C   UNL A   1      46.015  35.440  27.675  1.00  0.00     0.198 A 
ATOM     91  C   UNL A   1      46.540  34.910  29.956  1.00  0.00     0.198 A 
ATOM     92  F   UNL A   1      46.686  32.666  30.640  1.00  0.00    -0.203 F 
ATOM     93  F   UNL A   1      45.851  36.348  26.702  1.00  0.00    -0.200 F 
ATOM     94  C   UNL A   1      46.334  35.852  28.960  1.00  0.00     0.200 A 
ATOM     95  F   UNL A   1      46.830  35.306  31.203  1.00  0.00    -0.200 F 
ATOM     96  F   UNL A   1      46.456  37.158  29.235  1.00  0.00    -0.200 F 
ENDBRANCH  63  86
ENDBRANCH  37  38
ENDBRANCH  29  32
ENDBRANCH  27  28
ENDBRANCH  26  27
ENDBRANCH  25  26
ENDBRANCH  24  25
ENDBRANCH   1  24
TORSDOF 18
ENDMDL
MODEL 3
REMARK VINA RESULT:     -10.1      3.549      5.663
REMARK SMILES C[C@H](Cc1ccco1)[NH2+]Cc1cc(C(=O)NCCCCCCNC(=O)c2ccc(-c3c4nc(c(-c5c(F)c(F)c(F)c(F)c5F)c5ccc([nH]5)c(-c5c(F)c(F)c(F)c(F)c5F)c5nc(c(-c6c(F)c(F)c(F)c(F)c6F)c6ccc3[nH]6)C=C5)C=C4)cc2)cs1
REMARK SMILES IDX 18 1 17 2 16 3 14 4 15 5 13 7 11 8 12 9 90 10 89 11 10 12
REMARK SMILES IDX 9 13 2 16 1 17 3 18 4 19 5 20 8 21 6 22 7 23 19 24 20 25
REMARK SMILES IDX 21 26 22 27 23 28 24 29 25 31 26 32 27 33 88 34 28 35 87 36
REMARK SMILES IDX 29 37 30 38 31 39 81 40 32 41 86 42 80 43 82 44 33 45 85 46
REMARK SMILES IDX 79 47 78 48 34 50 66 51 46 52 65 53 47 54 50 55 64 56 83 57
REMARK SMILES IDX 48 58 49 59 63 61 84 62 51 63 35 64 36 65 44 66 37 67 38 68
REMARK SMILES IDX 42 69 45 70 39 71 40 72 43 73 41 74 67 75 68 76 76 77 69 78
REMARK SMILES IDX 70 79 74 80 77 81 71 82 72 83 75 84 73 85 52 86 53 87 61 88
REMARK SMILES IDX 54 89 55 90 59 91 62 92 56 93 57 94 60 95 58 96
REMARK H PARENT 16 6 9 14 9 15 23 30 82 49 50 60
REMARK Flexibility Score: inf
ROOT
ATOM      1  C   UNL A   1      32.853  23.465  27.027  1.00  0.00     0.021 C 
ENDROOT
BRANCH   1   2
ATOM      2  C   UNL A   1      31.493  22.924  26.592  1.00  0.00     0.116 C 
BRANCH   2   3
ATOM      3  N   UNL A   1      31.677  21.744  25.769  1.00  0.00    -0.352 N 
ATOM      4  C   UNL A   1      31.998  21.609  24.442  1.00  0.00     0.252 C 
ATOM      5  O   UNL A   1      32.151  20.478  23.996  1.00  0.00    -0.269 OA
ATOM      6  H   UNL A   1      31.546  20.893  26.244  1.00  0.00     0.163 HD
BRANCH   4   7
ATOM      7  C   UNL A   1      32.245  22.802  23.640  1.00  0.00     0.051 A 
ATOM      8  C   UNL A   1      31.981  24.935  22.697  1.00  0.00     0.059 A 
ATOM      9  C   UNL A   1      31.345  23.854  23.273  1.00  0.00     0.035 A 
ATOM     10  S   UNL A   1      33.638  24.594  22.421  1.00  0.00    -0.142 S 
ATOM     11  C   UNL A   1      33.490  23.030  23.079  1.00  0.00     0.079 A 
BRANCH   8  12
ATOM     12  C   UNL A   1      31.383  26.272  22.357  1.00  0.00     0.308 C 
BRANCH  12  13
ATOM     13  N   UNL A   1      30.390  26.727  23.320  1.00  0.00    -0.339 N 
ATOM     14  H   UNL A   1      29.472  26.638  22.884  1.00  0.00     0.346 HD
ATOM     15  H   UNL A   1      30.524  26.144  24.145  1.00  0.00     0.346 HD
BRANCH  13  16
ATOM     16  C   UNL A   1      30.528  28.113  23.795  1.00  0.00     0.187 C 
ATOM     17  C   UNL A   1      29.577  29.143  23.168  1.00  0.00     0.075 C 
BRANCH  16  18
ATOM     18  C   UNL A   1      32.007  28.556  23.662  1.00  0.00     0.140 C 
BRANCH  18  19
ATOM     19  C   UNL A   1      32.753  28.642  24.953  1.00  0.00     0.109 A 
ATOM     20  C   UNL A   1      33.343  27.724  25.800  1.00  0.00     0.046 A 
ATOM     21  O   UNL A   1      32.929  29.901  25.449  1.00  0.00    -0.469 OA
ATOM     22  C   UNL A   1      33.945  28.467  26.843  1.00  0.00     0.042 A 
ATOM     23  C   UNL A   1      33.648  29.785  26.594  1.00  0.00     0.195 A 
ENDBRANCH  18  19
ENDBRANCH  16  18
ENDBRANCH  13  16
ENDBRANCH  12  13
ENDBRANCH   8  12
ENDBRANCH   4   7
ENDBRANCH   2   3
ENDBRANCH   1   2
BRANCH   1  24
ATOM     24  C   UNL A   1      33.834  22.349  27.401  1.00  0.00     0.002 C 
BRANCH  24  25
ATOM     25  C   UNL A   1      35.149  22.377  26.611  1.00  0.00     0.002 C 
BRANCH  25  26
ATOM     26  C   UNL A   1      35.457  23.718  25.938  1.00  0.00     0.021 C 
BRANCH  26  27
ATOM     27  C   UNL A   1      36.714  23.698  25.077  1.00  0.00     0.116 C 
BRANCH  27  28
ATOM     28  N   UNL A   1      37.643  22.673  25.520  1.00  0.00    -0.352 N 
ATOM     29  C   UNL A   1      38.856  22.805  26.141  1.00  0.00     0.251 C 
ATOM     30  H   UNL A   1      37.359  21.746  25.349  1.00  0.00     0.163 HD
ATOM     31  O   UNL A   1      39.621  21.848  26.201  1.00  0.00    -0.269 OA
BRANCH  29  32
ATOM     32  C   UNL A   1      39.243  24.097  26.741  1.00  0.00     0.039 A 
ATOM     33  C   UNL A   1      39.980  24.999  25.971  1.00  0.00     0.014 A 
ATOM     34  C   UNL A   1      38.936  24.397  28.072  1.00  0.00     0.014 A 
ATOM     35  C   UNL A   1      40.396  26.206  26.531  1.00  0.00     0.010 A 
ATOM     36  C   UNL A   1      39.276  25.638  28.602  1.00  0.00     0.010 A 
ATOM     37  C   UNL A   1      40.037  26.541  27.847  1.00  0.00    -0.014 A 
BRANCH  37  38
ATOM     38  C   UNL A   1      40.498  27.814  28.453  1.00  0.00     0.031 A 
ATOM     39  C   UNL A   1      41.955  28.021  28.764  1.00  0.00     0.074 A 
ATOM     40  C   UNL A   1      39.600  28.776  28.735  1.00  0.00     0.049 A 
ATOM     41  N   UNL A   1      42.552  29.070  29.271  1.00  0.00    -0.248 NA
ATOM     42  C   UNL A   1      42.858  26.891  28.496  1.00  0.00     0.031 C 
ATOM     43  C   UNL A   1      38.155  28.668  28.529  1.00  0.00     0.029 A 
ATOM     44  N   UNL A   1      39.770  30.035  29.249  1.00  0.00    -0.354 N 
ATOM     45  C   UNL A   1      43.892  28.722  29.388  1.00  0.00     0.074 A 
ATOM     46  C   UNL A   1      44.010  27.345  28.966  1.00  0.00     0.031 C 
ATOM     47  C   UNL A   1      37.575  29.828  28.877  1.00  0.00     0.029 A 
ATOM     48  C   UNL A   1      38.601  30.746  29.360  1.00  0.00     0.049 A 
ATOM     49  H   UNL A   1      40.647  30.396  29.513  1.00  0.00     0.167 HD
ATOM     50  C   UNL A   1      44.935  29.492  29.783  1.00  0.00     0.037 A 
ATOM     51  C   UNL A   1      38.384  32.001  29.797  1.00  0.00     0.037 A 
ATOM     52  C   UNL A   1      44.812  30.869  30.185  1.00  0.00     0.049 A 
ATOM     53  C   UNL A   1      39.561  32.837  30.223  1.00  0.00     0.074 A 
ATOM     54  C   UNL A   1      45.810  31.754  30.554  1.00  0.00     0.029 A 
ATOM     55  N   UNL A   1      43.612  31.560  30.275  1.00  0.00    -0.354 N 
ATOM     56  N   UNL A   1      40.834  32.524  30.257  1.00  0.00    -0.248 NA
ATOM     57  C   UNL A   1      39.270  34.210  30.653  1.00  0.00     0.031 C 
ATOM     58  C   UNL A   1      45.209  32.963  30.920  1.00  0.00     0.029 A 
ATOM     59  C   UNL A   1      43.842  32.855  30.715  1.00  0.00     0.049 A 
ATOM     60  H   UNL A   1      42.728  31.187  30.057  1.00  0.00     0.167 HD
ATOM     61  C   UNL A   1      41.498  33.668  30.681  1.00  0.00     0.074 A 
ATOM     62  C   UNL A   1      40.487  34.687  30.868  1.00  0.00     0.031 C 
ATOM     63  C   UNL A   1      42.824  33.857  30.897  1.00  0.00     0.037 A 
BRANCH  50  64
ATOM     64  C   UNL A   1      46.298  28.858  29.800  1.00  0.00     0.064 A 
ATOM     65  C   UNL A   1      46.750  28.104  30.896  1.00  0.00     0.173 A 
ATOM     66  C   UNL A   1      47.158  28.987  28.699  1.00  0.00     0.173 A 
ATOM     67  F   UNL A   1      45.975  27.960  31.981  1.00  0.00    -0.203 F 
ATOM     68  C   UNL A   1      48.021  27.535  30.902  1.00  0.00     0.198 A 
ATOM     69  C   UNL A   1      48.415  28.386  28.694  1.00  0.00     0.198 A 
ATOM     70  F   UNL A   1      46.779  29.692  27.623  1.00  0.00    -0.203 F 
ATOM     71  F   UNL A   1      48.451  26.872  31.984  1.00  0.00    -0.200 F 
ATOM     72  C   UNL A   1      48.849  27.669  29.799  1.00  0.00     0.200 A 
ATOM     73  F   UNL A   1      49.209  28.505  27.620  1.00  0.00    -0.200 F 
ATOM     74  F   UNL A   1      50.070  27.117  29.803  1.00  0.00    -0.200 F 
ENDBRANCH  50  64
BRANCH  51  75
ATOM     75  C   UNL A   1      37.005  32.553  29.817  1.00  0.00     0.064 A 
ATOM     76  C   UNL A   1      36.496  33.266  28.722  1.00  0.00     0.173 A 
ATOM     77  C   UNL A   1      36.169  32.386  30.930  1.00  0.00     0.173 A 
ATOM     78  F   UNL A   1      37.262  33.467  27.639  1.00  0.00    -0.203 F 
ATOM     79  C   UNL A   1      35.215  33.815  28.751  1.00  0.00     0.198 A 
ATOM     80  C   UNL A   1      34.876  32.906  30.945  1.00  0.00     0.198 A 
ATOM     81  F   UNL A   1      36.604  31.703  32.000  1.00  0.00    -0.203 F 
ATOM     82  F   UNL A   1      34.774  34.537  27.712  1.00  0.00    -0.200 F 
ATOM     83  C   UNL A   1      34.405  33.629  29.860  1.00  0.00     0.200 A 
ATOM     84  F   UNL A   1      34.091  32.709  32.012  1.00  0.00    -0.200 F 
ATOM     85  F   UNL A   1      33.172  34.153  29.887  1.00  0.00    -0.200 F 
ENDBRANCH  51  75
BRANCH  63  86
ATOM     86  C   UNL A   1      43.255  35.235  31.319  1.00  0.00     0.064 A 
ATOM     87  C   UNL A   1      43.541  36.242  30.385  1.00  0.00     0.173 A 
ATOM     88  C   UNL A   1      43.380  35.551  32.681  1.00  0.00     0.173 A 
ATOM     89  F   UNL A   1      43.448  35.990  29.070  1.00  0.00    -0.203 F 
ATOM     90  C   UNL A   1      43.984  37.496  30.797  1.00  0.00     0.198 A 
ATOM     91  C   UNL A   1      43.785  36.818  33.090  1.00  0.00     0.198 A 
ATOM     92  F   UNL A   1      43.108  34.629  33.618  1.00  0.00    -0.203 F 
ATOM     93  F   UNL A   1      44.323  38.418  29.884  1.00  0.00    -0.200 F 
ATOM     94  C   UNL A   1      44.101  37.784  32.149  1.00  0.00     0.200 A 
ATOM     95  F   UNL A   1      43.880  37.101  34.397  1.00  0.00    -0.200 F 
ATOM     96  F   UNL A   1      44.530  38.991  32.542  1.00  0.00    -0.200 F 
ENDBRANCH  63  86
ENDBRANCH  37  38
ENDBRANCH  29  32
ENDBRANCH  27  28
ENDBRANCH  26  27
ENDBRANCH  25  26
ENDBRANCH  24  25
ENDBRANCH   1  24
TORSDOF 18
ENDMDL
