MODEL 1
REMARK VINA RESULT:     -11.4      0.000      0.000
REMARK SMILES O=C(NCCCCCCNC(=O)[C@@H]1CS[C@@H](C2CC2)N1C(=O)Cc1ccn[nH]1)c1ccc(-c2c3nc(c(-c4c(F)c(F)c(F)c(F)c4F)c4ccc([nH]4)c(-c4c(F)c(F)c(F)c(F)c4F)c4nc(c(-c5c(F)c(F)c(F)c(F)c5F)c5ccc2[nH]5)C=C4)C=C3)cc1
REMARK SMILES IDX 7 1 6 2 5 3 4 4 3 5 1 6 2 7 29 9 30 10 91 11 31 12 90 13
REMARK SMILES IDX 32 14 33 15 34 16 84 17 35 18 89 19 83 20 85 21 36 22 88 23
REMARK SMILES IDX 82 24 81 25 37 27 69 28 49 29 68 30 50 31 53 32 67 33 86 34
REMARK SMILES IDX 51 35 52 36 66 38 87 39 54 40 38 41 39 42 47 43 40 44 41 45
REMARK SMILES IDX 45 46 48 47 42 48 43 49 46 50 44 51 70 52 71 53 79 54 72 55
REMARK SMILES IDX 73 56 77 57 80 58 74 59 75 60 78 61 76 62 55 63 56 64 64 65
REMARK SMILES IDX 57 66 58 67 62 68 65 69 59 70 60 71 63 72 61 73 8 74 9 75
REMARK SMILES IDX 10 76 11 77 12 79 13 80 14 81 20 82 15 83 16 84 21 85 22 86
REMARK SMILES IDX 23 87 24 88 25 89 28 90 26 91 27 92 17 94 18 95 19 96
REMARK H PARENT 3 8 85 26 53 37 10 78 28 93
REMARK Flexibility Score: inf
ROOT
ATOM      1  C   UNL A   1      32.412  29.552  26.521  1.00  0.00     0.002 C 
ENDROOT
BRANCH   1   2
ATOM      2  C   UNL A   1      31.406  30.489  25.843  1.00  0.00     0.002 C 
BRANCH   2   3
ATOM      3  C   UNL A   1      31.236  31.858  26.501  1.00  0.00     0.021 C 
BRANCH   3   4
ATOM      4  C   UNL A   1      32.525  32.484  27.015  1.00  0.00     0.116 C 
BRANCH   4   5
ATOM      5  N   UNL A   1      32.337  33.861  27.442  1.00  0.00    -0.352 N 
ATOM      6  O   UNL A   1      32.582  35.662  28.780  1.00  0.00    -0.269 OA
ATOM      7  C   UNL A   1      32.994  34.561  28.418  1.00  0.00     0.251 C 
ATOM      8  H   UNL A   1      31.639  34.361  26.959  1.00  0.00     0.163 HD
BRANCH   7   9
ATOM      9  C   UNL A   1      34.194  33.982  29.053  1.00  0.00     0.039 A 
ATOM     10  C   UNL A   1      34.079  32.965  30.005  1.00  0.00     0.014 A 
ATOM     11  C   UNL A   1      35.454  34.453  28.672  1.00  0.00     0.014 A 
ATOM     12  C   UNL A   1      35.212  32.498  30.660  1.00  0.00     0.010 A 
ATOM     13  C   UNL A   1      36.597  33.925  29.273  1.00  0.00     0.010 A 
ATOM     14  C   UNL A   1      36.483  32.957  30.285  1.00  0.00    -0.014 A 
BRANCH  14  15
ATOM     15  C   UNL A   1      37.696  32.365  30.899  1.00  0.00     0.031 A 
ATOM     16  C   UNL A   1      38.445  31.261  30.215  1.00  0.00     0.074 A 
ATOM     17  C   UNL A   1      38.092  32.809  32.106  1.00  0.00     0.049 A 
ATOM     18  N   UNL A   1      39.470  30.568  30.643  1.00  0.00    -0.248 NA
ATOM     19  C   UNL A   1      37.974  30.874  28.878  1.00  0.00     0.031 C 
ATOM     20  C   UNL A   1      37.432  33.870  32.868  1.00  0.00     0.029 A 
ATOM     21  N   UNL A   1      39.129  32.415  32.912  1.00  0.00    -0.354 N 
ATOM     22  C   UNL A   1      39.752  29.649  29.643  1.00  0.00     0.074 A 
ATOM     23  C   UNL A   1      38.772  29.855  28.595  1.00  0.00     0.031 C 
ATOM     24  C   UNL A   1      38.079  34.045  34.028  1.00  0.00     0.029 A 
ATOM     25  C   UNL A   1      39.156  33.066  34.120  1.00  0.00     0.049 A 
ATOM     26  H   UNL A   1      39.788  31.732  32.650  1.00  0.00     0.167 HD
ATOM     27  C   UNL A   1      40.741  28.723  29.604  1.00  0.00     0.037 A 
ATOM     28  C   UNL A   1      39.930  32.867  35.203  1.00  0.00     0.037 A 
ATOM     29  C   UNL A   1      41.707  28.531  30.658  1.00  0.00     0.049 A 
ATOM     30  C   UNL A   1      40.991  31.808  35.157  1.00  0.00     0.074 A 
ATOM     31  C   UNL A   1      42.779  27.658  30.696  1.00  0.00     0.029 A 
ATOM     32  N   UNL A   1      41.702  29.211  31.869  1.00  0.00    -0.354 N 
ATOM     33  N   UNL A   1      41.287  30.979  34.186  1.00  0.00    -0.248 NA
ATOM     34  C   UNL A   1      41.828  31.654  36.354  1.00  0.00     0.031 C 
ATOM     35  C   UNL A   1      43.379  27.758  31.956  1.00  0.00     0.029 A 
ATOM     36  C   UNL A   1      42.729  28.748  32.676  1.00  0.00     0.049 A 
ATOM     37  H   UNL A   1      41.063  29.918  32.118  1.00  0.00     0.167 HD
ATOM     38  C   UNL A   1      42.356  30.222  34.641  1.00  0.00     0.074 A 
ATOM     39  C   UNL A   1      42.662  30.695  35.976  1.00  0.00     0.031 C 
ATOM     40  C   UNL A   1      43.026  29.229  34.004  1.00  0.00     0.037 A 
BRANCH  27  41
ATOM     41  C   UNL A   1      40.800  27.818  28.405  1.00  0.00     0.064 A 
ATOM     42  C   UNL A   1      41.535  28.150  27.256  1.00  0.00     0.173 A 
ATOM     43  C   UNL A   1      40.118  26.591  28.410  1.00  0.00     0.173 A 
ATOM     44  F   UNL A   1      42.202  29.312  27.193  1.00  0.00    -0.203 F 
ATOM     45  C   UNL A   1      41.544  27.313  26.142  1.00  0.00     0.198 A 
ATOM     46  C   UNL A   1      40.159  25.739  27.309  1.00  0.00     0.198 A 
ATOM     47  F   UNL A   1      39.410  26.214  29.485  1.00  0.00    -0.203 F 
ATOM     48  F   UNL A   1      42.196  27.685  25.032  1.00  0.00    -0.200 F 
ATOM     49  C   UNL A   1      40.860  26.108  26.171  1.00  0.00     0.200 A 
ATOM     50  F   UNL A   1      39.512  24.566  27.347  1.00  0.00    -0.200 F 
ATOM     51  F   UNL A   1      40.868  25.305  25.097  1.00  0.00    -0.200 F 
ENDBRANCH  27  41
BRANCH  28  52
ATOM     52  C   UNL A   1      39.696  33.692  36.416  1.00  0.00     0.064 A 
ATOM     53  C   UNL A   1      40.274  34.958  36.554  1.00  0.00     0.173 A 
ATOM     54  C   UNL A   1      38.837  33.249  37.434  1.00  0.00     0.173 A 
ATOM     55  F   UNL A   1      41.112  35.419  35.613  1.00  0.00    -0.203 F 
ATOM     56  C   UNL A   1      40.004  35.753  37.666  1.00  0.00     0.198 A 
ATOM     57  C   UNL A   1      38.543  34.056  38.530  1.00  0.00     0.198 A 
ATOM     58  F   UNL A   1      38.249  32.046  37.342  1.00  0.00    -0.203 F 
ATOM     59  F   UNL A   1      40.589  36.952  37.787  1.00  0.00    -0.200 F 
ATOM     60  C   UNL A   1      39.131  35.306  38.648  1.00  0.00     0.200 A 
ATOM     61  F   UNL A   1      37.682  33.628  39.463  1.00  0.00    -0.200 F 
ATOM     62  F   UNL A   1      38.856  36.079  39.706  1.00  0.00    -0.200 F 
ENDBRANCH  28  52
BRANCH  40  63
ATOM     63  C   UNL A   1      44.189  28.607  34.721  1.00  0.00     0.064 A 
ATOM     64  C   UNL A   1      45.468  29.182  34.696  1.00  0.00     0.173 A 
ATOM     65  C   UNL A   1      43.999  27.461  35.508  1.00  0.00     0.173 A 
ATOM     66  F   UNL A   1      45.707  30.268  33.946  1.00  0.00    -0.203 F 
ATOM     67  C   UNL A   1      46.516  28.627  35.426  1.00  0.00     0.198 A 
ATOM     68  C   UNL A   1      45.040  26.927  36.261  1.00  0.00     0.198 A 
ATOM     69  F   UNL A   1      42.795  26.874  35.567  1.00  0.00    -0.203 F 
ATOM     70  F   UNL A   1      47.738  29.173  35.364  1.00  0.00    -0.200 F 
ATOM     71  C   UNL A   1      46.298  27.508  36.217  1.00  0.00     0.200 A 
ATOM     72  F   UNL A   1      44.823  25.855  37.035  1.00  0.00    -0.200 F 
ATOM     73  F   UNL A   1      47.302  26.988  36.937  1.00  0.00    -0.200 F 
ENDBRANCH  40  63
ENDBRANCH  14  15
ENDBRANCH   7   9
ENDBRANCH   4   5
ENDBRANCH   3   4
ENDBRANCH   2   3
ENDBRANCH   1   2
BRANCH   1  74
ATOM     74  C   UNL A   1      31.807  28.394  27.322  1.00  0.00     0.021 C 
BRANCH  74  75
ATOM     75  C   UNL A   1      32.063  27.011  26.741  1.00  0.00     0.116 C 
BRANCH  75  76
ATOM     76  N   UNL A   1      32.932  27.044  25.576  1.00  0.00    -0.354 N 
ATOM     77  C   UNL A   1      33.483  25.993  24.904  1.00  0.00     0.243 C 
ATOM     78  H   UNL A   1      33.149  27.939  25.228  1.00  0.00     0.163 HD
ATOM     79  O   UNL A   1      33.868  26.181  23.744  1.00  0.00    -0.273 OA
BRANCH  77  80
ATOM     80  C   UNL A   1      33.566  24.586  25.542  1.00  0.00     0.185 C 
ATOM     81  C   UNL A   1      35.043  24.215  25.560  1.00  0.00     0.107 C 
ATOM     82  N   UNL A   1      32.748  23.676  24.700  1.00  0.00    -0.317 N 
ATOM     83  S   UNL A   1      35.161  22.598  24.814  1.00  0.00    -0.134 SA
ATOM     84  C   UNL A   1      33.534  22.719  23.911  1.00  0.00     0.147 C 
BRANCH  82  85
ATOM     85  C   UNL A   1      31.404  23.999  24.699  1.00  0.00     0.230 C 
ATOM     86  O   UNL A   1      30.770  23.928  25.765  1.00  0.00    -0.274 OA
BRANCH  85  87
ATOM     87  C   UNL A   1      30.608  24.425  23.491  1.00  0.00     0.155 C 
BRANCH  87  88
ATOM     88  C   UNL A   1      30.399  25.876  23.244  1.00  0.00     0.044 A 
ATOM     89  C   UNL A   1      29.578  26.742  23.940  1.00  0.00     0.045 A 
ATOM     90  N   UNL A   1      31.006  26.647  22.286  1.00  0.00    -0.282 N 
ATOM     91  C   UNL A   1      29.647  27.954  23.241  1.00  0.00     0.135 A 
ATOM     92  N   UNL A   1      30.489  27.888  22.210  1.00  0.00    -0.184 NA
ATOM     93  H   UNL A   1      31.741  26.327  21.714  1.00  0.00     0.190 HD
ENDBRANCH  87  88
ENDBRANCH  85  87
ENDBRANCH  82  85
BRANCH  84  94
ATOM     94  C   UNL A   1      33.146  21.257  23.844  1.00  0.00     0.022 C 
ATOM     95  C   UNL A   1      33.619  20.183  24.788  1.00  0.00     0.007 C 
ATOM     96  C   UNL A   1      32.172  20.604  24.791  1.00  0.00     0.007 C 
ENDBRANCH  84  94
ENDBRANCH  77  80
ENDBRANCH  75  76
ENDBRANCH  74  75
ENDBRANCH   1  74
TORSDOF 17
ENDMDL
MODEL 2
REMARK VINA RESULT:     -11.3      5.285     10.786
REMARK SMILES O=C(NCCCCCCNC(=O)[C@@H]1CS[C@@H](C2CC2)N1C(=O)Cc1ccn[nH]1)c1ccc(-c2c3nc(c(-c4c(F)c(F)c(F)c(F)c4F)c4ccc([nH]4)c(-c4c(F)c(F)c(F)c(F)c4F)c4nc(c(-c5c(F)c(F)c(F)c(F)c5F)c5ccc2[nH]5)C=C4)C=C3)cc1
REMARK SMILES IDX 7 1 6 2 5 3 4 4 3 5 1 6 2 7 29 9 30 10 91 11 31 12 90 13
REMARK SMILES IDX 32 14 33 15 34 16 84 17 35 18 89 19 83 20 85 21 36 22 88 23
REMARK SMILES IDX 82 24 81 25 37 27 69 28 49 29 68 30 50 31 53 32 67 33 86 34
REMARK SMILES IDX 51 35 52 36 66 38 87 39 54 40 38 41 39 42 47 43 40 44 41 45
REMARK SMILES IDX 45 46 48 47 42 48 43 49 46 50 44 51 70 52 71 53 79 54 72 55
REMARK SMILES IDX 73 56 77 57 80 58 74 59 75 60 78 61 76 62 55 63 56 64 64 65
REMARK SMILES IDX 57 66 58 67 62 68 65 69 59 70 60 71 63 72 61 73 8 74 9 75
REMARK SMILES IDX 10 76 11 77 12 79 13 80 14 81 20 82 15 83 16 84 21 85 22 86
REMARK SMILES IDX 23 87 24 88 25 89 28 90 26 91 27 92 17 94 18 95 19 96
REMARK H PARENT 3 8 85 26 53 37 10 78 28 93
REMARK Flexibility Score: inf
ROOT
ATOM      1  C   UNL A   1      36.887  21.720  24.330  1.00  0.00     0.002 C 
ENDROOT
BRANCH   1   2
ATOM      2  C   UNL A   1      36.723  20.355  25.009  1.00  0.00     0.002 C 
BRANCH   2   3
ATOM      3  C   UNL A   1      37.960  19.458  24.990  1.00  0.00     0.021 C 
BRANCH   3   4
ATOM      4  C   UNL A   1      39.121  19.952  25.843  1.00  0.00     0.116 C 
BRANCH   4   5
ATOM      5  N   UNL A   1      40.218  18.999  25.885  1.00  0.00    -0.352 N 
ATOM      6  O   UNL A   1      42.371  18.323  25.834  1.00  0.00    -0.269 OA
ATOM      7  C   UNL A   1      41.562  19.233  26.004  1.00  0.00     0.251 C 
ATOM      8  H   UNL A   1      39.957  18.052  25.819  1.00  0.00     0.163 HD
BRANCH   7   9
ATOM      9  C   UNL A   1      42.044  20.591  26.323  1.00  0.00     0.039 A 
ATOM     10  C   UNL A   1      42.244  21.534  25.310  1.00  0.00     0.014 A 
ATOM     11  C   UNL A   1      42.278  20.930  27.658  1.00  0.00     0.014 A 
ATOM     12  C   UNL A   1      42.787  22.776  25.617  1.00  0.00     0.010 A 
ATOM     13  C   UNL A   1      42.747  22.205  27.973  1.00  0.00     0.010 A 
ATOM     14  C   UNL A   1      43.023  23.132  26.953  1.00  0.00    -0.014 A 
BRANCH  14  15
ATOM     15  C   UNL A   1      43.484  24.501  27.286  1.00  0.00     0.031 A 
ATOM     16  C   UNL A   1      42.529  25.526  27.822  1.00  0.00     0.074 A 
ATOM     17  C   UNL A   1      44.770  24.824  27.059  1.00  0.00     0.049 A 
ATOM     18  N   UNL A   1      42.736  26.792  28.084  1.00  0.00    -0.248 NA
ATOM     19  C   UNL A   1      41.157  25.073  28.088  1.00  0.00     0.031 C 
ATOM     20  C   UNL A   1      45.783  23.910  26.528  1.00  0.00     0.029 A 
ATOM     21  N   UNL A   1      45.443  26.007  27.225  1.00  0.00    -0.354 N 
ATOM     22  C   UNL A   1      41.520  27.294  28.521  1.00  0.00     0.074 A 
ATOM     23  C   UNL A   1      40.570  26.201  28.465  1.00  0.00     0.031 C 
ATOM     24  C   UNL A   1      46.947  24.563  26.416  1.00  0.00     0.029 A 
ATOM     25  C   UNL A   1      46.746  25.955  26.801  1.00  0.00     0.049 A 
ATOM     26  H   UNL A   1      45.030  26.813  27.611  1.00  0.00     0.167 HD
ATOM     27  C   UNL A   1      41.226  28.551  28.935  1.00  0.00     0.037 A 
ATOM     28  C   UNL A   1      47.669  26.929  26.688  1.00  0.00     0.037 A 
ATOM     29  C   UNL A   1      42.185  29.628  28.982  1.00  0.00     0.049 A 
ATOM     30  C   UNL A   1      47.312  28.324  27.110  1.00  0.00     0.074 A 
ATOM     31  C   UNL A   1      42.005  30.923  29.433  1.00  0.00     0.029 A 
ATOM     32  N   UNL A   1      43.500  29.537  28.543  1.00  0.00    -0.354 N 
ATOM     33  N   UNL A   1      46.174  28.779  27.574  1.00  0.00    -0.248 NA
ATOM     34  C   UNL A   1      48.364  29.342  26.995  1.00  0.00     0.031 C 
ATOM     35  C   UNL A   1      43.187  31.635  29.201  1.00  0.00     0.029 A 
ATOM     36  C   UNL A   1      44.130  30.764  28.677  1.00  0.00     0.049 A 
ATOM     37  H   UNL A   1      43.922  28.721  28.189  1.00  0.00     0.167 HD
ATOM     38  C   UNL A   1      46.377  30.127  27.829  1.00  0.00     0.074 A 
ATOM     39  C   UNL A   1      47.751  30.416  27.474  1.00  0.00     0.031 C 
ATOM     40  C   UNL A   1      45.501  31.039  28.322  1.00  0.00     0.037 A 
BRANCH  27  41
ATOM     41  C   UNL A   1      39.804  28.840  29.325  1.00  0.00     0.064 A 
ATOM     42  C   UNL A   1      38.859  29.313  28.401  1.00  0.00     0.173 A 
ATOM     43  C   UNL A   1      39.375  28.628  30.645  1.00  0.00     0.173 A 
ATOM     44  F   UNL A   1      39.213  29.538  27.127  1.00  0.00    -0.203 F 
ATOM     45  C   UNL A   1      37.555  29.610  28.795  1.00  0.00     0.198 A 
ATOM     46  C   UNL A   1      38.062  28.891  31.027  1.00  0.00     0.198 A 
ATOM     47  F   UNL A   1      40.230  28.165  31.569  1.00  0.00    -0.203 F 
ATOM     48  F   UNL A   1      36.691  30.126  27.909  1.00  0.00    -0.200 F 
ATOM     49  C   UNL A   1      37.157  29.395  30.105  1.00  0.00     0.200 A 
ATOM     50  F   UNL A   1      37.675  28.665  32.290  1.00  0.00    -0.200 F 
ATOM     51  F   UNL A   1      35.903  29.683  30.482  1.00  0.00    -0.200 F 
ENDBRANCH  27  41
BRANCH  28  52
ATOM     52  C   UNL A   1      49.004  26.595  26.131  1.00  0.00     0.064 A 
ATOM     53  C   UNL A   1      49.300  26.808  24.780  1.00  0.00     0.173 A 
ATOM     54  C   UNL A   1      50.031  26.111  26.958  1.00  0.00     0.173 A 
ATOM     55  F   UNL A   1      48.347  27.256  23.949  1.00  0.00    -0.203 F 
ATOM     56  C   UNL A   1      50.572  26.549  24.275  1.00  0.00     0.198 A 
ATOM     57  C   UNL A   1      51.310  25.882  26.459  1.00  0.00     0.198 A 
ATOM     58  F   UNL A   1      49.800  25.901  28.263  1.00  0.00    -0.203 F 
ATOM     59  F   UNL A   1      50.823  26.738  22.972  1.00  0.00    -0.200 F 
ATOM     60  C   UNL A   1      51.578  26.097  25.116  1.00  0.00     0.200 A 
ATOM     61  F   UNL A   1      52.283  25.467  27.280  1.00  0.00    -0.200 F 
ATOM     62  F   UNL A   1      52.807  25.869  24.633  1.00  0.00    -0.200 F 
ENDBRANCH  28  52
BRANCH  40  63
ATOM     63  C   UNL A   1      46.008  32.434  28.548  1.00  0.00     0.064 A 
ATOM     64  C   UNL A   1      46.654  32.803  29.736  1.00  0.00     0.173 A 
ATOM     65  C   UNL A   1      45.912  33.391  27.526  1.00  0.00     0.173 A 
ATOM     66  F   UNL A   1      46.755  31.931  30.750  1.00  0.00    -0.203 F 
ATOM     67  C   UNL A   1      47.179  34.083  29.897  1.00  0.00     0.198 A 
ATOM     68  C   UNL A   1      46.466  34.659  27.677  1.00  0.00     0.198 A 
ATOM     69  F   UNL A   1      45.306  33.087  26.370  1.00  0.00    -0.203 F 
ATOM     70  F   UNL A   1      47.764  34.426  31.052  1.00  0.00    -0.200 F 
ATOM     71  C   UNL A   1      47.095  35.005  28.863  1.00  0.00     0.200 A 
ATOM     72  F   UNL A   1      46.397  35.542  26.672  1.00  0.00    -0.200 F 
ATOM     73  F   UNL A   1      47.620  36.230  29.011  1.00  0.00    -0.200 F 
ENDBRANCH  40  63
ENDBRANCH  14  15
ENDBRANCH   7   9
ENDBRANCH   4   5
ENDBRANCH   3   4
ENDBRANCH   2   3
ENDBRANCH   1   2
BRANCH   1  74
ATOM     74  C   UNL A   1      35.591  22.498  24.082  1.00  0.00     0.021 C 
BRANCH  74  75
ATOM     75  C   UNL A   1      35.570  23.908  24.655  1.00  0.00     0.116 C 
BRANCH  75  76
ATOM     76  N   UNL A   1      34.625  24.054  25.750  1.00  0.00    -0.354 N 
ATOM     77  C   UNL A   1      33.537  24.874  25.822  1.00  0.00     0.243 C 
ATOM     78  H   UNL A   1      34.791  23.488  26.539  1.00  0.00     0.163 HD
ATOM     79  O   UNL A   1      32.653  24.598  26.642  1.00  0.00    -0.273 OA
BRANCH  77  80
ATOM     80  C   UNL A   1      33.374  26.078  24.864  1.00  0.00     0.185 C 
ATOM     81  C   UNL A   1      33.405  27.323  25.740  1.00  0.00     0.107 C 
ATOM     82  N   UNL A   1      32.082  25.898  24.155  1.00  0.00    -0.317 N 
ATOM     83  S   UNL A   1      31.964  28.280  25.300  1.00  0.00    -0.134 SA
ATOM     84  C   UNL A   1      31.033  26.839  24.567  1.00  0.00     0.147 C 
BRANCH  82  85
ATOM     85  C   UNL A   1      32.060  24.779  23.344  1.00  0.00     0.230 C 
ATOM     86  O   UNL A   1      32.855  24.713  22.391  1.00  0.00    -0.274 OA
BRANCH  85  87
ATOM     87  C   UNL A   1      31.124  23.606  23.497  1.00  0.00     0.155 C 
BRANCH  87  88
ATOM     88  C   UNL A   1      31.687  22.285  23.886  1.00  0.00     0.044 A 
ATOM     89  C   UNL A   1      32.282  21.346  23.065  1.00  0.00     0.045 A 
ATOM     90  N   UNL A   1      31.747  21.752  25.147  1.00  0.00    -0.282 N 
ATOM     91  C   UNL A   1      32.525  20.241  23.890  1.00  0.00     0.135 A 
ATOM     92  N   UNL A   1      32.166  20.472  25.153  1.00  0.00    -0.184 NA
ATOM     93  H   UNL A   1      31.509  22.251  25.961  1.00  0.00     0.190 HD
ENDBRANCH  87  88
ENDBRANCH  85  87
ENDBRANCH  82  85
BRANCH  84  94
ATOM     94  C   UNL A   1      30.177  27.554  23.544  1.00  0.00     0.022 C 
ATOM     95  C   UNL A   1      29.978  29.045  23.460  1.00  0.00     0.007 C 
ATOM     96  C   UNL A   1      30.737  28.325  22.375  1.00  0.00     0.007 C 
ENDBRANCH  84  94
ENDBRANCH  77  80
ENDBRANCH  75  76
ENDBRANCH  74  75
ENDBRANCH   1  74
TORSDOF 17
ENDMDL
MODEL 3
REMARK VINA RESULT:     -11.2      0.448      2.043
REMARK SMILES O=C(NCCCCCCNC(=O)[C@@H]1CS[C@@H](C2CC2)N1C(=O)Cc1ccn[nH]1)c1ccc(-c2c3nc(c(-c4c(F)c(F)c(F)c(F)c4F)c4ccc([nH]4)c(-c4c(F)c(F)c(F)c(F)c4F)c4nc(c(-c5c(F)c(F)c(F)c(F)c5F)c5ccc2[nH]5)C=C4)C=C3)cc1
REMARK SMILES IDX 7 1 6 2 5 3 4 4 3 5 1 6 2 7 29 9 30 10 91 11 31 12 90 13
REMARK SMILES IDX 32 14 33 15 34 16 84 17 35 18 89 19 83 20 85 21 36 22 88 23
REMARK SMILES IDX 82 24 81 25 37 27 69 28 49 29 68 30 50 31 53 32 67 33 86 34
REMARK SMILES IDX 51 35 52 36 66 38 87 39 54 40 38 41 39 42 47 43 40 44 41 45
REMARK SMILES IDX 45 46 48 47 42 48 43 49 46 50 44 51 70 52 71 53 79 54 72 55
REMARK SMILES IDX 73 56 77 57 80 58 74 59 75 60 78 61 76 62 55 63 56 64 64 65
REMARK SMILES IDX 57 66 58 67 62 68 65 69 59 70 60 71 63 72 61 73 8 74 9 75
REMARK SMILES IDX 10 76 11 77 12 79 13 80 14 81 20 82 15 83 16 84 21 85 22 86
REMARK SMILES IDX 23 87 24 88 25 89 28 90 26 91 27 92 17 94 18 95 19 96
REMARK H PARENT 3 8 85 26 53 37 10 78 28 93
REMARK Flexibility Score: inf
ROOT
ATOM      1  C   UNL A   1      32.438  29.641  26.269  1.00  0.00     0.002 C 
ENDROOT
BRANCH   1   2
ATOM      2  C   UNL A   1      31.409  30.618  25.689  1.00  0.00     0.002 C 
BRANCH   2   3
ATOM      3  C   UNL A   1      31.216  31.915  26.476  1.00  0.00     0.021 C 
BRANCH   3   4
ATOM      4  C   UNL A   1      32.480  32.459  27.130  1.00  0.00     0.116 C 
BRANCH   4   5
ATOM      5  N   UNL A   1      32.340  33.851  27.525  1.00  0.00    -0.352 N 
ATOM      6  O   UNL A   1      32.668  35.678  28.808  1.00  0.00    -0.269 OA
ATOM      7  C   UNL A   1      33.040  34.557  28.466  1.00  0.00     0.251 C 
ATOM      8  H   UNL A   1      31.644  34.357  27.046  1.00  0.00     0.163 HD
BRANCH   7   9
ATOM      9  C   UNL A   1      34.240  33.961  29.086  1.00  0.00     0.039 A 
ATOM     10  C   UNL A   1      35.515  34.448  28.784  1.00  0.00     0.014 A 
ATOM     11  C   UNL A   1      34.082  32.914  29.998  1.00  0.00     0.014 A 
ATOM     12  C   UNL A   1      36.639  33.816  29.304  1.00  0.00     0.010 A 
ATOM     13  C   UNL A   1      35.208  32.332  30.581  1.00  0.00     0.010 A 
ATOM     14  C   UNL A   1      36.496  32.767  30.224  1.00  0.00    -0.014 A 
BRANCH  14  15
ATOM     15  C   UNL A   1      37.693  32.178  30.870  1.00  0.00     0.031 A 
ATOM     16  C   UNL A   1      38.487  31.104  30.187  1.00  0.00     0.074 A 
ATOM     17  C   UNL A   1      38.034  32.595  32.102  1.00  0.00     0.049 A 
ATOM     18  N   UNL A   1      39.505  30.416  30.638  1.00  0.00    -0.248 NA
ATOM     19  C   UNL A   1      38.075  30.746  28.823  1.00  0.00     0.031 C 
ATOM     20  C   UNL A   1      37.326  33.625  32.865  1.00  0.00     0.029 A 
ATOM     21  N   UNL A   1      39.044  32.196  32.939  1.00  0.00    -0.354 N 
ATOM     22  C   UNL A   1      39.842  29.529  29.626  1.00  0.00     0.074 A 
ATOM     23  C   UNL A   1      38.901  29.747  28.546  1.00  0.00     0.031 C 
ATOM     24  C   UNL A   1      37.924  33.780  34.054  1.00  0.00     0.029 A 
ATOM     25  C   UNL A   1      39.012  32.815  34.163  1.00  0.00     0.049 A 
ATOM     26  H   UNL A   1      39.724  31.531  32.686  1.00  0.00     0.167 HD
ATOM     27  C   UNL A   1      40.847  28.619  29.604  1.00  0.00     0.037 A 
ATOM     28  C   UNL A   1      39.746  32.600  35.271  1.00  0.00     0.037 A 
ATOM     29  C   UNL A   1      41.773  28.414  30.690  1.00  0.00     0.049 A 
ATOM     30  C   UNL A   1      40.826  31.558  35.241  1.00  0.00     0.074 A 
ATOM     31  C   UNL A   1      42.857  27.557  30.748  1.00  0.00     0.029 A 
ATOM     32  N   UNL A   1      41.709  29.062  31.917  1.00  0.00    -0.354 N 
ATOM     33  N   UNL A   1      41.173  30.760  34.260  1.00  0.00    -0.248 NA
ATOM     34  C   UNL A   1      41.616  31.386  36.466  1.00  0.00     0.031 C 
ATOM     35  C   UNL A   1      43.405  27.633  32.033  1.00  0.00     0.029 A 
ATOM     36  C   UNL A   1      42.711  28.593  32.753  1.00  0.00     0.049 A 
ATOM     37  H   UNL A   1      41.050  29.752  32.159  1.00  0.00     0.167 HD
ATOM     38  C   UNL A   1      42.236  30.008  34.739  1.00  0.00     0.074 A 
ATOM     39  C   UNL A   1      42.481  30.450  36.097  1.00  0.00     0.031 C 
ATOM     40  C   UNL A   1      42.947  29.044  34.103  1.00  0.00     0.037 A 
BRANCH  27  41
ATOM     41  C   UNL A   1      40.968  27.748  28.384  1.00  0.00     0.064 A 
ATOM     42  C   UNL A   1      40.323  26.504  28.289  1.00  0.00     0.173 A 
ATOM     43  C   UNL A   1      41.733  28.171  27.285  1.00  0.00     0.173 A 
ATOM     44  F   UNL A   1      39.583  26.047  29.310  1.00  0.00    -0.203 F 
ATOM     45  C   UNL A   1      40.481  25.698  27.164  1.00  0.00     0.198 A 
ATOM     46  C   UNL A   1      41.858  27.379  26.147  1.00  0.00     0.198 A 
ATOM     47  F   UNL A   1      42.361  29.356  27.314  1.00  0.00    -0.203 F 
ATOM     48  F   UNL A   1      39.912  24.484  27.127  1.00  0.00    -0.200 F 
ATOM     49  C   UNL A   1      41.244  26.137  26.093  1.00  0.00     0.200 A 
ATOM     50  F   UNL A   1      42.581  27.814  25.106  1.00  0.00    -0.200 F 
ATOM     51  F   UNL A   1      41.396  25.358  25.013  1.00  0.00    -0.200 F 
ENDBRANCH  27  41
BRANCH  28  52
ATOM     52  C   UNL A   1      39.451  33.388  36.495  1.00  0.00     0.064 A 
ATOM     53  C   UNL A   1      38.558  32.915  37.463  1.00  0.00     0.173 A 
ATOM     54  C   UNL A   1      40.105  34.604  36.746  1.00  0.00     0.173 A 
ATOM     55  F   UNL A   1      37.899  31.764  37.261  1.00  0.00    -0.203 F 
ATOM     56  C   UNL A   1      38.329  33.629  38.637  1.00  0.00     0.198 A 
ATOM     57  C   UNL A   1      39.899  35.302  37.933  1.00  0.00     0.198 A 
ATOM     58  F   UNL A   1      40.979  35.094  35.853  1.00  0.00    -0.203 F 
ATOM     59  F   UNL A   1      37.451  33.167  39.538  1.00  0.00    -0.200 F 
ATOM     60  C   UNL A   1      39.007  34.816  38.876  1.00  0.00     0.200 A 
ATOM     61  F   UNL A   1      40.573  36.435  38.168  1.00  0.00    -0.200 F 
ATOM     62  F   UNL A   1      38.801  35.490  40.015  1.00  0.00    -0.200 F 
ENDBRANCH  28  52
BRANCH  40  63
ATOM     63  C   UNL A   1      44.091  28.421  34.849  1.00  0.00     0.064 A 
ATOM     64  C   UNL A   1      43.943  27.228  35.571  1.00  0.00     0.173 A 
ATOM     65  C   UNL A   1      45.373  28.988  34.773  1.00  0.00     0.173 A 
ATOM     66  F   UNL A   1      42.736  26.655  35.689  1.00  0.00    -0.203 F 
ATOM     67  C   UNL A   1      45.034  26.631  36.198  1.00  0.00     0.198 A 
ATOM     68  C   UNL A   1      46.467  28.372  35.374  1.00  0.00     0.198 A 
ATOM     69  F   UNL A   1      45.568  30.127  34.093  1.00  0.00    -0.203 F 
ATOM     70  F   UNL A   1      44.864  25.508  36.910  1.00  0.00    -0.200 F 
ATOM     71  C   UNL A   1      46.296  27.196  36.088  1.00  0.00     0.200 A 
ATOM     72  F   UNL A   1      47.687  28.912  35.254  1.00  0.00    -0.200 F 
ATOM     73  F   UNL A   1      47.349  26.608  36.673  1.00  0.00    -0.200 F 
ENDBRANCH  40  63
ENDBRANCH  14  15
ENDBRANCH   7   9
ENDBRANCH   4   5
ENDBRANCH   3   4
ENDBRANCH   2   3
ENDBRANCH   1   2
BRANCH   1  74
ATOM     74  C   UNL A   1      32.114  28.154  26.093  1.00  0.00     0.021 C 
BRANCH  74  75
ATOM     75  C   UNL A   1      33.321  27.226  26.135  1.00  0.00     0.116 C 
BRANCH  75  76
ATOM     76  N   UNL A   1      33.785  26.852  24.809  1.00  0.00    -0.354 N 
ATOM     77  C   UNL A   1      33.872  25.603  24.267  1.00  0.00     0.243 C 
ATOM     78  H   UNL A   1      34.074  27.594  24.229  1.00  0.00     0.163 HD
ATOM     79  O   UNL A   1      33.922  25.506  23.035  1.00  0.00    -0.273 OA
BRANCH  77  80
ATOM     80  C   UNL A   1      33.842  24.337  25.156  1.00  0.00     0.185 C 
ATOM     81  C   UNL A   1      35.206  23.678  25.001  1.00  0.00     0.107 C 
ATOM     82  N   UNL A   1      32.727  23.488  24.666  1.00  0.00    -0.317 N 
ATOM     83  S   UNL A   1      34.892  21.970  24.593  1.00  0.00    -0.134 SA
ATOM     84  C   UNL A   1      33.160  22.270  23.970  1.00  0.00     0.147 C 
BRANCH  82  85
ATOM     85  C   UNL A   1      31.486  24.077  24.825  1.00  0.00     0.230 C 
ATOM     86  O   UNL A   1      31.086  24.333  25.973  1.00  0.00    -0.274 OA
BRANCH  85  87
ATOM     87  C   UNL A   1      30.537  24.431  23.707  1.00  0.00     0.155 C 
BRANCH  87  88
ATOM     88  C   UNL A   1      30.335  25.863  23.364  1.00  0.00     0.044 A 
ATOM     89  C   UNL A   1      29.471  26.761  23.962  1.00  0.00     0.045 A 
ATOM     90  N   UNL A   1      30.990  26.582  22.397  1.00  0.00    -0.282 N 
ATOM     91  C   UNL A   1      29.573  27.931  23.198  1.00  0.00     0.135 A 
ATOM     92  N   UNL A   1      30.472  27.812  22.220  1.00  0.00    -0.184 NA
ATOM     93  H   UNL A   1      31.757  26.236  21.887  1.00  0.00     0.190 HD
ENDBRANCH  87  88
ENDBRANCH  85  87
ENDBRANCH  82  85
BRANCH  84  94
ATOM     94  C   UNL A   1      32.522  20.930  24.268  1.00  0.00     0.022 C 
ATOM     95  C   UNL A   1      33.216  19.595  24.185  1.00  0.00     0.007 C 
ATOM     96  C   UNL A   1      32.786  20.138  25.524  1.00  0.00     0.007 C 
ENDBRANCH  84  94
ENDBRANCH  77  80
ENDBRANCH  75  76
ENDBRANCH  74  75
ENDBRANCH   1  74
TORSDOF 17
ENDMDL
