MODEL 1
REMARK VINA RESULT:     -13.7      0.000      0.000
REMARK SMILES Cc1ccc(C(=O)N[C@@H]2C=C[C@H](C(=O)NCCCCCCNC(=O)c3ccc(-c4c5nc(c(-c6c(F)c(F)c(F)c(F)c6F)c6ccc([nH]6)c(-c6c(F)c(F)c(F)c(F)c6F)c6nc(c(-c7c(F)c(F)c(F)c(F)c7F)c7ccc4[nH]7)C=C6)C=C5)cc3)C2)c(F)c1
REMARK SMILES IDX 18 1 17 2 16 3 15 4 13 5 14 6 12 8 9 9 10 10 88 11 11 12
REMARK SMILES IDX 8 13 6 14 7 15 5 17 1 18 2 19 3 20 91 21 4 22 89 23 90 24
REMARK SMILES IDX 19 25 20 26 21 27 22 28 23 29 24 31 25 32 26 33 87 34 27 35
REMARK SMILES IDX 86 36 28 37 29 38 30 39 80 40 31 41 85 42 79 43 81 44 32 45
REMARK SMILES IDX 84 46 78 47 77 48 33 50 65 51 45 52 64 53 46 54 49 55 63 56
REMARK SMILES IDX 82 57 47 58 48 59 62 61 83 62 50 63 34 64 35 65 43 66 36 67
REMARK SMILES IDX 37 68 41 69 44 70 38 71 39 72 42 73 40 74 66 75 67 76 75 77
REMARK SMILES IDX 68 78 69 79 73 80 76 81 70 82 71 83 74 84 72 85 51 86 52 87
REMARK SMILES IDX 60 88 53 89 54 90 58 91 61 92 55 93 56 94 59 95 57 96
REMARK H PARENT 15 7 8 16 22 30 81 49 49 60
REMARK Flexibility Score: inf
ROOT
ATOM      1  C   UNL A   1      31.777  30.217  25.860  1.00  0.00     0.002 C 
ENDROOT
BRANCH   1   2
ATOM      2  C   UNL A   1      32.120  29.236  24.733  1.00  0.00     0.021 C 
BRANCH   2   3
ATOM      3  C   UNL A   1      31.017  28.236  24.397  1.00  0.00     0.116 C 
BRANCH   3   4
ATOM      4  N   UNL A   1      30.893  27.196  25.396  1.00  0.00    -0.356 N 
ATOM      5  C   UNL A   1      31.668  26.084  25.560  1.00  0.00     0.227 C 
ATOM      6  O   UNL A   1      31.502  25.400  26.568  1.00  0.00    -0.274 OA
ATOM      7  H   UNL A   1      30.157  27.305  26.041  1.00  0.00     0.163 HD
BRANCH   5   8
ATOM      8  C   UNL A   1      32.648  25.731  24.444  1.00  0.00     0.103 C 
ATOM      9  C   UNL A   1      33.720  23.529  24.766  1.00  0.00     0.106 C 
ATOM     10  C   UNL A   1      34.662  24.670  25.010  1.00  0.00    -0.006 C 
ATOM     11  C   UNL A   1      32.517  24.241  24.131  1.00  0.00     0.047 C 
ATOM     12  C   UNL A   1      34.079  25.864  24.840  1.00  0.00    -0.016 C 
BRANCH   9  13
ATOM     13  N   UNL A   1      33.530  22.833  26.027  1.00  0.00    -0.346 N 
ATOM     14  C   UNL A   1      33.716  21.527  26.416  1.00  0.00     0.254 C 
ATOM     15  O   UNL A   1      33.810  21.268  27.614  1.00  0.00    -0.269 OA
ATOM     16  H   UNL A   1      33.201  23.415  26.750  1.00  0.00     0.164 HD
BRANCH  14  17
ATOM     17  C   UNL A   1      33.695  20.427  25.435  1.00  0.00     0.075 A 
ATOM     18  C   UNL A   1      33.843  16.581  23.535  1.00  0.00     0.044 C 
ATOM     19  C   UNL A   1      33.786  17.973  24.090  1.00  0.00    -0.048 A 
ATOM     20  C   UNL A   1      32.557  18.601  24.334  1.00  0.00     0.004 A 
ATOM     21  C   UNL A   1      34.968  18.663  24.374  1.00  0.00     0.043 A 
ATOM     22  C   UNL A   1      32.510  19.843  24.979  1.00  0.00     0.017 A 
ATOM     23  C   UNL A   1      34.919  19.876  25.054  1.00  0.00     0.136 A 
ATOM     24  F   UNL A   1      36.082  20.451  25.395  1.00  0.00    -0.206 F 
ENDBRANCH  14  17
ENDBRANCH   9  13
ENDBRANCH   5   8
ENDBRANCH   3   4
ENDBRANCH   2   3
ENDBRANCH   1   2
BRANCH   1  25
ATOM     25  C   UNL A   1      32.631  30.091  27.132  1.00  0.00     0.002 C 
BRANCH  25  26
ATOM     26  C   UNL A   1      33.410  28.779  27.283  1.00  0.00     0.021 C 
BRANCH  26  27
ATOM     27  C   UNL A   1      34.876  28.954  26.969  1.00  0.00     0.116 C 
BRANCH  27  28
ATOM     28  N   UNL A   1      35.307  30.328  27.200  1.00  0.00    -0.352 N 
ATOM     29  C   UNL A   1      36.331  30.756  28.016  1.00  0.00     0.251 C 
ATOM     30  H   UNL A   1      34.810  31.028  26.719  1.00  0.00     0.163 HD
ATOM     31  O   UNL A   1      36.368  31.893  28.452  1.00  0.00    -0.269 OA
BRANCH  29  32
ATOM     32  C   UNL A   1      37.418  29.808  28.295  1.00  0.00     0.039 A 
ATOM     33  C   UNL A   1      37.458  29.055  29.473  1.00  0.00     0.014 A 
ATOM     34  C   UNL A   1      38.461  29.760  27.376  1.00  0.00     0.014 A 
ATOM     35  C   UNL A   1      38.580  28.274  29.729  1.00  0.00     0.010 A 
ATOM     36  C   UNL A   1      39.439  28.837  27.512  1.00  0.00     0.010 A 
ATOM     37  C   UNL A   1      39.560  28.202  28.741  1.00  0.00    -0.014 A 
BRANCH  37  38
ATOM     38  C   UNL A   1      40.832  27.533  28.862  1.00  0.00     0.031 A 
ATOM     39  C   UNL A   1      40.881  26.107  28.572  1.00  0.00     0.074 A 
ATOM     40  C   UNL A   1      41.890  28.362  29.001  1.00  0.00     0.049 A 
ATOM     41  N   UNL A   1      41.805  25.325  28.986  1.00  0.00    -0.248 NA
ATOM     42  C   UNL A   1      39.834  25.419  27.821  1.00  0.00     0.031 C 
ATOM     43  C   UNL A   1      43.313  28.141  28.828  1.00  0.00     0.029 A 
ATOM     44  N   UNL A   1      41.819  29.687  29.477  1.00  0.00    -0.354 N 
ATOM     45  C   UNL A   1      41.689  24.160  28.262  1.00  0.00     0.074 A 
ATOM     46  C   UNL A   1      40.349  24.188  27.734  1.00  0.00     0.031 C 
ATOM     47  C   UNL A   1      43.973  29.097  29.516  1.00  0.00     0.029 A 
ATOM     48  C   UNL A   1      42.981  29.877  30.245  1.00  0.00     0.049 A 
ATOM     49  H   UNL A   1      41.105  30.342  29.307  1.00  0.00     0.167 HD
ATOM     50  C   UNL A   1      42.828  23.438  28.052  1.00  0.00     0.037 A 
ATOM     51  C   UNL A   1      42.812  29.913  31.604  1.00  0.00     0.037 A 
ATOM     52  C   UNL A   1      43.946  24.089  28.753  1.00  0.00     0.049 A 
ATOM     53  C   UNL A   1      43.306  28.646  32.270  1.00  0.00     0.074 A 
ATOM     54  C   UNL A   1      44.973  24.933  28.361  1.00  0.00     0.029 A 
ATOM     55  N   UNL A   1      43.864  24.214  30.128  1.00  0.00    -0.354 N 
ATOM     56  N   UNL A   1      43.651  27.569  31.613  1.00  0.00    -0.248 NA
ATOM     57  C   UNL A   1      43.449  28.480  33.711  1.00  0.00     0.031 C 
ATOM     58  C   UNL A   1      45.455  25.611  29.529  1.00  0.00     0.029 A 
ATOM     59  C   UNL A   1      44.731  25.166  30.623  1.00  0.00     0.049 A 
ATOM     60  H   UNL A   1      43.256  23.683  30.690  1.00  0.00     0.167 HD
ATOM     61  C   UNL A   1      44.132  26.629  32.473  1.00  0.00     0.074 A 
ATOM     62  C   UNL A   1      43.928  27.224  33.786  1.00  0.00     0.031 C 
ATOM     63  C   UNL A   1      44.686  25.450  32.052  1.00  0.00     0.037 A 
BRANCH  50  64
ATOM     64  C   UNL A   1      43.030  22.314  27.058  1.00  0.00     0.064 A 
ATOM     65  C   UNL A   1      42.270  21.128  27.189  1.00  0.00     0.173 A 
ATOM     66  C   UNL A   1      43.955  22.291  25.993  1.00  0.00     0.173 A 
ATOM     67  F   UNL A   1      41.301  21.019  28.107  1.00  0.00    -0.203 F 
ATOM     68  C   UNL A   1      42.470  20.005  26.379  1.00  0.00     0.198 A 
ATOM     69  C   UNL A   1      44.156  21.166  25.183  1.00  0.00     0.198 A 
ATOM     70  F   UNL A   1      44.699  23.345  25.663  1.00  0.00    -0.203 F 
ATOM     71  F   UNL A   1      41.734  18.905  26.578  1.00  0.00    -0.200 F 
ATOM     72  C   UNL A   1      43.424  20.020  25.383  1.00  0.00     0.200 A 
ATOM     73  F   UNL A   1      45.075  21.212  24.207  1.00  0.00    -0.200 F 
ATOM     74  F   UNL A   1      43.625  18.943  24.614  1.00  0.00    -0.200 F 
ENDBRANCH  50  64
BRANCH  51  75
ATOM     75  C   UNL A   1      41.596  30.727  31.959  1.00  0.00     0.064 A 
ATOM     76  C   UNL A   1      40.517  30.012  32.532  1.00  0.00     0.173 A 
ATOM     77  C   UNL A   1      41.678  32.095  32.253  1.00  0.00     0.173 A 
ATOM     78  F   UNL A   1      40.361  28.707  32.257  1.00  0.00    -0.203 F 
ATOM     79  C   UNL A   1      39.719  30.576  33.526  1.00  0.00     0.198 A 
ATOM     80  C   UNL A   1      40.832  32.671  33.211  1.00  0.00     0.198 A 
ATOM     81  F   UNL A   1      42.653  32.845  31.721  1.00  0.00    -0.203 F 
ATOM     82  F   UNL A   1      38.844  29.809  34.195  1.00  0.00    -0.200 F 
ATOM     83  C   UNL A   1      39.907  31.894  33.896  1.00  0.00     0.200 A 
ATOM     84  F   UNL A   1      40.973  33.965  33.531  1.00  0.00    -0.200 F 
ATOM     85  F   UNL A   1      39.228  32.397  34.937  1.00  0.00    -0.200 F 
ENDBRANCH  51  75
BRANCH  63  86
ATOM     86  C   UNL A   1      45.245  24.432  33.000  1.00  0.00     0.064 A 
ATOM     87  C   UNL A   1      44.496  23.333  33.438  1.00  0.00     0.173 A 
ATOM     88  C   UNL A   1      46.525  24.583  33.580  1.00  0.00     0.173 A 
ATOM     89  F   UNL A   1      43.227  23.161  33.038  1.00  0.00    -0.203 F 
ATOM     90  C   UNL A   1      45.032  22.390  34.313  1.00  0.00     0.198 A 
ATOM     91  C   UNL A   1      47.026  23.684  34.512  1.00  0.00     0.198 A 
ATOM     92  F   UNL A   1      47.348  25.584  33.242  1.00  0.00    -0.203 F 
ATOM     93  F   UNL A   1      44.317  21.303  34.630  1.00  0.00    -0.200 F 
ATOM     94  C   UNL A   1      46.293  22.569  34.853  1.00  0.00     0.200 A 
ATOM     95  F   UNL A   1      48.231  23.899  35.058  1.00  0.00    -0.200 F 
ATOM     96  F   UNL A   1      46.804  21.665  35.699  1.00  0.00    -0.200 F 
ENDBRANCH  63  86
ENDBRANCH  37  38
ENDBRANCH  29  32
ENDBRANCH  27  28
ENDBRANCH  26  27
ENDBRANCH  25  26
ENDBRANCH   1  25
TORSDOF 15
ENDMDL
MODEL 2
REMARK VINA RESULT:     -13.4      1.531      2.283
REMARK SMILES Cc1ccc(C(=O)N[C@@H]2C=C[C@H](C(=O)NCCCCCCNC(=O)c3ccc(-c4c5nc(c(-c6c(F)c(F)c(F)c(F)c6F)c6ccc([nH]6)c(-c6c(F)c(F)c(F)c(F)c6F)c6nc(c(-c7c(F)c(F)c(F)c(F)c7F)c7ccc4[nH]7)C=C6)C=C5)cc3)C2)c(F)c1
REMARK SMILES IDX 18 1 17 2 16 3 15 4 13 5 14 6 12 8 9 9 10 10 88 11 11 12
REMARK SMILES IDX 8 13 6 14 7 15 5 17 1 18 2 19 3 20 91 21 4 22 89 23 90 24
REMARK SMILES IDX 19 25 20 26 21 27 22 28 23 29 24 31 25 32 26 33 87 34 27 35
REMARK SMILES IDX 86 36 28 37 29 38 30 39 80 40 31 41 85 42 79 43 81 44 32 45
REMARK SMILES IDX 84 46 78 47 77 48 33 50 65 51 45 52 64 53 46 54 49 55 63 56
REMARK SMILES IDX 82 57 47 58 48 59 62 61 83 62 50 63 34 64 35 65 43 66 36 67
REMARK SMILES IDX 37 68 41 69 44 70 38 71 39 72 42 73 40 74 66 75 67 76 75 77
REMARK SMILES IDX 68 78 69 79 73 80 76 81 70 82 71 83 74 84 72 85 51 86 52 87
REMARK SMILES IDX 60 88 53 89 54 90 58 91 61 92 55 93 56 94 59 95 57 96
REMARK H PARENT 15 7 8 16 22 30 81 49 49 60
REMARK Flexibility Score: inf
ROOT
ATOM      1  C   UNL A   1      31.861  29.445  25.284  1.00  0.00     0.002 C 
ENDROOT
BRANCH   1   2
ATOM      2  C   UNL A   1      31.659  28.548  24.058  1.00  0.00     0.021 C 
BRANCH   2   3
ATOM      3  C   UNL A   1      30.392  27.696  24.089  1.00  0.00     0.116 C 
BRANCH   3   4
ATOM      4  N   UNL A   1      30.596  26.385  23.508  1.00  0.00    -0.356 N 
ATOM      5  C   UNL A   1      30.697  25.183  24.147  1.00  0.00     0.227 C 
ATOM      6  O   UNL A   1      30.708  24.160  23.467  1.00  0.00    -0.274 OA
ATOM      7  H   UNL A   1      30.669  26.357  22.526  1.00  0.00     0.163 HD
BRANCH   5   8
ATOM      8  C   UNL A   1      30.852  25.199  25.666  1.00  0.00     0.103 C 
ATOM      9  C   UNL A   1      31.439  22.986  26.594  1.00  0.00     0.106 C 
ATOM     10  C   UNL A   1      30.025  23.383  26.898  1.00  0.00    -0.006 C 
ATOM     11  C   UNL A   1      32.024  24.295  26.046  1.00  0.00     0.047 C 
ATOM     12  C   UNL A   1      29.706  24.580  26.391  1.00  0.00    -0.016 C 
BRANCH   9  13
ATOM     13  N   UNL A   1      31.395  21.825  25.722  1.00  0.00    -0.346 N 
ATOM     14  C   UNL A   1      32.366  20.982  25.232  1.00  0.00     0.254 C 
ATOM     15  O   UNL A   1      32.037  19.881  24.796  1.00  0.00    -0.269 OA
ATOM     16  H   UNL A   1      30.488  21.595  25.420  1.00  0.00     0.164 HD
BRANCH  14  17
ATOM     17  C   UNL A   1      33.770  21.416  25.122  1.00  0.00     0.075 A 
ATOM     18  C   UNL A   1      37.403  23.703  25.158  1.00  0.00     0.044 C 
ATOM     19  C   UNL A   1      36.196  22.816  25.094  1.00  0.00    -0.048 A 
ATOM     20  C   UNL A   1      35.913  21.910  26.126  1.00  0.00     0.004 A 
ATOM     21  C   UNL A   1      35.331  22.886  23.997  1.00  0.00     0.043 A 
ATOM     22  C   UNL A   1      34.714  21.185  26.126  1.00  0.00     0.017 A 
ATOM     23  C   UNL A   1      34.121  22.199  24.021  1.00  0.00     0.136 A 
ATOM     24  F   UNL A   1      33.280  22.378  22.992  1.00  0.00    -0.206 F 
ENDBRANCH  14  17
ENDBRANCH   9  13
ENDBRANCH   5   8
ENDBRANCH   3   4
ENDBRANCH   2   3
ENDBRANCH   1   2
BRANCH   1  25
ATOM     25  C   UNL A   1      31.843  28.726  26.643  1.00  0.00     0.002 C 
BRANCH  25  26
ATOM     26  C   UNL A   1      33.216  28.417  27.251  1.00  0.00     0.021 C 
BRANCH  26  27
ATOM     27  C   UNL A   1      34.320  29.193  26.576  1.00  0.00     0.116 C 
BRANCH  27  28
ATOM     28  N   UNL A   1      34.468  30.521  27.161  1.00  0.00    -0.352 N 
ATOM     29  C   UNL A   1      35.271  30.884  28.220  1.00  0.00     0.251 C 
ATOM     30  H   UNL A   1      33.934  31.240  26.752  1.00  0.00     0.163 HD
ATOM     31  O   UNL A   1      35.046  31.881  28.881  1.00  0.00    -0.269 OA
BRANCH  29  32
ATOM     32  C   UNL A   1      36.453  30.053  28.492  1.00  0.00     0.039 A 
ATOM     33  C   UNL A   1      36.590  29.328  29.680  1.00  0.00     0.014 A 
ATOM     34  C   UNL A   1      37.477  30.093  27.551  1.00  0.00     0.014 A 
ATOM     35  C   UNL A   1      37.788  28.668  29.924  1.00  0.00     0.010 A 
ATOM     36  C   UNL A   1      38.545  29.275  27.681  1.00  0.00     0.010 A 
ATOM     37  C   UNL A   1      38.752  28.676  28.917  1.00  0.00    -0.014 A 
BRANCH  37  38
ATOM     38  C   UNL A   1      40.086  28.139  29.022  1.00  0.00     0.031 A 
ATOM     39  C   UNL A   1      40.279  26.730  28.710  1.00  0.00     0.074 A 
ATOM     40  C   UNL A   1      41.055  29.070  29.169  1.00  0.00     0.049 A 
ATOM     41  N   UNL A   1      41.281  26.041  29.107  1.00  0.00    -0.248 NA
ATOM     42  C   UNL A   1      39.303  25.950  27.953  1.00  0.00     0.031 C 
ATOM     43  C   UNL A   1      42.492  28.999  28.986  1.00  0.00     0.029 A 
ATOM     44  N   UNL A   1      40.852  30.373  29.666  1.00  0.00    -0.354 N 
ATOM     45  C   UNL A   1      41.281  24.881  28.366  1.00  0.00     0.074 A 
ATOM     46  C   UNL A   1      39.941  24.780  27.845  1.00  0.00     0.031 C 
ATOM     47  C   UNL A   1      43.055  30.007  29.686  1.00  0.00     0.029 A 
ATOM     48  C   UNL A   1      41.993  30.671  30.431  1.00  0.00     0.049 A 
ATOM     49  H   UNL A   1      40.073  30.954  29.509  1.00  0.00     0.167 HD
ATOM     50  C   UNL A   1      42.486  24.283  28.140  1.00  0.00     0.037 A 
ATOM     51  C   UNL A   1      41.829  30.668  31.792  1.00  0.00     0.037 A 
ATOM     52  C   UNL A   1      43.536  25.034  28.846  1.00  0.00     0.049 A 
ATOM     53  C   UNL A   1      42.454  29.448  32.435  1.00  0.00     0.074 A 
ATOM     54  C   UNL A   1      44.469  25.985  28.462  1.00  0.00     0.029 A 
ATOM     55  N   UNL A   1      43.450  25.130  30.222  1.00  0.00    -0.354 N 
ATOM     56  N   UNL A   1      42.904  28.423  31.760  1.00  0.00    -0.248 NA
ATOM     57  C   UNL A   1      42.623  29.277  33.873  1.00  0.00     0.031 C 
ATOM     58  C   UNL A   1      44.886  26.691  29.638  1.00  0.00     0.029 A 
ATOM     59  C   UNL A   1      44.218  26.158  30.728  1.00  0.00     0.049 A 
ATOM     60  H   UNL A   1      42.903  24.531  30.779  1.00  0.00     0.167 HD
ATOM     61  C   UNL A   1      43.484  27.524  32.603  1.00  0.00     0.074 A 
ATOM     62  C   UNL A   1      43.228  28.075  33.926  1.00  0.00     0.031 C 
ATOM     63  C   UNL A   1      44.153  26.415  32.161  1.00  0.00     0.037 A 
BRANCH  50  64
ATOM     64  C   UNL A   1      42.796  23.200  27.127  1.00  0.00     0.064 A 
ATOM     65  C   UNL A   1      42.317  21.888  27.347  1.00  0.00     0.173 A 
ATOM     66  C   UNL A   1      43.574  23.341  25.958  1.00  0.00     0.173 A 
ATOM     67  F   UNL A   1      41.506  21.605  28.375  1.00  0.00    -0.203 F 
ATOM     68  C   UNL A   1      42.647  20.811  26.518  1.00  0.00     0.198 A 
ATOM     69  C   UNL A   1      43.905  22.263  25.129  1.00  0.00     0.198 A 
ATOM     70  F   UNL A   1      44.041  24.516  25.542  1.00  0.00    -0.203 F 
ATOM     71  F   UNL A   1      42.181  19.588  26.803  1.00  0.00    -0.200 F 
ATOM     72  C   UNL A   1      43.452  20.996  25.415  1.00  0.00     0.200 A 
ATOM     73  F   UNL A   1      44.673  22.472  24.050  1.00  0.00    -0.200 F 
ATOM     74  F   UNL A   1      43.779  19.965  24.626  1.00  0.00    -0.200 F 
ENDBRANCH  50  64
BRANCH  51  75
ATOM     75  C   UNL A   1      40.539  31.348  32.165  1.00  0.00     0.064 A 
ATOM     76  C   UNL A   1      39.550  30.522  32.751  1.00  0.00     0.173 A 
ATOM     77  C   UNL A   1      40.478  32.717  32.459  1.00  0.00     0.173 A 
ATOM     78  F   UNL A   1      39.530  29.208  32.475  1.00  0.00    -0.203 F 
ATOM     79  C   UNL A   1      38.710  30.997  33.757  1.00  0.00     0.198 A 
ATOM     80  C   UNL A   1      39.589  33.200  33.430  1.00  0.00     0.198 A 
ATOM     81  F   UNL A   1      41.360  33.567  31.915  1.00  0.00    -0.203 F 
ATOM     82  F   UNL A   1      37.931  30.141  34.437  1.00  0.00    -0.200 F 
ATOM     83  C   UNL A   1      38.762  32.328  34.127  1.00  0.00     0.200 A 
ATOM     84  F   UNL A   1      39.596  34.501  33.751  1.00  0.00    -0.200 F 
ATOM     85  F   UNL A   1      38.047  32.756  35.178  1.00  0.00    -0.200 F 
ENDBRANCH  51  75
BRANCH  63  86
ATOM     86  C   UNL A   1      44.819  25.446  33.091  1.00  0.00     0.064 A 
ATOM     87  C   UNL A   1      46.209  25.274  33.116  1.00  0.00     0.173 A 
ATOM     88  C   UNL A   1      44.071  24.582  33.923  1.00  0.00     0.173 A 
ATOM     89  F   UNL A   1      47.002  25.963  32.282  1.00  0.00    -0.203 F 
ATOM     90  C   UNL A   1      46.815  24.376  33.993  1.00  0.00     0.198 A 
ATOM     91  C   UNL A   1      44.674  23.632  34.738  1.00  0.00     0.198 A 
ATOM     92  F   UNL A   1      42.735  24.647  34.003  1.00  0.00    -0.203 F 
ATOM     93  F   UNL A   1      48.151  24.313  34.053  1.00  0.00    -0.200 F 
ATOM     94  C   UNL A   1      46.048  23.553  34.797  1.00  0.00     0.200 A 
ATOM     95  F   UNL A   1      43.912  22.814  35.476  1.00  0.00    -0.200 F 
ATOM     96  F   UNL A   1      46.632  22.685  35.635  1.00  0.00    -0.200 F 
ENDBRANCH  63  86
ENDBRANCH  37  38
ENDBRANCH  29  32
ENDBRANCH  27  28
ENDBRANCH  26  27
ENDBRANCH  25  26
ENDBRANCH   1  25
TORSDOF 15
ENDMDL
MODEL 3
REMARK VINA RESULT:     -13.3      3.774     10.235
REMARK SMILES Cc1ccc(C(=O)N[C@@H]2C=C[C@H](C(=O)NCCCCCCNC(=O)c3ccc(-c4c5nc(c(-c6c(F)c(F)c(F)c(F)c6F)c6ccc([nH]6)c(-c6c(F)c(F)c(F)c(F)c6F)c6nc(c(-c7c(F)c(F)c(F)c(F)c7F)c7ccc4[nH]7)C=C6)C=C5)cc3)C2)c(F)c1
REMARK SMILES IDX 18 1 17 2 16 3 15 4 13 5 14 6 12 8 9 9 10 10 88 11 11 12
REMARK SMILES IDX 8 13 6 14 7 15 5 17 1 18 2 19 3 20 91 21 4 22 89 23 90 24
REMARK SMILES IDX 19 25 20 26 21 27 22 28 23 29 24 31 25 32 26 33 87 34 27 35
REMARK SMILES IDX 86 36 28 37 29 38 30 39 80 40 31 41 85 42 79 43 81 44 32 45
REMARK SMILES IDX 84 46 78 47 77 48 33 50 65 51 45 52 64 53 46 54 49 55 63 56
REMARK SMILES IDX 82 57 47 58 48 59 62 61 83 62 50 63 34 64 35 65 43 66 36 67
REMARK SMILES IDX 37 68 41 69 44 70 38 71 39 72 42 73 40 74 66 75 67 76 75 77
REMARK SMILES IDX 68 78 69 79 73 80 76 81 70 82 71 83 74 84 72 85 51 86 52 87
REMARK SMILES IDX 60 88 53 89 54 90 58 91 61 92 55 93 56 94 59 95 57 96
REMARK H PARENT 15 7 8 16 22 30 81 49 49 60
REMARK Flexibility Score: inf
ROOT
ATOM      1  C   UNL A   1      35.989  21.048  25.548  1.00  0.00     0.002 C 
ENDROOT
BRANCH   1   2
ATOM      2  C   UNL A   1      35.272  19.993  24.697  1.00  0.00     0.021 C 
BRANCH   2   3
ATOM      3  C   UNL A   1      33.795  19.800  25.026  1.00  0.00     0.116 C 
BRANCH   3   4
ATOM      4  N   UNL A   1      32.933  20.602  24.182  1.00  0.00    -0.356 N 
ATOM      5  C   UNL A   1      32.300  21.772  24.488  1.00  0.00     0.227 C 
ATOM      6  O   UNL A   1      31.739  22.386  23.584  1.00  0.00    -0.274 OA
ATOM      7  H   UNL A   1      32.786  20.260  23.270  1.00  0.00     0.163 HD
BRANCH   5   8
ATOM      8  C   UNL A   1      32.280  22.205  25.952  1.00  0.00     0.103 C 
ATOM      9  C   UNL A   1      31.363  24.477  26.269  1.00  0.00     0.106 C 
ATOM     10  C   UNL A   1      32.847  24.420  26.475  1.00  0.00    -0.006 C 
ATOM     11  C   UNL A   1      30.994  22.988  26.212  1.00  0.00     0.047 C 
ATOM     12  C   UNL A   1      33.345  23.190  26.299  1.00  0.00    -0.016 C 
BRANCH   9  13
ATOM     13  N   UNL A   1      31.109  25.301  25.100  1.00  0.00    -0.346 N 
ATOM     14  C   UNL A   1      31.598  26.519  24.685  1.00  0.00     0.254 C 
ATOM     15  O   UNL A   1      31.484  26.837  23.504  1.00  0.00    -0.269 OA
ATOM     16  H   UNL A   1      30.455  24.909  24.478  1.00  0.00     0.164 HD
BRANCH  14  17
ATOM     17  C   UNL A   1      32.153  27.487  25.648  1.00  0.00     0.075 A 
ATOM     18  C   UNL A   1      33.612  31.046  27.555  1.00  0.00     0.044 C 
ATOM     19  C   UNL A   1      33.140  29.742  26.984  1.00  0.00    -0.048 A 
ATOM     20  C   UNL A   1      31.861  29.247  27.279  1.00  0.00     0.004 A 
ATOM     21  C   UNL A   1      33.976  29.001  26.143  1.00  0.00     0.043 A 
ATOM     22  C   UNL A   1      31.377  28.102  26.635  1.00  0.00     0.017 A 
ATOM     23  C   UNL A   1      33.477  27.889  25.471  1.00  0.00     0.136 A 
ATOM     24  F   UNL A   1      34.286  27.271  24.597  1.00  0.00    -0.206 F 
ENDBRANCH  14  17
ENDBRANCH   9  13
ENDBRANCH   5   8
ENDBRANCH   3   4
ENDBRANCH   2   3
ENDBRANCH   1   2
BRANCH   1  25
ATOM     25  C   UNL A   1      37.137  21.794  24.852  1.00  0.00     0.002 C 
BRANCH  25  26
ATOM     26  C   UNL A   1      37.016  23.322  24.819  1.00  0.00     0.021 C 
BRANCH  26  27
ATOM     27  C   UNL A   1      37.475  23.953  26.110  1.00  0.00     0.116 C 
BRANCH  27  28
ATOM     28  N   UNL A   1      38.640  23.262  26.653  1.00  0.00    -0.352 N 
ATOM     29  C   UNL A   1      39.835  23.821  27.047  1.00  0.00     0.251 C 
ATOM     30  H   UNL A   1      38.563  22.285  26.747  1.00  0.00     0.163 HD
ATOM     31  O   UNL A   1      40.860  23.165  27.106  1.00  0.00    -0.269 OA
BRANCH  29  32
ATOM     32  C   UNL A   1      39.822  25.233  27.457  1.00  0.00     0.039 A 
ATOM     33  C   UNL A   1      40.336  26.245  26.640  1.00  0.00     0.014 A 
ATOM     34  C   UNL A   1      39.357  25.510  28.739  1.00  0.00     0.014 A 
ATOM     35  C   UNL A   1      40.407  27.538  27.143  1.00  0.00     0.010 A 
ATOM     36  C   UNL A   1      39.215  26.792  29.143  1.00  0.00     0.010 A 
ATOM     37  C   UNL A   1      39.859  27.776  28.403  1.00  0.00    -0.014 A 
BRANCH  37  38
ATOM     38  C   UNL A   1      39.927  29.018  29.131  1.00  0.00     0.031 A 
ATOM     39  C   UNL A   1      38.900  30.018  28.870  1.00  0.00     0.074 A 
ATOM     40  C   UNL A   1      40.807  29.019  30.157  1.00  0.00     0.049 A 
ATOM     41  N   UNL A   1      39.031  31.262  29.135  1.00  0.00    -0.248 NA
ATOM     42  C   UNL A   1      37.633  29.694  28.219  1.00  0.00     0.031 C 
ATOM     43  C   UNL A   1      40.948  29.898  31.302  1.00  0.00     0.029 A 
ATOM     44  N   UNL A   1      41.912  28.152  30.271  1.00  0.00    -0.354 N 
ATOM     45  C   UNL A   1      37.774  31.817  29.054  1.00  0.00     0.074 A 
ATOM     46  C   UNL A   1      37.006  30.873  28.282  1.00  0.00     0.031 C 
ATOM     47  C   UNL A   1      42.211  29.786  31.765  1.00  0.00     0.029 A 
ATOM     48  C   UNL A   1      42.940  28.920  30.846  1.00  0.00     0.049 A 
ATOM     49  H   UNL A   1      41.956  27.206  30.004  1.00  0.00     0.167 HD
ATOM     50  C   UNL A   1      37.519  32.907  29.835  1.00  0.00     0.037 A 
ATOM     51  C   UNL A   1      43.959  29.295  30.010  1.00  0.00     0.037 A 
ATOM     52  C   UNL A   1      38.747  33.279  30.556  1.00  0.00     0.049 A 
ATOM     53  C   UNL A   1      43.884  30.763  29.649  1.00  0.00     0.074 A 
ATOM     54  C   UNL A   1      39.218  33.058  31.841  1.00  0.00     0.029 A 
ATOM     55  N   UNL A   1      39.853  33.639  29.809  1.00  0.00    -0.354 N 
ATOM     56  N   UNL A   1      42.859  31.527  29.925  1.00  0.00    -0.248 NA
ATOM     57  C   UNL A   1      44.939  31.490  28.953  1.00  0.00     0.031 C 
ATOM     58  C   UNL A   1      40.641  33.233  31.823  1.00  0.00     0.029 A 
ATOM     59  C   UNL A   1      41.024  33.572  30.535  1.00  0.00     0.049 A 
ATOM     60  H   UNL A   1      39.811  33.913  28.865  1.00  0.00     0.167 HD
ATOM     61  C   UNL A   1      43.118  32.811  29.556  1.00  0.00     0.074 A 
ATOM     62  C   UNL A   1      44.412  32.728  28.894  1.00  0.00     0.031 C 
ATOM     63  C   UNL A   1      42.274  33.851  29.840  1.00  0.00     0.037 A 
BRANCH  50  64
ATOM     64  C   UNL A   1      36.167  33.505  30.160  1.00  0.00     0.064 A 
ATOM     65  C   UNL A   1      35.379  34.045  29.117  1.00  0.00     0.173 A 
ATOM     66  C   UNL A   1      35.590  33.631  31.441  1.00  0.00     0.173 A 
ATOM     67  F   UNL A   1      35.755  33.942  27.835  1.00  0.00    -0.203 F 
ATOM     68  C   UNL A   1      34.169  34.709  29.345  1.00  0.00     0.198 A 
ATOM     69  C   UNL A   1      34.380  34.297  31.670  1.00  0.00     0.198 A 
ATOM     70  F   UNL A   1      36.145  33.110  32.534  1.00  0.00    -0.203 F 
ATOM     71  F   UNL A   1      33.489  35.222  28.312  1.00  0.00    -0.200 F 
ATOM     72  C   UNL A   1      33.675  34.847  30.625  1.00  0.00     0.200 A 
ATOM     73  F   UNL A   1      33.909  34.399  32.922  1.00  0.00    -0.200 F 
ATOM     74  F   UNL A   1      32.523  35.491  30.848  1.00  0.00    -0.200 F 
ENDBRANCH  50  64
BRANCH  51  75
ATOM     75  C   UNL A   1      44.355  28.146  29.121  1.00  0.00     0.064 A 
ATOM     76  C   UNL A   1      44.099  28.313  27.740  1.00  0.00     0.173 A 
ATOM     77  C   UNL A   1      45.378  27.254  29.473  1.00  0.00     0.173 A 
ATOM     78  F   UNL A   1      43.105  29.123  27.340  1.00  0.00    -0.203 F 
ATOM     79  C   UNL A   1      44.967  27.810  26.773  1.00  0.00     0.198 A 
ATOM     80  C   UNL A   1      46.213  26.703  28.491  1.00  0.00     0.198 A 
ATOM     81  F   UNL A   1      45.658  27.018  30.762  1.00  0.00    -0.203 F 
ATOM     82  F   UNL A   1      44.812  28.162  25.487  1.00  0.00    -0.200 F 
ATOM     83  C   UNL A   1      46.051  27.041  27.153  1.00  0.00     0.200 A 
ATOM     84  F   UNL A   1      47.231  25.909  28.852  1.00  0.00    -0.200 F 
ATOM     85  F   UNL A   1      46.955  26.665  26.238  1.00  0.00    -0.200 F 
ENDBRANCH  51  75
BRANCH  63  86
ATOM     86  C   UNL A   1      42.578  35.269  29.461  1.00  0.00     0.064 A 
ATOM     87  C   UNL A   1      43.367  36.102  30.265  1.00  0.00     0.173 A 
ATOM     88  C   UNL A   1      42.003  35.872  28.320  1.00  0.00     0.173 A 
ATOM     89  F   UNL A   1      43.865  35.661  31.431  1.00  0.00    -0.203 F 
ATOM     90  C   UNL A   1      43.649  37.415  29.896  1.00  0.00     0.198 A 
ATOM     91  C   UNL A   1      42.222  37.205  27.996  1.00  0.00     0.198 A 
ATOM     92  F   UNL A   1      41.238  35.187  27.460  1.00  0.00    -0.203 F 
ATOM     93  F   UNL A   1      44.486  38.146  30.643  1.00  0.00    -0.200 F 
ATOM     94  C   UNL A   1      43.073  37.967  28.766  1.00  0.00     0.200 A 
ATOM     95  F   UNL A   1      41.619  37.733  26.922  1.00  0.00    -0.200 F 
ATOM     96  F   UNL A   1      43.340  39.232  28.415  1.00  0.00    -0.200 F 
ENDBRANCH  63  86
ENDBRANCH  37  38
ENDBRANCH  29  32
ENDBRANCH  27  28
ENDBRANCH  26  27
ENDBRANCH  25  26
ENDBRANCH   1  25
TORSDOF 15
ENDMDL
