MODEL 1
REMARK VINA RESULT:     -11.2      0.000      0.000
REMARK SMILES CC(C)[C@H]([NH2+]C[C@H]1CC[C@@H](C(=O)NCCCCCCNC(=O)c2ccc(-c3c4nc(c(-c5c(F)c(F)c(F)c(F)c5F)c5ccc([nH]5)c(-c5c(F)c(F)c(F)c(F)c5F)c5nc(c(-c6c(F)c(F)c(F)c(F)c6F)c6ccc3[nH]6)C=C5)C=C4)cc2)CC1)c1ccccc1
REMARK SMILES IDX 15 1 14 2 13 3 11 4 12 5 10 7 7 8 8 9 87 10 9 11 86 12 6 13
REMARK SMILES IDX 5 14 4 17 2 18 1 19 3 20 88 21 89 22 93 23 90 24 92 25 91 26
REMARK SMILES IDX 16 27 17 28 18 29 19 30 20 31 21 32 22 34 23 35 24 36 85 37
REMARK SMILES IDX 25 38 84 39 26 40 27 41 28 42 78 43 29 44 83 45 77 46 79 47
REMARK SMILES IDX 30 48 82 49 76 50 75 51 31 53 63 54 43 55 62 56 44 57 47 58
REMARK SMILES IDX 61 59 80 60 45 61 46 62 60 64 81 65 48 66 32 67 33 68 41 69
REMARK SMILES IDX 34 70 35 71 39 72 42 73 36 74 37 75 40 76 38 77 64 78 65 79
REMARK SMILES IDX 73 80 66 81 67 82 71 83 74 84 68 85 69 86 72 87 70 88 49 89
REMARK SMILES IDX 50 90 58 91 51 92 52 93 56 94 59 95 53 96 54 97 57 98 55 99
REMARK H PARENT 13 6 5 15 5 16 20 33 79 52 47 63
REMARK Flexibility Score: inf
ROOT
ATOM      1  C   UNL A   1      34.771  31.699  28.049  1.00  0.00     0.021 C 
ENDROOT
BRANCH   1   2
ATOM      2  C   UNL A   1      33.584  31.006  27.367  1.00  0.00     0.116 C 
BRANCH   2   3
ATOM      3  N   UNL A   1      33.755  29.580  27.201  1.00  0.00    -0.356 N 
ATOM      4  C   UNL A   1      33.561  28.735  26.157  1.00  0.00     0.223 C 
ATOM      5  O   UNL A   1      33.957  27.574  26.338  1.00  0.00    -0.275 OA
ATOM      6  H   UNL A   1      34.081  29.129  28.014  1.00  0.00     0.163 HD
BRANCH   4   7
ATOM      7  C   UNL A   1      32.917  29.089  24.804  1.00  0.00     0.078 C 
ATOM      8  C   UNL A   1      32.068  27.167  22.657  1.00  0.00     0.044 C 
ATOM      9  C   UNL A   1      31.233  27.354  23.934  1.00  0.00     0.010 C 
ATOM     10  C   UNL A   1      33.541  27.588  22.787  1.00  0.00     0.010 C 
ATOM     11  C   UNL A   1      31.454  28.685  24.628  1.00  0.00     0.014 C 
ATOM     12  C   UNL A   1      33.767  28.886  23.552  1.00  0.00     0.014 C 
BRANCH   8  13
ATOM     13  C   UNL A   1      31.934  25.727  22.105  1.00  0.00     0.264 C 
BRANCH  13  14
ATOM     14  N   UNL A   1      33.124  24.900  22.332  1.00  0.00    -0.340 N 
ATOM     15  H   UNL A   1      33.099  24.108  21.688  1.00  0.00     0.346 HD
ATOM     16  H   UNL A   1      33.942  25.488  22.177  1.00  0.00     0.346 HD
BRANCH  14  17
ATOM     17  C   UNL A   1      33.204  24.384  23.704  1.00  0.00     0.216 C 
BRANCH  17  18
ATOM     18  C   UNL A   1      32.240  23.184  24.019  1.00  0.00     0.046 C 
ATOM     19  C   UNL A   1      30.837  23.552  24.549  1.00  0.00     0.014 C 
ATOM     20  C   UNL A   1      32.150  22.147  22.892  1.00  0.00     0.014 C 
ENDBRANCH  17  18
BRANCH  17  21
ATOM     21  C   UNL A   1      34.658  24.044  24.061  1.00  0.00     0.009 A 
ATOM     22  C   UNL A   1      35.481  23.290  23.202  1.00  0.00     0.010 A 
ATOM     23  C   UNL A   1      35.144  24.361  25.339  1.00  0.00     0.010 A 
ATOM     24  C   UNL A   1      36.727  22.824  23.629  1.00  0.00     0.001 A 
ATOM     25  C   UNL A   1      36.397  23.910  25.757  1.00  0.00     0.001 A 
ATOM     26  C   UNL A   1      37.183  23.131  24.908  1.00  0.00     0.000 A 
ENDBRANCH  17  21
ENDBRANCH  14  17
ENDBRANCH  13  14
ENDBRANCH   8  13
ENDBRANCH   4   7
ENDBRANCH   2   3
ENDBRANCH   1   2
BRANCH   1  27
ATOM     27  C   UNL A   1      34.433  32.713  29.156  1.00  0.00     0.002 C 
BRANCH  27  28
ATOM     28  C   UNL A   1      34.380  34.204  28.769  1.00  0.00     0.002 C 
BRANCH  28  29
ATOM     29  C   UNL A   1      33.000  34.887  28.781  1.00  0.00     0.021 C 
BRANCH  29  30
ATOM     30  C   UNL A   1      32.919  36.331  29.321  1.00  0.00     0.116 C 
BRANCH  30  31
ATOM     31  N   UNL A   1      32.349  36.416  30.665  1.00  0.00    -0.352 N 
ATOM     32  C   UNL A   1      32.656  35.958  31.927  1.00  0.00     0.251 C 
ATOM     33  H   UNL A   1      31.521  36.948  30.669  1.00  0.00     0.163 HD
ATOM     34  O   UNL A   1      31.854  36.268  32.813  1.00  0.00    -0.269 OA
BRANCH  32  35
ATOM     35  C   UNL A   1      33.817  35.101  32.341  1.00  0.00     0.039 A 
ATOM     36  C   UNL A   1      35.099  35.624  32.077  1.00  0.00     0.014 A 
ATOM     37  C   UNL A   1      33.757  33.812  32.877  1.00  0.00     0.014 A 
ATOM     38  C   UNL A   1      36.276  34.907  32.364  1.00  0.00     0.010 A 
ATOM     39  C   UNL A   1      34.947  33.114  33.226  1.00  0.00     0.010 A 
ATOM     40  C   UNL A   1      36.228  33.644  32.968  1.00  0.00    -0.014 A 
BRANCH  40  41
ATOM     41  C   UNL A   1      37.508  32.906  33.276  1.00  0.00     0.031 A 
ATOM     42  C   UNL A   1      38.287  33.172  34.547  1.00  0.00     0.074 A 
ATOM     43  C   UNL A   1      37.980  31.946  32.449  1.00  0.00     0.049 A 
ATOM     44  N   UNL A   1      39.385  32.599  34.990  1.00  0.00    -0.248 NA
ATOM     45  C   UNL A   1      37.768  34.221  35.432  1.00  0.00     0.031 C 
ATOM     46  C   UNL A   1      37.371  31.547  31.182  1.00  0.00     0.029 A 
ATOM     47  N   UNL A   1      39.084  31.122  32.556  1.00  0.00    -0.354 N 
ATOM     48  C   UNL A   1      39.683  33.214  36.201  1.00  0.00     0.074 A 
ATOM     49  C   UNL A   1      38.679  34.242  36.395  1.00  0.00     0.031 C 
ATOM     50  C   UNL A   1      38.091  30.548  30.642  1.00  0.00     0.029 A 
ATOM     51  C   UNL A   1      39.239  30.255  31.499  1.00  0.00     0.049 A 
ATOM     52  H   UNL A   1      39.704  31.153  33.320  1.00  0.00     0.167 HD
ATOM     53  C   UNL A   1      40.679  32.947  37.085  1.00  0.00     0.037 A 
ATOM     54  C   UNL A   1      40.191  29.334  31.232  1.00  0.00     0.037 A 
ATOM     55  C   UNL A   1      41.689  31.927  36.928  1.00  0.00     0.049 A 
ATOM     56  C   UNL A   1      41.326  29.095  32.198  1.00  0.00     0.074 A 
ATOM     57  C   UNL A   1      42.701  31.574  37.808  1.00  0.00     0.029 A 
ATOM     58  N   UNL A   1      41.829  31.107  35.822  1.00  0.00    -0.354 N 
ATOM     59  N   UNL A   1      41.555  29.650  33.361  1.00  0.00    -0.248 NA
ATOM     60  C   UNL A   1      42.335  28.094  31.810  1.00  0.00     0.031 C 
ATOM     61  C   UNL A   1      43.488  30.586  37.209  1.00  0.00     0.029 A 
ATOM     62  C   UNL A   1      42.932  30.277  35.980  1.00  0.00     0.049 A 
ATOM     63  H   UNL A   1      41.234  31.110  35.037  1.00  0.00     0.167 HD
ATOM     64  C   UNL A   1      42.714  29.055  33.850  1.00  0.00     0.074 A 
ATOM     65  C   UNL A   1      43.132  28.078  32.869  1.00  0.00     0.031 C 
ATOM     66  C   UNL A   1      43.368  29.304  35.011  1.00  0.00     0.037 A 
BRANCH  53  67
ATOM     67  C   UNL A   1      40.741  33.789  38.332  1.00  0.00     0.064 A 
ATOM     68  C   UNL A   1      41.544  34.937  38.405  1.00  0.00     0.173 A 
ATOM     69  C   UNL A   1      39.950  33.470  39.446  1.00  0.00     0.173 A 
ATOM     70  F   UNL A   1      42.320  35.287  37.369  1.00  0.00    -0.203 F 
ATOM     71  C   UNL A   1      41.581  35.714  39.562  1.00  0.00     0.198 A 
ATOM     72  C   UNL A   1      39.963  34.268  40.588  1.00  0.00     0.198 A 
ATOM     73  F   UNL A   1      39.150  32.394  39.424  1.00  0.00    -0.203 F 
ATOM     74  F   UNL A   1      42.395  36.775  39.627  1.00  0.00    -0.200 F 
ATOM     75  C   UNL A   1      40.787  35.382  40.648  1.00  0.00     0.200 A 
ATOM     76  F   UNL A   1      39.180  33.958  41.630  1.00  0.00    -0.200 F 
ATOM     77  F   UNL A   1      40.819  36.134  41.757  1.00  0.00    -0.200 F 
ENDBRANCH  53  67
BRANCH  54  78
ATOM     78  C   UNL A   1      40.129  28.556  29.962  1.00  0.00     0.064 A 
ATOM     79  C   UNL A   1      39.493  27.308  29.901  1.00  0.00     0.173 A 
ATOM     80  C   UNL A   1      40.736  29.035  28.791  1.00  0.00     0.173 A 
ATOM     81  F   UNL A   1      38.931  26.787  31.002  1.00  0.00    -0.203 F 
ATOM     82  C   UNL A   1      39.478  26.563  28.722  1.00  0.00     0.198 A 
ATOM     83  C   UNL A   1      40.692  28.304  27.606  1.00  0.00     0.198 A 
ATOM     84  F   UNL A   1      41.367  30.218  28.797  1.00  0.00    -0.203 F 
ATOM     85  F   UNL A   1      38.908  25.351  28.706  1.00  0.00    -0.200 F 
ATOM     86  C   UNL A   1      40.070  27.066  27.574  1.00  0.00     0.200 A 
ATOM     87  F   UNL A   1      41.256  28.800  26.496  1.00  0.00    -0.200 F 
ATOM     88  F   UNL A   1      40.051  26.353  26.439  1.00  0.00    -0.200 F 
ENDBRANCH  54  78
BRANCH  66  89
ATOM     89  C   UNL A   1      44.606  28.501  35.309  1.00  0.00     0.064 A 
ATOM     90  C   UNL A   1      45.885  28.952  34.947  1.00  0.00     0.173 A 
ATOM     91  C   UNL A   1      44.521  27.280  35.998  1.00  0.00     0.173 A 
ATOM     92  F   UNL A   1      46.027  30.105  34.275  1.00  0.00    -0.203 F 
ATOM     93  C   UNL A   1      47.024  28.205  35.241  1.00  0.00     0.198 A 
ATOM     94  C   UNL A   1      45.664  26.549  36.318  1.00  0.00     0.198 A 
ATOM     95  F   UNL A   1      43.327  26.799  36.375  1.00  0.00    -0.203 F 
ATOM     96  F   UNL A   1      48.230  28.637  34.843  1.00  0.00    -0.200 F 
ATOM     97  C   UNL A   1      46.914  27.008  35.932  1.00  0.00     0.200 A 
ATOM     98  F   UNL A   1      45.555  25.399  36.997  1.00  0.00    -0.200 F 
ATOM     99  F   UNL A   1      48.011  26.294  36.221  1.00  0.00    -0.200 F 
ENDBRANCH  66  89
ENDBRANCH  40  41
ENDBRANCH  32  35
ENDBRANCH  30  31
ENDBRANCH  29  30
ENDBRANCH  28  29
ENDBRANCH  27  28
ENDBRANCH   1  27
TORSDOF 18
ENDMDL
MODEL 2
REMARK VINA RESULT:     -11.2      0.951      7.199
REMARK SMILES CC(C)[C@H]([NH2+]C[C@H]1CC[C@@H](C(=O)NCCCCCCNC(=O)c2ccc(-c3c4nc(c(-c5c(F)c(F)c(F)c(F)c5F)c5ccc([nH]5)c(-c5c(F)c(F)c(F)c(F)c5F)c5nc(c(-c6c(F)c(F)c(F)c(F)c6F)c6ccc3[nH]6)C=C5)C=C4)cc2)CC1)c1ccccc1
REMARK SMILES IDX 15 1 14 2 13 3 11 4 12 5 10 7 7 8 8 9 87 10 9 11 86 12 6 13
REMARK SMILES IDX 5 14 4 17 2 18 1 19 3 20 88 21 89 22 93 23 90 24 92 25 91 26
REMARK SMILES IDX 16 27 17 28 18 29 19 30 20 31 21 32 22 34 23 35 24 36 85 37
REMARK SMILES IDX 25 38 84 39 26 40 27 41 28 42 78 43 29 44 83 45 77 46 79 47
REMARK SMILES IDX 30 48 82 49 76 50 75 51 31 53 63 54 43 55 62 56 44 57 47 58
REMARK SMILES IDX 61 59 80 60 45 61 46 62 60 64 81 65 48 66 32 67 33 68 41 69
REMARK SMILES IDX 34 70 35 71 39 72 42 73 36 74 37 75 40 76 38 77 64 78 65 79
REMARK SMILES IDX 73 80 66 81 67 82 71 83 74 84 68 85 69 86 72 87 70 88 49 89
REMARK SMILES IDX 50 90 58 91 51 92 52 93 56 94 59 95 53 96 54 97 57 98 55 99
REMARK H PARENT 13 6 5 15 5 16 20 33 79 52 47 63
REMARK Flexibility Score: inf
ROOT
ATOM      1  C   UNL A   1      35.095  31.611  28.499  1.00  0.00     0.021 C 
ENDROOT
BRANCH   1   2
ATOM      2  C   UNL A   1      34.179  31.238  27.327  1.00  0.00     0.116 C 
BRANCH   2   3
ATOM      3  N   UNL A   1      33.065  30.394  27.700  1.00  0.00    -0.356 N 
ATOM      4  C   UNL A   1      32.467  29.328  27.110  1.00  0.00     0.223 C 
ATOM      5  O   UNL A   1      31.614  28.754  27.801  1.00  0.00    -0.275 OA
ATOM      6  H   UNL A   1      32.658  30.644  28.561  1.00  0.00     0.163 HD
BRANCH   4   7
ATOM      7  C   UNL A   1      32.756  28.786  25.698  1.00  0.00     0.078 C 
ATOM      8  C   UNL A   1      32.075  26.056  24.644  1.00  0.00     0.044 C 
ATOM      9  C   UNL A   1      30.996  27.141  24.802  1.00  0.00     0.010 C 
ATOM     10  C   UNL A   1      33.327  26.265  25.512  1.00  0.00     0.010 C 
ATOM     11  C   UNL A   1      31.540  28.557  24.801  1.00  0.00     0.014 C 
ATOM     12  C   UNL A   1      33.826  27.704  25.572  1.00  0.00     0.014 C 
BRANCH   8  13
ATOM     13  C   UNL A   1      31.478  24.640  24.837  1.00  0.00     0.264 C 
BRANCH  13  14
ATOM     14  N   UNL A   1      32.035  23.641  23.919  1.00  0.00    -0.340 N 
ATOM     15  H   UNL A   1      31.281  23.280  23.333  1.00  0.00     0.346 HD
ATOM     16  H   UNL A   1      32.758  24.101  23.365  1.00  0.00     0.346 HD
BRANCH  14  17
ATOM     17  C   UNL A   1      32.664  22.514  24.618  1.00  0.00     0.216 C 
BRANCH  17  18
ATOM     18  C   UNL A   1      32.276  21.094  24.070  1.00  0.00     0.046 C 
ATOM     19  C   UNL A   1      32.095  20.975  22.540  1.00  0.00     0.014 C 
ATOM     20  C   UNL A   1      33.150  19.958  24.612  1.00  0.00     0.014 C 
ENDBRANCH  17  18
BRANCH  17  21
ATOM     21  C   UNL A   1      34.187  22.700  24.665  1.00  0.00     0.009 A 
ATOM     22  C   UNL A   1      34.885  22.840  25.881  1.00  0.00     0.010 A 
ATOM     23  C   UNL A   1      34.894  22.886  23.467  1.00  0.00     0.010 A 
ATOM     24  C   UNL A   1      36.233  23.206  25.896  1.00  0.00     0.001 A 
ATOM     25  C   UNL A   1      36.246  23.234  23.484  1.00  0.00     0.001 A 
ATOM     26  C   UNL A   1      36.912  23.408  24.697  1.00  0.00     0.000 A 
ENDBRANCH  17  21
ENDBRANCH  14  17
ENDBRANCH  13  14
ENDBRANCH   8  13
ENDBRANCH   4   7
ENDBRANCH   2   3
ENDBRANCH   1   2
BRANCH   1  27
ATOM     27  C   UNL A   1      34.575  32.694  29.462  1.00  0.00     0.002 C 
BRANCH  27  28
ATOM     28  C   UNL A   1      34.590  34.155  28.971  1.00  0.00     0.002 C 
BRANCH  28  29
ATOM     29  C   UNL A   1      33.231  34.860  28.811  1.00  0.00     0.021 C 
BRANCH  29  30
ATOM     30  C   UNL A   1      33.101  36.299  29.354  1.00  0.00     0.116 C 
BRANCH  30  31
ATOM     31  N   UNL A   1      32.414  36.373  30.642  1.00  0.00    -0.352 N 
ATOM     32  C   UNL A   1      32.615  35.918  31.927  1.00  0.00     0.251 C 
ATOM     33  H   UNL A   1      31.580  36.891  30.574  1.00  0.00     0.163 HD
ATOM     34  O   UNL A   1      31.733  36.213  32.738  1.00  0.00    -0.269 OA
BRANCH  32  35
ATOM     35  C   UNL A   1      33.749  35.079  32.442  1.00  0.00     0.039 A 
ATOM     36  C   UNL A   1      35.036  35.642  32.332  1.00  0.00     0.014 A 
ATOM     37  C   UNL A   1      33.669  33.774  32.934  1.00  0.00     0.014 A 
ATOM     38  C   UNL A   1      36.196  34.948  32.726  1.00  0.00     0.010 A 
ATOM     39  C   UNL A   1      34.834  33.097  33.391  1.00  0.00     0.010 A 
ATOM     40  C   UNL A   1      36.119  33.667  33.288  1.00  0.00    -0.014 A 
BRANCH  40  41
ATOM     41  C   UNL A   1      37.379  32.954  33.713  1.00  0.00     0.031 A 
ATOM     42  C   UNL A   1      38.045  31.926  32.822  1.00  0.00     0.074 A 
ATOM     43  C   UNL A   1      37.987  33.242  34.886  1.00  0.00     0.049 A 
ATOM     44  N   UNL A   1      39.156  31.248  33.012  1.00  0.00    -0.248 NA
ATOM     45  C   UNL A   1      37.372  31.618  31.555  1.00  0.00     0.031 C 
ATOM     46  C   UNL A   1      37.502  34.201  35.877  1.00  0.00     0.029 A 
ATOM     47  N   UNL A   1      39.156  32.759  35.444  1.00  0.00    -0.354 N 
ATOM     48  C   UNL A   1      39.314  30.438  31.893  1.00  0.00     0.074 A 
ATOM     49  C   UNL A   1      38.156  30.672  31.053  1.00  0.00     0.031 C 
ATOM     50  C   UNL A   1      38.367  34.251  36.904  1.00  0.00     0.029 A 
ATOM     51  C   UNL A   1      39.455  33.302  36.672  1.00  0.00     0.049 A 
ATOM     52  H   UNL A   1      39.722  32.085  35.002  1.00  0.00     0.167 HD
ATOM     53  C   UNL A   1      40.328  29.594  31.572  1.00  0.00     0.037 A 
ATOM     54  C   UNL A   1      40.475  33.067  37.527  1.00  0.00     0.037 A 
ATOM     55  C   UNL A   1      41.499  29.344  32.378  1.00  0.00     0.049 A 
ATOM     56  C   UNL A   1      41.561  32.078  37.180  1.00  0.00     0.074 A 
ATOM     57  C   UNL A   1      42.587  28.534  32.091  1.00  0.00     0.029 A 
ATOM     58  N   UNL A   1      41.734  29.884  33.632  1.00  0.00    -0.354 N 
ATOM     59  N   UNL A   1      41.717  31.367  36.092  1.00  0.00    -0.248 NA
ATOM     60  C   UNL A   1      42.617  31.863  38.185  1.00  0.00     0.031 C 
ATOM     61  C   UNL A   1      43.447  28.535  33.193  1.00  0.00     0.029 A 
ATOM     62  C   UNL A   1      42.929  29.394  34.145  1.00  0.00     0.049 A 
ATOM     63  H   UNL A   1      41.142  30.522  34.092  1.00  0.00     0.167 HD
ATOM     64  C   UNL A   1      42.891  30.641  36.272  1.00  0.00     0.074 A 
ATOM     65  C   UNL A   1      43.422  31.013  37.564  1.00  0.00     0.031 C 
ATOM     66  C   UNL A   1      43.469  29.747  35.433  1.00  0.00     0.037 A 
BRANCH  53  67
ATOM     67  C   UNL A   1      40.222  28.850  30.267  1.00  0.00     0.064 A 
ATOM     68  C   UNL A   1      40.798  29.347  29.088  1.00  0.00     0.173 A 
ATOM     69  C   UNL A   1      39.582  27.602  30.208  1.00  0.00     0.173 A 
ATOM     70  F   UNL A   1      41.422  30.534  29.088  1.00  0.00    -0.203 F 
ATOM     71  C   UNL A   1      40.703  28.639  27.891  1.00  0.00     0.198 A 
ATOM     72  C   UNL A   1      39.519  26.883  29.017  1.00  0.00     0.198 A 
ATOM     73  F   UNL A   1      39.030  27.072  31.310  1.00  0.00    -0.203 F 
ATOM     74  F   UNL A   1      41.215  29.160  26.767  1.00  0.00    -0.200 F 
ATOM     75  C   UNL A   1      40.070  27.407  27.858  1.00  0.00     0.200 A 
ATOM     76  F   UNL A   1      38.924  25.682  28.992  1.00  0.00    -0.200 F 
ATOM     77  F   UNL A   1      39.986  26.726  26.707  1.00  0.00    -0.200 F 
ENDBRANCH  53  67
BRANCH  54  78
ATOM     78  C   UNL A   1      40.520  33.781  38.835  1.00  0.00     0.064 A 
ATOM     79  C   UNL A   1      39.747  33.356  39.925  1.00  0.00     0.173 A 
ATOM     80  C   UNL A   1      41.313  34.926  39.006  1.00  0.00     0.173 A 
ATOM     81  F   UNL A   1      38.942  32.290  39.801  1.00  0.00    -0.203 F 
ATOM     82  C   UNL A   1      39.757  34.055  41.131  1.00  0.00     0.198 A 
ATOM     83  C   UNL A   1      41.347  35.604  40.222  1.00  0.00     0.198 A 
ATOM     84  F   UNL A   1      42.064  35.381  37.992  1.00  0.00    -0.203 F 
ATOM     85  F   UNL A   1      38.970  33.657  42.140  1.00  0.00    -0.200 F 
ATOM     86  C   UNL A   1      40.563  35.174  41.281  1.00  0.00     0.200 A 
ATOM     87  F   UNL A   1      42.136  36.678  40.365  1.00  0.00    -0.200 F 
ATOM     88  F   UNL A   1      40.577  35.842  42.442  1.00  0.00    -0.200 F 
ENDBRANCH  54  78
BRANCH  66  89
ATOM     89  C   UNL A   1      44.760  29.105  35.869  1.00  0.00     0.064 A 
ATOM     90  C   UNL A   1      44.781  27.887  36.568  1.00  0.00     0.173 A 
ATOM     91  C   UNL A   1      45.996  29.693  35.553  1.00  0.00     0.173 A 
ATOM     92  F   UNL A   1      43.631  27.286  36.909  1.00  0.00    -0.203 F 
ATOM     93  C   UNL A   1      45.984  27.297  36.952  1.00  0.00     0.198 A 
ATOM     94  C   UNL A   1      47.197  29.086  35.913  1.00  0.00     0.198 A 
ATOM     95  F   UNL A   1      46.040  30.853  34.882  1.00  0.00    -0.203 F 
ATOM     96  F   UNL A   1      45.975  26.158  37.659  1.00  0.00    -0.200 F 
ATOM     97  C   UNL A   1      47.190  27.893  36.619  1.00  0.00     0.200 A 
ATOM     98  F   UNL A   1      48.363  29.656  35.578  1.00  0.00    -0.200 F 
ATOM     99  F   UNL A   1      48.347  27.321  36.984  1.00  0.00    -0.200 F 
ENDBRANCH  66  89
ENDBRANCH  40  41
ENDBRANCH  32  35
ENDBRANCH  30  31
ENDBRANCH  29  30
ENDBRANCH  28  29
ENDBRANCH  27  28
ENDBRANCH   1  27
TORSDOF 18
ENDMDL
MODEL 3
REMARK VINA RESULT:     -10.9      5.875     10.956
REMARK SMILES CC(C)[C@H]([NH2+]C[C@H]1CC[C@@H](C(=O)NCCCCCCNC(=O)c2ccc(-c3c4nc(c(-c5c(F)c(F)c(F)c(F)c5F)c5ccc([nH]5)c(-c5c(F)c(F)c(F)c(F)c5F)c5nc(c(-c6c(F)c(F)c(F)c(F)c6F)c6ccc3[nH]6)C=C5)C=C4)cc2)CC1)c1ccccc1
REMARK SMILES IDX 15 1 14 2 13 3 11 4 12 5 10 7 7 8 8 9 87 10 9 11 86 12 6 13
REMARK SMILES IDX 5 14 4 17 2 18 1 19 3 20 88 21 89 22 93 23 90 24 92 25 91 26
REMARK SMILES IDX 16 27 17 28 18 29 19 30 20 31 21 32 22 34 23 35 24 36 85 37
REMARK SMILES IDX 25 38 84 39 26 40 27 41 28 42 78 43 29 44 83 45 77 46 79 47
REMARK SMILES IDX 30 48 82 49 76 50 75 51 31 53 63 54 43 55 62 56 44 57 47 58
REMARK SMILES IDX 61 59 80 60 45 61 46 62 60 64 81 65 48 66 32 67 33 68 41 69
REMARK SMILES IDX 34 70 35 71 39 72 42 73 36 74 37 75 40 76 38 77 64 78 65 79
REMARK SMILES IDX 73 80 66 81 67 82 71 83 74 84 68 85 69 86 72 87 70 88 49 89
REMARK SMILES IDX 50 90 58 91 51 92 52 93 56 94 59 95 53 96 54 97 57 98 55 99
REMARK H PARENT 13 6 5 15 5 16 20 33 79 52 47 63
REMARK Flexibility Score: inf
ROOT
ATOM      1  C   UNL A   1      36.024  23.401  26.165  1.00  0.00     0.021 C 
ENDROOT
BRANCH   1   2
ATOM      2  C   UNL A   1      34.959  22.390  26.610  1.00  0.00     0.116 C 
BRANCH   2   3
ATOM      3  N   UNL A   1      35.090  21.091  25.986  1.00  0.00    -0.356 N 
ATOM      4  C   UNL A   1      34.424  20.471  24.980  1.00  0.00     0.223 C 
ATOM      5  O   UNL A   1      34.913  19.394  24.609  1.00  0.00    -0.275 OA
ATOM      6  H   UNL A   1      35.813  20.544  26.372  1.00  0.00     0.163 HD
BRANCH   4   7
ATOM      7  C   UNL A   1      33.152  20.982  24.277  1.00  0.00     0.078 C 
ATOM      8  C   UNL A   1      31.558  23.425  24.993  1.00  0.00     0.044 C 
ATOM      9  C   UNL A   1      32.898  23.539  24.249  1.00  0.00     0.010 C 
ATOM     10  C   UNL A   1      31.367  22.115  25.775  1.00  0.00     0.010 C 
ATOM     11  C   UNL A   1      33.292  22.285  23.492  1.00  0.00     0.014 C 
ATOM     12  C   UNL A   1      31.837  20.863  25.043  1.00  0.00     0.014 C 
BRANCH   8  13
ATOM     13  C   UNL A   1      31.306  24.664  25.888  1.00  0.00     0.264 C 
BRANCH  13  14
ATOM     14  N   UNL A   1      30.322  25.598  25.330  1.00  0.00    -0.340 N 
ATOM     15  H   UNL A   1      29.686  25.078  24.724  1.00  0.00     0.346 HD
ATOM     16  H   UNL A   1      29.830  26.031  26.112  1.00  0.00     0.346 HD
BRANCH  14  17
ATOM     17  C   UNL A   1      30.939  26.674  24.546  1.00  0.00     0.216 C 
BRANCH  17  18
ATOM     18  C   UNL A   1      29.927  27.603  23.784  1.00  0.00     0.046 C 
ATOM     19  C   UNL A   1      30.427  28.219  22.458  1.00  0.00     0.014 C 
ATOM     20  C   UNL A   1      28.529  26.995  23.617  1.00  0.00     0.014 C 
ENDBRANCH  17  18
BRANCH  17  21
ATOM     21  C   UNL A   1      31.897  27.490  25.424  1.00  0.00     0.009 A 
ATOM     22  C   UNL A   1      33.296  27.418  25.271  1.00  0.00     0.010 A 
ATOM     23  C   UNL A   1      31.384  28.217  26.510  1.00  0.00     0.010 A 
ATOM     24  C   UNL A   1      34.151  28.010  26.203  1.00  0.00     0.001 A 
ATOM     25  C   UNL A   1      32.241  28.823  27.431  1.00  0.00     0.001 A 
ATOM     26  C   UNL A   1      33.623  28.708  27.286  1.00  0.00     0.000 A 
ENDBRANCH  17  21
ENDBRANCH  14  17
ENDBRANCH  13  14
ENDBRANCH   8  13
ENDBRANCH   4   7
ENDBRANCH   2   3
ENDBRANCH   1   2
BRANCH   1  27
ATOM     27  C   UNL A   1      37.049  22.909  25.127  1.00  0.00     0.002 C 
BRANCH  27  28
ATOM     28  C   UNL A   1      38.163  21.962  25.614  1.00  0.00     0.002 C 
BRANCH  28  29
ATOM     29  C   UNL A   1      38.341  20.635  24.854  1.00  0.00     0.021 C 
BRANCH  29  30
ATOM     30  C   UNL A   1      38.576  19.357  25.689  1.00  0.00     0.116 C 
BRANCH  30  31
ATOM     31  N   UNL A   1      39.961  18.892  25.660  1.00  0.00    -0.352 N 
ATOM     32  C   UNL A   1      41.202  19.376  26.012  1.00  0.00     0.251 C 
ATOM     33  H   UNL A   1      40.026  17.983  25.287  1.00  0.00     0.163 HD
ATOM     34  O   UNL A   1      42.150  18.618  25.790  1.00  0.00    -0.269 OA
BRANCH  32  35
ATOM     35  C   UNL A   1      41.537  20.720  26.592  1.00  0.00     0.039 A 
ATOM     36  C   UNL A   1      41.956  21.704  25.676  1.00  0.00     0.014 A 
ATOM     37  C   UNL A   1      41.559  21.065  27.946  1.00  0.00     0.014 A 
ATOM     38  C   UNL A   1      42.351  22.992  26.084  1.00  0.00     0.010 A 
ATOM     39  C   UNL A   1      41.897  22.386  28.354  1.00  0.00     0.010 A 
ATOM     40  C   UNL A   1      42.308  23.371  27.433  1.00  0.00    -0.014 A 
BRANCH  40  41
ATOM     41  C   UNL A   1      42.725  24.763  27.838  1.00  0.00     0.031 A 
ATOM     42  C   UNL A   1      44.181  25.178  27.857  1.00  0.00     0.074 A 
ATOM     43  C   UNL A   1      41.808  25.707  28.154  1.00  0.00     0.049 A 
ATOM     44  N   UNL A   1      44.714  26.347  28.139  1.00  0.00    -0.248 NA
ATOM     45  C   UNL A   1      45.165  24.144  27.519  1.00  0.00     0.031 C 
ATOM     46  C   UNL A   1      40.362  25.501  28.192  1.00  0.00     0.029 A 
ATOM     47  N   UNL A   1      41.959  27.036  28.498  1.00  0.00    -0.354 N 
ATOM     48  C   UNL A   1      46.090  26.188  28.011  1.00  0.00     0.074 A 
ATOM     49  C   UNL A   1      46.311  24.795  27.677  1.00  0.00     0.031 C 
ATOM     50  C   UNL A   1      39.760  26.657  28.517  1.00  0.00     0.029 A 
ATOM     51  C   UNL A   1      40.773  27.686  28.751  1.00  0.00     0.049 A 
ATOM     52  H   UNL A   1      42.836  27.479  28.557  1.00  0.00     0.167 HD
ATOM     53  C   UNL A   1      47.082  27.107  28.135  1.00  0.00     0.037 A 
ATOM     54  C   UNL A   1      40.515  28.955  29.136  1.00  0.00     0.037 A 
ATOM     55  C   UNL A   1      46.899  28.502  28.457  1.00  0.00     0.049 A 
ATOM     56  C   UNL A   1      41.636  29.946  29.330  1.00  0.00     0.074 A 
ATOM     57  C   UNL A   1      47.859  29.498  28.554  1.00  0.00     0.029 A 
ATOM     58  N   UNL A   1      45.684  29.101  28.747  1.00  0.00    -0.354 N 
ATOM     59  N   UNL A   1      42.924  29.787  29.148  1.00  0.00    -0.248 NA
ATOM     60  C   UNL A   1      41.265  31.299  29.781  1.00  0.00     0.031 C 
ATOM     61  C   UNL A   1      47.235  30.681  28.963  1.00  0.00     0.029 A 
ATOM     62  C   UNL A   1      45.876  30.440  29.062  1.00  0.00     0.049 A 
ATOM     63  H   UNL A   1      44.812  28.644  28.734  1.00  0.00     0.167 HD
ATOM     64  C   UNL A   1      43.508  31.015  29.441  1.00  0.00     0.074 A 
ATOM     65  C   UNL A   1      42.436  31.920  29.790  1.00  0.00     0.031 C 
ATOM     66  C   UNL A   1      44.821  31.354  29.419  1.00  0.00     0.037 A 
BRANCH  53  67
ATOM     67  C   UNL A   1      48.495  26.631  27.926  1.00  0.00     0.064 A 
ATOM     68  C   UNL A   1      49.293  26.201  28.996  1.00  0.00     0.173 A 
ATOM     69  C   UNL A   1      49.038  26.558  26.633  1.00  0.00     0.173 A 
ATOM     70  F   UNL A   1      48.824  26.250  30.252  1.00  0.00    -0.203 F 
ATOM     71  C   UNL A   1      50.595  25.750  28.785  1.00  0.00     0.198 A 
ATOM     72  C   UNL A   1      50.328  26.075  26.422  1.00  0.00     0.198 A 
ATOM     73  F   UNL A   1      48.313  26.939  25.571  1.00  0.00    -0.203 F 
ATOM     74  F   UNL A   1      51.356  25.396  29.829  1.00  0.00    -0.200 F 
ATOM     75  C   UNL A   1      51.108  25.682  27.499  1.00  0.00     0.200 A 
ATOM     76  F   UNL A   1      50.815  25.990  25.177  1.00  0.00    -0.200 F 
ATOM     77  F   UNL A   1      52.358  25.243  27.298  1.00  0.00    -0.200 F 
ENDBRANCH  53  67
BRANCH  54  78
ATOM     78  C   UNL A   1      39.108  29.378  29.388  1.00  0.00     0.064 A 
ATOM     79  C   UNL A   1      38.284  29.827  28.346  1.00  0.00     0.173 A 
ATOM     80  C   UNL A   1      38.572  29.371  30.684  1.00  0.00     0.173 A 
ATOM     81  F   UNL A   1      38.760  29.890  27.093  1.00  0.00    -0.203 F 
ATOM     82  C   UNL A   1      36.983  30.265  28.593  1.00  0.00     0.198 A 
ATOM     83  C   UNL A   1      37.262  29.779  30.925  1.00  0.00     0.198 A 
ATOM     84  F   UNL A   1      39.321  28.960  31.719  1.00  0.00    -0.203 F 
ATOM     85  F   UNL A   1      36.235  30.738  27.587  1.00  0.00    -0.200 F 
ATOM     86  C   UNL A   1      36.471  30.233  29.882  1.00  0.00     0.200 A 
ATOM     87  F   UNL A   1      36.768  29.735  32.170  1.00  0.00    -0.200 F 
ATOM     88  F   UNL A   1      35.219  30.648  30.118  1.00  0.00    -0.200 F 
ENDBRANCH  54  78
BRANCH  66  89
ATOM     89  C   UNL A   1      45.189  32.772  29.769  1.00  0.00     0.064 A 
ATOM     90  C   UNL A   1      45.541  33.143  31.077  1.00  0.00     0.173 A 
ATOM     91  C   UNL A   1      45.227  33.768  28.780  1.00  0.00     0.173 A 
ATOM     92  F   UNL A   1      45.509  32.236  32.066  1.00  0.00    -0.203 F 
ATOM     93  C   UNL A   1      45.893  34.455  31.384  1.00  0.00     0.198 A 
ATOM     94  C   UNL A   1      45.608  35.073  29.084  1.00  0.00     0.198 A 
ATOM     95  F   UNL A   1      44.906  33.473  27.512  1.00  0.00    -0.203 F 
ATOM     96  F   UNL A   1      46.180  34.793  32.650  1.00  0.00    -0.200 F 
ATOM     97  C   UNL A   1      45.933  35.418  30.387  1.00  0.00     0.200 A 
ATOM     98  F   UNL A   1      45.659  35.999  28.116  1.00  0.00    -0.200 F 
ATOM     99  F   UNL A   1      46.278  36.679  30.683  1.00  0.00    -0.200 F 
ENDBRANCH  66  89
ENDBRANCH  40  41
ENDBRANCH  32  35
ENDBRANCH  30  31
ENDBRANCH  29  30
ENDBRANCH  28  29
ENDBRANCH  27  28
ENDBRANCH   1  27
TORSDOF 18
ENDMDL
