MODEL 1
REMARK VINA RESULT:     -11.8      0.000      0.000
REMARK SMILES CCCCN(c1ccccc1C(=O)NCCCCCCNC(=O)c1ccc(-c2c3nc(c(-c4c(F)c(F)c(F)c(F)c4F)c4ccc([nH]4)c(-c4c(F)c(F)c(F)c(F)c4F)c4nc(c(-c5c(F)c(F)c(F)c(F)c5F)c5ccc2[nH]5)C=C4)C=C3)cc1)S(=O)(=O)c1ccc2c(c1)oc(=O)n2C
REMARK SMILES IDX 16 1 15 2 14 3 12 4 13 5 11 7 6 8 7 9 8 10 10 11 9 12 5 13
REMARK SMILES IDX 4 14 3 15 2 16 1 17 87 18 88 19 89 20 90 21 91 22 95 23
REMARK SMILES IDX 92 24 94 25 93 26 96 27 99 28 97 29 100 30 98 31 17 32 18 33
REMARK SMILES IDX 19 34 20 35 21 36 22 37 23 39 24 40 25 41 86 42 26 43 85 44
REMARK SMILES IDX 27 45 28 46 29 47 79 48 30 49 84 50 78 51 80 52 31 53 83 54
REMARK SMILES IDX 77 55 76 56 32 58 64 59 44 60 63 61 45 62 48 63 62 64 81 65
REMARK SMILES IDX 46 66 47 67 61 69 82 70 49 71 33 72 34 73 42 74 35 75 36 76
REMARK SMILES IDX 40 77 43 78 37 79 38 80 41 81 39 82 65 83 66 84 74 85 67 86
REMARK SMILES IDX 68 87 72 88 75 89 69 90 70 91 73 92 71 93 50 94 51 95 59 96
REMARK SMILES IDX 52 97 53 98 57 99 60 100 54 101 55 102 58 103 56 104
REMARK H PARENT 14 6 21 38 80 57 48 68
REMARK Flexibility Score: inf
ROOT
ATOM      1  C   UNL A   1      35.345  30.153  27.898  1.00  0.00     0.021 C 
ENDROOT
BRANCH   1   2
ATOM      2  C   UNL A   1      34.638  29.077  27.072  1.00  0.00     0.116 C 
BRANCH   2   3
ATOM      3  N   UNL A   1      33.402  28.578  27.622  1.00  0.00    -0.352 N 
ATOM      4  C   UNL A   1      32.267  28.095  27.020  1.00  0.00     0.253 C 
ATOM      5  O   UNL A   1      31.378  27.699  27.783  1.00  0.00    -0.269 OA
ATOM      6  H   UNL A   1      33.366  28.585  28.606  1.00  0.00     0.163 HD
BRANCH   4   7
ATOM      7  C   UNL A   1      31.985  28.034  25.548  1.00  0.00     0.064 A 
ATOM      8  C   UNL A   1      32.085  26.929  24.677  1.00  0.00     0.065 A 
ATOM      9  C   UNL A   1      31.469  27.000  23.411  1.00  0.00     0.028 A 
ATOM     10  C   UNL A   1      30.906  28.181  22.932  1.00  0.00     0.002 A 
ATOM     11  C   UNL A   1      31.390  29.217  25.044  1.00  0.00     0.016 A 
ATOM     12  C   UNL A   1      30.882  29.300  23.746  1.00  0.00     0.001 A 
BRANCH   8  13
ATOM     13  N   UNL A   1      32.649  25.659  25.067  1.00  0.00    -0.266 N 
BRANCH  13  14
ATOM     14  C   UNL A   1      34.098  25.720  25.483  1.00  0.00     0.136 C 
BRANCH  14  15
ATOM     15  C   UNL A   1      35.100  24.665  25.000  1.00  0.00     0.022 C 
BRANCH  15  16
ATOM     16  C   UNL A   1      35.549  23.520  25.912  1.00  0.00    -0.002 C 
ATOM     17  C   UNL A   1      35.865  22.218  25.215  1.00  0.00     0.004 C 
ENDBRANCH  15  16
ENDBRANCH  14  15
ENDBRANCH  13  14
BRANCH  13  18
ATOM     18  S   UNL A   1      31.603  24.449  25.663  1.00  0.00     0.264 S 
ATOM     19  O   UNL A   1      31.858  24.306  27.083  1.00  0.00    -0.201 OA
ATOM     20  O   UNL A   1      30.269  24.734  25.174  1.00  0.00    -0.201 OA
BRANCH  18  21
ATOM     21  C   UNL A   1      32.051  22.861  24.948  1.00  0.00     0.091 A 
ATOM     22  C   UNL A   1      31.992  22.727  23.537  1.00  0.00     0.025 A 
ATOM     23  C   UNL A   1      32.209  21.731  25.761  1.00  0.00     0.071 A 
ATOM     24  C   UNL A   1      32.151  21.485  22.919  1.00  0.00     0.032 A 
ATOM     25  C   UNL A   1      32.342  20.512  25.121  1.00  0.00     0.157 A 
ATOM     26  C   UNL A   1      32.320  20.397  23.742  1.00  0.00     0.090 A 
ATOM     27  O   UNL A   1      32.466  19.281  25.751  1.00  0.00    -0.408 OA
ATOM     28  N   UNL A   1      32.450  19.056  23.468  1.00  0.00    -0.277 N 
ATOM     29  C   UNL A   1      32.528  18.386  24.671  1.00  0.00     0.419 A 
ATOM     30  C   UNL A   1      32.525  18.443  22.174  1.00  0.00     0.157 C 
ATOM     31  O   UNL A   1      32.639  17.173  24.812  1.00  0.00    -0.223 OA
ENDBRANCH  18  21
ENDBRANCH  13  18
ENDBRANCH   8  13
ENDBRANCH   4   7
ENDBRANCH   2   3
ENDBRANCH   1   2
BRANCH   1  32
ATOM     32  C   UNL A   1      34.603  31.484  28.134  1.00  0.00     0.002 C 
BRANCH  32  33
ATOM     33  C   UNL A   1      35.401  32.788  28.029  1.00  0.00     0.002 C 
BRANCH  33  34
ATOM     34  C   UNL A   1      34.670  34.141  28.056  1.00  0.00     0.021 C 
BRANCH  34  35
ATOM     35  C   UNL A   1      33.172  34.182  28.345  1.00  0.00     0.116 C 
BRANCH  35  36
ATOM     36  N   UNL A   1      32.897  35.281  29.259  1.00  0.00    -0.352 N 
ATOM     37  C   UNL A   1      33.108  35.326  30.614  1.00  0.00     0.251 C 
ATOM     38  H   UNL A   1      32.511  36.092  28.855  1.00  0.00     0.163 HD
ATOM     39  O   UNL A   1      32.358  35.998  31.320  1.00  0.00    -0.269 OA
BRANCH  37  40
ATOM     40  C   UNL A   1      34.257  34.621  31.232  1.00  0.00     0.039 A 
ATOM     41  C   UNL A   1      35.493  35.274  31.296  1.00  0.00     0.014 A 
ATOM     42  C   UNL A   1      34.167  33.278  31.617  1.00  0.00     0.014 A 
ATOM     43  C   UNL A   1      36.630  34.584  31.724  1.00  0.00     0.010 A 
ATOM     44  C   UNL A   1      35.290  32.610  32.110  1.00  0.00     0.010 A 
ATOM     45  C   UNL A   1      36.541  33.242  32.134  1.00  0.00    -0.014 A 
BRANCH  45  46
ATOM     46  C   UNL A   1      37.762  32.493  32.539  1.00  0.00     0.031 A 
ATOM     47  C   UNL A   1      38.441  32.785  33.852  1.00  0.00     0.074 A 
ATOM     48  C   UNL A   1      38.264  31.548  31.720  1.00  0.00     0.049 A 
ATOM     49  N   UNL A   1      39.498  32.221  34.383  1.00  0.00    -0.248 NA
ATOM     50  C   UNL A   1      37.870  33.867  34.669  1.00  0.00     0.031 C 
ATOM     51  C   UNL A   1      37.726  31.201  30.406  1.00  0.00     0.029 A 
ATOM     52  N   UNL A   1      39.338  30.707  31.875  1.00  0.00    -0.354 N 
ATOM     53  C   UNL A   1      39.722  32.883  35.585  1.00  0.00     0.074 A 
ATOM     54  C   UNL A   1      38.728  33.930  35.678  1.00  0.00     0.031 C 
ATOM     55  C   UNL A   1      38.449  30.197  29.887  1.00  0.00     0.029 A 
ATOM     56  C   UNL A   1      39.525  29.855  30.813  1.00  0.00     0.049 A 
ATOM     57  H   UNL A   1      39.919  30.713  32.669  1.00  0.00     0.167 HD
ATOM     58  C   UNL A   1      40.654  32.628  36.536  1.00  0.00     0.037 A 
ATOM     59  C   UNL A   1      40.459  28.907  30.608  1.00  0.00     0.037 A 
ATOM     60  C   UNL A   1      41.635  31.576  36.445  1.00  0.00     0.049 A 
ATOM     61  C   UNL A   1      41.489  28.650  31.675  1.00  0.00     0.074 A 
ATOM     62  C   UNL A   1      42.588  31.202  37.376  1.00  0.00     0.029 A 
ATOM     63  N   UNL A   1      41.794  30.735  35.352  1.00  0.00    -0.354 N 
ATOM     64  N   UNL A   1      41.643  29.233  32.839  1.00  0.00    -0.248 NA
ATOM     65  C   UNL A   1      42.471  27.591  31.401  1.00  0.00     0.031 C 
ATOM     66  C   UNL A   1      43.364  30.178  36.822  1.00  0.00     0.029 A 
ATOM     67  C   UNL A   1      42.849  29.863  35.575  1.00  0.00     0.049 A 
ATOM     68  H   UNL A   1      41.239  30.755  34.539  1.00  0.00     0.167 HD
ATOM     69  C   UNL A   1      42.715  28.595  33.448  1.00  0.00     0.074 A 
ATOM     70  C   UNL A   1      43.158  27.564  32.533  1.00  0.00     0.031 C 
ATOM     71  C   UNL A   1      43.282  28.841  34.656  1.00  0.00     0.037 A 
BRANCH  58  72
ATOM     72  C   UNL A   1      40.664  33.505  37.759  1.00  0.00     0.064 A 
ATOM     73  C   UNL A   1      39.775  33.299  38.825  1.00  0.00     0.173 A 
ATOM     74  C   UNL A   1      41.603  34.541  37.884  1.00  0.00     0.173 A 
ATOM     75  F   UNL A   1      38.851  32.328  38.757  1.00  0.00    -0.203 F 
ATOM     76  C   UNL A   1      39.802  34.117  39.953  1.00  0.00     0.198 A 
ATOM     77  C   UNL A   1      41.650  35.334  39.028  1.00  0.00     0.198 A 
ATOM     78  F   UNL A   1      42.484  34.780  36.901  1.00  0.00    -0.203 F 
ATOM     79  F   UNL A   1      38.906  33.934  40.933  1.00  0.00    -0.200 F 
ATOM     80  C   UNL A   1      40.744  35.129  40.057  1.00  0.00     0.200 A 
ATOM     81  F   UNL A   1      42.574  36.300  39.135  1.00  0.00    -0.200 F 
ATOM     82  F   UNL A   1      40.775  35.908  41.146  1.00  0.00    -0.200 F 
ENDBRANCH  58  72
BRANCH  59  83
ATOM     83  C   UNL A   1      40.449  28.114  29.349  1.00  0.00     0.064 A 
ATOM     84  C   UNL A   1      41.223  28.498  28.244  1.00  0.00     0.173 A 
ATOM     85  C   UNL A   1      39.662  26.961  29.222  1.00  0.00     0.173 A 
ATOM     86  F   UNL A   1      41.979  29.605  28.308  1.00  0.00    -0.203 F 
ATOM     87  C   UNL A   1      41.187  27.776  27.053  1.00  0.00     0.198 A 
ATOM     88  C   UNL A   1      39.654  26.220  28.042  1.00  0.00     0.198 A 
ATOM     89  F   UNL A   1      38.907  26.545  30.250  1.00  0.00    -0.203 F 
ATOM     90  F   UNL A   1      41.893  28.197  25.995  1.00  0.00    -0.200 F 
ATOM     91  C   UNL A   1      40.408  26.633  26.956  1.00  0.00     0.200 A 
ATOM     92  F   UNL A   1      38.912  25.106  27.959  1.00  0.00    -0.200 F 
ATOM     93  F   UNL A   1      40.377  25.936  25.812  1.00  0.00    -0.200 F 
ENDBRANCH  59  83
BRANCH  71  94
ATOM     94  C   UNL A   1      44.422  27.953  35.071  1.00  0.00     0.064 A 
ATOM     95  C   UNL A   1      45.759  28.289  34.808  1.00  0.00     0.173 A 
ATOM     96  C   UNL A   1      44.172  26.751  35.754  1.00  0.00     0.173 A 
ATOM     97  F   UNL A   1      46.054  29.420  34.148  1.00  0.00    -0.203 F 
ATOM     98  C   UNL A   1      46.798  27.435  35.171  1.00  0.00     0.198 A 
ATOM     99  C   UNL A   1      45.216  25.919  36.150  1.00  0.00     0.198 A 
ATOM    100  F   UNL A   1      42.915  26.385  36.042  1.00  0.00    -0.203 F 
ATOM    101  F   UNL A   1      48.061  27.744  34.845  1.00  0.00    -0.200 F 
ATOM    102  C   UNL A   1      46.526  26.255  35.847  1.00  0.00     0.200 A 
ATOM    103  F   UNL A   1      44.953  24.789  36.819  1.00  0.00    -0.200 F 
ATOM    104  F   UNL A   1      47.527  25.435  36.195  1.00  0.00    -0.200 F 
ENDBRANCH  71  94
ENDBRANCH  45  46
ENDBRANCH  37  40
ENDBRANCH  35  36
ENDBRANCH  34  35
ENDBRANCH  33  34
ENDBRANCH  32  33
ENDBRANCH   1  32
TORSDOF 19
ENDMDL
MODEL 2
REMARK VINA RESULT:     -11.4      1.377      2.168
REMARK SMILES CCCCN(c1ccccc1C(=O)NCCCCCCNC(=O)c1ccc(-c2c3nc(c(-c4c(F)c(F)c(F)c(F)c4F)c4ccc([nH]4)c(-c4c(F)c(F)c(F)c(F)c4F)c4nc(c(-c5c(F)c(F)c(F)c(F)c5F)c5ccc2[nH]5)C=C4)C=C3)cc1)S(=O)(=O)c1ccc2c(c1)oc(=O)n2C
REMARK SMILES IDX 16 1 15 2 14 3 12 4 13 5 11 7 6 8 7 9 8 10 10 11 9 12 5 13
REMARK SMILES IDX 4 14 3 15 2 16 1 17 87 18 88 19 89 20 90 21 91 22 95 23
REMARK SMILES IDX 92 24 94 25 93 26 96 27 99 28 97 29 100 30 98 31 17 32 18 33
REMARK SMILES IDX 19 34 20 35 21 36 22 37 23 39 24 40 25 41 86 42 26 43 85 44
REMARK SMILES IDX 27 45 28 46 29 47 79 48 30 49 84 50 78 51 80 52 31 53 83 54
REMARK SMILES IDX 77 55 76 56 32 58 64 59 44 60 63 61 45 62 48 63 62 64 81 65
REMARK SMILES IDX 46 66 47 67 61 69 82 70 49 71 33 72 34 73 42 74 35 75 36 76
REMARK SMILES IDX 40 77 43 78 37 79 38 80 41 81 39 82 65 83 66 84 74 85 67 86
REMARK SMILES IDX 68 87 72 88 75 89 69 90 70 91 73 92 71 93 50 94 51 95 59 96
REMARK SMILES IDX 52 97 53 98 57 99 60 100 54 101 55 102 58 103 56 104
REMARK H PARENT 14 6 21 38 80 57 48 68
REMARK Flexibility Score: inf
ROOT
ATOM      1  C   UNL A   1      34.124  28.856  26.071  1.00  0.00     0.021 C 
ENDROOT
BRANCH   1   2
ATOM      2  C   UNL A   1      33.240  28.757  24.826  1.00  0.00     0.116 C 
BRANCH   2   3
ATOM      3  N   UNL A   1      31.998  28.045  24.997  1.00  0.00    -0.352 N 
ATOM      4  C   UNL A   1      31.519  26.897  24.417  1.00  0.00     0.253 C 
ATOM      5  O   UNL A   1      30.413  26.514  24.812  1.00  0.00    -0.269 OA
ATOM      6  H   UNL A   1      31.382  28.458  25.646  1.00  0.00     0.163 HD
BRANCH   4   7
ATOM      7  C   UNL A   1      32.181  26.090  23.340  1.00  0.00     0.064 A 
ATOM      8  C   UNL A   1      32.810  24.831  23.442  1.00  0.00     0.065 A 
ATOM      9  C   UNL A   1      33.078  24.104  22.265  1.00  0.00     0.028 A 
ATOM     10  C   UNL A   1      32.889  24.657  21.000  1.00  0.00     0.002 A 
ATOM     11  C   UNL A   1      31.981  26.621  22.041  1.00  0.00     0.016 A 
ATOM     12  C   UNL A   1      32.355  25.928  20.888  1.00  0.00     0.001 A 
BRANCH   8  13
ATOM     13  N   UNL A   1      33.056  24.167  24.699  1.00  0.00    -0.266 N 
BRANCH  13  14
ATOM     14  C   UNL A   1      34.078  24.847  25.576  1.00  0.00     0.136 C 
BRANCH  14  15
ATOM     15  C   UNL A   1      35.525  24.346  25.633  1.00  0.00     0.022 C 
BRANCH  15  16
ATOM     16  C   UNL A   1      36.172  23.648  24.433  1.00  0.00    -0.002 C 
ATOM     17  C   UNL A   1      35.857  22.177  24.288  1.00  0.00     0.004 C 
ENDBRANCH  15  16
ENDBRANCH  14  15
ENDBRANCH  13  14
BRANCH  13  18
ATOM     18  S   UNL A   1      31.823  23.192  25.363  1.00  0.00     0.264 S 
ATOM     19  O   UNL A   1      31.768  23.459  26.788  1.00  0.00    -0.201 OA
ATOM     20  O   UNL A   1      30.644  23.342  24.534  1.00  0.00    -0.201 OA
BRANCH  18  21
ATOM     21  C   UNL A   1      32.288  21.460  25.232  1.00  0.00     0.091 A 
ATOM     22  C   UNL A   1      33.067  20.901  26.277  1.00  0.00     0.025 A 
ATOM     23  C   UNL A   1      32.104  20.760  24.033  1.00  0.00     0.071 A 
ATOM     24  C   UNL A   1      33.616  19.620  26.168  1.00  0.00     0.032 A 
ATOM     25  C   UNL A   1      32.678  19.504  23.946  1.00  0.00     0.157 A 
ATOM     26  C   UNL A   1      33.405  18.952  24.985  1.00  0.00     0.090 A 
ATOM     27  O   UNL A   1      32.642  18.678  22.830  1.00  0.00    -0.408 OA
ATOM     28  N   UNL A   1      33.839  17.727  24.540  1.00  0.00    -0.277 N 
ATOM     29  C   UNL A   1      33.390  17.565  23.246  1.00  0.00     0.419 A 
ATOM     30  C   UNL A   1      34.596  16.758  25.279  1.00  0.00     0.157 C 
ATOM     31  O   UNL A   1      33.598  16.593  22.529  1.00  0.00    -0.223 OA
ENDBRANCH  18  21
ENDBRANCH  13  18
ENDBRANCH   8  13
ENDBRANCH   4   7
ENDBRANCH   2   3
ENDBRANCH   1   2
BRANCH   1  32
ATOM     32  C   UNL A   1      33.498  29.438  27.355  1.00  0.00     0.002 C 
BRANCH  32  33
ATOM     33  C   UNL A   1      34.038  30.771  27.885  1.00  0.00     0.002 C 
BRANCH  33  34
ATOM     34  C   UNL A   1      33.640  32.088  27.198  1.00  0.00     0.021 C 
BRANCH  34  35
ATOM     35  C   UNL A   1      32.274  32.705  27.485  1.00  0.00     0.116 C 
BRANCH  35  36
ATOM     36  N   UNL A   1      32.420  34.150  27.588  1.00  0.00    -0.352 N 
ATOM     37  C   UNL A   1      33.009  34.870  28.596  1.00  0.00     0.251 C 
ATOM     38  H   UNL A   1      32.049  34.675  26.842  1.00  0.00     0.163 HD
ATOM     39  O   UNL A   1      32.587  35.993  28.862  1.00  0.00    -0.269 OA
BRANCH  37  40
ATOM     40  C   UNL A   1      34.180  34.334  29.333  1.00  0.00     0.039 A 
ATOM     41  C   UNL A   1      35.459  34.536  28.804  1.00  0.00     0.014 A 
ATOM     42  C   UNL A   1      34.021  33.517  30.458  1.00  0.00     0.014 A 
ATOM     43  C   UNL A   1      36.566  33.912  29.385  1.00  0.00     0.010 A 
ATOM     44  C   UNL A   1      35.136  32.950  31.079  1.00  0.00     0.010 A 
ATOM     45  C   UNL A   1      36.415  33.109  30.529  1.00  0.00    -0.014 A 
BRANCH  45  46
ATOM     46  C   UNL A   1      37.587  32.402  31.115  1.00  0.00     0.031 A 
ATOM     47  C   UNL A   1      38.085  32.755  32.493  1.00  0.00     0.074 A 
ATOM     48  C   UNL A   1      38.208  31.441  30.403  1.00  0.00     0.049 A 
ATOM     49  N   UNL A   1      39.075  32.233  33.176  1.00  0.00    -0.248 NA
ATOM     50  C   UNL A   1      37.395  33.851  33.188  1.00  0.00     0.031 C 
ATOM     51  C   UNL A   1      37.850  31.036  29.044  1.00  0.00     0.029 A 
ATOM     52  N   UNL A   1      39.267  30.630  30.726  1.00  0.00    -0.354 N 
ATOM     53  C   UNL A   1      39.129  32.941  34.371  1.00  0.00     0.074 A 
ATOM     54  C   UNL A   1      38.113  33.968  34.296  1.00  0.00     0.031 C 
ATOM     55  C   UNL A   1      38.652  30.032  28.660  1.00  0.00     0.029 A 
ATOM     56  C   UNL A   1      39.605  29.746  29.729  1.00  0.00     0.049 A 
ATOM     57  H   UNL A   1      39.740  30.676  31.587  1.00  0.00     0.167 HD
ATOM     58  C   UNL A   1      39.935  32.740  35.443  1.00  0.00     0.037 A 
ATOM     59  C   UNL A   1      40.575  28.813  29.681  1.00  0.00     0.037 A 
ATOM     60  C   UNL A   1      40.938  31.708  35.518  1.00  0.00     0.049 A 
ATOM     61  C   UNL A   1      41.463  28.616  30.881  1.00  0.00     0.074 A 
ATOM     62  C   UNL A   1      41.769  31.388  36.577  1.00  0.00     0.029 A 
ATOM     63  N   UNL A   1      41.252  30.834  34.487  1.00  0.00    -0.354 N 
ATOM     64  N   UNL A   1      41.454  29.243  32.032  1.00  0.00    -0.248 NA
ATOM     65  C   UNL A   1      42.490  27.570  30.775  1.00  0.00     0.031 C 
ATOM     66  C   UNL A   1      42.628  30.363  36.166  1.00  0.00     0.029 A 
ATOM     67  C   UNL A   1      42.285  29.994  34.875  1.00  0.00     0.049 A 
ATOM     68  H   UNL A   1      40.807  30.813  33.609  1.00  0.00     0.167 HD
ATOM     69  C   UNL A   1      42.449  28.650  32.798  1.00  0.00     0.074 A 
ATOM     70  C   UNL A   1      43.026  27.598  31.987  1.00  0.00     0.031 C 
ATOM     71  C   UNL A   1      42.851  28.951  34.058  1.00  0.00     0.037 A 
BRANCH  58  72
ATOM     72  C   UNL A   1      39.771  33.659  36.623  1.00  0.00     0.064 A 
ATOM     73  C   UNL A   1      38.910  33.351  37.687  1.00  0.00     0.173 A 
ATOM     74  C   UNL A   1      40.517  34.846  36.710  1.00  0.00     0.173 A 
ATOM     75  F   UNL A   1      38.168  32.234  37.654  1.00  0.00    -0.203 F 
ATOM     76  C   UNL A   1      38.775  34.211  38.775  1.00  0.00     0.198 A 
ATOM     77  C   UNL A   1      40.406  35.685  37.816  1.00  0.00     0.198 A 
ATOM     78  F   UNL A   1      41.363  35.189  35.727  1.00  0.00    -0.203 F 
ATOM     79  F   UNL A   1      37.905  33.920  39.753  1.00  0.00    -0.200 F 
ATOM     80  C   UNL A   1      39.528  35.373  38.843  1.00  0.00     0.200 A 
ATOM     81  F   UNL A   1      41.149  36.799  37.889  1.00  0.00    -0.200 F 
ATOM     82  F   UNL A   1      39.405  36.193  39.895  1.00  0.00    -0.200 F 
ENDBRANCH  58  72
BRANCH  59  83
ATOM     83  C   UNL A   1      40.742  27.976  28.462  1.00  0.00     0.064 A 
ATOM     84  C   UNL A   1      41.550  28.400  27.397  1.00  0.00     0.173 A 
ATOM     85  C   UNL A   1      40.092  26.740  28.334  1.00  0.00     0.173 A 
ATOM     86  F   UNL A   1      42.178  29.584  27.463  1.00  0.00    -0.203 F 
ATOM     87  C   UNL A   1      41.679  27.634  26.241  1.00  0.00     0.198 A 
ATOM     88  C   UNL A   1      40.250  25.959  27.191  1.00  0.00     0.198 A 
ATOM     89  F   UNL A   1      39.311  26.284  29.324  1.00  0.00    -0.203 F 
ATOM     90  F   UNL A   1      42.412  28.090  25.216  1.00  0.00    -0.200 F 
ATOM     91  C   UNL A   1      41.034  26.411  26.142  1.00  0.00     0.200 A 
ATOM     92  F   UNL A   1      39.638  24.769  27.107  1.00  0.00    -0.200 F 
ATOM     93  F   UNL A   1      41.161  25.672  25.031  1.00  0.00    -0.200 F 
ENDBRANCH  59  83
BRANCH  71  94
ATOM     94  C   UNL A   1      43.943  28.103  34.650  1.00  0.00     0.064 A 
ATOM     95  C   UNL A   1      43.668  26.905  35.328  1.00  0.00     0.173 A 
ATOM     96  C   UNL A   1      45.287  28.490  34.527  1.00  0.00     0.173 A 
ATOM     97  F   UNL A   1      42.400  26.493  35.485  1.00  0.00    -0.203 F 
ATOM     98  C   UNL A   1      44.692  26.153  35.899  1.00  0.00     0.198 A 
ATOM     99  C   UNL A   1      46.311  27.715  35.064  1.00  0.00     0.198 A 
ATOM    100  F   UNL A   1      45.610  29.620  33.879  1.00  0.00    -0.203 F 
ATOM    101  F   UNL A   1      44.398  25.050  36.603  1.00  0.00    -0.200 F 
ATOM    102  C   UNL A   1      46.012  26.554  35.761  1.00  0.00     0.200 A 
ATOM    103  F   UNL A   1      47.587  28.095  34.914  1.00  0.00    -0.200 F 
ATOM    104  F   UNL A   1      46.996  25.829  36.311  1.00  0.00    -0.200 F 
ENDBRANCH  71  94
ENDBRANCH  45  46
ENDBRANCH  37  40
ENDBRANCH  35  36
ENDBRANCH  34  35
ENDBRANCH  33  34
ENDBRANCH  32  33
ENDBRANCH   1  32
TORSDOF 19
ENDMDL
MODEL 3
REMARK VINA RESULT:     -11.4      1.487      3.097
REMARK SMILES CCCCN(c1ccccc1C(=O)NCCCCCCNC(=O)c1ccc(-c2c3nc(c(-c4c(F)c(F)c(F)c(F)c4F)c4ccc([nH]4)c(-c4c(F)c(F)c(F)c(F)c4F)c4nc(c(-c5c(F)c(F)c(F)c(F)c5F)c5ccc2[nH]5)C=C4)C=C3)cc1)S(=O)(=O)c1ccc2c(c1)oc(=O)n2C
REMARK SMILES IDX 16 1 15 2 14 3 12 4 13 5 11 7 6 8 7 9 8 10 10 11 9 12 5 13
REMARK SMILES IDX 4 14 3 15 2 16 1 17 87 18 88 19 89 20 90 21 91 22 95 23
REMARK SMILES IDX 92 24 94 25 93 26 96 27 99 28 97 29 100 30 98 31 17 32 18 33
REMARK SMILES IDX 19 34 20 35 21 36 22 37 23 39 24 40 25 41 86 42 26 43 85 44
REMARK SMILES IDX 27 45 28 46 29 47 79 48 30 49 84 50 78 51 80 52 31 53 83 54
REMARK SMILES IDX 77 55 76 56 32 58 64 59 44 60 63 61 45 62 48 63 62 64 81 65
REMARK SMILES IDX 46 66 47 67 61 69 82 70 49 71 33 72 34 73 42 74 35 75 36 76
REMARK SMILES IDX 40 77 43 78 37 79 38 80 41 81 39 82 65 83 66 84 74 85 67 86
REMARK SMILES IDX 68 87 72 88 75 89 69 90 70 91 73 92 71 93 50 94 51 95 59 96
REMARK SMILES IDX 52 97 53 98 57 99 60 100 54 101 55 102 58 103 56 104
REMARK H PARENT 14 6 21 38 80 57 48 68
REMARK Flexibility Score: inf
ROOT
ATOM      1  C   UNL A   1      33.738  28.627  25.663  1.00  0.00     0.021 C 
ENDROOT
BRANCH   1   2
ATOM      2  C   UNL A   1      33.905  27.182  25.190  1.00  0.00     0.116 C 
BRANCH   2   3
ATOM      3  N   UNL A   1      33.514  26.165  26.135  1.00  0.00    -0.352 N 
ATOM      4  C   UNL A   1      33.783  24.821  26.189  1.00  0.00     0.253 C 
ATOM      5  O   UNL A   1      33.328  24.218  27.168  1.00  0.00    -0.269 OA
ATOM      6  H   UNL A   1      32.954  26.496  26.875  1.00  0.00     0.163 HD
BRANCH   4   7
ATOM      7  C   UNL A   1      34.534  24.012  25.174  1.00  0.00     0.064 A 
ATOM      8  C   UNL A   1      34.161  23.693  23.851  1.00  0.00     0.065 A 
ATOM      9  C   UNL A   1      35.142  23.203  22.965  1.00  0.00     0.028 A 
ATOM     10  C   UNL A   1      36.425  22.874  23.396  1.00  0.00     0.002 A 
ATOM     11  C   UNL A   1      35.852  23.686  25.583  1.00  0.00     0.016 A 
ATOM     12  C   UNL A   1      36.776  23.100  24.715  1.00  0.00     0.001 A 
BRANCH   8  13
ATOM     13  N   UNL A   1      32.861  23.987  23.299  1.00  0.00    -0.266 N 
BRANCH  13  14
ATOM     14  C   UNL A   1      32.891  24.604  21.923  1.00  0.00     0.136 C 
BRANCH  14  15
ATOM     15  C   UNL A   1      32.446  26.054  21.700  1.00  0.00     0.022 C 
BRANCH  15  16
ATOM     16  C   UNL A   1      31.294  26.664  22.502  1.00  0.00    -0.002 C 
ATOM     17  C   UNL A   1      31.236  28.173  22.514  1.00  0.00     0.004 C 
ENDBRANCH  15  16
ENDBRANCH  14  15
ENDBRANCH  13  14
BRANCH  13  18
ATOM     18  S   UNL A   1      31.520  23.079  23.837  1.00  0.00     0.264 S 
ATOM     19  O   UNL A   1      31.133  23.589  25.138  1.00  0.00    -0.201 OA
ATOM     20  O   UNL A   1      30.563  23.015  22.750  1.00  0.00    -0.201 OA
BRANCH  18  21
ATOM     21  C   UNL A   1      32.026  21.380  24.136  1.00  0.00     0.091 A 
ATOM     22  C   UNL A   1      32.529  21.053  25.421  1.00  0.00     0.025 A 
ATOM     23  C   UNL A   1      32.153  20.475  23.074  1.00  0.00     0.071 A 
ATOM     24  C   UNL A   1      33.104  19.806  25.680  1.00  0.00     0.032 A 
ATOM     25  C   UNL A   1      32.746  19.257  23.356  1.00  0.00     0.157 A 
ATOM     26  C   UNL A   1      33.200  18.934  24.622  1.00  0.00     0.090 A 
ATOM     27  O   UNL A   1      32.998  18.251  22.432  1.00  0.00    -0.408 OA
ATOM     28  N   UNL A   1      33.747  17.677  24.523  1.00  0.00    -0.277 N 
ATOM     29  C   UNL A   1      33.635  17.270  23.210  1.00  0.00     0.419 A 
ATOM     30  C   UNL A   1      34.310  16.894  25.584  1.00  0.00     0.157 C 
ATOM     31  O   UNL A   1      34.026  16.203  22.751  1.00  0.00    -0.223 OA
ENDBRANCH  18  21
ENDBRANCH  13  18
ENDBRANCH   8  13
ENDBRANCH   4   7
ENDBRANCH   2   3
ENDBRANCH   1   2
BRANCH   1  32
ATOM     32  C   UNL A   1      33.843  28.906  27.176  1.00  0.00     0.002 C 
BRANCH  32  33
ATOM     33  C   UNL A   1      34.208  30.325  27.627  1.00  0.00     0.002 C 
BRANCH  33  34
ATOM     34  C   UNL A   1      33.641  31.540  26.874  1.00  0.00     0.021 C 
BRANCH  34  35
ATOM     35  C   UNL A   1      32.305  32.138  27.305  1.00  0.00     0.116 C 
BRANCH  35  36
ATOM     36  N   UNL A   1      32.431  33.587  27.364  1.00  0.00    -0.352 N 
ATOM     37  C   UNL A   1      33.005  34.345  28.353  1.00  0.00     0.251 C 
ATOM     38  H   UNL A   1      32.059  34.084  26.600  1.00  0.00     0.163 HD
ATOM     39  O   UNL A   1      32.567  35.471  28.581  1.00  0.00    -0.269 OA
BRANCH  37  40
ATOM     40  C   UNL A   1      34.178  33.848  29.114  1.00  0.00     0.039 A 
ATOM     41  C   UNL A   1      35.461  34.161  28.653  1.00  0.00     0.014 A 
ATOM     42  C   UNL A   1      34.029  32.963  30.187  1.00  0.00     0.014 A 
ATOM     43  C   UNL A   1      36.583  33.579  29.250  1.00  0.00     0.010 A 
ATOM     44  C   UNL A   1      35.152  32.436  30.827  1.00  0.00     0.010 A 
ATOM     45  C   UNL A   1      36.440  32.708  30.343  1.00  0.00    -0.014 A 
BRANCH  45  46
ATOM     46  C   UNL A   1      37.631  32.047  30.944  1.00  0.00     0.031 A 
ATOM     47  C   UNL A   1      38.105  32.429  32.323  1.00  0.00     0.074 A 
ATOM     48  C   UNL A   1      38.292  31.104  30.245  1.00  0.00     0.049 A 
ATOM     49  N   UNL A   1      39.108  31.948  33.018  1.00  0.00    -0.248 NA
ATOM     50  C   UNL A   1      37.370  33.505  33.004  1.00  0.00     0.031 C 
ATOM     51  C   UNL A   1      37.960  30.677  28.887  1.00  0.00     0.029 A 
ATOM     52  N   UNL A   1      39.377  30.334  30.582  1.00  0.00    -0.354 N 
ATOM     53  C   UNL A   1      39.127  32.667  34.208  1.00  0.00     0.074 A 
ATOM     54  C   UNL A   1      38.075  33.656  34.117  1.00  0.00     0.031 C 
ATOM     55  C   UNL A   1      38.800  29.698  28.517  1.00  0.00     0.029 A 
ATOM     56  C   UNL A   1      39.754  29.455  29.595  1.00  0.00     0.049 A 
ATOM     57  H   UNL A   1      39.841  30.404  31.447  1.00  0.00     0.167 HD
ATOM     58  C   UNL A   1      39.930  32.503  35.288  1.00  0.00     0.037 A 
ATOM     59  C   UNL A   1      40.757  28.557  29.563  1.00  0.00     0.037 A 
ATOM     60  C   UNL A   1      40.969  31.508  35.379  1.00  0.00     0.049 A 
ATOM     61  C   UNL A   1      41.642  28.401  30.771  1.00  0.00     0.074 A 
ATOM     62  C   UNL A   1      41.803  31.226  36.447  1.00  0.00     0.029 A 
ATOM     63  N   UNL A   1      41.323  30.638  34.357  1.00  0.00    -0.354 N 
ATOM     64  N   UNL A   1      41.601  29.036  31.917  1.00  0.00    -0.248 NA
ATOM     65  C   UNL A   1      42.706  27.393  30.682  1.00  0.00     0.031 C 
ATOM     66  C   UNL A   1      42.701  30.229  36.051  1.00  0.00     0.029 A 
ATOM     67  C   UNL A   1      42.382  29.838  34.760  1.00  0.00     0.049 A 
ATOM     68  H   UNL A   1      40.886  30.594  33.476  1.00  0.00     0.167 HD
ATOM     69  C   UNL A   1      42.611  28.486  32.695  1.00  0.00     0.074 A 
ATOM     70  C   UNL A   1      43.231  27.448  31.897  1.00  0.00     0.031 C 
ATOM     71  C   UNL A   1      42.992  28.810  33.956  1.00  0.00     0.037 A 
BRANCH  58  72
ATOM     72  C   UNL A   1      39.724  33.424  36.459  1.00  0.00     0.064 A 
ATOM     73  C   UNL A   1      40.377  34.664  36.550  1.00  0.00     0.173 A 
ATOM     74  C   UNL A   1      38.830  33.082  37.486  1.00  0.00     0.173 A 
ATOM     75  F   UNL A   1      41.248  35.039  35.601  1.00  0.00    -0.203 F 
ATOM     76  C   UNL A   1      40.169  35.507  37.639  1.00  0.00     0.198 A 
ATOM     77  C   UNL A   1      38.598  33.944  38.555  1.00  0.00     0.198 A 
ATOM     78  F   UNL A   1      38.170  31.914  37.449  1.00  0.00    -0.203 F 
ATOM     79  F   UNL A   1      40.847  36.661  37.730  1.00  0.00    -0.200 F 
ATOM     80  C   UNL A   1      39.275  35.151  38.637  1.00  0.00     0.200 A 
ATOM     81  F   UNL A   1      37.719  33.606  39.509  1.00  0.00    -0.200 F 
ATOM     82  F   UNL A   1      39.070  35.968  39.678  1.00  0.00    -0.200 F 
ENDBRANCH  58  72
BRANCH  59  83
ATOM     83  C   UNL A   1      40.964  27.718  28.352  1.00  0.00     0.064 A 
ATOM     84  C   UNL A   1      40.297  26.495  28.195  1.00  0.00     0.173 A 
ATOM     85  C   UNL A   1      41.838  28.117  27.330  1.00  0.00     0.173 A 
ATOM     86  F   UNL A   1      39.465  26.058  29.153  1.00  0.00    -0.203 F 
ATOM     87  C   UNL A   1      40.516  25.691  27.078  1.00  0.00     0.198 A 
ATOM     88  C   UNL A   1      42.030  27.329  26.197  1.00  0.00     0.198 A 
ATOM     89  F   UNL A   1      42.498  29.281  27.426  1.00  0.00    -0.203 F 
ATOM     90  F   UNL A   1      39.908  24.501  26.981  1.00  0.00    -0.200 F 
ATOM     91  C   UNL A   1      41.378  26.113  26.077  1.00  0.00     0.200 A 
ATOM     92  F   UNL A   1      42.850  27.750  25.224  1.00  0.00    -0.200 F 
ATOM     93  F   UNL A   1      41.586  25.342  25.001  1.00  0.00    -0.200 F 
ENDBRANCH  59  83
BRANCH  71  94
ATOM     94  C   UNL A   1      44.109  28.006  34.563  1.00  0.00     0.064 A 
ATOM     95  C   UNL A   1      45.449  28.412  34.471  1.00  0.00     0.173 A 
ATOM     96  C   UNL A   1      43.831  26.818  35.257  1.00  0.00     0.173 A 
ATOM     97  F   UNL A   1      45.772  29.533  33.808  1.00  0.00    -0.203 F 
ATOM     98  C   UNL A   1      46.471  27.634  35.010  1.00  0.00     0.198 A 
ATOM     99  C   UNL A   1      44.853  26.065  35.830  1.00  0.00     0.198 A 
ATOM    100  F   UNL A   1      42.567  26.389  35.387  1.00  0.00    -0.203 F 
ATOM    101  F   UNL A   1      47.750  28.006  34.846  1.00  0.00    -0.200 F 
ATOM    102  C   UNL A   1      46.173  26.466  35.694  1.00  0.00     0.200 A 
ATOM    103  F   UNL A   1      44.560  24.946  36.506  1.00  0.00    -0.200 F 
ATOM    104  F   UNL A   1      47.158  25.720  36.212  1.00  0.00    -0.200 F 
ENDBRANCH  71  94
ENDBRANCH  45  46
ENDBRANCH  37  40
ENDBRANCH  35  36
ENDBRANCH  34  35
ENDBRANCH  33  34
ENDBRANCH  32  33
ENDBRANCH   1  32
TORSDOF 19
ENDMDL
