MODEL 1
REMARK VINA RESULT:     -13.2      0.000      0.000
REMARK SMILES C[C@@H]1CCc2c(C(=O)NNC(=O)[C@@H]3[C@@H]4CC[C@@H](C4)[C@@H]3C(=O)NCCCCCCNC(=O)c3ccc(-c4c5nc(c(-c6c(F)c(F)c(F)c(F)c6F)c6ccc([nH]6)c(-c6c(F)c(F)c(F)c(F)c6F)c6nc(c(-c7c(F)c(F)c(F)c(F)c7F)c7ccc4[nH]7)C=C6)C=C5)cc3)csc2C1
REMARK SMILES IDX 25 1 24 2 23 3 22 4 20 5 21 6 19 8 13 9 14 10 15 11 18 12
REMARK SMILES IDX 17 13 16 14 11 15 10 16 12 18 9 19 7 20 8 21 6 23 1 24 2 25
REMARK SMILES IDX 3 26 98 27 4 28 97 29 5 30 96 31 95 32 26 33 27 34 28 35
REMARK SMILES IDX 29 36 30 37 31 39 32 40 33 41 94 42 34 43 93 44 35 45 36 46
REMARK SMILES IDX 37 47 87 48 38 49 92 50 86 51 88 52 39 53 91 54 85 55 84 56
REMARK SMILES IDX 40 58 72 59 52 60 71 61 53 62 56 63 70 64 89 65 54 66 55 67
REMARK SMILES IDX 69 69 90 70 57 71 41 72 42 73 50 74 43 75 44 76 48 77 51 78
REMARK SMILES IDX 45 79 46 80 49 81 47 82 73 83 74 84 82 85 75 86 76 87 80 88
REMARK SMILES IDX 83 89 77 90 78 91 81 92 79 93 58 94 59 95 67 96 60 97 61 98
REMARK SMILES IDX 65 99 68 100 62 101 63 102 66 103 64 104
REMARK H PARENT 22 7 10 17 9 22 29 38 88 57 56 68
REMARK Flexibility Score: inf
ROOT
ATOM      1  C   UNL A   1      39.741  22.354  26.518  1.00  0.00     0.002 C 
ENDROOT
BRANCH   1   2
ATOM      2  C   UNL A   1      38.537  21.796  25.751  1.00  0.00     0.021 C 
BRANCH   2   3
ATOM      3  C   UNL A   1      37.410  22.790  25.489  1.00  0.00     0.116 C 
BRANCH   3   4
ATOM      4  N   UNL A   1      36.364  22.718  26.493  1.00  0.00    -0.356 N 
ATOM      5  C   UNL A   1      35.219  21.972  26.502  1.00  0.00     0.224 C 
ATOM      6  O   UNL A   1      34.621  21.850  27.567  1.00  0.00    -0.275 OA
ATOM      7  H   UNL A   1      36.500  23.288  27.284  1.00  0.00     0.163 HD
BRANCH   5   8
ATOM      8  C   UNL A   1      34.791  21.296  25.211  1.00  0.00     0.094 C 
ATOM      9  C   UNL A   1      34.028  22.130  24.156  1.00  0.00     0.096 C 
ATOM     10  C   UNL A   1      32.899  21.139  23.712  1.00  0.00     0.002 C 
ATOM     11  C   UNL A   1      31.791  20.993  24.775  1.00  0.00     0.005 C 
ATOM     12  C   UNL A   1      33.583  19.777  23.876  1.00  0.00     0.009 C 
ATOM     13  C   UNL A   1      33.919  20.026  25.354  1.00  0.00     0.002 C 
ATOM     14  C   UNL A   1      32.526  20.320  25.940  1.00  0.00     0.005 C 
BRANCH   9  15
ATOM     15  C   UNL A   1      33.410  23.457  24.579  1.00  0.00     0.242 C 
ATOM     16  N   UNL A   1      32.501  24.010  23.690  1.00  0.00    -0.267 N 
ATOM     17  H   UNL A   1      31.548  24.075  23.925  1.00  0.00     0.191 HD
ATOM     18  O   UNL A   1      33.548  23.923  25.705  1.00  0.00    -0.273 OA
BRANCH  16  19
ATOM     19  N   UNL A   1      32.961  24.471  22.465  1.00  0.00    -0.263 N 
ATOM     20  C   UNL A   1      32.832  25.748  21.939  1.00  0.00     0.270 C 
ATOM     21  O   UNL A   1      33.278  25.883  20.792  1.00  0.00    -0.267 OA
ATOM     22  H   UNL A   1      33.433  23.815  21.902  1.00  0.00     0.191 HD
BRANCH  20  23
ATOM     23  C   UNL A   1      32.154  26.883  22.613  1.00  0.00     0.055 A 
ATOM     24  C   UNL A   1      32.592  30.379  27.252  1.00  0.00     0.008 C 
ATOM     25  C   UNL A   1      32.432  29.281  26.209  1.00  0.00    -0.009 C 
ATOM     26  C   UNL A   1      33.779  28.958  25.541  1.00  0.00     0.008 C 
ATOM     27  C   UNL A   1      31.408  29.662  25.125  1.00  0.00     0.050 C 
ATOM     28  C   UNL A   1      33.646  27.711  24.662  1.00  0.00     0.038 C 
ATOM     29  C   UNL A   1      31.432  28.649  24.010  1.00  0.00     0.009 A 
ATOM     30  C   UNL A   1      32.441  27.719  23.770  1.00  0.00    -0.021 A 
ATOM     31  S   UNL A   1      30.210  28.622  22.841  1.00  0.00    -0.148 S 
ATOM     32  C   UNL A   1      31.008  27.380  22.001  1.00  0.00     0.079 A 
ENDBRANCH  20  23
ENDBRANCH  16  19
ENDBRANCH   9  15
ENDBRANCH   5   8
ENDBRANCH   3   4
ENDBRANCH   2   3
ENDBRANCH   1   2
BRANCH   1  33
ATOM     33  C   UNL A   1      40.695  21.325  27.141  1.00  0.00     0.002 C 
BRANCH  33  34
ATOM     34  C   UNL A   1      41.299  20.277  26.196  1.00  0.00     0.021 C 
BRANCH  34  35
ATOM     35  C   UNL A   1      42.603  19.662  26.681  1.00  0.00     0.116 C 
BRANCH  35  36
ATOM     36  N   UNL A   1      43.611  19.540  25.627  1.00  0.00    -0.352 N 
ATOM     37  C   UNL A   1      44.152  20.545  24.841  1.00  0.00     0.251 C 
ATOM     38  H   UNL A   1      43.946  18.630  25.455  1.00  0.00     0.163 HD
ATOM     39  O   UNL A   1      44.675  20.303  23.769  1.00  0.00    -0.269 OA
BRANCH  37  40
ATOM     40  C   UNL A   1      44.089  21.931  25.343  1.00  0.00     0.039 A 
ATOM     41  C   UNL A   1      43.198  22.869  24.814  1.00  0.00     0.014 A 
ATOM     42  C   UNL A   1      44.932  22.265  26.397  1.00  0.00     0.014 A 
ATOM     43  C   UNL A   1      43.109  24.124  25.415  1.00  0.00     0.010 A 
ATOM     44  C   UNL A   1      44.719  23.422  27.093  1.00  0.00     0.010 A 
ATOM     45  C   UNL A   1      43.863  24.386  26.570  1.00  0.00    -0.014 A 
BRANCH  45  46
ATOM     46  C   UNL A   1      43.698  25.624  27.328  1.00  0.00     0.031 A 
ATOM     47  C   UNL A   1      44.659  26.703  26.964  1.00  0.00     0.074 A 
ATOM     48  C   UNL A   1      42.598  25.858  28.080  1.00  0.00     0.049 A 
ATOM     49  N   UNL A   1      45.523  27.296  27.721  1.00  0.00    -0.248 NA
ATOM     50  C   UNL A   1      44.750  27.096  25.545  1.00  0.00     0.031 C 
ATOM     51  C   UNL A   1      41.409  25.007  28.235  1.00  0.00     0.029 A 
ATOM     52  N   UNL A   1      42.245  26.975  28.774  1.00  0.00    -0.354 N 
ATOM     53  C   UNL A   1      46.125  28.273  26.927  1.00  0.00     0.074 A 
ATOM     54  C   UNL A   1      45.753  27.976  25.571  1.00  0.00     0.031 C 
ATOM     55  C   UNL A   1      40.390  25.731  28.747  1.00  0.00     0.029 A 
ATOM     56  C   UNL A   1      40.901  27.032  29.132  1.00  0.00     0.049 A 
ATOM     57  H   UNL A   1      42.888  27.684  29.003  1.00  0.00     0.167 HD
ATOM     58  C   UNL A   1      46.650  29.399  27.486  1.00  0.00     0.037 A 
ATOM     59  C   UNL A   1      40.247  28.090  29.676  1.00  0.00     0.037 A 
ATOM     60  C   UNL A   1      46.898  29.205  28.895  1.00  0.00     0.049 A 
ATOM     61  C   UNL A   1      41.265  29.024  30.201  1.00  0.00     0.074 A 
ATOM     62  C   UNL A   1      47.658  28.321  29.637  1.00  0.00     0.029 A 
ATOM     63  N   UNL A   1      46.015  29.762  29.786  1.00  0.00    -0.354 N 
ATOM     64  N   UNL A   1      42.030  28.763  31.224  1.00  0.00    -0.248 NA
ATOM     65  C   UNL A   1      41.750  30.055  29.298  1.00  0.00     0.031 C 
ATOM     66  C   UNL A   1      46.865  28.028  30.787  1.00  0.00     0.029 A 
ATOM     67  C   UNL A   1      45.709  28.805  30.716  1.00  0.00     0.049 A 
ATOM     68  H   UNL A   1      45.665  30.682  29.761  1.00  0.00     0.167 HD
ATOM     69  C   UNL A   1      43.271  29.258  30.861  1.00  0.00     0.074 A 
ATOM     70  C   UNL A   1      43.018  30.121  29.709  1.00  0.00     0.031 C 
ATOM     71  C   UNL A   1      44.415  28.692  31.342  1.00  0.00     0.037 A 
BRANCH  58  72
ATOM     72  C   UNL A   1      46.545  30.784  26.876  1.00  0.00     0.064 A 
ATOM     73  C   UNL A   1      47.688  31.613  26.878  1.00  0.00     0.173 A 
ATOM     74  C   UNL A   1      45.328  31.442  26.591  1.00  0.00     0.173 A 
ATOM     75  F   UNL A   1      48.902  31.105  27.135  1.00  0.00    -0.203 F 
ATOM     76  C   UNL A   1      47.598  33.001  26.726  1.00  0.00     0.198 A 
ATOM     77  C   UNL A   1      45.251  32.819  26.386  1.00  0.00     0.198 A 
ATOM     78  F   UNL A   1      44.148  30.814  26.606  1.00  0.00    -0.203 F 
ATOM     79  F   UNL A   1      48.692  33.758  26.885  1.00  0.00    -0.200 F 
ATOM     80  C   UNL A   1      46.378  33.604  26.493  1.00  0.00     0.200 A 
ATOM     81  F   UNL A   1      44.054  33.385  26.172  1.00  0.00    -0.200 F 
ATOM     82  F   UNL A   1      46.277  34.937  26.419  1.00  0.00    -0.200 F 
ENDBRANCH  58  72
BRANCH  59  83
ATOM     83  C   UNL A   1      38.845  28.511  29.469  1.00  0.00     0.064 A 
ATOM     84  C   UNL A   1      37.979  28.762  30.542  1.00  0.00     0.173 A 
ATOM     85  C   UNL A   1      38.427  28.968  28.207  1.00  0.00     0.173 A 
ATOM     86  F   UNL A   1      38.345  28.438  31.790  1.00  0.00    -0.203 F 
ATOM     87  C   UNL A   1      36.757  29.421  30.359  1.00  0.00     0.198 A 
ATOM     88  C   UNL A   1      37.204  29.617  28.021  1.00  0.00     0.198 A 
ATOM     89  F   UNL A   1      39.253  28.885  27.154  1.00  0.00    -0.203 F 
ATOM     90  F   UNL A   1      35.982  29.702  31.417  1.00  0.00    -0.200 F 
ATOM     91  C   UNL A   1      36.370  29.846  29.098  1.00  0.00     0.200 A 
ATOM     92  F   UNL A   1      36.871  30.078  26.807  1.00  0.00    -0.200 F 
ATOM     93  F   UNL A   1      35.226  30.523  28.928  1.00  0.00    -0.200 F 
ENDBRANCH  59  83
BRANCH  71  94
ATOM     94  C   UNL A   1      44.285  27.702  32.466  1.00  0.00     0.064 A 
ATOM     95  C   UNL A   1      44.164  26.311  32.290  1.00  0.00     0.173 A 
ATOM     96  C   UNL A   1      44.424  28.172  33.778  1.00  0.00     0.173 A 
ATOM     97  F   UNL A   1      44.123  25.770  31.067  1.00  0.00    -0.203 F 
ATOM     98  C   UNL A   1      44.140  25.441  33.380  1.00  0.00     0.198 A 
ATOM     99  C   UNL A   1      44.437  27.299  34.862  1.00  0.00     0.198 A 
ATOM    100  F   UNL A   1      44.594  29.484  34.004  1.00  0.00    -0.203 F 
ATOM    101  F   UNL A   1      44.010  24.121  33.184  1.00  0.00    -0.200 F 
ATOM    102  C   UNL A   1      44.284  25.936  34.664  1.00  0.00     0.200 A 
ATOM    103  F   UNL A   1      44.625  27.779  36.098  1.00  0.00    -0.200 F 
ATOM    104  F   UNL A   1      44.303  25.099  35.710  1.00  0.00    -0.200 F 
ENDBRANCH  71  94
ENDBRANCH  45  46
ENDBRANCH  37  40
ENDBRANCH  35  36
ENDBRANCH  34  35
ENDBRANCH  33  34
ENDBRANCH   1  33
TORSDOF 16
ENDMDL
MODEL 2
REMARK VINA RESULT:     -13.0      2.977      8.839
REMARK SMILES C[C@@H]1CCc2c(C(=O)NNC(=O)[C@@H]3[C@@H]4CC[C@@H](C4)[C@@H]3C(=O)NCCCCCCNC(=O)c3ccc(-c4c5nc(c(-c6c(F)c(F)c(F)c(F)c6F)c6ccc([nH]6)c(-c6c(F)c(F)c(F)c(F)c6F)c6nc(c(-c7c(F)c(F)c(F)c(F)c7F)c7ccc4[nH]7)C=C6)C=C5)cc3)csc2C1
REMARK SMILES IDX 25 1 24 2 23 3 22 4 20 5 21 6 19 8 13 9 14 10 15 11 18 12
REMARK SMILES IDX 17 13 16 14 11 15 10 16 12 18 9 19 7 20 8 21 6 23 1 24 2 25
REMARK SMILES IDX 3 26 98 27 4 28 97 29 5 30 96 31 95 32 26 33 27 34 28 35
REMARK SMILES IDX 29 36 30 37 31 39 32 40 33 41 94 42 34 43 93 44 35 45 36 46
REMARK SMILES IDX 37 47 87 48 38 49 92 50 86 51 88 52 39 53 91 54 85 55 84 56
REMARK SMILES IDX 40 58 72 59 52 60 71 61 53 62 56 63 70 64 89 65 54 66 55 67
REMARK SMILES IDX 69 69 90 70 57 71 41 72 42 73 50 74 43 75 44 76 48 77 51 78
REMARK SMILES IDX 45 79 46 80 49 81 47 82 73 83 74 84 82 85 75 86 76 87 80 88
REMARK SMILES IDX 83 89 77 90 78 91 81 92 79 93 58 94 59 95 67 96 60 97 61 98
REMARK SMILES IDX 65 99 68 100 62 101 63 102 66 103 64 104
REMARK H PARENT 22 7 10 17 9 22 29 38 88 57 56 68
REMARK Flexibility Score: inf
ROOT
ATOM      1  C   UNL A   1      33.766  28.941  27.575  1.00  0.00     0.002 C 
ENDROOT
BRANCH   1   2
ATOM      2  C   UNL A   1      32.273  28.790  27.266  1.00  0.00     0.021 C 
BRANCH   2   3
ATOM      3  C   UNL A   1      31.789  27.359  27.056  1.00  0.00     0.116 C 
BRANCH   3   4
ATOM      4  N   UNL A   1      32.790  26.525  26.417  1.00  0.00    -0.356 N 
ATOM      5  C   UNL A   1      33.051  26.345  25.088  1.00  0.00     0.224 C 
ATOM      6  O   UNL A   1      34.116  25.819  24.777  1.00  0.00    -0.275 OA
ATOM      7  H   UNL A   1      33.366  26.014  27.031  1.00  0.00     0.163 HD
BRANCH   5   8
ATOM      8  C   UNL A   1      32.038  26.860  24.080  1.00  0.00     0.094 C 
ATOM      9  C   UNL A   1      31.128  25.838  23.359  1.00  0.00     0.096 C 
ATOM     10  C   UNL A   1      31.158  26.362  21.882  1.00  0.00     0.002 C 
ATOM     11  C   UNL A   1      32.496  26.057  21.177  1.00  0.00     0.005 C 
ATOM     12  C   UNL A   1      31.318  27.873  22.080  1.00  0.00     0.009 C 
ATOM     13  C   UNL A   1      32.595  27.717  22.919  1.00  0.00     0.002 C 
ATOM     14  C   UNL A   1      33.495  26.915  21.961  1.00  0.00     0.005 C 
BRANCH   9  15
ATOM     15  C   UNL A   1      31.513  24.365  23.390  1.00  0.00     0.242 C 
ATOM     16  N   UNL A   1      30.670  23.536  24.113  1.00  0.00    -0.267 N 
ATOM     17  H   UNL A   1      30.121  22.857  23.657  1.00  0.00     0.191 HD
ATOM     18  O   UNL A   1      32.393  23.894  22.676  1.00  0.00    -0.273 OA
BRANCH  16  19
ATOM     19  N   UNL A   1      30.614  23.678  25.492  1.00  0.00    -0.263 N 
ATOM     20  C   UNL A   1      31.508  23.188  26.431  1.00  0.00     0.270 C 
ATOM     21  O   UNL A   1      31.193  23.402  27.609  1.00  0.00    -0.267 OA
ATOM     22  H   UNL A   1      29.848  24.187  25.846  1.00  0.00     0.191 HD
BRANCH  20  23
ATOM     23  C   UNL A   1      32.723  22.393  26.118  1.00  0.00     0.055 A 
ATOM     24  C   UNL A   1      34.406  17.355  23.728  1.00  0.00     0.008 C 
ATOM     25  C   UNL A   1      33.866  18.527  24.537  1.00  0.00    -0.009 C 
ATOM     26  C   UNL A   1      32.695  19.205  23.805  1.00  0.00     0.008 C 
ATOM     27  C   UNL A   1      34.955  19.575  24.829  1.00  0.00     0.050 C 
ATOM     28  C   UNL A   1      32.024  20.231  24.721  1.00  0.00     0.038 C 
ATOM     29  C   UNL A   1      34.339  20.804  25.444  1.00  0.00     0.009 A 
ATOM     30  C   UNL A   1      32.986  21.138  25.430  1.00  0.00    -0.021 A 
ATOM     31  S   UNL A   1      35.309  21.990  26.161  1.00  0.00    -0.148 S 
ATOM     32  C   UNL A   1      33.947  22.960  26.456  1.00  0.00     0.079 A 
ENDBRANCH  20  23
ENDBRANCH  16  19
ENDBRANCH   9  15
ENDBRANCH   5   8
ENDBRANCH   3   4
ENDBRANCH   2   3
ENDBRANCH   1   2
BRANCH   1  33
ATOM     33  C   UNL A   1      34.399  30.304  27.261  1.00  0.00     0.002 C 
BRANCH  33  34
ATOM     34  C   UNL A   1      33.597  31.551  27.660  1.00  0.00     0.021 C 
BRANCH  34  35
ATOM     35  C   UNL A   1      34.434  32.691  28.221  1.00  0.00     0.116 C 
BRANCH  35  36
ATOM     36  N   UNL A   1      34.262  32.876  29.662  1.00  0.00    -0.352 N 
ATOM     37  C   UNL A   1      34.959  32.265  30.692  1.00  0.00     0.251 C 
ATOM     38  H   UNL A   1      33.565  33.516  29.934  1.00  0.00     0.163 HD
ATOM     39  O   UNL A   1      34.500  32.193  31.817  1.00  0.00    -0.269 OA
BRANCH  37  40
ATOM     40  C   UNL A   1      36.291  31.705  30.394  1.00  0.00     0.039 A 
ATOM     41  C   UNL A   1      37.414  32.520  30.223  1.00  0.00     0.014 A 
ATOM     42  C   UNL A   1      36.399  30.321  30.325  1.00  0.00     0.014 A 
ATOM     43  C   UNL A   1      38.662  31.919  30.062  1.00  0.00     0.010 A 
ATOM     44  C   UNL A   1      37.635  29.737  30.348  1.00  0.00     0.010 A 
ATOM     45  C   UNL A   1      38.765  30.521  30.144  1.00  0.00    -0.014 A 
BRANCH  45  46
ATOM     46  C   UNL A   1      40.061  29.847  30.137  1.00  0.00     0.031 A 
ATOM     47  C   UNL A   1      40.669  29.663  31.486  1.00  0.00     0.074 A 
ATOM     48  C   UNL A   1      40.523  29.201  29.041  1.00  0.00     0.049 A 
ATOM     49  N   UNL A   1      41.801  30.108  31.922  1.00  0.00    -0.248 NA
ATOM     50  C   UNL A   1      39.860  28.993  32.521  1.00  0.00     0.031 C 
ATOM     51  C   UNL A   1      39.847  29.012  27.750  1.00  0.00     0.029 A 
ATOM     52  N   UNL A   1      41.654  28.459  28.886  1.00  0.00    -0.354 N 
ATOM     53  C   UNL A   1      41.939  29.606  33.216  1.00  0.00     0.074 A 
ATOM     54  C   UNL A   1      40.648  29.098  33.592  1.00  0.00     0.031 C 
ATOM     55  C   UNL A   1      40.447  28.018  27.058  1.00  0.00     0.029 A 
ATOM     56  C   UNL A   1      41.654  27.634  27.764  1.00  0.00     0.049 A 
ATOM     57  H   UNL A   1      42.409  28.502  29.515  1.00  0.00     0.167 HD
ATOM     58  C   UNL A   1      43.173  29.405  33.757  1.00  0.00     0.037 A 
ATOM     59  C   UNL A   1      42.567  26.678  27.457  1.00  0.00     0.037 A 
ATOM     60  C   UNL A   1      44.175  30.170  33.053  1.00  0.00     0.049 A 
ATOM     61  C   UNL A   1      43.769  26.925  28.281  1.00  0.00     0.074 A 
ATOM     62  C   UNL A   1      44.363  31.513  32.784  1.00  0.00     0.029 A 
ATOM     63  N   UNL A   1      44.989  29.504  32.171  1.00  0.00    -0.354 N 
ATOM     64  N   UNL A   1      44.554  27.953  28.127  1.00  0.00    -0.248 NA
ATOM     65  C   UNL A   1      43.831  26.272  29.578  1.00  0.00     0.031 C 
ATOM     66  C   UNL A   1      44.871  31.554  31.451  1.00  0.00     0.029 A 
ATOM     67  C   UNL A   1      45.033  30.238  31.016  1.00  0.00     0.049 A 
ATOM     68  H   UNL A   1      45.456  28.654  32.338  1.00  0.00     0.167 HD
ATOM     69  C   UNL A   1      44.867  28.343  29.418  1.00  0.00     0.074 A 
ATOM     70  C   UNL A   1      44.470  27.220  30.265  1.00  0.00     0.031 C 
ATOM     71  C   UNL A   1      45.142  29.649  29.705  1.00  0.00     0.037 A 
BRANCH  58  72
ATOM     72  C   UNL A   1      43.541  28.219  34.630  1.00  0.00     0.064 A 
ATOM     73  C   UNL A   1      43.245  26.919  34.165  1.00  0.00     0.173 A 
ATOM     74  C   UNL A   1      43.861  28.306  36.002  1.00  0.00     0.173 A 
ATOM     75  F   UNL A   1      42.926  26.708  32.879  1.00  0.00    -0.203 F 
ATOM     76  C   UNL A   1      43.163  25.823  35.029  1.00  0.00     0.198 A 
ATOM     77  C   UNL A   1      43.829  27.200  36.851  1.00  0.00     0.198 A 
ATOM     78  F   UNL A   1      44.108  29.469  36.613  1.00  0.00    -0.203 F 
ATOM     79  F   UNL A   1      42.733  24.642  34.565  1.00  0.00    -0.200 F 
ATOM     80  C   UNL A   1      43.443  25.967  36.374  1.00  0.00     0.200 A 
ATOM     81  F   UNL A   1      44.094  27.365  38.155  1.00  0.00    -0.200 F 
ATOM     82  F   UNL A   1      43.294  24.937  37.217  1.00  0.00    -0.200 F 
ENDBRANCH  58  72
BRANCH  59  83
ATOM     83  C   UNL A   1      42.351  25.385  26.772  1.00  0.00     0.064 A 
ATOM     84  C   UNL A   1      43.098  25.007  25.648  1.00  0.00     0.173 A 
ATOM     85  C   UNL A   1      41.610  24.371  27.402  1.00  0.00     0.173 A 
ATOM     86  F   UNL A   1      43.901  25.894  25.046  1.00  0.00    -0.203 F 
ATOM     87  C   UNL A   1      43.093  23.689  25.175  1.00  0.00     0.198 A 
ATOM     88  C   UNL A   1      41.595  23.058  26.925  1.00  0.00     0.198 A 
ATOM     89  F   UNL A   1      40.973  24.620  28.555  1.00  0.00    -0.203 F 
ATOM     90  F   UNL A   1      43.870  23.346  24.137  1.00  0.00    -0.200 F 
ATOM     91  C   UNL A   1      42.339  22.716  25.813  1.00  0.00     0.200 A 
ATOM     92  F   UNL A   1      40.911  22.114  27.588  1.00  0.00    -0.200 F 
ATOM     93  F   UNL A   1      42.373  21.444  25.393  1.00  0.00    -0.200 F 
ENDBRANCH  59  83
BRANCH  71  94
ATOM     94  C   UNL A   1      45.352  30.588  28.549  1.00  0.00     0.064 A 
ATOM     95  C   UNL A   1      44.333  31.348  27.948  1.00  0.00     0.173 A 
ATOM     96  C   UNL A   1      46.665  30.825  28.124  1.00  0.00     0.173 A 
ATOM     97  F   UNL A   1      43.064  31.253  28.362  1.00  0.00    -0.203 F 
ATOM     98  C   UNL A   1      44.614  32.270  26.939  1.00  0.00     0.198 A 
ATOM     99  C   UNL A   1      46.948  31.771  27.143  1.00  0.00     0.198 A 
ATOM    100  F   UNL A   1      47.684  30.166  28.697  1.00  0.00    -0.203 F 
ATOM    101  F   UNL A   1      43.621  32.972  26.374  1.00  0.00    -0.200 F 
ATOM    102  C   UNL A   1      45.923  32.485  26.544  1.00  0.00     0.200 A 
ATOM    103  F   UNL A   1      48.220  32.010  26.798  1.00  0.00    -0.200 F 
ATOM    104  F   UNL A   1      46.199  33.399  25.604  1.00  0.00    -0.200 F 
ENDBRANCH  71  94
ENDBRANCH  45  46
ENDBRANCH  37  40
ENDBRANCH  35  36
ENDBRANCH  34  35
ENDBRANCH  33  34
ENDBRANCH   1  33
TORSDOF 16
ENDMDL
MODEL 3
REMARK VINA RESULT:     -13.0      3.603      9.591
REMARK SMILES C[C@@H]1CCc2c(C(=O)NNC(=O)[C@@H]3[C@@H]4CC[C@@H](C4)[C@@H]3C(=O)NCCCCCCNC(=O)c3ccc(-c4c5nc(c(-c6c(F)c(F)c(F)c(F)c6F)c6ccc([nH]6)c(-c6c(F)c(F)c(F)c(F)c6F)c6nc(c(-c7c(F)c(F)c(F)c(F)c7F)c7ccc4[nH]7)C=C6)C=C5)cc3)csc2C1
REMARK SMILES IDX 25 1 24 2 23 3 22 4 20 5 21 6 19 8 13 9 14 10 15 11 18 12
REMARK SMILES IDX 17 13 16 14 11 15 10 16 12 18 9 19 7 20 8 21 6 23 1 24 2 25
REMARK SMILES IDX 3 26 98 27 4 28 97 29 5 30 96 31 95 32 26 33 27 34 28 35
REMARK SMILES IDX 29 36 30 37 31 39 32 40 33 41 94 42 34 43 93 44 35 45 36 46
REMARK SMILES IDX 37 47 87 48 38 49 92 50 86 51 88 52 39 53 91 54 85 55 84 56
REMARK SMILES IDX 40 58 72 59 52 60 71 61 53 62 56 63 70 64 89 65 54 66 55 67
REMARK SMILES IDX 69 69 90 70 57 71 41 72 42 73 50 74 43 75 44 76 48 77 51 78
REMARK SMILES IDX 45 79 46 80 49 81 47 82 73 83 74 84 82 85 75 86 76 87 80 88
REMARK SMILES IDX 83 89 77 90 78 91 81 92 79 93 58 94 59 95 67 96 60 97 61 98
REMARK SMILES IDX 65 99 68 100 62 101 63 102 66 103 64 104
REMARK H PARENT 22 7 10 17 9 22 29 38 88 57 56 68
REMARK Flexibility Score: inf
ROOT
ATOM      1  C   UNL A   1      34.528  31.570  27.944  1.00  0.00     0.002 C 
ENDROOT
BRANCH   1   2
ATOM      2  C   UNL A   1      33.241  31.118  27.246  1.00  0.00     0.021 C 
BRANCH   2   3
ATOM      3  C   UNL A   1      33.217  29.662  26.795  1.00  0.00     0.116 C 
BRANCH   3   4
ATOM      4  N   UNL A   1      33.655  29.501  25.421  1.00  0.00    -0.356 N 
ATOM      5  C   UNL A   1      32.974  29.004  24.345  1.00  0.00     0.224 C 
ATOM      6  O   UNL A   1      33.431  29.219  23.226  1.00  0.00    -0.275 OA
ATOM      7  H   UNL A   1      34.576  29.793  25.236  1.00  0.00     0.163 HD
BRANCH   5   8
ATOM      8  C   UNL A   1      31.667  28.273  24.596  1.00  0.00     0.094 C 
ATOM      9  C   UNL A   1      31.723  26.814  25.107  1.00  0.00     0.096 C 
ATOM     10  C   UNL A   1      30.622  26.121  24.234  1.00  0.00     0.002 C 
ATOM     11  C   UNL A   1      31.077  25.901  22.777  1.00  0.00     0.005 C 
ATOM     12  C   UNL A   1      29.622  27.261  24.013  1.00  0.00     0.009 C 
ATOM     13  C   UNL A   1      30.682  28.191  23.406  1.00  0.00     0.002 C 
ATOM     14  C   UNL A   1      31.216  27.331  22.245  1.00  0.00     0.005 C 
BRANCH   9  15
ATOM     15  C   UNL A   1      33.033  26.046  24.987  1.00  0.00     0.242 C 
ATOM     16  N   UNL A   1      32.940  24.669  25.121  1.00  0.00    -0.267 N 
ATOM     17  H   UNL A   1      33.115  24.078  24.353  1.00  0.00     0.191 HD
ATOM     18  O   UNL A   1      34.076  26.569  24.609  1.00  0.00    -0.273 OA
BRANCH  16  19
ATOM     19  N   UNL A   1      32.598  24.139  26.357  1.00  0.00    -0.263 N 
ATOM     20  C   UNL A   1      33.008  22.933  26.904  1.00  0.00     0.270 C 
ATOM     21  O   UNL A   1      32.505  22.664  28.002  1.00  0.00    -0.267 OA
ATOM     22  H   UNL A   1      31.992  24.684  26.911  1.00  0.00     0.191 HD
BRANCH  20  23
ATOM     23  C   UNL A   1      33.911  21.959  26.240  1.00  0.00     0.055 A 
ATOM     24  C   UNL A   1      33.889  16.801  23.533  1.00  0.00     0.008 C 
ATOM     25  C   UNL A   1      33.834  18.017  24.450  1.00  0.00    -0.009 C 
ATOM     26  C   UNL A   1      32.625  18.905  24.109  1.00  0.00     0.008 C 
ATOM     27  C   UNL A   1      35.120  18.858  24.367  1.00  0.00     0.050 C 
ATOM     28  C   UNL A   1      32.457  19.995  25.171  1.00  0.00     0.038 C 
ATOM     29  C   UNL A   1      34.943  20.149  25.122  1.00  0.00     0.009 A 
ATOM     30  C   UNL A   1      33.731  20.703  25.526  1.00  0.00    -0.021 A 
ATOM     31  S   UNL A   1      36.274  21.131  25.477  1.00  0.00    -0.148 S 
ATOM     32  C   UNL A   1      35.257  22.302  26.167  1.00  0.00     0.079 A 
ENDBRANCH  20  23
ENDBRANCH  16  19
ENDBRANCH   9  15
ENDBRANCH   5   8
ENDBRANCH   3   4
ENDBRANCH   2   3
ENDBRANCH   1   2
BRANCH   1  33
ATOM     33  C   UNL A   1      34.763  33.084  28.041  1.00  0.00     0.002 C 
BRANCH  33  34
ATOM     34  C   UNL A   1      33.598  33.935  28.566  1.00  0.00     0.021 C 
BRANCH  34  35
ATOM     35  C   UNL A   1      34.010  35.264  29.182  1.00  0.00     0.116 C 
BRANCH  35  36
ATOM     36  N   UNL A   1      33.415  35.498  30.498  1.00  0.00    -0.352 N 
ATOM     37  C   UNL A   1      33.584  34.758  31.658  1.00  0.00     0.251 C 
ATOM     38  H   UNL A   1      32.819  36.279  30.568  1.00  0.00     0.163 HD
ATOM     39  O   UNL A   1      32.774  34.802  32.565  1.00  0.00    -0.269 OA
BRANCH  37  40
ATOM     40  C   UNL A   1      34.788  33.914  31.775  1.00  0.00     0.039 A 
ATOM     41  C   UNL A   1      34.730  32.523  31.653  1.00  0.00     0.014 A 
ATOM     42  C   UNL A   1      36.002  34.562  31.978  1.00  0.00     0.014 A 
ATOM     43  C   UNL A   1      35.922  31.799  31.655  1.00  0.00     0.010 A 
ATOM     44  C   UNL A   1      37.172  33.876  31.801  1.00  0.00     0.010 A 
ATOM     45  C   UNL A   1      37.144  32.488  31.712  1.00  0.00    -0.014 A 
BRANCH  45  46
ATOM     46  C   UNL A   1      38.421  31.796  31.565  1.00  0.00     0.031 A 
ATOM     47  C   UNL A   1      39.109  31.490  32.852  1.00  0.00     0.074 A 
ATOM     48  C   UNL A   1      38.799  31.237  30.393  1.00  0.00     0.049 A 
ATOM     49  N   UNL A   1      40.276  31.878  33.249  1.00  0.00    -0.248 NA
ATOM     50  C   UNL A   1      38.352  30.749  33.879  1.00  0.00     0.031 C 
ATOM     51  C   UNL A   1      38.039  31.167  29.136  1.00  0.00     0.029 A 
ATOM     52  N   UNL A   1      39.901  30.492  30.104  1.00  0.00    -0.354 N 
ATOM     53  C   UNL A   1      40.484  31.267  34.486  1.00  0.00     0.074 A 
ATOM     54  C   UNL A   1      39.209  30.750  34.901  1.00  0.00     0.031 C 
ATOM     55  C   UNL A   1      38.572  30.225  28.328  1.00  0.00     0.029 A 
ATOM     56  C   UNL A   1      39.813  29.764  28.920  1.00  0.00     0.049 A 
ATOM     57  H   UNL A   1      40.695  30.469  30.684  1.00  0.00     0.167 HD
ATOM     58  C   UNL A   1      41.745  31.000  34.928  1.00  0.00     0.037 A 
ATOM     59  C   UNL A   1      40.683  28.821  28.477  1.00  0.00     0.037 A 
ATOM     60  C   UNL A   1      42.716  31.805  34.226  1.00  0.00     0.049 A 
ATOM     61  C   UNL A   1      41.940  28.979  29.238  1.00  0.00     0.074 A 
ATOM     62  C   UNL A   1      42.917  33.162  34.057  1.00  0.00     0.029 A 
ATOM     63  N   UNL A   1      43.459  31.202  33.241  1.00  0.00    -0.354 N 
ATOM     64  N   UNL A   1      42.737  30.003  29.120  1.00  0.00    -0.248 NA
ATOM     65  C   UNL A   1      42.070  28.218  30.470  1.00  0.00     0.031 C 
ATOM     66  C   UNL A   1      43.341  33.306  32.702  1.00  0.00     0.029 A 
ATOM     67  C   UNL A   1      43.446  32.030  32.150  1.00  0.00     0.049 A 
ATOM     68  H   UNL A   1      43.917  30.333  33.307  1.00  0.00     0.167 HD
ATOM     69  C   UNL A   1      43.139  30.278  30.416  1.00  0.00     0.074 A 
ATOM     70  C   UNL A   1      42.771  29.095  31.191  1.00  0.00     0.031 C 
ATOM     71  C   UNL A   1      43.459  31.550  30.791  1.00  0.00     0.037 A 
BRANCH  58  72
ATOM     72  C   UNL A   1      42.141  29.739  35.674  1.00  0.00     0.064 A 
ATOM     73  C   UNL A   1      43.118  29.831  36.688  1.00  0.00     0.173 A 
ATOM     74  C   UNL A   1      41.854  28.428  35.233  1.00  0.00     0.173 A 
ATOM     75  F   UNL A   1      43.476  31.022  37.189  1.00  0.00    -0.203 F 
ATOM     76  C   UNL A   1      43.830  28.713  37.135  1.00  0.00     0.198 A 
ATOM     77  C   UNL A   1      42.530  27.310  35.721  1.00  0.00     0.198 A 
ATOM     78  F   UNL A   1      40.997  28.172  34.240  1.00  0.00    -0.203 F 
ATOM     79  F   UNL A   1      44.850  28.873  37.989  1.00  0.00    -0.200 F 
ATOM     80  C   UNL A   1      43.544  27.455  36.641  1.00  0.00     0.200 A 
ATOM     81  F   UNL A   1      42.244  26.099  35.219  1.00  0.00    -0.200 F 
ATOM     82  F   UNL A   1      44.272  26.394  37.012  1.00  0.00    -0.200 F 
ENDBRANCH  58  72
BRANCH  59  83
ATOM     83  C   UNL A   1      40.396  27.594  27.703  1.00  0.00     0.064 A 
ATOM     84  C   UNL A   1      41.140  27.241  26.568  1.00  0.00     0.173 A 
ATOM     85  C   UNL A   1      39.576  26.593  28.250  1.00  0.00     0.173 A 
ATOM     86  F   UNL A   1      42.013  28.111  26.040  1.00  0.00    -0.203 F 
ATOM     87  C   UNL A   1      41.057  25.961  26.007  1.00  0.00     0.198 A 
ATOM     88  C   UNL A   1      39.484  25.319  27.685  1.00  0.00     0.198 A 
ATOM     89  F   UNL A   1      38.933  26.808  29.407  1.00  0.00    -0.203 F 
ATOM     90  F   UNL A   1      41.831  25.636  24.961  1.00  0.00    -0.200 F 
ATOM     91  C   UNL A   1      40.227  25.002  26.565  1.00  0.00     0.200 A 
ATOM     92  F   UNL A   1      38.726  24.382  28.273  1.00  0.00    -0.200 F 
ATOM     93  F   UNL A   1      40.185  23.761  26.061  1.00  0.00    -0.200 F 
ENDBRANCH  59  83
BRANCH  71  94
ATOM     94  C   UNL A   1      43.617  32.579  29.706  1.00  0.00     0.064 A 
ATOM     95  C   UNL A   1      42.618  33.496  29.329  1.00  0.00     0.173 A 
ATOM     96  C   UNL A   1      44.879  32.728  29.117  1.00  0.00     0.173 A 
ATOM     97  F   UNL A   1      41.414  33.484  29.912  1.00  0.00    -0.203 F 
ATOM     98  C   UNL A   1      42.863  34.485  28.376  1.00  0.00     0.198 A 
ATOM     99  C   UNL A   1      45.132  33.739  28.195  1.00  0.00     0.198 A 
ATOM    100  F   UNL A   1      45.885  31.916  29.476  1.00  0.00    -0.203 F 
ATOM    101  F   UNL A   1      41.889  35.337  28.026  1.00  0.00    -0.200 F 
ATOM    102  C   UNL A   1      44.123  34.610  27.817  1.00  0.00     0.200 A 
ATOM    103  F   UNL A   1      46.365  33.886  27.692  1.00  0.00    -0.200 F 
ATOM    104  F   UNL A   1      44.372  35.585  26.932  1.00  0.00    -0.200 F 
ENDBRANCH  71  94
ENDBRANCH  45  46
ENDBRANCH  37  40
ENDBRANCH  35  36
ENDBRANCH  34  35
ENDBRANCH  33  34
ENDBRANCH   1  33
TORSDOF 16
ENDMDL
