MODEL 1
REMARK VINA RESULT:     -12.8      0.000      0.000
REMARK SMILES Cc1ccc(-c2c[nH]c(=O)cc2C(=O)NCCCCCCNC(=O)c2ccc(-c3c4nc(c(-c5c(F)c(F)c(F)c(F)c5F)c5ccc([nH]5)c(-c5c(F)c(F)c(F)c(F)c5F)c5nc(c(-c6c(F)c(F)c(F)c(F)c6F)c6ccc3[nH]6)C=C5)C=C4)cc2)cc1Cl
REMARK SMILES IDX 19 1 18 2 17 3 16 4 15 5 13 6 14 7 12 9 6 10 7 11 8 12 11 13
REMARK SMILES IDX 9 14 10 16 5 17 1 18 2 19 3 20 89 21 4 22 88 23 90 24 20 25
REMARK SMILES IDX 21 26 22 27 23 28 24 30 25 31 26 32 87 33 27 34 86 35 28 36
REMARK SMILES IDX 29 37 30 38 80 39 31 40 85 41 79 42 81 43 32 44 84 45 78 46
REMARK SMILES IDX 77 47 33 49 65 50 45 51 64 52 46 53 49 54 63 55 82 56 47 57
REMARK SMILES IDX 48 58 62 60 83 61 50 62 34 63 35 64 43 65 36 66 37 67 41 68
REMARK SMILES IDX 44 69 38 70 39 71 42 72 40 73 66 74 67 75 75 76 68 77 69 78
REMARK SMILES IDX 73 79 76 80 70 81 71 82 74 83 72 84 51 85 52 86 60 87 53 88
REMARK SMILES IDX 54 89 58 90 61 91 55 92 56 93 59 94 57 95
REMARK H PARENT 15 8 8 15 22 29 81 48 49 59
REMARK Flexibility Score: inf
ROOT
ATOM      1  C   UNL A   1      31.426  30.880  26.039  1.00  0.00     0.002 C 
ENDROOT
BRANCH   1   2
ATOM      2  C   UNL A   1      32.508  30.062  26.758  1.00  0.00     0.002 C 
BRANCH   2   3
ATOM      3  C   UNL A   1      33.409  29.228  25.831  1.00  0.00     0.021 C 
BRANCH   3   4
ATOM      4  C   UNL A   1      33.631  27.802  26.333  1.00  0.00     0.116 C 
BRANCH   4   5
ATOM      5  N   UNL A   1      32.377  27.083  26.354  1.00  0.00    -0.352 N 
ATOM      6  C   UNL A   1      31.640  26.347  25.491  1.00  0.00     0.252 C 
ATOM      7  O   UNL A   1      30.575  25.960  25.979  1.00  0.00    -0.269 OA
ATOM      8  H   UNL A   1      31.942  27.145  27.236  1.00  0.00     0.163 HD
BRANCH   6   9
ATOM      9  C   UNL A   1      32.044  25.951  24.085  1.00  0.00     0.054 A 
ATOM     10  C   UNL A   1      31.325  26.540  22.922  1.00  0.00     0.011 A 
ATOM     11  C   UNL A   1      31.588  26.070  21.685  1.00  0.00     0.095 A 
ATOM     12  N   UNL A   1      32.516  25.089  21.477  1.00  0.00    -0.328 N 
ATOM     13  C   UNL A   1      33.043  25.088  23.833  1.00  0.00     0.086 A 
ATOM     14  C   UNL A   1      33.291  24.561  22.470  1.00  0.00     0.248 A 
ATOM     15  H   UNL A   1      32.633  24.745  20.562  1.00  0.00     0.169 HD
ATOM     16  O   UNL A   1      34.130  23.693  22.273  1.00  0.00    -0.270 OA
BRANCH  10  17
ATOM     17  C   UNL A   1      30.385  27.682  22.968  1.00  0.00    -0.015 A 
ATOM     18  C   UNL A   1      27.714  31.078  23.195  1.00  0.00     0.046 C 
ATOM     19  C   UNL A   1      28.622  29.885  23.101  1.00  0.00    -0.032 A 
ATOM     20  C   UNL A   1      29.982  30.076  22.828  1.00  0.00     0.005 A 
ATOM     21  C   UNL A   1      28.150  28.575  23.282  1.00  0.00     0.044 A 
ATOM     22  C   UNL A   1      30.851  28.985  22.746  1.00  0.00     0.009 A 
ATOM     23  C   UNL A   1      29.024  27.485  23.225  1.00  0.00     0.029 A 
ATOM     24  Cl  UNL A   1      26.479  28.251  23.577  1.00  0.00    -0.084 Cl
ENDBRANCH  10  17
ENDBRANCH   6   9
ENDBRANCH   4   5
ENDBRANCH   3   4
ENDBRANCH   2   3
ENDBRANCH   1   2
BRANCH   1  25
ATOM     25  C   UNL A   1      31.285  32.322  26.533  1.00  0.00     0.021 C 
BRANCH  25  26
ATOM     26  C   UNL A   1      32.516  32.845  27.259  1.00  0.00     0.116 C 
BRANCH  26  27
ATOM     27  N   UNL A   1      32.376  34.252  27.600  1.00  0.00    -0.352 N 
ATOM     28  C   UNL A   1      32.985  34.963  28.601  1.00  0.00     0.251 C 
ATOM     29  H   UNL A   1      31.756  34.765  27.033  1.00  0.00     0.163 HD
ATOM     30  O   UNL A   1      32.573  36.074  28.915  1.00  0.00    -0.269 OA
BRANCH  28  31
ATOM     31  C   UNL A   1      34.142  34.376  29.306  1.00  0.00     0.039 A 
ATOM     32  C   UNL A   1      33.924  33.647  30.477  1.00  0.00     0.014 A 
ATOM     33  C   UNL A   1      35.439  34.559  28.818  1.00  0.00     0.014 A 
ATOM     34  C   UNL A   1      35.007  33.064  31.136  1.00  0.00     0.010 A 
ATOM     35  C   UNL A   1      36.505  33.908  29.428  1.00  0.00     0.010 A 
ATOM     36  C   UNL A   1      36.303  33.169  30.603  1.00  0.00    -0.014 A 
BRANCH  36  37
ATOM     37  C   UNL A   1      37.464  32.537  31.276  1.00  0.00     0.031 A 
ATOM     38  C   UNL A   1      38.202  31.416  30.600  1.00  0.00     0.074 A 
ATOM     39  C   UNL A   1      37.817  32.935  32.512  1.00  0.00     0.049 A 
ATOM     40  N   UNL A   1      39.201  30.693  31.044  1.00  0.00    -0.248 NA
ATOM     41  C   UNL A   1      37.740  31.035  29.256  1.00  0.00     0.031 C 
ATOM     42  C   UNL A   1      37.152  33.985  33.285  1.00  0.00     0.029 A 
ATOM     43  N   UNL A   1      38.820  32.498  33.340  1.00  0.00    -0.354 N 
ATOM     44  C   UNL A   1      39.474  29.773  30.041  1.00  0.00     0.074 A 
ATOM     45  C   UNL A   1      38.497  29.980  28.996  1.00  0.00     0.031 C 
ATOM     46  C   UNL A   1      37.782  34.130  34.462  1.00  0.00     0.029 A 
ATOM     47  C   UNL A   1      38.866  33.157  34.545  1.00  0.00     0.049 A 
ATOM     48  H   UNL A   1      39.448  31.781  33.094  1.00  0.00     0.167 HD
ATOM     49  C   UNL A   1      40.468  28.853  29.985  1.00  0.00     0.037 A 
ATOM     50  C   UNL A   1      39.686  32.986  35.598  1.00  0.00     0.037 A 
ATOM     51  C   UNL A   1      41.446  28.662  31.024  1.00  0.00     0.049 A 
ATOM     52  C   UNL A   1      40.766  31.939  35.523  1.00  0.00     0.074 A 
ATOM     53  C   UNL A   1      42.521  27.792  31.047  1.00  0.00     0.029 A 
ATOM     54  N   UNL A   1      41.463  29.351  32.229  1.00  0.00    -0.354 N 
ATOM     55  N   UNL A   1      41.058  31.118  34.544  1.00  0.00    -0.248 NA
ATOM     56  C   UNL A   1      41.635  31.801  36.699  1.00  0.00     0.031 C 
ATOM     57  C   UNL A   1      43.154  27.913  32.289  1.00  0.00     0.029 A 
ATOM     58  C   UNL A   1      42.516  28.906  33.013  1.00  0.00     0.049 A 
ATOM     59  H   UNL A   1      40.822  30.052  32.488  1.00  0.00     0.167 HD
ATOM     60  C   UNL A   1      42.163  30.393  34.969  1.00  0.00     0.074 A 
ATOM     61  C   UNL A   1      42.497  30.881  36.291  1.00  0.00     0.031 C 
ATOM     62  C   UNL A   1      42.842  29.413  34.323  1.00  0.00     0.037 A 
BRANCH  49  63
ATOM     63  C   UNL A   1      40.544  27.986  28.761  1.00  0.00     0.064 A 
ATOM     64  C   UNL A   1      39.864  26.760  28.682  1.00  0.00     0.173 A 
ATOM     65  C   UNL A   1      41.286  28.395  27.642  1.00  0.00     0.173 A 
ATOM     66  F   UNL A   1      39.150  26.315  29.726  1.00  0.00    -0.203 F 
ATOM     67  C   UNL A   1      39.953  25.961  27.544  1.00  0.00     0.198 A 
ATOM     68  C   UNL A   1      41.344  27.611  26.493  1.00  0.00     0.198 A 
ATOM     69  F   UNL A   1      41.951  29.560  27.660  1.00  0.00    -0.203 F 
ATOM     70  F   UNL A   1      39.345  24.768  27.516  1.00  0.00    -0.200 F 
ATOM     71  C   UNL A   1      40.687  26.390  26.448  1.00  0.00     0.200 A 
ATOM     72  F   UNL A   1      42.039  28.035  25.428  1.00  0.00    -0.200 F 
ATOM     73  F   UNL A   1      40.767  25.624  25.353  1.00  0.00    -0.200 F 
ENDBRANCH  49  63
BRANCH  50  74
ATOM     74  C   UNL A   1      39.539  33.844  36.805  1.00  0.00     0.064 A 
ATOM     75  C   UNL A   1      38.778  33.418  37.902  1.00  0.00     0.173 A 
ATOM     76  C   UNL A   1      40.144  35.106  36.883  1.00  0.00     0.173 A 
ATOM     77  F   UNL A   1      38.163  32.225  37.868  1.00  0.00    -0.203 F 
ATOM     78  C   UNL A   1      38.604  34.231  39.019  1.00  0.00     0.198 A 
ATOM     79  C   UNL A   1      39.999  35.906  38.014  1.00  0.00     0.198 A 
ATOM     80  F   UNL A   1      40.889  35.560  35.864  1.00  0.00    -0.203 F 
ATOM     81  F   UNL A   1      37.829  33.820  40.031  1.00  0.00    -0.200 F 
ATOM     82  C   UNL A   1      39.221  35.473  39.077  1.00  0.00     0.200 A 
ATOM     83  F   UNL A   1      40.609  37.098  38.074  1.00  0.00    -0.200 F 
ATOM     84  F   UNL A   1      39.057  36.253  40.153  1.00  0.00    -0.200 F 
ENDBRANCH  50  74
BRANCH  62  85
ATOM     85  C   UNL A   1      44.045  28.836  35.013  1.00  0.00     0.064 A 
ATOM     86  C   UNL A   1      45.323  29.395  34.868  1.00  0.00     0.173 A 
ATOM     87  C   UNL A   1      43.908  27.728  35.865  1.00  0.00     0.173 A 
ATOM     88  F   UNL A   1      45.512  30.446  34.055  1.00  0.00    -0.203 F 
ATOM     89  C   UNL A   1      46.422  28.850  35.525  1.00  0.00     0.198 A 
ATOM     90  C   UNL A   1      45.002  27.207  36.549  1.00  0.00     0.198 A 
ATOM     91  F   UNL A   1      42.706  27.159  36.046  1.00  0.00    -0.203 F 
ATOM     92  F   UNL A   1      47.643  29.367  35.329  1.00  0.00    -0.200 F 
ATOM     93  C   UNL A   1      46.260  27.763  36.372  1.00  0.00     0.200 A 
ATOM     94  F   UNL A   1      44.839  26.168  37.380  1.00  0.00    -0.200 F 
ATOM     95  F   UNL A   1      47.318  27.245  37.011  1.00  0.00    -0.200 F 
ENDBRANCH  62  85
ENDBRANCH  36  37
ENDBRANCH  28  31
ENDBRANCH  26  27
ENDBRANCH  25  26
ENDBRANCH   1  25
TORSDOF 14
ENDMDL
MODEL 2
REMARK VINA RESULT:     -12.8      1.499      2.712
REMARK SMILES Cc1ccc(-c2c[nH]c(=O)cc2C(=O)NCCCCCCNC(=O)c2ccc(-c3c4nc(c(-c5c(F)c(F)c(F)c(F)c5F)c5ccc([nH]5)c(-c5c(F)c(F)c(F)c(F)c5F)c5nc(c(-c6c(F)c(F)c(F)c(F)c6F)c6ccc3[nH]6)C=C5)C=C4)cc2)cc1Cl
REMARK SMILES IDX 19 1 18 2 17 3 16 4 15 5 13 6 14 7 12 9 6 10 7 11 8 12 11 13
REMARK SMILES IDX 9 14 10 16 5 17 1 18 2 19 3 20 89 21 4 22 88 23 90 24 20 25
REMARK SMILES IDX 21 26 22 27 23 28 24 30 25 31 26 32 87 33 27 34 86 35 28 36
REMARK SMILES IDX 29 37 30 38 80 39 31 40 85 41 79 42 81 43 32 44 84 45 78 46
REMARK SMILES IDX 77 47 33 49 65 50 45 51 64 52 46 53 49 54 63 55 82 56 47 57
REMARK SMILES IDX 48 58 62 60 83 61 50 62 34 63 35 64 43 65 36 66 37 67 41 68
REMARK SMILES IDX 44 69 38 70 39 71 42 72 40 73 66 74 67 75 75 76 68 77 69 78
REMARK SMILES IDX 73 79 76 80 70 81 71 82 74 83 72 84 51 85 52 86 60 87 53 88
REMARK SMILES IDX 54 89 58 90 61 91 55 92 56 93 59 94 57 95
REMARK H PARENT 15 8 8 15 22 29 81 48 49 59
REMARK Flexibility Score: inf
ROOT
ATOM      1  C   UNL A   1      31.561  30.514  25.739  1.00  0.00     0.002 C 
ENDROOT
BRANCH   1   2
ATOM      2  C   UNL A   1      32.928  29.856  25.970  1.00  0.00     0.002 C 
BRANCH   2   3
ATOM      3  C   UNL A   1      32.888  28.552  26.784  1.00  0.00     0.021 C 
BRANCH   3   4
ATOM      4  C   UNL A   1      31.549  28.323  27.485  1.00  0.00     0.116 C 
BRANCH   4   5
ATOM      5  N   UNL A   1      31.049  27.001  27.181  1.00  0.00    -0.352 N 
ATOM      6  C   UNL A   1      30.751  26.283  26.074  1.00  0.00     0.252 C 
ATOM      7  O   UNL A   1      30.295  25.166  26.336  1.00  0.00    -0.269 OA
ATOM      8  H   UNL A   1      30.882  26.483  28.002  1.00  0.00     0.163 HD
BRANCH   6   9
ATOM      9  C   UNL A   1      30.982  26.715  24.641  1.00  0.00     0.054 A 
ATOM     10  C   UNL A   1      32.194  26.241  23.918  1.00  0.00     0.011 A 
ATOM     11  C   UNL A   1      32.469  26.748  22.699  1.00  0.00     0.095 A 
ATOM     12  N   UNL A   1      31.647  27.665  22.106  1.00  0.00    -0.328 N 
ATOM     13  C   UNL A   1      30.128  27.511  23.975  1.00  0.00     0.086 A 
ATOM     14  C   UNL A   1      30.467  28.084  22.651  1.00  0.00     0.248 A 
ATOM     15  H   UNL A   1      31.920  28.044  21.239  1.00  0.00     0.169 HD
ATOM     16  O   UNL A   1      29.729  28.893  22.107  1.00  0.00    -0.270 OA
BRANCH  10  17
ATOM     17  C   UNL A   1      33.113  25.172  24.369  1.00  0.00    -0.015 A 
ATOM     18  C   UNL A   1      35.902  22.111  25.624  1.00  0.00     0.046 C 
ATOM     19  C   UNL A   1      34.912  23.157  25.197  1.00  0.00    -0.032 A 
ATOM     20  C   UNL A   1      35.168  24.504  25.484  1.00  0.00     0.005 A 
ATOM     21  C   UNL A   1      33.732  22.829  24.512  1.00  0.00     0.044 A 
ATOM     22  C   UNL A   1      34.271  25.499  25.089  1.00  0.00     0.009 A 
ATOM     23  C   UNL A   1      32.845  23.827  24.094  1.00  0.00     0.029 A 
ATOM     24  Cl  UNL A   1      33.319  21.189  24.159  1.00  0.00    -0.084 Cl
ENDBRANCH  10  17
ENDBRANCH   6   9
ENDBRANCH   4   5
ENDBRANCH   3   4
ENDBRANCH   2   3
ENDBRANCH   1   2
BRANCH   1  25
ATOM     25  C   UNL A   1      31.340  31.813  26.517  1.00  0.00     0.021 C 
BRANCH  25  26
ATOM     26  C   UNL A   1      32.623  32.431  27.056  1.00  0.00     0.116 C 
BRANCH  26  27
ATOM     27  N   UNL A   1      32.434  33.831  27.404  1.00  0.00    -0.352 N 
ATOM     28  C   UNL A   1      33.016  34.555  28.412  1.00  0.00     0.251 C 
ATOM     29  H   UNL A   1      31.800  34.326  26.838  1.00  0.00     0.163 HD
ATOM     30  O   UNL A   1      32.565  35.650  28.731  1.00  0.00    -0.269 OA
BRANCH  28  31
ATOM     31  C   UNL A   1      34.189  34.003  29.118  1.00  0.00     0.039 A 
ATOM     32  C   UNL A   1      33.990  33.067  30.135  1.00  0.00     0.014 A 
ATOM     33  C   UNL A   1      35.480  34.422  28.784  1.00  0.00     0.014 A 
ATOM     34  C   UNL A   1      35.094  32.518  30.789  1.00  0.00     0.010 A 
ATOM     35  C   UNL A   1      36.579  33.812  29.378  1.00  0.00     0.010 A 
ATOM     36  C   UNL A   1      36.398  32.868  30.399  1.00  0.00    -0.014 A 
BRANCH  36  37
ATOM     37  C   UNL A   1      37.584  32.277  31.065  1.00  0.00     0.031 A 
ATOM     38  C   UNL A   1      38.358  31.183  30.386  1.00  0.00     0.074 A 
ATOM     39  C   UNL A   1      37.929  32.688  32.301  1.00  0.00     0.049 A 
ATOM     40  N   UNL A   1      39.384  30.497  30.825  1.00  0.00    -0.248 NA
ATOM     41  C   UNL A   1      37.903  30.786  29.044  1.00  0.00     0.031 C 
ATOM     42  C   UNL A   1      37.230  33.713  33.077  1.00  0.00     0.029 A 
ATOM     43  N   UNL A   1      38.951  32.286  33.123  1.00  0.00    -0.354 N 
ATOM     44  C   UNL A   1      39.685  29.586  29.821  1.00  0.00     0.074 A 
ATOM     45  C   UNL A   1      38.697  29.759  28.780  1.00  0.00     0.031 C 
ATOM     46  C   UNL A   1      37.860  33.881  34.250  1.00  0.00     0.029 A 
ATOM     47  C   UNL A   1      38.979  32.947  34.328  1.00  0.00     0.049 A 
ATOM     48  H   UNL A   1      39.602  31.593  32.874  1.00  0.00     0.167 HD
ATOM     49  C   UNL A   1      40.711  28.703  29.760  1.00  0.00     0.037 A 
ATOM     50  C   UNL A   1      39.809  32.806  35.378  1.00  0.00     0.037 A 
ATOM     51  C   UNL A   1      41.700  28.547  30.794  1.00  0.00     0.049 A 
ATOM     52  C   UNL A   1      40.926  31.797  35.297  1.00  0.00     0.074 A 
ATOM     53  C   UNL A   1      42.806  27.716  30.812  1.00  0.00     0.029 A 
ATOM     54  N   UNL A   1      41.698  29.236  31.999  1.00  0.00    -0.354 N 
ATOM     55  N   UNL A   1      41.242  30.987  34.316  1.00  0.00    -0.248 NA
ATOM     56  C   UNL A   1      41.804  31.690  36.469  1.00  0.00     0.031 C 
ATOM     57  C   UNL A   1      43.439  27.859  32.050  1.00  0.00     0.029 A 
ATOM     58  C   UNL A   1      42.770  28.829  32.778  1.00  0.00     0.049 A 
ATOM     59  H   UNL A   1      41.034  29.914  32.261  1.00  0.00     0.167 HD
ATOM     60  C   UNL A   1      42.374  30.302  34.736  1.00  0.00     0.074 A 
ATOM     61  C   UNL A   1      42.697  30.802  36.056  1.00  0.00     0.031 C 
ATOM     62  C   UNL A   1      43.084  29.347  34.086  1.00  0.00     0.037 A 
BRANCH  49  63
ATOM     63  C   UNL A   1      40.812  27.839  28.535  1.00  0.00     0.064 A 
ATOM     64  C   UNL A   1      40.144  26.608  28.444  1.00  0.00     0.173 A 
ATOM     65  C   UNL A   1      41.566  28.257  27.428  1.00  0.00     0.173 A 
ATOM     66  F   UNL A   1      39.419  26.154  29.477  1.00  0.00    -0.203 F 
ATOM     67  C   UNL A   1      40.257  25.811  27.306  1.00  0.00     0.198 A 
ATOM     68  C   UNL A   1      41.647  27.475  26.278  1.00  0.00     0.198 A 
ATOM     69  F   UNL A   1      42.221  29.427  27.458  1.00  0.00    -0.203 F 
ATOM     70  F   UNL A   1      39.659  24.613  27.267  1.00  0.00    -0.200 F 
ATOM     71  C   UNL A   1      41.001  26.249  26.222  1.00  0.00     0.200 A 
ATOM     72  F   UNL A   1      42.354  27.908  25.224  1.00  0.00    -0.200 F 
ATOM     73  F   UNL A   1      41.104  25.486  25.126  1.00  0.00    -0.200 F 
ENDBRANCH  49  63
BRANCH  50  74
ATOM     74  C   UNL A   1      39.637  33.657  36.585  1.00  0.00     0.064 A 
ATOM     75  C   UNL A   1      38.820  33.244  37.646  1.00  0.00     0.173 A 
ATOM     76  C   UNL A   1      40.274  34.901  36.699  1.00  0.00     0.173 A 
ATOM     77  F   UNL A   1      38.174  32.070  37.577  1.00  0.00    -0.203 F 
ATOM     78  C   UNL A   1      38.625  34.053  38.763  1.00  0.00     0.198 A 
ATOM     79  C   UNL A   1      40.105  35.696  37.831  1.00  0.00     0.198 A 
ATOM     80  F   UNL A   1      41.072  35.341  35.716  1.00  0.00    -0.203 F 
ATOM     81  F   UNL A   1      37.797  33.656  39.739  1.00  0.00    -0.200 F 
ATOM     82  C   UNL A   1      39.273  35.276  38.857  1.00  0.00     0.200 A 
ATOM     83  F   UNL A   1      40.746  36.869  37.926  1.00  0.00    -0.200 F 
ATOM     84  F   UNL A   1      39.088  36.053  39.933  1.00  0.00    -0.200 F 
ENDBRANCH  50  74
BRANCH  62  85
ATOM     85  C   UNL A   1      44.310  28.813  34.770  1.00  0.00     0.064 A 
ATOM     86  C   UNL A   1      45.563  29.428  34.633  1.00  0.00     0.173 A 
ATOM     87  C   UNL A   1      44.220  27.691  35.609  1.00  0.00     0.173 A 
ATOM     88  F   UNL A   1      45.708  30.495  33.832  1.00  0.00    -0.203 F 
ATOM     89  C   UNL A   1      46.685  28.921  35.284  1.00  0.00     0.198 A 
ATOM     90  C   UNL A   1      45.335  27.209  36.289  1.00  0.00     0.198 A 
ATOM     91  F   UNL A   1      43.043  27.070  35.783  1.00  0.00    -0.203 F 
ATOM     92  F   UNL A   1      47.882  29.492  35.095  1.00  0.00    -0.200 F 
ATOM     93  C   UNL A   1      46.568  27.819  36.119  1.00  0.00     0.200 A 
ATOM     94  F   UNL A   1      45.216  26.155  37.107  1.00  0.00    -0.200 F 
ATOM     95  F   UNL A   1      47.647  27.338  36.752  1.00  0.00    -0.200 F 
ENDBRANCH  62  85
ENDBRANCH  36  37
ENDBRANCH  28  31
ENDBRANCH  26  27
ENDBRANCH  25  26
ENDBRANCH   1  25
TORSDOF 14
ENDMDL
MODEL 3
REMARK VINA RESULT:     -12.7      0.059      1.584
REMARK SMILES Cc1ccc(-c2c[nH]c(=O)cc2C(=O)NCCCCCCNC(=O)c2ccc(-c3c4nc(c(-c5c(F)c(F)c(F)c(F)c5F)c5ccc([nH]5)c(-c5c(F)c(F)c(F)c(F)c5F)c5nc(c(-c6c(F)c(F)c(F)c(F)c6F)c6ccc3[nH]6)C=C5)C=C4)cc2)cc1Cl
REMARK SMILES IDX 19 1 18 2 17 3 16 4 15 5 13 6 14 7 12 9 6 10 7 11 8 12 11 13
REMARK SMILES IDX 9 14 10 16 5 17 1 18 2 19 3 20 89 21 4 22 88 23 90 24 20 25
REMARK SMILES IDX 21 26 22 27 23 28 24 30 25 31 26 32 87 33 27 34 86 35 28 36
REMARK SMILES IDX 29 37 30 38 80 39 31 40 85 41 79 42 81 43 32 44 84 45 78 46
REMARK SMILES IDX 77 47 33 49 65 50 45 51 64 52 46 53 49 54 63 55 82 56 47 57
REMARK SMILES IDX 48 58 62 60 83 61 50 62 34 63 35 64 43 65 36 66 37 67 41 68
REMARK SMILES IDX 44 69 38 70 39 71 42 72 40 73 66 74 67 75 75 76 68 77 69 78
REMARK SMILES IDX 73 79 76 80 70 81 71 82 74 83 72 84 51 85 52 86 60 87 53 88
REMARK SMILES IDX 54 89 58 90 61 91 55 92 56 93 59 94 57 95
REMARK H PARENT 15 8 8 15 22 29 81 48 49 59
REMARK Flexibility Score: inf
ROOT
ATOM      1  C   UNL A   1      31.390  30.860  26.144  1.00  0.00     0.002 C 
ENDROOT
BRANCH   1   2
ATOM      2  C   UNL A   1      32.555  30.108  26.803  1.00  0.00     0.002 C 
BRANCH   2   3
ATOM      3  C   UNL A   1      33.468  29.349  25.826  1.00  0.00     0.021 C 
BRANCH   3   4
ATOM      4  C   UNL A   1      33.726  27.902  26.247  1.00  0.00     0.116 C 
BRANCH   4   5
ATOM      5  N   UNL A   1      32.477  27.177  26.324  1.00  0.00    -0.352 N 
ATOM      6  C   UNL A   1      31.717  26.419  25.502  1.00  0.00     0.252 C 
ATOM      7  O   UNL A   1      30.671  26.038  26.033  1.00  0.00    -0.269 OA
ATOM      8  H   UNL A   1      32.070  27.257  27.218  1.00  0.00     0.163 HD
BRANCH   6   9
ATOM      9  C   UNL A   1      32.078  25.993  24.094  1.00  0.00     0.054 A 
ATOM     10  C   UNL A   1      31.326  26.559  22.941  1.00  0.00     0.011 A 
ATOM     11  C   UNL A   1      31.551  26.064  21.706  1.00  0.00     0.095 A 
ATOM     12  N   UNL A   1      32.471  25.077  21.491  1.00  0.00    -0.328 N 
ATOM     13  C   UNL A   1      33.068  25.123  23.829  1.00  0.00     0.086 A 
ATOM     14  C   UNL A   1      33.274  24.568  22.470  1.00  0.00     0.248 A 
ATOM     15  H   UNL A   1      32.560  24.714  20.580  1.00  0.00     0.169 HD
ATOM     16  O   UNL A   1      34.106  23.695  22.266  1.00  0.00    -0.270 OA
BRANCH  10  17
ATOM     17  C   UNL A   1      30.389  27.704  22.991  1.00  0.00    -0.015 A 
ATOM     18  C   UNL A   1      27.726  31.106  23.233  1.00  0.00     0.046 C 
ATOM     19  C   UNL A   1      28.631  29.911  23.134  1.00  0.00    -0.032 A 
ATOM     20  C   UNL A   1      29.996  30.101  22.880  1.00  0.00     0.005 A 
ATOM     21  C   UNL A   1      28.153  28.601  23.291  1.00  0.00     0.044 A 
ATOM     22  C   UNL A   1      30.862  29.009  22.792  1.00  0.00     0.009 A 
ATOM     23  C   UNL A   1      29.024  27.508  23.229  1.00  0.00     0.029 A 
ATOM     24  Cl  UNL A   1      26.477  28.278  23.562  1.00  0.00    -0.084 Cl
ENDBRANCH  10  17
ENDBRANCH   6   9
ENDBRANCH   4   5
ENDBRANCH   3   4
ENDBRANCH   2   3
ENDBRANCH   1   2
BRANCH   1  25
ATOM     25  C   UNL A   1      31.312  32.348  26.493  1.00  0.00     0.021 C 
BRANCH  25  26
ATOM     26  C   UNL A   1      32.524  32.862  27.259  1.00  0.00     0.116 C 
BRANCH  26  27
ATOM     27  N   UNL A   1      32.377  34.267  27.607  1.00  0.00    -0.352 N 
ATOM     28  C   UNL A   1      32.981  34.974  28.613  1.00  0.00     0.251 C 
ATOM     29  H   UNL A   1      31.757  34.780  27.041  1.00  0.00     0.163 HD
ATOM     30  O   UNL A   1      32.564  36.082  28.932  1.00  0.00    -0.269 OA
BRANCH  28  31
ATOM     31  C   UNL A   1      34.139  34.388  29.318  1.00  0.00     0.039 A 
ATOM     32  C   UNL A   1      33.925  33.680  30.502  1.00  0.00     0.014 A 
ATOM     33  C   UNL A   1      35.433  34.552  28.816  1.00  0.00     0.014 A 
ATOM     34  C   UNL A   1      35.008  33.098  31.161  1.00  0.00     0.010 A 
ATOM     35  C   UNL A   1      36.499  33.901  29.427  1.00  0.00     0.010 A 
ATOM     36  C   UNL A   1      36.300  33.183  30.615  1.00  0.00    -0.014 A 
BRANCH  36  37
ATOM     37  C   UNL A   1      37.461  32.551  31.288  1.00  0.00     0.031 A 
ATOM     38  C   UNL A   1      38.198  31.428  30.613  1.00  0.00     0.074 A 
ATOM     39  C   UNL A   1      37.816  32.951  32.524  1.00  0.00     0.049 A 
ATOM     40  N   UNL A   1      39.196  30.706  31.058  1.00  0.00    -0.248 NA
ATOM     41  C   UNL A   1      37.734  31.045  29.270  1.00  0.00     0.031 C 
ATOM     42  C   UNL A   1      37.152  34.003  33.295  1.00  0.00     0.029 A 
ATOM     43  N   UNL A   1      38.820  32.514  33.351  1.00  0.00    -0.354 N 
ATOM     44  C   UNL A   1      39.468  29.783  30.056  1.00  0.00     0.074 A 
ATOM     45  C   UNL A   1      38.491  29.990  29.012  1.00  0.00     0.031 C 
ATOM     46  C   UNL A   1      37.784  34.150  34.471  1.00  0.00     0.029 A 
ATOM     47  C   UNL A   1      38.867  33.175  34.555  1.00  0.00     0.049 A 
ATOM     48  H   UNL A   1      39.446  31.797  33.105  1.00  0.00     0.167 HD
ATOM     49  C   UNL A   1      40.461  28.863  30.001  1.00  0.00     0.037 A 
ATOM     50  C   UNL A   1      39.688  33.006  35.608  1.00  0.00     0.037 A 
ATOM     51  C   UNL A   1      41.440  28.673  31.039  1.00  0.00     0.049 A 
ATOM     52  C   UNL A   1      40.767  31.958  35.533  1.00  0.00     0.074 A 
ATOM     53  C   UNL A   1      42.515  27.802  31.063  1.00  0.00     0.029 A 
ATOM     54  N   UNL A   1      41.459  29.364  32.244  1.00  0.00    -0.354 N 
ATOM     55  N   UNL A   1      41.057  31.134  34.555  1.00  0.00    -0.248 NA
ATOM     56  C   UNL A   1      41.637  31.821  36.709  1.00  0.00     0.031 C 
ATOM     57  C   UNL A   1      43.148  27.924  32.304  1.00  0.00     0.029 A 
ATOM     58  C   UNL A   1      42.512  28.920  33.028  1.00  0.00     0.049 A 
ATOM     59  H   UNL A   1      40.819  30.066  32.502  1.00  0.00     0.167 HD
ATOM     60  C   UNL A   1      42.162  30.410  34.981  1.00  0.00     0.074 A 
ATOM     61  C   UNL A   1      42.498  30.900  36.301  1.00  0.00     0.031 C 
ATOM     62  C   UNL A   1      42.839  29.428  34.336  1.00  0.00     0.037 A 
BRANCH  49  63
ATOM     63  C   UNL A   1      40.536  27.993  28.779  1.00  0.00     0.064 A 
ATOM     64  C   UNL A   1      41.305  28.355  27.661  1.00  0.00     0.173 A 
ATOM     65  C   UNL A   1      39.849  26.770  28.731  1.00  0.00     0.173 A 
ATOM     66  F   UNL A   1      41.972  29.518  27.648  1.00  0.00    -0.203 F 
ATOM     67  C   UNL A   1      41.355  27.544  26.530  1.00  0.00     0.198 A 
ATOM     68  C   UNL A   1      39.930  25.944  27.612  1.00  0.00     0.198 A 
ATOM     69  F   UNL A   1      39.103  26.372  29.772  1.00  0.00    -0.203 F 
ATOM     70  F   UNL A   1      42.047  27.940  25.454  1.00  0.00    -0.200 F 
ATOM     71  C   UNL A   1      40.674  26.336  26.509  1.00  0.00     0.200 A 
ATOM     72  F   UNL A   1      39.285  24.770  27.600  1.00  0.00    -0.200 F 
ATOM     73  F   UNL A   1      40.728  25.554  25.423  1.00  0.00    -0.200 F 
ENDBRANCH  49  63
BRANCH  50  74
ATOM     74  C   UNL A   1      39.542  33.866  36.813  1.00  0.00     0.064 A 
ATOM     75  C   UNL A   1      40.166  35.119  36.883  1.00  0.00     0.173 A 
ATOM     76  C   UNL A   1      38.787  33.452  37.920  1.00  0.00     0.173 A 
ATOM     77  F   UNL A   1      40.914  35.553  35.857  1.00  0.00    -0.203 F 
ATOM     78  C   UNL A   1      40.064  35.913  38.022  1.00  0.00     0.198 A 
ATOM     79  C   UNL A   1      38.657  34.260  39.046  1.00  0.00     0.198 A 
ATOM     80  F   UNL A   1      38.163  32.265  37.903  1.00  0.00    -0.203 F 
ATOM     81  F   UNL A   1      40.714  37.083  38.082  1.00  0.00    -0.200 F 
ATOM     82  C   UNL A   1      39.304  35.486  39.101  1.00  0.00     0.200 A 
ATOM     83  F   UNL A   1      37.909  33.851  40.080  1.00  0.00    -0.200 F 
ATOM     84  F   UNL A   1      39.203  36.251  40.196  1.00  0.00    -0.200 F 
ENDBRANCH  50  74
BRANCH  62  85
ATOM     85  C   UNL A   1      44.043  28.851  35.026  1.00  0.00     0.064 A 
ATOM     86  C   UNL A   1      45.325  29.392  34.856  1.00  0.00     0.173 A 
ATOM     87  C   UNL A   1      43.901  27.764  35.903  1.00  0.00     0.173 A 
ATOM     88  F   UNL A   1      45.519  30.423  34.018  1.00  0.00    -0.203 F 
ATOM     89  C   UNL A   1      46.425  28.847  35.513  1.00  0.00     0.198 A 
ATOM     90  C   UNL A   1      44.996  27.245  36.587  1.00  0.00     0.198 A 
ATOM     91  F   UNL A   1      42.695  27.214  36.109  1.00  0.00    -0.203 F 
ATOM     92  F   UNL A   1      47.650  29.345  35.293  1.00  0.00    -0.200 F 
ATOM     93  C   UNL A   1      46.258  27.780  36.385  1.00  0.00     0.200 A 
ATOM     94  F   UNL A   1      44.829  26.226  37.442  1.00  0.00    -0.200 F 
ATOM     95  F   UNL A   1      47.317  27.263  37.024  1.00  0.00    -0.200 F 
ENDBRANCH  62  85
ENDBRANCH  36  37
ENDBRANCH  28  31
ENDBRANCH  26  27
ENDBRANCH  25  26
ENDBRANCH   1  25
TORSDOF 14
ENDMDL
