MODEL 1
REMARK VINA RESULT:     -12.3      0.000      0.000
REMARK SMILES CCOc1ccc(C[N@H+]2CC[NH2+][C@H](C(=O)NCCCCCCNC(=O)c3ccc(-c4c5nc(c(-c6c(F)c(F)c(F)c(F)c6F)c6ccc([nH]6)c(-c6c(F)c(F)c(F)c(F)c6F)c6nc(c(-c7c(F)c(F)c(F)c(F)c7F)c7ccc4[nH]7)C=C6)C=C5)cc3)C2)c(OCC)c1C
REMARK SMILES IDX 18 1 17 2 16 3 14 4 15 5 13 7 9 8 10 9 89 10 11 12 12 13
REMARK SMILES IDX 8 16 7 17 4 18 5 19 94 20 6 21 90 22 95 23 3 24 2 25 1 26
REMARK SMILES IDX 91 27 92 28 93 29 19 30 20 31 21 32 22 33 23 34 24 35 25 37
REMARK SMILES IDX 26 38 27 39 88 40 28 41 87 42 29 43 30 44 31 45 81 46 32 47
REMARK SMILES IDX 86 48 80 49 82 50 33 51 85 52 79 53 78 54 34 56 66 57 46 58
REMARK SMILES IDX 65 59 47 60 50 61 64 62 83 63 48 64 49 65 63 67 84 68 51 69
REMARK SMILES IDX 35 70 36 71 44 72 37 73 38 74 42 75 45 76 39 77 40 78 43 79
REMARK SMILES IDX 41 80 67 81 68 82 76 83 69 84 70 85 74 86 77 87 71 88 72 89
REMARK SMILES IDX 75 90 73 91 52 92 53 93 61 94 54 95 55 96 59 97 62 98 56 99
REMARK SMILES IDX 57 100 60 101 58 102
REMARK H PARENT 16 6 9 11 12 14 12 15 23 36 82 55 50 66
REMARK Flexibility Score: inf
ROOT
ATOM      1  C   UNL A   1      33.073  28.963  24.640  1.00  0.00     0.021 C 
ENDROOT
BRANCH   1   2
ATOM      2  C   UNL A   1      31.666  29.467  24.978  1.00  0.00     0.116 C 
BRANCH   2   3
ATOM      3  N   UNL A   1      30.634  28.949  24.096  1.00  0.00    -0.351 N 
ATOM      4  C   UNL A   1      30.209  27.668  23.866  1.00  0.00     0.284 C 
ATOM      5  O   UNL A   1      29.135  27.543  23.264  1.00  0.00    -0.268 OA
ATOM      6  H   UNL A   1      30.160  29.636  23.574  1.00  0.00     0.163 HD
BRANCH   4   7
ATOM      7  C   UNL A   1      31.021  26.433  24.324  1.00  0.00     0.328 C 
ATOM      8  N   UNL A   1      31.227  23.910  23.801  1.00  0.00    -0.321 N 
ATOM      9  C   UNL A   1      31.251  23.690  25.253  1.00  0.00     0.324 C 
ATOM     10  C   UNL A   1      30.566  25.193  23.485  1.00  0.00     0.339 C 
ATOM     11  H   UNL A   1      30.628  23.195  23.390  1.00  0.00     0.348 HD
ATOM     12  C   UNL A   1      31.535  24.933  26.137  1.00  0.00     0.323 C 
ATOM     13  N   UNL A   1      30.795  26.162  25.773  1.00  0.00    -0.327 N 
ATOM     14  H   UNL A   1      31.134  26.947  26.329  1.00  0.00     0.347 HD
ATOM     15  H   UNL A   1      29.798  26.039  25.957  1.00  0.00     0.347 HD
BRANCH   8  16
ATOM     16  C   UNL A   1      32.461  23.568  23.072  1.00  0.00     0.303 C 
BRANCH  16  17
ATOM     17  C   UNL A   1      33.045  22.197  23.329  1.00  0.00     0.049 A 
ATOM     18  C   UNL A   1      33.510  19.646  24.438  1.00  0.00     0.125 A 
ATOM     19  C   UNL A   1      32.379  19.866  23.666  1.00  0.00     0.047 A 
ATOM     20  C   UNL A   1      34.489  20.656  24.542  1.00  0.00     0.034 A 
ATOM     21  C   UNL A   1      32.155  21.122  23.111  1.00  0.00     0.017 A 
ATOM     22  C   UNL A   1      34.282  21.931  23.945  1.00  0.00     0.134 A 
ATOM     23  C   UNL A   1      35.736  20.449  25.375  1.00  0.00     0.052 C 
BRANCH  18  24
ATOM     24  O   UNL A   1      33.556  18.612  25.331  1.00  0.00    -0.493 OA
BRANCH  24  25
ATOM     25  C   UNL A   1      32.507  17.653  25.348  1.00  0.00     0.226 C 
ATOM     26  C   UNL A   1      32.989  16.213  25.413  1.00  0.00     0.049 C 
ENDBRANCH  24  25
ENDBRANCH  18  24
BRANCH  22  27
ATOM     27  O   UNL A   1      35.304  22.797  24.230  1.00  0.00    -0.493 OA
BRANCH  27  28
ATOM     28  C   UNL A   1      35.298  23.784  25.250  1.00  0.00     0.226 C 
ATOM     29  C   UNL A   1      36.684  24.084  25.782  1.00  0.00     0.049 C 
ENDBRANCH  27  28
ENDBRANCH  22  27
ENDBRANCH  16  17
ENDBRANCH   8  16
ENDBRANCH   4   7
ENDBRANCH   2   3
ENDBRANCH   1   2
BRANCH   1  30
ATOM     30  C   UNL A   1      33.945  28.352  25.743  1.00  0.00     0.002 C 
BRANCH  30  31
ATOM     31  C   UNL A   1      33.541  28.594  27.202  1.00  0.00     0.002 C 
BRANCH  31  32
ATOM     32  C   UNL A   1      33.331  30.048  27.629  1.00  0.00     0.021 C 
BRANCH  32  33
ATOM     33  C   UNL A   1      34.475  31.004  27.300  1.00  0.00     0.116 C 
BRANCH  33  34
ATOM     34  N   UNL A   1      35.061  31.608  28.483  1.00  0.00    -0.352 N 
ATOM     35  C   UNL A   1      35.865  31.065  29.469  1.00  0.00     0.251 C 
ATOM     36  H   UNL A   1      34.850  32.562  28.604  1.00  0.00     0.163 HD
ATOM     37  O   UNL A   1      35.950  31.622  30.541  1.00  0.00    -0.269 OA
BRANCH  35  38
ATOM     38  C   UNL A   1      36.775  29.929  29.152  1.00  0.00     0.039 A 
ATOM     39  C   UNL A   1      37.028  29.034  30.206  1.00  0.00     0.014 A 
ATOM     40  C   UNL A   1      37.515  29.839  27.977  1.00  0.00     0.014 A 
ATOM     41  C   UNL A   1      38.157  28.220  30.171  1.00  0.00     0.010 A 
ATOM     42  C   UNL A   1      38.664  29.073  27.960  1.00  0.00     0.010 A 
ATOM     43  C   UNL A   1      39.019  28.326  29.084  1.00  0.00    -0.014 A 
BRANCH  43  44
ATOM     44  C   UNL A   1      40.362  27.772  29.077  1.00  0.00     0.031 A 
ATOM     45  C   UNL A   1      40.593  26.378  28.664  1.00  0.00     0.074 A 
ATOM     46  C   UNL A   1      41.401  28.579  29.388  1.00  0.00     0.049 A 
ATOM     47  N   UNL A   1      41.608  25.681  29.046  1.00  0.00    -0.248 NA
ATOM     48  C   UNL A   1      39.673  25.639  27.806  1.00  0.00     0.031 C 
ATOM     49  C   UNL A   1      42.822  28.307  29.196  1.00  0.00     0.029 A 
ATOM     50  N   UNL A   1      41.369  29.768  30.136  1.00  0.00    -0.354 N 
ATOM     51  C   UNL A   1      41.618  24.521  28.311  1.00  0.00     0.074 A 
ATOM     52  C   UNL A   1      40.364  24.512  27.593  1.00  0.00     0.031 C 
ATOM     53  C   UNL A   1      43.527  29.093  30.024  1.00  0.00     0.029 A 
ATOM     54  C   UNL A   1      42.574  29.787  30.872  1.00  0.00     0.049 A 
ATOM     55  H   UNL A   1      40.656  30.447  30.143  1.00  0.00     0.167 HD
ATOM     56  C   UNL A   1      42.743  23.752  28.294  1.00  0.00     0.037 A 
ATOM     57  C   UNL A   1      42.579  29.760  32.235  1.00  0.00     0.037 A 
ATOM     58  C   UNL A   1      43.788  24.319  29.134  1.00  0.00     0.049 A 
ATOM     59  C   UNL A   1      43.325  28.585  32.819  1.00  0.00     0.074 A 
ATOM     60  C   UNL A   1      44.855  25.156  28.855  1.00  0.00     0.029 A 
ATOM     61  N   UNL A   1      43.625  24.333  30.514  1.00  0.00    -0.354 N 
ATOM     62  N   UNL A   1      43.564  27.483  32.163  1.00  0.00    -0.248 NA
ATOM     63  C   UNL A   1      43.841  28.546  34.183  1.00  0.00     0.031 C 
ATOM     64  C   UNL A   1      45.312  25.709  30.075  1.00  0.00     0.029 A 
ATOM     65  C   UNL A   1      44.538  25.188  31.096  1.00  0.00     0.049 A 
ATOM     66  H   UNL A   1      42.952  23.808  31.006  1.00  0.00     0.167 HD
ATOM     67  C   UNL A   1      44.235  26.605  32.975  1.00  0.00     0.074 A 
ATOM     68  C   UNL A   1      44.396  27.322  34.225  1.00  0.00     0.031 C 
ATOM     69  C   UNL A   1      44.592  25.360  32.539  1.00  0.00     0.037 A 
BRANCH  56  70
ATOM     70  C   UNL A   1      42.970  22.649  27.298  1.00  0.00     0.064 A 
ATOM     71  C   UNL A   1      42.233  21.447  27.361  1.00  0.00     0.173 A 
ATOM     72  C   UNL A   1      43.933  22.712  26.276  1.00  0.00     0.173 A 
ATOM     73  F   UNL A   1      41.244  21.277  28.248  1.00  0.00    -0.203 F 
ATOM     74  C   UNL A   1      42.501  20.362  26.525  1.00  0.00     0.198 A 
ATOM     75  C   UNL A   1      44.235  21.608  25.471  1.00  0.00     0.198 A 
ATOM     76  F   UNL A   1      44.588  23.853  26.017  1.00  0.00    -0.203 F 
ATOM     77  F   UNL A   1      41.775  19.241  26.635  1.00  0.00    -0.200 F 
ATOM     78  C   UNL A   1      43.524  20.430  25.601  1.00  0.00     0.200 A 
ATOM     79  F   UNL A   1      45.227  21.691  24.574  1.00  0.00    -0.200 F 
ATOM     80  F   UNL A   1      43.814  19.372  24.833  1.00  0.00    -0.200 F 
ENDBRANCH  56  70
BRANCH  57  81
ATOM     81  C   UNL A   1      41.377  30.399  32.832  1.00  0.00     0.064 A 
ATOM     82  C   UNL A   1      41.286  31.804  32.788  1.00  0.00     0.173 A 
ATOM     83  C   UNL A   1      40.196  29.679  33.048  1.00  0.00     0.173 A 
ATOM     84  F   UNL A   1      42.391  32.540  32.583  1.00  0.00    -0.203 F 
ATOM     85  C   UNL A   1      40.053  32.451  32.825  1.00  0.00     0.198 A 
ATOM     86  C   UNL A   1      38.963  30.333  33.101  1.00  0.00     0.198 A 
ATOM     87  F   UNL A   1      40.217  28.340  33.093  1.00  0.00    -0.203 F 
ATOM     88  F   UNL A   1      39.990  33.780  32.660  1.00  0.00    -0.200 F 
ATOM     89  C   UNL A   1      38.890  31.712  32.952  1.00  0.00     0.200 A 
ATOM     90  F   UNL A   1      37.834  29.618  33.211  1.00  0.00    -0.200 F 
ATOM     91  F   UNL A   1      37.698  32.322  32.894  1.00  0.00    -0.200 F 
ENDBRANCH  57  81
BRANCH  69  92
ATOM     92  C   UNL A   1      45.110  24.213  33.376  1.00  0.00     0.064 A 
ATOM     93  C   UNL A   1      44.361  23.070  33.698  1.00  0.00     0.173 A 
ATOM     94  C   UNL A   1      46.477  24.166  33.756  1.00  0.00     0.173 A 
ATOM     95  F   UNL A   1      43.089  22.932  33.300  1.00  0.00    -0.203 F 
ATOM     96  C   UNL A   1      44.919  21.988  34.388  1.00  0.00     0.198 A 
ATOM     97  C   UNL A   1      47.044  23.061  34.389  1.00  0.00     0.198 A 
ATOM     98  F   UNL A   1      47.315  25.180  33.497  1.00  0.00    -0.203 F 
ATOM     99  F   UNL A   1      44.150  20.937  34.702  1.00  0.00    -0.200 F 
ATOM    100  C   UNL A   1      46.261  21.978  34.719  1.00  0.00     0.200 A 
ATOM    101  F   UNL A   1      48.359  23.048  34.653  1.00  0.00    -0.200 F 
ATOM    102  F   UNL A   1      46.802  20.916  35.331  1.00  0.00    -0.200 F 
ENDBRANCH  69  92
ENDBRANCH  43  44
ENDBRANCH  35  38
ENDBRANCH  33  34
ENDBRANCH  32  33
ENDBRANCH  31  32
ENDBRANCH  30  31
ENDBRANCH   1  30
TORSDOF 19
ENDMDL
MODEL 2
REMARK VINA RESULT:     -12.3      1.117      2.585
REMARK SMILES CCOc1ccc(C[N@H+]2CC[NH2+][C@H](C(=O)NCCCCCCNC(=O)c3ccc(-c4c5nc(c(-c6c(F)c(F)c(F)c(F)c6F)c6ccc([nH]6)c(-c6c(F)c(F)c(F)c(F)c6F)c6nc(c(-c7c(F)c(F)c(F)c(F)c7F)c7ccc4[nH]7)C=C6)C=C5)cc3)C2)c(OCC)c1C
REMARK SMILES IDX 18 1 17 2 16 3 14 4 15 5 13 7 9 8 10 9 89 10 11 12 12 13
REMARK SMILES IDX 8 16 7 17 4 18 5 19 94 20 6 21 90 22 95 23 3 24 2 25 1 26
REMARK SMILES IDX 91 27 92 28 93 29 19 30 20 31 21 32 22 33 23 34 24 35 25 37
REMARK SMILES IDX 26 38 27 39 88 40 28 41 87 42 29 43 30 44 31 45 81 46 32 47
REMARK SMILES IDX 86 48 80 49 82 50 33 51 85 52 79 53 78 54 34 56 66 57 46 58
REMARK SMILES IDX 65 59 47 60 50 61 64 62 83 63 48 64 49 65 63 67 84 68 51 69
REMARK SMILES IDX 35 70 36 71 44 72 37 73 38 74 42 75 45 76 39 77 40 78 43 79
REMARK SMILES IDX 41 80 67 81 68 82 76 83 69 84 70 85 74 86 77 87 71 88 72 89
REMARK SMILES IDX 75 90 73 91 52 92 53 93 61 94 54 95 55 96 59 97 62 98 56 99
REMARK SMILES IDX 57 100 60 101 58 102
REMARK H PARENT 16 6 9 11 12 14 12 15 23 36 82 55 50 66
REMARK Flexibility Score: inf
ROOT
ATOM      1  C   UNL A   1      32.754  28.734  24.133  1.00  0.00     0.021 C 
ENDROOT
BRANCH   1   2
ATOM      2  C   UNL A   1      31.382  29.099  24.707  1.00  0.00     0.116 C 
BRANCH   2   3
ATOM      3  N   UNL A   1      30.272  28.490  23.994  1.00  0.00    -0.351 N 
ATOM      4  C   UNL A   1      29.836  27.193  23.950  1.00  0.00     0.284 C 
ATOM      5  O   UNL A   1      28.709  27.006  23.475  1.00  0.00    -0.268 OA
ATOM      6  H   UNL A   1      29.743  29.118  23.451  1.00  0.00     0.163 HD
BRANCH   4   7
ATOM      7  C   UNL A   1      30.700  26.013  24.457  1.00  0.00     0.328 C 
ATOM      8  N   UNL A   1      30.968  23.470  24.085  1.00  0.00    -0.321 N 
ATOM      9  C   UNL A   1      31.043  23.343  25.546  1.00  0.00     0.324 C 
ATOM     10  C   UNL A   1      30.259  24.710  23.711  1.00  0.00     0.339 C 
ATOM     11  H   UNL A   1      30.380  22.713  23.738  1.00  0.00     0.348 HD
ATOM     12  C   UNL A   1      31.314  24.646  26.343  1.00  0.00     0.323 C 
ATOM     13  N   UNL A   1      30.525  25.828  25.927  1.00  0.00    -0.327 N 
ATOM     14  H   UNL A   1      30.857  26.655  26.422  1.00  0.00     0.347 HD
ATOM     15  H   UNL A   1      29.539  25.687  26.149  1.00  0.00     0.347 HD
BRANCH   8  16
ATOM     16  C   UNL A   1      32.190  23.119  23.340  1.00  0.00     0.303 C 
BRANCH  16  17
ATOM     17  C   UNL A   1      33.445  22.899  24.154  1.00  0.00     0.049 A 
ATOM     18  C   UNL A   1      36.157  22.742  24.909  1.00  0.00     0.125 A 
ATOM     19  C   UNL A   1      35.560  23.982  24.740  1.00  0.00     0.047 A 
ATOM     20  C   UNL A   1      35.369  21.575  24.843  1.00  0.00     0.034 A 
ATOM     21  C   UNL A   1      34.219  24.059  24.378  1.00  0.00     0.017 A 
ATOM     22  C   UNL A   1      33.988  21.650  24.509  1.00  0.00     0.134 A 
ATOM     23  C   UNL A   1      35.988  20.205  25.024  1.00  0.00     0.052 C 
BRANCH  18  24
ATOM     24  O   UNL A   1      37.516  22.605  24.835  1.00  0.00    -0.493 OA
BRANCH  24  25
ATOM     25  C   UNL A   1      38.304  22.792  26.003  1.00  0.00     0.226 C 
ATOM     26  C   UNL A   1      39.429  21.782  26.155  1.00  0.00     0.049 C 
ENDBRANCH  24  25
ENDBRANCH  18  24
BRANCH  22  27
ATOM     27  O   UNL A   1      33.420  20.408  24.413  1.00  0.00    -0.493 OA
BRANCH  27  28
ATOM     28  C   UNL A   1      32.577  19.957  23.363  1.00  0.00     0.226 C 
ATOM     29  C   UNL A   1      32.325  18.464  23.417  1.00  0.00     0.049 C 
ENDBRANCH  27  28
ENDBRANCH  22  27
ENDBRANCH  16  17
ENDBRANCH   8  16
ENDBRANCH   4   7
ENDBRANCH   2   3
ENDBRANCH   1   2
BRANCH   1  30
ATOM     30  C   UNL A   1      33.908  28.391  25.083  1.00  0.00     0.002 C 
BRANCH  30  31
ATOM     31  C   UNL A   1      33.561  27.944  26.509  1.00  0.00     0.002 C 
BRANCH  31  32
ATOM     32  C   UNL A   1      33.675  28.998  27.611  1.00  0.00     0.021 C 
BRANCH  32  33
ATOM     33  C   UNL A   1      33.761  30.446  27.133  1.00  0.00     0.116 C 
BRANCH  33  34
ATOM     34  N   UNL A   1      34.349  31.331  28.124  1.00  0.00    -0.352 N 
ATOM     35  C   UNL A   1      35.337  31.103  29.065  1.00  0.00     0.251 C 
ATOM     36  H   UNL A   1      33.982  32.245  28.126  1.00  0.00     0.163 HD
ATOM     37  O   UNL A   1      35.431  31.841  30.019  1.00  0.00    -0.269 OA
BRANCH  35  38
ATOM     38  C   UNL A   1      36.400  30.092  28.804  1.00  0.00     0.039 A 
ATOM     39  C   UNL A   1      36.735  29.262  29.888  1.00  0.00     0.014 A 
ATOM     40  C   UNL A   1      37.183  30.075  27.655  1.00  0.00     0.014 A 
ATOM     41  C   UNL A   1      37.963  28.605  29.908  1.00  0.00     0.010 A 
ATOM     42  C   UNL A   1      38.424  29.470  27.691  1.00  0.00     0.010 A 
ATOM     43  C   UNL A   1      38.838  28.802  28.844  1.00  0.00    -0.014 A 
BRANCH  43  44
ATOM     44  C   UNL A   1      40.242  28.432  28.892  1.00  0.00     0.031 A 
ATOM     45  C   UNL A   1      40.679  27.099  28.448  1.00  0.00     0.074 A 
ATOM     46  C   UNL A   1      41.146  29.358  29.284  1.00  0.00     0.049 A 
ATOM     47  N   UNL A   1      41.759  26.528  28.861  1.00  0.00    -0.248 NA
ATOM     48  C   UNL A   1      39.910  26.278  27.518  1.00  0.00     0.031 C 
ATOM     49  C   UNL A   1      42.599  29.285  29.160  1.00  0.00     0.029 A 
ATOM     50  N   UNL A   1      40.917  30.502  30.067  1.00  0.00    -0.354 N 
ATOM     51  C   UNL A   1      41.961  25.409  28.090  1.00  0.00     0.074 A 
ATOM     52  C   UNL A   1      40.756  25.262  27.306  1.00  0.00     0.031 C 
ATOM     53  C   UNL A   1      43.150  30.124  30.049  1.00  0.00     0.029 A 
ATOM     54  C   UNL A   1      42.072  30.652  30.867  1.00  0.00     0.049 A 
ATOM     55  H   UNL A   1      40.120  31.079  30.058  1.00  0.00     0.167 HD
ATOM     56  C   UNL A   1      43.179  24.799  28.109  1.00  0.00     0.037 A 
ATOM     57  C   UNL A   1      42.014  30.573  32.227  1.00  0.00     0.037 A 
ATOM     58  C   UNL A   1      44.096  25.466  29.022  1.00  0.00     0.049 A 
ATOM     59  C   UNL A   1      42.882  29.486  32.811  1.00  0.00     0.074 A 
ATOM     60  C   UNL A   1      45.053  26.449  28.828  1.00  0.00     0.029 A 
ATOM     61  N   UNL A   1      43.865  25.404  30.391  1.00  0.00    -0.354 N 
ATOM     62  N   UNL A   1      43.299  28.452  32.135  1.00  0.00    -0.248 NA
ATOM     63  C   UNL A   1      43.331  29.463  34.200  1.00  0.00     0.031 C 
ATOM     64  C   UNL A   1      45.371  27.009  30.087  1.00  0.00     0.029 A 
ATOM     65  C   UNL A   1      44.625  26.350  31.049  1.00  0.00     0.049 A 
ATOM     66  H   UNL A   1      43.246  24.776  30.829  1.00  0.00     0.167 HD
ATOM     67  C   UNL A   1      44.042  27.639  32.953  1.00  0.00     0.074 A 
ATOM     68  C   UNL A   1      44.043  28.322  34.232  1.00  0.00     0.031 C 
ATOM     69  C   UNL A   1      44.584  26.471  32.497  1.00  0.00     0.037 A 
BRANCH  56  70
ATOM     70  C   UNL A   1      43.601  23.776  27.092  1.00  0.00     0.064 A 
ATOM     71  C   UNL A   1      44.444  24.122  26.015  1.00  0.00     0.173 A 
ATOM     72  C   UNL A   1      43.173  22.437  27.114  1.00  0.00     0.173 A 
ATOM     73  F   UNL A   1      44.973  25.348  25.905  1.00  0.00    -0.203 F 
ATOM     74  C   UNL A   1      44.758  23.225  24.993  1.00  0.00     0.198 A 
ATOM     75  C   UNL A   1      43.446  21.552  26.065  1.00  0.00     0.198 A 
ATOM     76  F   UNL A   1      42.497  21.948  28.164  1.00  0.00    -0.203 F 
ATOM     77  F   UNL A   1      45.557  23.613  23.989  1.00  0.00    -0.200 F 
ATOM     78  C   UNL A   1      44.233  21.949  25.001  1.00  0.00     0.200 A 
ATOM     79  F   UNL A   1      42.935  20.313  26.089  1.00  0.00    -0.200 F 
ATOM     80  F   UNL A   1      44.494  21.103  23.995  1.00  0.00    -0.200 F 
ENDBRANCH  56  70
BRANCH  57  81
ATOM     81  C   UNL A   1      40.708  31.022  32.779  1.00  0.00     0.064 A 
ATOM     82  C   UNL A   1      40.403  32.396  32.713  1.00  0.00     0.173 A 
ATOM     83  C   UNL A   1      39.647  30.130  32.968  1.00  0.00     0.173 A 
ATOM     84  F   UNL A   1      41.386  33.293  32.533  1.00  0.00    -0.203 F 
ATOM     85  C   UNL A   1      39.084  32.844  32.705  1.00  0.00     0.198 A 
ATOM     86  C   UNL A   1      38.327  30.585  32.974  1.00  0.00     0.198 A 
ATOM     87  F   UNL A   1      39.873  28.811  33.030  1.00  0.00    -0.203 F 
ATOM     88  F   UNL A   1      38.822  34.146  32.521  1.00  0.00    -0.200 F 
ATOM     89  C   UNL A   1      38.045  31.935  32.805  1.00  0.00     0.200 A 
ATOM     90  F   UNL A   1      37.319  29.705  33.058  1.00  0.00    -0.200 F 
ATOM     91  F   UNL A   1      36.776  32.353  32.704  1.00  0.00    -0.200 F 
ENDBRANCH  57  81
BRANCH  69  92
ATOM     92  C   UNL A   1      45.211  25.371  33.323  1.00  0.00     0.064 A 
ATOM     93  C   UNL A   1      46.594  25.151  33.424  1.00  0.00     0.173 A 
ATOM     94  C   UNL A   1      44.409  24.584  34.190  1.00  0.00     0.173 A 
ATOM     95  F   UNL A   1      47.472  25.901  32.747  1.00  0.00    -0.203 F 
ATOM     96  C   UNL A   1      47.129  24.186  34.284  1.00  0.00     0.198 A 
ATOM     97  C   UNL A   1      44.950  23.668  35.090  1.00  0.00     0.198 A 
ATOM     98  F   UNL A   1      43.073  24.701  34.215  1.00  0.00    -0.203 F 
ATOM     99  F   UNL A   1      48.455  23.991  34.315  1.00  0.00    -0.200 F 
ATOM    100  C   UNL A   1      46.311  23.457  35.126  1.00  0.00     0.200 A 
ATOM    101  F   UNL A   1      44.144  23.010  35.937  1.00  0.00    -0.200 F 
ATOM    102  F   UNL A   1      46.834  22.574  35.987  1.00  0.00    -0.200 F 
ENDBRANCH  69  92
ENDBRANCH  43  44
ENDBRANCH  35  38
ENDBRANCH  33  34
ENDBRANCH  32  33
ENDBRANCH  31  32
ENDBRANCH  30  31
ENDBRANCH   1  30
TORSDOF 19
ENDMDL
MODEL 3
REMARK VINA RESULT:     -11.8      3.059      4.920
REMARK SMILES CCOc1ccc(C[N@H+]2CC[NH2+][C@H](C(=O)NCCCCCCNC(=O)c3ccc(-c4c5nc(c(-c6c(F)c(F)c(F)c(F)c6F)c6ccc([nH]6)c(-c6c(F)c(F)c(F)c(F)c6F)c6nc(c(-c7c(F)c(F)c(F)c(F)c7F)c7ccc4[nH]7)C=C6)C=C5)cc3)C2)c(OCC)c1C
REMARK SMILES IDX 18 1 17 2 16 3 14 4 15 5 13 7 9 8 10 9 89 10 11 12 12 13
REMARK SMILES IDX 8 16 7 17 4 18 5 19 94 20 6 21 90 22 95 23 3 24 2 25 1 26
REMARK SMILES IDX 91 27 92 28 93 29 19 30 20 31 21 32 22 33 23 34 24 35 25 37
REMARK SMILES IDX 26 38 27 39 88 40 28 41 87 42 29 43 30 44 31 45 81 46 32 47
REMARK SMILES IDX 86 48 80 49 82 50 33 51 85 52 79 53 78 54 34 56 66 57 46 58
REMARK SMILES IDX 65 59 47 60 50 61 64 62 83 63 48 64 49 65 63 67 84 68 51 69
REMARK SMILES IDX 35 70 36 71 44 72 37 73 38 74 42 75 45 76 39 77 40 78 43 79
REMARK SMILES IDX 41 80 67 81 68 82 76 83 69 84 70 85 74 86 77 87 71 88 72 89
REMARK SMILES IDX 75 90 73 91 52 92 53 93 61 94 54 95 55 96 59 97 62 98 56 99
REMARK SMILES IDX 57 100 60 101 58 102
REMARK H PARENT 16 6 9 11 12 14 12 15 23 36 82 55 50 66
REMARK Flexibility Score: inf
ROOT
ATOM      1  C   UNL A   1      34.998  29.722  27.418  1.00  0.00     0.021 C 
ENDROOT
BRANCH   1   2
ATOM      2  C   UNL A   1      34.262  28.685  26.562  1.00  0.00     0.116 C 
BRANCH   2   3
ATOM      3  N   UNL A   1      34.304  28.970  25.138  1.00  0.00    -0.351 N 
ATOM      4  C   UNL A   1      33.502  28.544  24.113  1.00  0.00     0.284 C 
ATOM      5  O   UNL A   1      33.604  29.155  23.042  1.00  0.00    -0.268 OA
ATOM      6  H   UNL A   1      35.032  29.573  24.863  1.00  0.00     0.163 HD
BRANCH   4   7
ATOM      7  C   UNL A   1      32.520  27.357  24.271  1.00  0.00     0.328 C 
ATOM      8  N   UNL A   1      31.347  25.570  22.819  1.00  0.00    -0.321 N 
ATOM      9  C   UNL A   1      30.122  25.878  23.568  1.00  0.00     0.324 C 
ATOM     10  C   UNL A   1      32.280  26.714  22.865  1.00  0.00     0.339 C 
ATOM     11  H   UNL A   1      31.093  25.474  21.837  1.00  0.00     0.348 HD
ATOM     12  C   UNL A   1      30.299  26.665  24.893  1.00  0.00     0.323 C 
ATOM     13  N   UNL A   1      31.219  27.823  24.833  1.00  0.00    -0.327 N 
ATOM     14  H   UNL A   1      31.362  28.199  25.770  1.00  0.00     0.347 HD
ATOM     15  H   UNL A   1      30.823  28.556  24.244  1.00  0.00     0.347 HD
BRANCH   8  16
ATOM     16  C   UNL A   1      31.900  24.217  23.006  1.00  0.00     0.303 C 
BRANCH  16  17
ATOM     17  C   UNL A   1      33.161  24.105  23.831  1.00  0.00     0.049 A 
ATOM     18  C   UNL A   1      35.533  23.099  24.978  1.00  0.00     0.125 A 
ATOM     19  C   UNL A   1      35.521  23.479  23.644  1.00  0.00     0.047 A 
ATOM     20  C   UNL A   1      34.405  23.353  25.785  1.00  0.00     0.034 A 
ATOM     21  C   UNL A   1      34.352  23.984  23.082  1.00  0.00     0.017 A 
ATOM     22  C   UNL A   1      33.220  23.905  25.223  1.00  0.00     0.134 A 
ATOM     23  C   UNL A   1      34.387  22.954  27.245  1.00  0.00     0.052 C 
BRANCH  18  24
ATOM     24  O   UNL A   1      36.476  22.227  25.447  1.00  0.00    -0.493 OA
BRANCH  24  25
ATOM     25  C   UNL A   1      37.310  21.534  24.527  1.00  0.00     0.226 C 
ATOM     26  C   UNL A   1      37.561  20.082  24.896  1.00  0.00     0.049 C 
ENDBRANCH  24  25
ENDBRANCH  18  24
BRANCH  22  27
ATOM     27  O   UNL A   1      32.214  23.995  26.148  1.00  0.00    -0.493 OA
BRANCH  27  28
ATOM     28  C   UNL A   1      30.967  23.318  26.090  1.00  0.00     0.226 C 
ATOM     29  C   UNL A   1      31.115  21.851  25.743  1.00  0.00     0.049 C 
ENDBRANCH  27  28
ENDBRANCH  22  27
ENDBRANCH  16  17
ENDBRANCH   8  16
ENDBRANCH   4   7
ENDBRANCH   2   3
ENDBRANCH   1   2
BRANCH   1  30
ATOM     30  C   UNL A   1      34.385  31.113  27.618  1.00  0.00     0.002 C 
BRANCH  30  31
ATOM     31  C   UNL A   1      35.165  32.132  28.458  1.00  0.00     0.002 C 
BRANCH  31  32
ATOM     32  C   UNL A   1      34.438  32.740  29.659  1.00  0.00     0.021 C 
BRANCH  32  33
ATOM     33  C   UNL A   1      34.110  34.227  29.547  1.00  0.00     0.116 C 
BRANCH  33  34
ATOM     34  N   UNL A   1      33.505  34.761  30.755  1.00  0.00    -0.352 N 
ATOM     35  C   UNL A   1      33.745  34.475  32.087  1.00  0.00     0.251 C 
ATOM     36  H   UNL A   1      32.808  35.438  30.599  1.00  0.00     0.163 HD
ATOM     37  O   UNL A   1      32.906  34.750  32.915  1.00  0.00    -0.269 OA
BRANCH  35  38
ATOM     38  C   UNL A   1      35.097  34.028  32.525  1.00  0.00     0.039 A 
ATOM     39  C   UNL A   1      36.166  34.865  32.163  1.00  0.00     0.014 A 
ATOM     40  C   UNL A   1      35.355  32.773  33.067  1.00  0.00     0.014 A 
ATOM     41  C   UNL A   1      37.464  34.359  32.127  1.00  0.00     0.010 A 
ATOM     42  C   UNL A   1      36.631  32.250  32.983  1.00  0.00     0.010 A 
ATOM     43  C   UNL A   1      37.663  33.019  32.445  1.00  0.00    -0.014 A 
BRANCH  43  44
ATOM     44  C   UNL A   1      38.894  32.308  32.150  1.00  0.00     0.031 A 
ATOM     45  C   UNL A   1      38.883  31.125  31.274  1.00  0.00     0.074 A 
ATOM     46  C   UNL A   1      40.059  32.792  32.637  1.00  0.00     0.049 A 
ATOM     47  N   UNL A   1      39.774  30.195  31.320  1.00  0.00    -0.248 NA
ATOM     48  C   UNL A   1      37.836  30.875  30.288  1.00  0.00     0.031 C 
ATOM     49  C   UNL A   1      41.411  32.393  32.258  1.00  0.00     0.029 A 
ATOM     50  N   UNL A   1      40.239  33.639  33.743  1.00  0.00    -0.354 N 
ATOM     51  C   UNL A   1      39.577  29.373  30.237  1.00  0.00     0.074 A 
ATOM     52  C   UNL A   1      38.326  29.802  29.655  1.00  0.00     0.031 C 
ATOM     53  C   UNL A   1      42.253  32.729  33.247  1.00  0.00     0.029 A 
ATOM     54  C   UNL A   1      41.445  33.222  34.349  1.00  0.00     0.049 A 
ATOM     55  H   UNL A   1      39.649  34.372  34.033  1.00  0.00     0.167 HD
ATOM     56  C   UNL A   1      40.558  28.499  29.876  1.00  0.00     0.037 A 
ATOM     57  C   UNL A   1      41.471  32.724  35.619  1.00  0.00     0.037 A 
ATOM     58  C   UNL A   1      41.698  28.576  30.778  1.00  0.00     0.049 A 
ATOM     59  C   UNL A   1      42.022  31.322  35.712  1.00  0.00     0.074 A 
ATOM     60  C   UNL A   1      42.885  29.289  30.720  1.00  0.00     0.029 A 
ATOM     61  N   UNL A   1      41.566  28.136  32.089  1.00  0.00    -0.354 N 
ATOM     62  N   UNL A   1      42.061  30.493  34.707  1.00  0.00    -0.248 NA
ATOM     63  C   UNL A   1      42.550  30.737  36.941  1.00  0.00     0.031 C 
ATOM     64  C   UNL A   1      43.451  29.311  32.016  1.00  0.00     0.029 A 
ATOM     65  C   UNL A   1      42.620  28.590  32.857  1.00  0.00     0.049 A 
ATOM     66  H   UNL A   1      40.825  27.581  32.424  1.00  0.00     0.167 HD
ATOM     67  C   UNL A   1      42.592  29.297  35.121  1.00  0.00     0.074 A 
ATOM     68  C   UNL A   1      42.894  29.505  36.524  1.00  0.00     0.031 C 
ATOM     69  C   UNL A   1      42.729  28.242  34.264  1.00  0.00     0.037 A 
BRANCH  56  70
ATOM     70  C   UNL A   1      40.580  27.788  28.553  1.00  0.00     0.064 A 
ATOM     71  C   UNL A   1      39.938  26.543  28.383  1.00  0.00     0.173 A 
ATOM     72  C   UNL A   1      41.252  28.277  27.419  1.00  0.00     0.173 A 
ATOM     73  F   UNL A   1      39.211  25.989  29.363  1.00  0.00    -0.203 F 
ATOM     74  C   UNL A   1      40.038  25.805  27.202  1.00  0.00     0.198 A 
ATOM     75  C   UNL A   1      41.395  27.516  26.254  1.00  0.00     0.198 A 
ATOM     76  F   UNL A   1      41.770  29.514  27.407  1.00  0.00    -0.203 F 
ATOM     77  F   UNL A   1      39.414  24.623  27.101  1.00  0.00    -0.200 F 
ATOM     78  C   UNL A   1      40.793  26.276  26.148  1.00  0.00     0.200 A 
ATOM     79  F   UNL A   1      42.126  27.989  25.235  1.00  0.00    -0.200 F 
ATOM     80  F   UNL A   1      40.931  25.546  25.034  1.00  0.00    -0.200 F 
ENDBRANCH  56  70
BRANCH  57  81
ATOM     81  C   UNL A   1      40.403  33.289  36.485  1.00  0.00     0.064 A 
ATOM     82  C   UNL A   1      39.243  32.519  36.689  1.00  0.00     0.173 A 
ATOM     83  C   UNL A   1      40.669  34.317  37.398  1.00  0.00     0.173 A 
ATOM     84  F   UNL A   1      38.943  31.521  35.841  1.00  0.00    -0.203 F 
ATOM     85  C   UNL A   1      38.456  32.682  37.827  1.00  0.00     0.198 A 
ATOM     86  C   UNL A   1      39.868  34.488  38.530  1.00  0.00     0.198 A 
ATOM     87  F   UNL A   1      41.762  35.079  37.262  1.00  0.00    -0.203 F 
ATOM     88  F   UNL A   1      37.426  31.854  38.052  1.00  0.00    -0.200 F 
ATOM     89  C   UNL A   1      38.787  33.648  38.762  1.00  0.00     0.200 A 
ATOM     90  F   UNL A   1      40.195  35.413  39.443  1.00  0.00    -0.200 F 
ATOM     91  F   UNL A   1      38.088  33.745  39.901  1.00  0.00    -0.200 F 
ENDBRANCH  57  81
BRANCH  69  92
ATOM     92  C   UNL A   1      43.065  26.812  34.622  1.00  0.00     0.064 A 
ATOM     93  C   UNL A   1      42.121  25.864  35.047  1.00  0.00     0.173 A 
ATOM     94  C   UNL A   1      44.369  26.304  34.386  1.00  0.00     0.173 A 
ATOM     95  F   UNL A   1      40.829  26.182  35.200  1.00  0.00    -0.203 F 
ATOM     96  C   UNL A   1      42.464  24.525  35.267  1.00  0.00     0.198 A 
ATOM     97  C   UNL A   1      44.691  24.958  34.547  1.00  0.00     0.198 A 
ATOM     98  F   UNL A   1      45.366  27.093  33.959  1.00  0.00    -0.203 F 
ATOM     99  F   UNL A   1      41.533  23.668  35.709  1.00  0.00    -0.200 F 
ATOM    100  C   UNL A   1      43.742  24.070  35.003  1.00  0.00     0.200 A 
ATOM    101  F   UNL A   1      45.922  24.526  34.233  1.00  0.00    -0.200 F 
ATOM    102  F   UNL A   1      44.050  22.777  35.164  1.00  0.00    -0.200 F 
ENDBRANCH  69  92
ENDBRANCH  43  44
ENDBRANCH  35  38
ENDBRANCH  33  34
ENDBRANCH  32  33
ENDBRANCH  31  32
ENDBRANCH  30  31
ENDBRANCH   1  30
TORSDOF 19
ENDMDL
