MODEL 1
REMARK VINA RESULT:     -12.3      0.000      0.000
REMARK SMILES Cn1cnnc1S[C@@H]1CCC[C@]([NH3+])(C(=O)NCCCCCCNC(=O)c2ccc(-c3c4nc(c(-c5c(F)c(F)c(F)c(F)c5F)c5ccc([nH]5)c(-c5c(F)c(F)c(F)c(F)c5F)c5nc(c(-c6c(F)c(F)c(F)c(F)c6F)c6ccc3[nH]6)C=C5)C=C4)cc2)C1
REMARK SMILES IDX 19 1 18 2 17 3 16 4 14 5 15 6 12 8 8 9 9 10 89 11 10 12
REMARK SMILES IDX 11 13 7 14 6 15 1 16 2 17 3 18 4 19 5 20 13 21 20 25 21 26
REMARK SMILES IDX 22 27 23 28 24 29 25 31 26 32 27 33 88 34 28 35 87 36 29 37
REMARK SMILES IDX 30 38 31 39 81 40 32 41 86 42 80 43 82 44 33 45 85 46 79 47
REMARK SMILES IDX 78 48 34 50 66 51 46 52 65 53 47 54 50 55 64 56 83 57 48 58
REMARK SMILES IDX 49 59 63 61 84 62 51 63 35 64 36 65 44 66 37 67 38 68 42 69
REMARK SMILES IDX 45 70 39 71 40 72 43 73 41 74 67 75 68 76 76 77 69 78 70 79
REMARK SMILES IDX 74 80 77 81 71 82 72 83 75 84 73 85 52 86 53 87 61 88 54 89
REMARK SMILES IDX 55 90 59 91 62 92 56 93 57 94 60 95 58 96
REMARK H PARENT 16 7 13 22 13 23 13 24 23 30 82 49 50 60
REMARK Flexibility Score: inf
ROOT
ATOM      1  C   UNL A   1      32.477  29.954  26.671  1.00  0.00     0.002 C 
ENDROOT
BRANCH   1   2
ATOM      2  C   UNL A   1      33.665  29.523  25.810  1.00  0.00     0.021 C 
BRANCH   2   3
ATOM      3  C   UNL A   1      33.545  28.112  25.242  1.00  0.00     0.116 C 
BRANCH   3   4
ATOM      4  N   UNL A   1      34.037  28.004  23.889  1.00  0.00    -0.351 N 
ATOM      5  C   UNL A   1      33.388  27.714  22.729  1.00  0.00     0.281 C 
ATOM      6  O   UNL A   1      34.068  27.738  21.695  1.00  0.00    -0.268 OA
ATOM      7  H   UNL A   1      35.002  28.166  23.790  1.00  0.00     0.163 HD
BRANCH   5   8
ATOM      8  C   UNL A   1      31.863  27.333  22.667  1.00  0.00     0.175 C 
ATOM      9  C   UNL A   1      29.452  28.209  22.858  1.00  0.00     0.061 C 
ATOM     10  C   UNL A   1      29.084  27.027  23.767  1.00  0.00     0.015 C 
ATOM     11  C   UNL A   1      30.941  28.573  22.758  1.00  0.00     0.094 C 
ATOM     12  C   UNL A   1      30.043  25.846  23.679  1.00  0.00     0.008 C 
ATOM     13  C   UNL A   1      31.512  26.265  23.721  1.00  0.00     0.079 C 
BRANCH   9  14
ATOM     14  S   UNL A   1      28.305  29.583  23.184  1.00  0.00    -0.082 SA
BRANCH  14  15
ATOM     15  C   UNL A   1      28.293  30.778  21.935  1.00  0.00     0.191 A 
ATOM     16  C   UNL A   1      28.859  33.006  23.063  1.00  0.00     0.153 C 
ATOM     17  N   UNL A   1      28.425  32.137  22.012  1.00  0.00    -0.312 N 
ATOM     18  C   UNL A   1      28.038  32.623  20.791  1.00  0.00     0.226 A 
ATOM     19  N   UNL A   1      27.725  31.632  19.999  1.00  0.00    -0.138 NA
ATOM     20  N   UNL A   1      27.881  30.474  20.719  1.00  0.00    -0.124 NA
ENDBRANCH  14  15
ENDBRANCH   9  14
BRANCH   8  21
ATOM     21  N   UNL A   1      31.629  26.687  21.337  1.00  0.00    -0.345 N 
ATOM     22  H   UNL A   1      32.182  27.165  20.626  1.00  0.00     0.345 HD
ATOM     23  H   UNL A   1      30.639  26.752  21.098  1.00  0.00     0.345 HD
ATOM     24  H   UNL A   1      31.905  25.706  21.382  1.00  0.00     0.345 HD
ENDBRANCH   8  21
ENDBRANCH   5   8
ENDBRANCH   3   4
ENDBRANCH   2   3
ENDBRANCH   1   2
BRANCH   1  25
ATOM     25  C   UNL A   1      31.471  30.878  25.974  1.00  0.00     0.002 C 
BRANCH  25  26
ATOM     26  C   UNL A   1      31.280  32.253  26.621  1.00  0.00     0.021 C 
BRANCH  26  27
ATOM     27  C   UNL A   1      32.541  32.849  27.239  1.00  0.00     0.116 C 
BRANCH  27  28
ATOM     28  N   UNL A   1      32.364  34.245  27.607  1.00  0.00    -0.352 N 
ATOM     29  C   UNL A   1      32.980  34.975  28.588  1.00  0.00     0.251 C 
ATOM     30  H   UNL A   1      31.702  34.737  27.071  1.00  0.00     0.163 HD
ATOM     31  O   UNL A   1      32.550  36.092  28.885  1.00  0.00    -0.269 OA
BRANCH  29  32
ATOM     32  C   UNL A   1      34.149  34.428  29.305  1.00  0.00     0.039 A 
ATOM     33  C   UNL A   1      33.959  33.835  30.555  1.00  0.00     0.014 A 
ATOM     34  C   UNL A   1      35.431  34.517  28.756  1.00  0.00     0.014 A 
ATOM     35  C   UNL A   1      35.047  33.280  31.231  1.00  0.00     0.010 A 
ATOM     36  C   UNL A   1      36.502  33.898  29.395  1.00  0.00     0.010 A 
ATOM     37  C   UNL A   1      36.322  33.278  30.640  1.00  0.00    -0.014 A 
BRANCH  37  38
ATOM     38  C   UNL A   1      37.477  32.629  31.312  1.00  0.00     0.031 A 
ATOM     39  C   UNL A   1      38.207  31.500  30.641  1.00  0.00     0.074 A 
ATOM     40  C   UNL A   1      37.828  33.018  32.552  1.00  0.00     0.049 A 
ATOM     41  N   UNL A   1      39.197  30.770  31.091  1.00  0.00    -0.248 NA
ATOM     42  C   UNL A   1      37.747  31.122  29.296  1.00  0.00     0.031 C 
ATOM     43  C   UNL A   1      37.169  34.072  33.325  1.00  0.00     0.029 A 
ATOM     44  N   UNL A   1      38.821  32.567  33.386  1.00  0.00    -0.354 N 
ATOM     45  C   UNL A   1      39.468  29.843  30.093  1.00  0.00     0.074 A 
ATOM     46  C   UNL A   1      38.500  30.062  29.039  1.00  0.00     0.031 C 
ATOM     47  C   UNL A   1      37.790  34.205  34.507  1.00  0.00     0.029 A 
ATOM     48  C   UNL A   1      38.864  33.219  34.594  1.00  0.00     0.049 A 
ATOM     49  H   UNL A   1      39.443  31.845  33.141  1.00  0.00     0.167 HD
ATOM     50  C   UNL A   1      40.450  28.911  30.048  1.00  0.00     0.037 A 
ATOM     51  C   UNL A   1      39.671  33.036  35.656  1.00  0.00     0.037 A 
ATOM     52  C   UNL A   1      41.421  28.709  31.091  1.00  0.00     0.049 A 
ATOM     53  C   UNL A   1      40.741  31.980  35.589  1.00  0.00     0.074 A 
ATOM     54  C   UNL A   1      42.490  27.832  31.118  1.00  0.00     0.029 A 
ATOM     55  N   UNL A   1      41.435  29.391  32.300  1.00  0.00    -0.354 N 
ATOM     56  N   UNL A   1      41.032  31.157  34.612  1.00  0.00    -0.248 NA
ATOM     57  C   UNL A   1      41.597  31.831  36.774  1.00  0.00     0.031 C 
ATOM     58  C   UNL A   1      43.116  27.941  32.365  1.00  0.00     0.029 A 
ATOM     59  C   UNL A   1      42.476  28.931  33.091  1.00  0.00     0.049 A 
ATOM     60  H   UNL A   1      40.800  30.098  32.558  1.00  0.00     0.167 HD
ATOM     61  C   UNL A   1      42.121  30.414  35.049  1.00  0.00     0.074 A 
ATOM     62  C   UNL A   1      42.448  30.896  36.375  1.00  0.00     0.031 C 
ATOM     63  C   UNL A   1      42.791  29.423  34.410  1.00  0.00     0.037 A 
BRANCH  50  64
ATOM     64  C   UNL A   1      40.518  28.033  28.829  1.00  0.00     0.064 A 
ATOM     65  C   UNL A   1      39.816  26.820  28.751  1.00  0.00     0.173 A 
ATOM     66  C   UNL A   1      41.274  28.423  27.714  1.00  0.00     0.173 A 
ATOM     67  F   UNL A   1      39.085  26.394  29.794  1.00  0.00    -0.203 F 
ATOM     68  C   UNL A   1      39.898  26.013  27.619  1.00  0.00     0.198 A 
ATOM     69  C   UNL A   1      41.326  27.631  26.569  1.00  0.00     0.198 A 
ATOM     70  F   UNL A   1      41.961  29.575  27.730  1.00  0.00    -0.203 F 
ATOM     71  F   UNL A   1      39.267  24.831  27.593  1.00  0.00    -0.200 F 
ATOM     72  C   UNL A   1      40.648  26.423  26.526  1.00  0.00     0.200 A 
ATOM     73  F   UNL A   1      42.040  28.035  25.509  1.00  0.00    -0.200 F 
ATOM     74  F   UNL A   1      40.724  25.647  25.436  1.00  0.00    -0.200 F 
ENDBRANCH  50  64
BRANCH  51  75
ATOM     75  C   UNL A   1      39.514  33.890  36.862  1.00  0.00     0.064 A 
ATOM     76  C   UNL A   1      38.772  33.445  37.966  1.00  0.00     0.173 A 
ATOM     77  C   UNL A   1      40.097  35.163  36.940  1.00  0.00     0.173 A 
ATOM     78  F   UNL A   1      38.178  32.242  37.932  1.00  0.00    -0.203 F 
ATOM     79  C   UNL A   1      38.604  34.248  39.091  1.00  0.00     0.198 A 
ATOM     80  C   UNL A   1      39.953  35.953  38.078  1.00  0.00     0.198 A 
ATOM     81  F   UNL A   1      40.821  35.633  35.913  1.00  0.00    -0.203 F 
ATOM     82  F   UNL A   1      37.852  33.816  40.113  1.00  0.00    -0.200 F 
ATOM     83  C   UNL A   1      39.200  35.499  39.150  1.00  0.00     0.200 A 
ATOM     84  F   UNL A   1      40.544  37.154  38.135  1.00  0.00    -0.200 F 
ATOM     85  F   UNL A   1      39.043  36.269  40.235  1.00  0.00    -0.200 F 
ENDBRANCH  51  75
BRANCH  63  86
ATOM     86  C   UNL A   1      43.966  28.815  35.122  1.00  0.00     0.064 A 
ATOM     87  C   UNL A   1      43.816  27.738  36.008  1.00  0.00     0.173 A 
ATOM     88  C   UNL A   1      45.264  29.292  34.884  1.00  0.00     0.173 A 
ATOM     89  F   UNL A   1      42.595  27.253  36.282  1.00  0.00    -0.203 F 
ATOM     90  C   UNL A   1      44.919  27.180  36.651  1.00  0.00     0.198 A 
ATOM     91  C   UNL A   1      46.367  28.710  35.501  1.00  0.00     0.198 A 
ATOM     92  F   UNL A   1      45.465  30.315  34.039  1.00  0.00    -0.203 F 
ATOM     93  F   UNL A   1      44.745  26.187  37.533  1.00  0.00    -0.200 F 
ATOM     94  C   UNL A   1      46.193  27.661  36.390  1.00  0.00     0.200 A 
ATOM     95  F   UNL A   1      47.599  29.165  35.235  1.00  0.00    -0.200 F 
ATOM     96  F   UNL A   1      47.254  27.117  37.003  1.00  0.00    -0.200 F 
ENDBRANCH  63  86
ENDBRANCH  37  38
ENDBRANCH  29  32
ENDBRANCH  27  28
ENDBRANCH  26  27
ENDBRANCH  25  26
ENDBRANCH   1  25
TORSDOF 16
ENDMDL
MODEL 2
REMARK VINA RESULT:     -12.2      0.221      1.606
REMARK SMILES Cn1cnnc1S[C@@H]1CCC[C@]([NH3+])(C(=O)NCCCCCCNC(=O)c2ccc(-c3c4nc(c(-c5c(F)c(F)c(F)c(F)c5F)c5ccc([nH]5)c(-c5c(F)c(F)c(F)c(F)c5F)c5nc(c(-c6c(F)c(F)c(F)c(F)c6F)c6ccc3[nH]6)C=C5)C=C4)cc2)C1
REMARK SMILES IDX 19 1 18 2 17 3 16 4 14 5 15 6 12 8 8 9 9 10 89 11 10 12
REMARK SMILES IDX 11 13 7 14 6 15 1 16 2 17 3 18 4 19 5 20 13 21 20 25 21 26
REMARK SMILES IDX 22 27 23 28 24 29 25 31 26 32 27 33 88 34 28 35 87 36 29 37
REMARK SMILES IDX 30 38 31 39 81 40 32 41 86 42 80 43 82 44 33 45 85 46 79 47
REMARK SMILES IDX 78 48 34 50 66 51 46 52 65 53 47 54 50 55 64 56 83 57 48 58
REMARK SMILES IDX 49 59 63 61 84 62 51 63 35 64 36 65 44 66 37 67 38 68 42 69
REMARK SMILES IDX 45 70 39 71 40 72 43 73 41 74 67 75 68 76 76 77 69 78 70 79
REMARK SMILES IDX 74 80 77 81 71 82 72 83 75 84 73 85 52 86 53 87 61 88 54 89
REMARK SMILES IDX 55 90 59 91 62 92 56 93 57 94 60 95 58 96
REMARK H PARENT 16 7 13 22 13 23 13 24 23 30 82 49 50 60
REMARK Flexibility Score: inf
ROOT
ATOM      1  C   UNL A   1      32.375  29.817  26.787  1.00  0.00     0.002 C 
ENDROOT
BRANCH   1   2
ATOM      2  C   UNL A   1      33.540  29.194  26.017  1.00  0.00     0.021 C 
BRANCH   2   3
ATOM      3  C   UNL A   1      33.292  27.760  25.563  1.00  0.00     0.116 C 
BRANCH   3   4
ATOM      4  N   UNL A   1      33.908  27.455  24.293  1.00  0.00    -0.351 N 
ATOM      5  C   UNL A   1      33.356  27.212  23.073  1.00  0.00     0.281 C 
ATOM      6  O   UNL A   1      34.143  27.025  22.137  1.00  0.00    -0.268 OA
ATOM      7  H   UNL A   1      34.891  27.416  24.314  1.00  0.00     0.163 HD
BRANCH   5   8
ATOM      8  C   UNL A   1      31.803  27.135  22.831  1.00  0.00     0.175 C 
ATOM      9  C   UNL A   1      29.577  28.419  22.940  1.00  0.00     0.061 C 
ATOM     10  C   UNL A   1      28.911  27.225  23.641  1.00  0.00     0.015 C 
ATOM     11  C   UNL A   1      31.108  28.506  23.018  1.00  0.00     0.094 C 
ATOM     12  C   UNL A   1      29.652  25.905  23.469  1.00  0.00     0.008 C 
ATOM     13  C   UNL A   1      31.158  26.032  23.693  1.00  0.00     0.079 C 
BRANCH   9  14
ATOM     14  S   UNL A   1      28.660  29.934  23.358  1.00  0.00    -0.082 SA
BRANCH  14  15
ATOM     15  C   UNL A   1      28.432  30.993  22.011  1.00  0.00     0.191 A 
ATOM     16  C   UNL A   1      28.862  33.364  22.876  1.00  0.00     0.153 C 
ATOM     17  N   UNL A   1      28.436  32.359  21.951  1.00  0.00    -0.312 N 
ATOM     18  C   UNL A   1      27.909  32.684  20.729  1.00  0.00     0.226 A 
ATOM     19  N   UNL A   1      27.634  31.594  20.061  1.00  0.00    -0.138 NA
ATOM     20  N   UNL A   1      27.959  30.533  20.868  1.00  0.00    -0.124 NA
ENDBRANCH  14  15
ENDBRANCH   9  14
BRANCH   8  21
ATOM     21  N   UNL A   1      31.604  26.713  21.409  1.00  0.00    -0.345 N 
ATOM     22  H   UNL A   1      31.679  27.527  20.799  1.00  0.00     0.345 HD
ATOM     23  H   UNL A   1      30.679  26.294  21.306  1.00  0.00     0.345 HD
ATOM     24  H   UNL A   1      32.318  26.030  21.154  1.00  0.00     0.345 HD
ENDBRANCH   8  21
ENDBRANCH   5   8
ENDBRANCH   3   4
ENDBRANCH   2   3
ENDBRANCH   1   2
BRANCH   1  25
ATOM     25  C   UNL A   1      31.499  30.779  25.975  1.00  0.00     0.002 C 
BRANCH  25  26
ATOM     26  C   UNL A   1      31.298  32.167  26.591  1.00  0.00     0.021 C 
BRANCH  26  27
ATOM     27  C   UNL A   1      32.523  32.736  27.299  1.00  0.00     0.116 C 
BRANCH  27  28
ATOM     28  N   UNL A   1      32.360  34.142  27.633  1.00  0.00    -0.352 N 
ATOM     29  C   UNL A   1      32.985  34.892  28.594  1.00  0.00     0.251 C 
ATOM     30  H   UNL A   1      31.701  34.627  27.087  1.00  0.00     0.163 HD
ATOM     31  O   UNL A   1      32.566  36.019  28.863  1.00  0.00    -0.269 OA
BRANCH  29  32
ATOM     32  C   UNL A   1      34.151  34.352  29.320  1.00  0.00     0.039 A 
ATOM     33  C   UNL A   1      33.942  33.649  30.510  1.00  0.00     0.014 A 
ATOM     34  C   UNL A   1      35.449  34.554  28.843  1.00  0.00     0.014 A 
ATOM     35  C   UNL A   1      35.029  33.101  31.191  1.00  0.00     0.010 A 
ATOM     36  C   UNL A   1      36.525  33.944  29.482  1.00  0.00     0.010 A 
ATOM     37  C   UNL A   1      36.326  33.216  30.664  1.00  0.00    -0.014 A 
BRANCH  37  38
ATOM     38  C   UNL A   1      37.486  32.578  31.337  1.00  0.00     0.031 A 
ATOM     39  C   UNL A   1      38.214  31.440  30.678  1.00  0.00     0.074 A 
ATOM     40  C   UNL A   1      37.845  32.985  32.570  1.00  0.00     0.049 A 
ATOM     41  N   UNL A   1      39.208  30.718  31.132  1.00  0.00    -0.248 NA
ATOM     42  C   UNL A   1      37.746  31.043  29.342  1.00  0.00     0.031 C 
ATOM     43  C   UNL A   1      37.190  34.049  33.333  1.00  0.00     0.029 A 
ATOM     44  N   UNL A   1      38.844  32.547  33.404  1.00  0.00    -0.354 N 
ATOM     45  C   UNL A   1      39.474  29.778  30.145  1.00  0.00     0.074 A 
ATOM     46  C   UNL A   1      38.499  29.981  29.095  1.00  0.00     0.031 C 
ATOM     47  C   UNL A   1      37.818  34.199  34.508  1.00  0.00     0.029 A 
ATOM     48  C   UNL A   1      38.893  33.216  34.603  1.00  0.00     0.049 A 
ATOM     49  H   UNL A   1      39.465  31.822  33.165  1.00  0.00     0.167 HD
ATOM     50  C   UNL A   1      40.457  28.846  30.108  1.00  0.00     0.037 A 
ATOM     51  C   UNL A   1      39.708  33.049  35.661  1.00  0.00     0.037 A 
ATOM     52  C   UNL A   1      41.435  28.660  31.148  1.00  0.00     0.049 A 
ATOM     53  C   UNL A   1      40.778  31.993  35.603  1.00  0.00     0.074 A 
ATOM     54  C   UNL A   1      42.505  27.785  31.180  1.00  0.00     0.029 A 
ATOM     55  N   UNL A   1      41.456  29.359  32.346  1.00  0.00    -0.354 N 
ATOM     56  N   UNL A   1      41.065  31.157  34.636  1.00  0.00    -0.248 NA
ATOM     57  C   UNL A   1      41.642  31.862  36.785  1.00  0.00     0.031 C 
ATOM     58  C   UNL A   1      43.139  27.913  32.421  1.00  0.00     0.029 A 
ATOM     59  C   UNL A   1      42.502  28.912  33.137  1.00  0.00     0.049 A 
ATOM     60  H   UNL A   1      40.821  30.069  32.598  1.00  0.00     0.167 HD
ATOM     61  C   UNL A   1      42.158  30.422  35.076  1.00  0.00     0.074 A 
ATOM     62  C   UNL A   1      42.492  30.922  36.393  1.00  0.00     0.031 C 
ATOM     63  C   UNL A   1      42.824  29.423  34.447  1.00  0.00     0.037 A 
BRANCH  50  64
ATOM     64  C   UNL A   1      40.519  27.952  28.901  1.00  0.00     0.064 A 
ATOM     65  C   UNL A   1      39.830  26.730  28.850  1.00  0.00     0.173 A 
ATOM     66  C   UNL A   1      41.254  28.333  27.769  1.00  0.00     0.173 A 
ATOM     67  F   UNL A   1      39.118  26.310  29.909  1.00  0.00    -0.203 F 
ATOM     68  C   UNL A   1      39.906  25.907  27.729  1.00  0.00     0.198 A 
ATOM     69  C   UNL A   1      41.300  27.526  26.636  1.00  0.00     0.198 A 
ATOM     70  F   UNL A   1      41.928  29.494  27.759  1.00  0.00    -0.203 F 
ATOM     71  F   UNL A   1      39.288  24.718  27.729  1.00  0.00    -0.200 F 
ATOM     72  C   UNL A   1      40.635  26.309  26.620  1.00  0.00     0.200 A 
ATOM     73  F   UNL A   1      41.995  27.922  25.560  1.00  0.00    -0.200 F 
ATOM     74  F   UNL A   1      40.705  25.519  25.540  1.00  0.00    -0.200 F 
ENDBRANCH  50  64
BRANCH  51  75
ATOM     75  C   UNL A   1      39.557  33.919  36.857  1.00  0.00     0.064 A 
ATOM     76  C   UNL A   1      40.184  35.171  36.920  1.00  0.00     0.173 A 
ATOM     77  C   UNL A   1      38.785  33.521  37.959  1.00  0.00     0.173 A 
ATOM     78  F   UNL A   1      40.948  35.589  35.899  1.00  0.00    -0.203 F 
ATOM     79  C   UNL A   1      40.062  35.982  38.046  1.00  0.00     0.198 A 
ATOM     80  C   UNL A   1      38.640  34.346  39.072  1.00  0.00     0.198 A 
ATOM     81  F   UNL A   1      38.160  32.334  37.947  1.00  0.00    -0.203 F 
ATOM     82  F   UNL A   1      40.710  37.154  38.097  1.00  0.00    -0.200 F 
ATOM     83  C   UNL A   1      39.284  35.572  39.118  1.00  0.00     0.200 A 
ATOM     84  F   UNL A   1      37.876  33.951  40.099  1.00  0.00    -0.200 F 
ATOM     85  F   UNL A   1      39.163  36.355  40.199  1.00  0.00    -0.200 F 
ENDBRANCH  51  75
BRANCH  63  86
ATOM     86  C   UNL A   1      44.005  28.826  35.160  1.00  0.00     0.064 A 
ATOM     87  C   UNL A   1      45.294  29.363  35.032  1.00  0.00     0.173 A 
ATOM     88  C   UNL A   1      43.835  27.725  36.014  1.00  0.00     0.173 A 
ATOM     89  F   UNL A   1      45.514  30.407  34.218  1.00  0.00    -0.203 F 
ATOM     90  C   UNL A   1      46.374  28.803  35.710  1.00  0.00     0.198 A 
ATOM     91  C   UNL A   1      44.910  27.189  36.716  1.00  0.00     0.198 A 
ATOM     92  F   UNL A   1      42.621  27.177  36.179  1.00  0.00    -0.203 F 
ATOM     93  F   UNL A   1      47.605  29.300  35.531  1.00  0.00    -0.200 F 
ATOM     94  C   UNL A   1      46.180  27.722  36.557  1.00  0.00     0.200 A 
ATOM     95  F   UNL A   1      44.717  26.156  37.548  1.00  0.00    -0.200 F 
ATOM     96  F   UNL A   1      47.218  27.190  37.216  1.00  0.00    -0.200 F 
ENDBRANCH  63  86
ENDBRANCH  37  38
ENDBRANCH  29  32
ENDBRANCH  27  28
ENDBRANCH  26  27
ENDBRANCH  25  26
ENDBRANCH   1  25
TORSDOF 16
ENDMDL
MODEL 3
REMARK VINA RESULT:     -12.1      0.561      7.419
REMARK SMILES Cn1cnnc1S[C@@H]1CCC[C@]([NH3+])(C(=O)NCCCCCCNC(=O)c2ccc(-c3c4nc(c(-c5c(F)c(F)c(F)c(F)c5F)c5ccc([nH]5)c(-c5c(F)c(F)c(F)c(F)c5F)c5nc(c(-c6c(F)c(F)c(F)c(F)c6F)c6ccc3[nH]6)C=C5)C=C4)cc2)C1
REMARK SMILES IDX 19 1 18 2 17 3 16 4 14 5 15 6 12 8 8 9 9 10 89 11 10 12
REMARK SMILES IDX 11 13 7 14 6 15 1 16 2 17 3 18 4 19 5 20 13 21 20 25 21 26
REMARK SMILES IDX 22 27 23 28 24 29 25 31 26 32 27 33 88 34 28 35 87 36 29 37
REMARK SMILES IDX 30 38 31 39 81 40 32 41 86 42 80 43 82 44 33 45 85 46 79 47
REMARK SMILES IDX 78 48 34 50 66 51 46 52 65 53 47 54 50 55 64 56 83 57 48 58
REMARK SMILES IDX 49 59 63 61 84 62 51 63 35 64 36 65 44 66 37 67 38 68 42 69
REMARK SMILES IDX 45 70 39 71 40 72 43 73 41 74 67 75 68 76 76 77 69 78 70 79
REMARK SMILES IDX 74 80 77 81 71 82 72 83 75 84 73 85 52 86 53 87 61 88 54 89
REMARK SMILES IDX 55 90 59 91 62 92 56 93 57 94 60 95 58 96
REMARK H PARENT 16 7 13 22 13 23 13 24 23 30 82 49 50 60
REMARK Flexibility Score: inf
ROOT
ATOM      1  C   UNL A   1      31.857  29.667  26.310  1.00  0.00     0.002 C 
ENDROOT
BRANCH   1   2
ATOM      2  C   UNL A   1      33.333  29.362  26.049  1.00  0.00     0.021 C 
BRANCH   2   3
ATOM      3  C   UNL A   1      33.583  28.011  25.388  1.00  0.00     0.116 C 
BRANCH   3   4
ATOM      4  N   UNL A   1      34.059  28.126  24.030  1.00  0.00    -0.351 N 
ATOM      5  C   UNL A   1      33.411  27.957  22.845  1.00  0.00     0.281 C 
ATOM      6  O   UNL A   1      34.070  28.171  21.819  1.00  0.00    -0.268 OA
ATOM      7  H   UNL A   1      35.009  28.366  23.948  1.00  0.00     0.163 HD
BRANCH   5   8
ATOM      8  C   UNL A   1      31.914  27.484  22.741  1.00  0.00     0.175 C 
ATOM      9  C   UNL A   1      29.451  28.216  22.843  1.00  0.00     0.061 C 
ATOM     10  C   UNL A   1      29.125  27.026  23.759  1.00  0.00     0.015 C 
ATOM     11  C   UNL A   1      30.918  28.667  22.785  1.00  0.00     0.094 C 
ATOM     12  C   UNL A   1      30.155  25.905  23.719  1.00  0.00     0.008 C 
ATOM     13  C   UNL A   1      31.594  26.411  23.801  1.00  0.00     0.079 C 
BRANCH   9  14
ATOM     14  S   UNL A   1      28.214  29.523  23.112  1.00  0.00    -0.082 SA
BRANCH  14  15
ATOM     15  C   UNL A   1      28.239  30.752  21.897  1.00  0.00     0.191 A 
ATOM     16  C   UNL A   1      28.782  32.946  23.101  1.00  0.00     0.153 C 
ATOM     17  N   UNL A   1      28.373  32.108  22.015  1.00  0.00    -0.312 N 
ATOM     18  C   UNL A   1      28.021  32.629  20.798  1.00  0.00     0.226 A 
ATOM     19  N   UNL A   1      27.725  31.661  19.970  1.00  0.00    -0.138 NA
ATOM     20  N   UNL A   1      27.858  30.483  20.662  1.00  0.00    -0.124 NA
ENDBRANCH  14  15
ENDBRANCH   9  14
BRANCH   8  21
ATOM     21  N   UNL A   1      31.761  26.807  21.415  1.00  0.00    -0.345 N 
ATOM     22  H   UNL A   1      32.596  26.971  20.852  1.00  0.00     0.345 HD
ATOM     23  H   UNL A   1      30.946  27.186  20.933  1.00  0.00     0.345 HD
ATOM     24  H   UNL A   1      31.638  25.804  21.557  1.00  0.00     0.345 HD
ENDBRANCH   8  21
ENDBRANCH   5   8
ENDBRANCH   3   4
ENDBRANCH   2   3
ENDBRANCH   1   2
BRANCH   1  25
ATOM     25  C   UNL A   1      31.376  31.032  25.803  1.00  0.00     0.002 C 
BRANCH  25  26
ATOM     26  C   UNL A   1      31.335  32.148  26.851  1.00  0.00     0.021 C 
BRANCH  26  27
ATOM     27  C   UNL A   1      32.661  32.870  27.068  1.00  0.00     0.116 C 
BRANCH  27  28
ATOM     28  N   UNL A   1      32.475  34.215  27.589  1.00  0.00    -0.352 N 
ATOM     29  C   UNL A   1      33.076  34.833  28.653  1.00  0.00     0.251 C 
ATOM     30  H   UNL A   1      31.817  34.763  27.103  1.00  0.00     0.163 HD
ATOM     31  O   UNL A   1      32.638  35.908  29.067  1.00  0.00    -0.269 OA
BRANCH  29  32
ATOM     32  C   UNL A   1      34.238  34.211  29.318  1.00  0.00     0.039 A 
ATOM     33  C   UNL A   1      34.021  33.357  30.402  1.00  0.00     0.014 A 
ATOM     34  C   UNL A   1      35.540  34.484  28.889  1.00  0.00     0.014 A 
ATOM     35  C   UNL A   1      35.105  32.732  31.020  1.00  0.00     0.010 A 
ATOM     36  C   UNL A   1      36.613  33.804  29.456  1.00  0.00     0.010 A 
ATOM     37  C   UNL A   1      36.407  32.925  30.530  1.00  0.00    -0.014 A 
BRANCH  37  38
ATOM     38  C   UNL A   1      37.565  32.214  31.128  1.00  0.00     0.031 A 
ATOM     39  C   UNL A   1      38.064  32.593  32.495  1.00  0.00     0.074 A 
ATOM     40  C   UNL A   1      38.204  31.267  30.415  1.00  0.00     0.049 A 
ATOM     41  N   UNL A   1      39.094  32.131  33.158  1.00  0.00    -0.248 NA
ATOM     42  C   UNL A   1      37.323  33.651  33.198  1.00  0.00     0.031 C 
ATOM     43  C   UNL A   1      37.843  30.841  29.062  1.00  0.00     0.029 A 
ATOM     44  N   UNL A   1      39.298  30.497  30.724  1.00  0.00    -0.354 N 
ATOM     45  C   UNL A   1      39.131  32.848  34.347  1.00  0.00     0.074 A 
ATOM     46  C   UNL A   1      38.058  33.817  34.288  1.00  0.00     0.031 C 
ATOM     47  C   UNL A   1      38.681  29.870  28.667  1.00  0.00     0.029 A 
ATOM     48  C   UNL A   1      39.664  29.633  29.721  1.00  0.00     0.049 A 
ATOM     49  H   UNL A   1      39.774  30.558  31.583  1.00  0.00     0.167 HD
ATOM     50  C   UNL A   1      39.968  32.696  35.401  1.00  0.00     0.037 A 
ATOM     51  C   UNL A   1      40.683  28.755  29.654  1.00  0.00     0.037 A 
ATOM     52  C   UNL A   1      41.023  31.718  35.461  1.00  0.00     0.049 A 
ATOM     53  C   UNL A   1      41.611  28.620  30.830  1.00  0.00     0.074 A 
ATOM     54  C   UNL A   1      41.887  31.444  36.505  1.00  0.00     0.029 A 
ATOM     55  N   UNL A   1      41.361  30.857  34.427  1.00  0.00    -0.354 N 
ATOM     56  N   UNL A   1      41.593  29.254  31.977  1.00  0.00    -0.248 NA
ATOM     57  C   UNL A   1      42.700  27.641  30.703  1.00  0.00     0.031 C 
ATOM     58  C   UNL A   1      42.786  30.458  36.083  1.00  0.00     0.029 A 
ATOM     59  C   UNL A   1      42.443  30.073  34.798  1.00  0.00     0.049 A 
ATOM     60  H   UNL A   1      40.902  30.810  33.557  1.00  0.00     0.167 HD
ATOM     61  C   UNL A   1      42.644  28.733  32.719  1.00  0.00     0.074 A 
ATOM     62  C   UNL A   1      43.271  27.718  31.897  1.00  0.00     0.031 C 
ATOM     63  C   UNL A   1      43.054  29.064  33.969  1.00  0.00     0.037 A 
BRANCH  50  64
ATOM     64  C   UNL A   1      39.777  33.614  36.576  1.00  0.00     0.064 A 
ATOM     65  C   UNL A   1      40.455  34.839  36.675  1.00  0.00     0.173 A 
ATOM     66  C   UNL A   1      38.885  33.278  37.605  1.00  0.00     0.173 A 
ATOM     67  F   UNL A   1      41.329  35.207  35.724  1.00  0.00    -0.203 F 
ATOM     68  C   UNL A   1      40.276  35.674  37.775  1.00  0.00     0.198 A 
ATOM     69  C   UNL A   1      38.681  34.130  38.687  1.00  0.00     0.198 A 
ATOM     70  F   UNL A   1      38.205  32.122  37.561  1.00  0.00    -0.203 F 
ATOM     71  F   UNL A   1      40.980  36.809  37.875  1.00  0.00    -0.200 F 
ATOM     72  C   UNL A   1      39.384  35.322  38.777  1.00  0.00     0.200 A 
ATOM     73  F   UNL A   1      37.808  33.795  39.647  1.00  0.00    -0.200 F 
ATOM     74  F   UNL A   1      39.209  36.127  39.834  1.00  0.00    -0.200 F 
ENDBRANCH  50  64
BRANCH  51  75
ATOM     75  C   UNL A   1      40.863  27.920  28.437  1.00  0.00     0.064 A 
ATOM     76  C   UNL A   1      41.647  28.369  27.366  1.00  0.00     0.173 A 
ATOM     77  C   UNL A   1      40.258  26.660  28.318  1.00  0.00     0.173 A 
ATOM     78  F   UNL A   1      42.231  29.577  27.424  1.00  0.00    -0.203 F 
ATOM     79  C   UNL A   1      41.804  27.600  26.216  1.00  0.00     0.198 A 
ATOM     80  C   UNL A   1      40.440  25.879  27.179  1.00  0.00     0.198 A 
ATOM     81  F   UNL A   1      39.502  26.181  29.318  1.00  0.00    -0.203 F 
ATOM     82  F   UNL A   1      42.522  28.075  25.188  1.00  0.00    -0.200 F 
ATOM     83  C   UNL A   1      41.206  26.353  26.126  1.00  0.00     0.200 A 
ATOM     84  F   UNL A   1      39.872  24.668  27.104  1.00  0.00    -0.200 F 
ATOM     85  F   UNL A   1      41.361  25.611  25.020  1.00  0.00    -0.200 F 
ENDBRANCH  51  75
BRANCH  63  86
ATOM     86  C   UNL A   1      44.216  28.300  34.538  1.00  0.00     0.064 A 
ATOM     87  C   UNL A   1      44.037  27.090  35.227  1.00  0.00     0.173 A 
ATOM     88  C   UNL A   1      45.528  28.765  34.359  1.00  0.00     0.173 A 
ATOM     89  F   UNL A   1      42.803  26.608  35.438  1.00  0.00    -0.203 F 
ATOM     90  C   UNL A   1      45.128  26.390  35.738  1.00  0.00     0.198 A 
ATOM     91  C   UNL A   1      46.617  28.045  34.842  1.00  0.00     0.198 A 
ATOM     92  F   UNL A   1      45.755  29.912  33.702  1.00  0.00    -0.203 F 
ATOM     93  F   UNL A   1      44.929  25.264  36.437  1.00  0.00    -0.200 F 
ATOM     94  C   UNL A   1      46.416  26.863  35.538  1.00  0.00     0.200 A 
ATOM     95  F   UNL A   1      47.861  28.496  34.632  1.00  0.00    -0.200 F 
ATOM     96  F   UNL A   1      47.464  26.184  36.023  1.00  0.00    -0.200 F 
ENDBRANCH  63  86
ENDBRANCH  37  38
ENDBRANCH  29  32
ENDBRANCH  27  28
ENDBRANCH  26  27
ENDBRANCH  25  26
ENDBRANCH   1  25
TORSDOF 16
ENDMDL
