MODEL 1
REMARK VINA RESULT:     -11.0      0.000      0.000
REMARK SMILES C[C@H](Nc1ccc(N(C)C)cc1)[C@@H](C)C(=O)NCCCCCCNC(=O)c1ccc(-c2c3nc(c(-c4c(F)c(F)c(F)c(F)c4F)c4ccc([nH]4)c(-c4c(F)c(F)c(F)c(F)c4F)c4nc(c(-c5c(F)c(F)c(F)c(F)c5F)c5ccc2[nH]5)C=C4)C=C3)cc1
REMARK SMILES IDX 19 1 18 2 17 3 15 4 16 5 13 7 14 8 2 9 1 10 3 11 4 13 5 14
REMARK SMILES IDX 12 15 6 16 11 17 7 18 8 19 9 20 10 21 20 22 21 23 22 24
REMARK SMILES IDX 23 25 24 26 25 27 26 29 27 30 28 31 89 32 29 33 88 34 30 35
REMARK SMILES IDX 31 36 32 37 82 38 33 39 87 40 81 41 83 42 34 43 86 44 80 45
REMARK SMILES IDX 79 46 35 48 67 49 47 50 66 51 48 52 51 53 65 54 84 55 49 56
REMARK SMILES IDX 50 57 64 59 85 60 52 61 36 62 37 63 45 64 38 65 39 66 43 67
REMARK SMILES IDX 46 68 40 69 41 70 44 71 42 72 68 73 69 74 77 75 70 76 71 77
REMARK SMILES IDX 75 78 78 79 72 80 73 81 76 82 74 83 53 84 54 85 62 86 55 87
REMARK SMILES IDX 56 88 60 89 63 90 57 91 58 92 61 93 59 94
REMARK H PARENT 17 6 3 12 24 28 83 47 51 58
REMARK Flexibility Score: inf
ROOT
ATOM      1  C   UNL A   1      36.503  22.852  25.807  1.00  0.00     0.021 C 
ENDROOT
BRANCH   1   2
ATOM      2  C   UNL A   1      35.070  23.296  26.114  1.00  0.00     0.116 C 
BRANCH   2   3
ATOM      3  N   UNL A   1      34.788  24.586  25.511  1.00  0.00    -0.356 N 
ATOM      4  C   UNL A   1      33.800  24.996  24.670  1.00  0.00     0.224 C 
ATOM      5  O   UNL A   1      33.878  26.145  24.227  1.00  0.00    -0.275 OA
ATOM      6  H   UNL A   1      35.429  25.293  25.753  1.00  0.00     0.163 HD
BRANCH   4   7
ATOM      7  C   UNL A   1      32.609  24.114  24.310  1.00  0.00     0.097 C 
ATOM      8  C   UNL A   1      31.718  23.963  25.543  1.00  0.00     0.020 C 
BRANCH   7   9
ATOM      9  C   UNL A   1      33.039  22.821  23.584  1.00  0.00     0.088 C 
ATOM     10  C   UNL A   1      33.329  23.116  22.102  1.00  0.00     0.031 C 
BRANCH   9  11
ATOM     11  N   UNL A   1      32.005  21.776  23.649  1.00  0.00    -0.382 N 
ATOM     12  H   UNL A   1      31.060  21.973  23.451  1.00  0.00     0.160 HD
BRANCH  11  13
ATOM     13  C   UNL A   1      32.421  20.493  24.003  1.00  0.00     0.034 A 
ATOM     14  C   UNL A   1      32.850  20.205  25.295  1.00  0.00     0.028 A 
ATOM     15  C   UNL A   1      32.321  19.428  23.115  1.00  0.00     0.028 A 
ATOM     16  C   UNL A   1      33.186  18.891  25.675  1.00  0.00     0.028 A 
ATOM     17  C   UNL A   1      32.666  18.123  23.497  1.00  0.00     0.028 A 
ATOM     18  C   UNL A   1      33.113  17.804  24.788  1.00  0.00     0.036 A 
BRANCH  18  19
ATOM     19  N   UNL A   1      33.455  16.507  25.136  1.00  0.00    -0.378 N 
ATOM     20  C   UNL A   1      32.495  15.480  25.523  1.00  0.00     0.143 C 
ATOM     21  C   UNL A   1      34.853  16.081  25.135  1.00  0.00     0.143 C 
ENDBRANCH  18  19
ENDBRANCH  11  13
ENDBRANCH   9  11
ENDBRANCH   7   9
ENDBRANCH   4   7
ENDBRANCH   2   3
ENDBRANCH   1   2
BRANCH   1  22
ATOM     22  C   UNL A   1      36.614  21.868  24.636  1.00  0.00     0.002 C 
BRANCH  22  23
ATOM     23  C   UNL A   1      36.550  20.386  25.022  1.00  0.00     0.002 C 
BRANCH  23  24
ATOM     24  C   UNL A   1      37.867  19.616  24.874  1.00  0.00     0.021 C 
BRANCH  24  25
ATOM     25  C   UNL A   1      38.999  20.101  25.775  1.00  0.00     0.116 C 
BRANCH  25  26
ATOM     26  N   UNL A   1      40.068  19.123  25.888  1.00  0.00    -0.352 N 
ATOM     27  C   UNL A   1      41.410  19.313  26.088  1.00  0.00     0.251 C 
ATOM     28  H   UNL A   1      39.785  18.183  25.809  1.00  0.00     0.163 HD
ATOM     29  O   UNL A   1      42.188  18.367  25.977  1.00  0.00    -0.269 OA
BRANCH  27  30
ATOM     30  C   UNL A   1      41.936  20.654  26.421  1.00  0.00     0.039 A 
ATOM     31  C   UNL A   1      42.172  21.559  25.382  1.00  0.00     0.014 A 
ATOM     32  C   UNL A   1      42.229  21.012  27.741  1.00  0.00     0.014 A 
ATOM     33  C   UNL A   1      42.657  22.836  25.668  1.00  0.00     0.010 A 
ATOM     34  C   UNL A   1      42.656  22.306  28.032  1.00  0.00     0.010 A 
ATOM     35  C   UNL A   1      42.880  23.228  26.998  1.00  0.00    -0.014 A 
BRANCH  35  36
ATOM     36  C   UNL A   1      43.353  24.598  27.319  1.00  0.00     0.031 A 
ATOM     37  C   UNL A   1      42.408  25.610  27.904  1.00  0.00     0.074 A 
ATOM     38  C   UNL A   1      44.622  24.946  27.032  1.00  0.00     0.049 A 
ATOM     39  N   UNL A   1      42.625  26.864  28.210  1.00  0.00    -0.248 NA
ATOM     40  C   UNL A   1      41.031  25.159  28.158  1.00  0.00     0.031 C 
ATOM     41  C   UNL A   1      45.620  24.070  26.417  1.00  0.00     0.029 A 
ATOM     42  N   UNL A   1      45.288  26.132  27.214  1.00  0.00    -0.354 N 
ATOM     43  C   UNL A   1      41.412  27.354  28.676  1.00  0.00     0.074 A 
ATOM     44  C   UNL A   1      40.451  26.277  28.571  1.00  0.00     0.031 C 
ATOM     45  C   UNL A   1      46.775  24.742  26.288  1.00  0.00     0.029 A 
ATOM     46  C   UNL A   1      46.592  26.103  26.787  1.00  0.00     0.049 A 
ATOM     47  H   UNL A   1      44.870  26.929  27.614  1.00  0.00     0.167 HD
ATOM     48  C   UNL A   1      41.130  28.585  29.166  1.00  0.00     0.037 A 
ATOM     49  C   UNL A   1      47.534  27.064  26.795  1.00  0.00     0.037 A 
ATOM     50  C   UNL A   1      42.094  29.646  29.300  1.00  0.00     0.049 A 
ATOM     51  C   UNL A   1      47.201  28.415  27.364  1.00  0.00     0.074 A 
ATOM     52  C   UNL A   1      41.922  30.906  29.845  1.00  0.00     0.029 A 
ATOM     53  N   UNL A   1      43.414  29.568  28.883  1.00  0.00    -0.354 N 
ATOM     54  N   UNL A   1      46.069  28.845  27.865  1.00  0.00    -0.248 NA
ATOM     55  C   UNL A   1      48.280  29.413  27.378  1.00  0.00     0.031 C 
ATOM     56  C   UNL A   1      43.128  31.604  29.725  1.00  0.00     0.029 A 
ATOM     57  C   UNL A   1      44.064  30.764  29.143  1.00  0.00     0.049 A 
ATOM     58  H   UNL A   1      43.829  28.779  28.464  1.00  0.00     0.167 HD
ATOM     59  C   UNL A   1      46.304  30.150  28.277  1.00  0.00     0.074 A 
ATOM     60  C   UNL A   1      47.693  30.437  27.980  1.00  0.00     0.031 C 
ATOM     61  C   UNL A   1      45.447  31.032  28.847  1.00  0.00     0.037 A 
BRANCH  48  62
ATOM     62  C   UNL A   1      39.719  28.853  29.603  1.00  0.00     0.064 A 
ATOM     63  C   UNL A   1      39.292  28.582  30.911  1.00  0.00     0.173 A 
ATOM     64  C   UNL A   1      38.797  29.428  28.716  1.00  0.00     0.173 A 
ATOM     65  F   UNL A   1      40.133  28.021  31.793  1.00  0.00    -0.203 F 
ATOM     66  C   UNL A   1      37.986  28.852  31.308  1.00  0.00     0.198 A 
ATOM     67  C   UNL A   1      37.498  29.722  29.125  1.00  0.00     0.198 A 
ATOM     68  F   UNL A   1      39.155  29.711  27.455  1.00  0.00    -0.203 F 
ATOM     69  F   UNL A   1      37.587  28.545  32.551  1.00  0.00    -0.200 F 
ATOM     70  C   UNL A   1      37.092  29.428  30.419  1.00  0.00     0.200 A 
ATOM     71  F   UNL A   1      36.639  30.289  28.267  1.00  0.00    -0.200 F 
ATOM     72  F   UNL A   1      35.838  29.695  30.804  1.00  0.00    -0.200 F 
ENDBRANCH  48  62
BRANCH  49  73
ATOM     73  C   UNL A   1      48.893  26.774  26.271  1.00  0.00     0.064 A 
ATOM     74  C   UNL A   1      49.220  27.043  24.934  1.00  0.00     0.173 A 
ATOM     75  C   UNL A   1      49.888  26.221  27.089  1.00  0.00     0.173 A 
ATOM     76  F   UNL A   1      48.294  27.552  24.108  1.00  0.00    -0.203 F 
ATOM     77  C   UNL A   1      50.486  26.751  24.431  1.00  0.00     0.198 A 
ATOM     78  C   UNL A   1      51.161  25.953  26.591  1.00  0.00     0.198 A 
ATOM     79  F   UNL A   1      49.625  25.950  28.376  1.00  0.00    -0.203 F 
ATOM     80  F   UNL A   1      50.759  26.978  23.138  1.00  0.00    -0.200 F 
ATOM     81  C   UNL A   1      51.457  26.212  25.260  1.00  0.00     0.200 A 
ATOM     82  F   UNL A   1      52.101  25.444  27.399  1.00  0.00    -0.200 F 
ATOM     83  F   UNL A   1      52.675  25.934  24.777  1.00  0.00    -0.200 F 
ENDBRANCH  49  73
BRANCH  61  84
ATOM     84  C   UNL A   1      45.994  32.380  29.214  1.00  0.00     0.064 A 
ATOM     85  C   UNL A   1      45.925  33.464  28.328  1.00  0.00     0.173 A 
ATOM     86  C   UNL A   1      46.566  32.595  30.476  1.00  0.00     0.173 A 
ATOM     87  F   UNL A   1      45.402  33.304  27.103  1.00  0.00    -0.203 F 
ATOM     88  C   UNL A   1      46.430  34.711  28.686  1.00  0.00     0.198 A 
ATOM     89  C   UNL A   1      47.045  33.850  30.840  1.00  0.00     0.198 A 
ATOM     90  F   UNL A   1      46.650  31.590  31.361  1.00  0.00    -0.203 F 
ATOM     91  F   UNL A   1      46.395  35.724  27.807  1.00  0.00    -0.200 F 
ATOM     92  C   UNL A   1      46.983  34.905  29.942  1.00  0.00     0.200 A 
ATOM     93  F   UNL A   1      47.570  34.037  32.059  1.00  0.00    -0.200 F 
ATOM     94  F   UNL A   1      47.467  36.107  30.286  1.00  0.00    -0.200 F 
ENDBRANCH  61  84
ENDBRANCH  35  36
ENDBRANCH  27  30
ENDBRANCH  25  26
ENDBRANCH  24  25
ENDBRANCH  23  24
ENDBRANCH  22  23
ENDBRANCH   1  22
TORSDOF 17
ENDMDL
MODEL 2
REMARK VINA RESULT:     -11.0      5.511     10.861
REMARK SMILES C[C@H](Nc1ccc(N(C)C)cc1)[C@@H](C)C(=O)NCCCCCCNC(=O)c1ccc(-c2c3nc(c(-c4c(F)c(F)c(F)c(F)c4F)c4ccc([nH]4)c(-c4c(F)c(F)c(F)c(F)c4F)c4nc(c(-c5c(F)c(F)c(F)c(F)c5F)c5ccc2[nH]5)C=C4)C=C3)cc1
REMARK SMILES IDX 19 1 18 2 17 3 15 4 16 5 13 7 14 8 2 9 1 10 3 11 4 13 5 14
REMARK SMILES IDX 12 15 6 16 11 17 7 18 8 19 9 20 10 21 20 22 21 23 22 24
REMARK SMILES IDX 23 25 24 26 25 27 26 29 27 30 28 31 89 32 29 33 88 34 30 35
REMARK SMILES IDX 31 36 32 37 82 38 33 39 87 40 81 41 83 42 34 43 86 44 80 45
REMARK SMILES IDX 79 46 35 48 67 49 47 50 66 51 48 52 51 53 65 54 84 55 49 56
REMARK SMILES IDX 50 57 64 59 85 60 52 61 36 62 37 63 45 64 38 65 39 66 43 67
REMARK SMILES IDX 46 68 40 69 41 70 44 71 42 72 68 73 69 74 77 75 70 76 71 77
REMARK SMILES IDX 75 78 78 79 72 80 73 81 76 82 74 83 53 84 54 85 62 86 55 87
REMARK SMILES IDX 56 88 60 89 63 90 57 91 58 92 61 93 59 94
REMARK H PARENT 17 6 3 12 24 28 83 47 51 58
REMARK Flexibility Score: inf
ROOT
ATOM      1  C   UNL A   1      33.118  28.927  25.630  1.00  0.00     0.021 C 
ENDROOT
BRANCH   1   2
ATOM      2  C   UNL A   1      33.386  27.616  26.374  1.00  0.00     0.116 C 
BRANCH   2   3
ATOM      3  N   UNL A   1      32.141  26.949  26.711  1.00  0.00    -0.356 N 
ATOM      4  C   UNL A   1      31.195  26.353  25.937  1.00  0.00     0.224 C 
ATOM      5  O   UNL A   1      30.171  25.959  26.502  1.00  0.00    -0.275 OA
ATOM      6  H   UNL A   1      31.945  26.925  27.676  1.00  0.00     0.163 HD
BRANCH   4   7
ATOM      7  C   UNL A   1      31.383  26.123  24.441  1.00  0.00     0.097 C 
ATOM      8  C   UNL A   1      30.173  26.694  23.700  1.00  0.00     0.020 C 
BRANCH   7   9
ATOM      9  C   UNL A   1      31.788  24.668  24.121  1.00  0.00     0.088 C 
ATOM     10  C   UNL A   1      30.652  23.955  23.366  1.00  0.00     0.031 C 
BRANCH   9  11
ATOM     11  N   UNL A   1      32.088  23.894  25.336  1.00  0.00    -0.382 N 
ATOM     12  H   UNL A   1      31.443  23.828  26.077  1.00  0.00     0.160 HD
BRANCH  11  13
ATOM     13  C   UNL A   1      33.327  23.255  25.391  1.00  0.00     0.034 A 
ATOM     14  C   UNL A   1      33.578  22.106  24.649  1.00  0.00     0.028 A 
ATOM     15  C   UNL A   1      34.391  23.801  26.099  1.00  0.00     0.028 A 
ATOM     16  C   UNL A   1      34.857  21.513  24.636  1.00  0.00     0.028 A 
ATOM     17  C   UNL A   1      35.659  23.200  26.090  1.00  0.00     0.028 A 
ATOM     18  C   UNL A   1      35.940  22.034  25.361  1.00  0.00     0.036 A 
BRANCH  18  19
ATOM     19  N   UNL A   1      37.201  21.458  25.376  1.00  0.00    -0.378 N 
ATOM     20  C   UNL A   1      38.421  22.161  25.751  1.00  0.00     0.143 C 
ATOM     21  C   UNL A   1      37.382  20.057  25.000  1.00  0.00     0.143 C 
ENDBRANCH  18  19
ENDBRANCH  11  13
ENDBRANCH   9  11
ENDBRANCH   7   9
ENDBRANCH   4   7
ENDBRANCH   2   3
ENDBRANCH   1   2
BRANCH   1  22
ATOM     22  C   UNL A   1      32.644  30.072  26.533  1.00  0.00     0.002 C 
BRANCH  22  23
ATOM     23  C   UNL A   1      31.403  30.823  26.037  1.00  0.00     0.002 C 
BRANCH  23  24
ATOM     24  C   UNL A   1      31.306  32.286  26.479  1.00  0.00     0.021 C 
BRANCH  24  25
ATOM     25  C   UNL A   1      32.529  32.815  27.223  1.00  0.00     0.116 C 
BRANCH  25  26
ATOM     26  N   UNL A   1      32.368  34.202  27.627  1.00  0.00    -0.352 N 
ATOM     27  C   UNL A   1      33.000  34.903  28.620  1.00  0.00     0.251 C 
ATOM     28  H   UNL A   1      31.705  34.715  27.110  1.00  0.00     0.163 HD
ATOM     29  O   UNL A   1      32.602  36.024  28.931  1.00  0.00    -0.269 OA
BRANCH  27  30
ATOM     30  C   UNL A   1      34.153  34.314  29.336  1.00  0.00     0.039 A 
ATOM     31  C   UNL A   1      33.909  33.523  30.462  1.00  0.00     0.014 A 
ATOM     32  C   UNL A   1      35.466  34.565  28.927  1.00  0.00     0.014 A 
ATOM     33  C   UNL A   1      34.977  32.944  31.150  1.00  0.00     0.010 A 
ATOM     34  C   UNL A   1      36.528  33.939  29.578  1.00  0.00     0.010 A 
ATOM     35  C   UNL A   1      36.294  33.130  30.699  1.00  0.00    -0.014 A 
BRANCH  35  36
ATOM     36  C   UNL A   1      37.435  32.483  31.395  1.00  0.00     0.031 A 
ATOM     37  C   UNL A   1      38.158  31.329  30.759  1.00  0.00     0.074 A 
ATOM     38  C   UNL A   1      37.786  32.904  32.626  1.00  0.00     0.049 A 
ATOM     39  N   UNL A   1      39.146  30.611  31.230  1.00  0.00    -0.248 NA
ATOM     40  C   UNL A   1      37.693  30.911  29.427  1.00  0.00     0.031 C 
ATOM     41  C   UNL A   1      37.129  33.980  33.369  1.00  0.00     0.029 A 
ATOM     42  N   UNL A   1      38.776  32.471  33.472  1.00  0.00    -0.354 N 
ATOM     43  C   UNL A   1      39.410  29.651  30.262  1.00  0.00     0.074 A 
ATOM     44  C   UNL A   1      38.450  29.848  29.198  1.00  0.00     0.031 C 
ATOM     45  C   UNL A   1      37.745  34.135  34.552  1.00  0.00     0.029 A 
ATOM     46  C   UNL A   1      38.821  33.154  34.662  1.00  0.00     0.049 A 
ATOM     47  H   UNL A   1      39.396  31.740  33.246  1.00  0.00     0.167 HD
ATOM     48  C   UNL A   1      40.379  28.704  30.254  1.00  0.00     0.037 A 
ATOM     49  C   UNL A   1      39.637  33.005  35.722  1.00  0.00     0.037 A 
ATOM     50  C   UNL A   1      41.354  28.530  31.298  1.00  0.00     0.049 A 
ATOM     51  C   UNL A   1      40.717  31.960  35.677  1.00  0.00     0.074 A 
ATOM     52  C   UNL A   1      42.415  27.643  31.351  1.00  0.00     0.029 A 
ATOM     53  N   UNL A   1      41.386  29.262  32.476  1.00  0.00    -0.354 N 
ATOM     54  N   UNL A   1      41.000  31.103  34.727  1.00  0.00    -0.248 NA
ATOM     55  C   UNL A   1      41.599  31.868  36.850  1.00  0.00     0.031 C 
ATOM     56  C   UNL A   1      43.067  27.813  32.577  1.00  0.00     0.029 A 
ATOM     57  C   UNL A   1      42.438  28.834  33.270  1.00  0.00     0.049 A 
ATOM     58  H   UNL A   1      40.754  29.979  32.713  1.00  0.00     0.167 HD
ATOM     59  C   UNL A   1      42.104  30.390  35.172  1.00  0.00     0.074 A 
ATOM     60  C   UNL A   1      42.450  30.924  36.474  1.00  0.00     0.031 C 
ATOM     61  C   UNL A   1      42.771  29.381  34.560  1.00  0.00     0.037 A 
BRANCH  48  62
ATOM     62  C   UNL A   1      40.438  27.782  29.071  1.00  0.00     0.064 A 
ATOM     63  C   UNL A   1      39.672  26.608  29.015  1.00  0.00     0.173 A 
ATOM     64  C   UNL A   1      41.236  28.100  27.962  1.00  0.00     0.173 A 
ATOM     65  F   UNL A   1      38.902  26.255  30.054  1.00  0.00    -0.203 F 
ATOM     66  C   UNL A   1      39.723  25.772  27.903  1.00  0.00     0.198 A 
ATOM     67  C   UNL A   1      41.264  27.274  26.839  1.00  0.00     0.198 A 
ATOM     68  F   UNL A   1      41.984  29.213  27.962  1.00  0.00    -0.203 F 
ATOM     69  F   UNL A   1      39.016  24.634  27.889  1.00  0.00    -0.200 F 
ATOM     70  C   UNL A   1      40.513  26.109  26.813  1.00  0.00     0.200 A 
ATOM     71  F   UNL A   1      42.019  27.607  25.784  1.00  0.00    -0.200 F 
ATOM     72  F   UNL A   1      40.554  25.308  25.741  1.00  0.00    -0.200 F 
ENDBRANCH  48  62
BRANCH  49  73
ATOM     73  C   UNL A   1      39.480  33.887  36.906  1.00  0.00     0.064 A 
ATOM     74  C   UNL A   1      38.719  33.479  38.011  1.00  0.00     0.173 A 
ATOM     75  C   UNL A   1      40.082  35.152  36.959  1.00  0.00     0.173 A 
ATOM     76  F   UNL A   1      38.106  32.286  37.996  1.00  0.00    -0.203 F 
ATOM     77  C   UNL A   1      38.550  34.312  39.115  1.00  0.00     0.198 A 
ATOM     78  C   UNL A   1      39.933  35.973  38.074  1.00  0.00     0.198 A 
ATOM     79  F   UNL A   1      40.824  35.586  35.929  1.00  0.00    -0.203 F 
ATOM     80  F   UNL A   1      37.781  33.914  40.138  1.00  0.00    -0.200 F 
ATOM     81  C   UNL A   1      39.162  35.555  39.148  1.00  0.00     0.200 A 
ATOM     82  F   UNL A   1      40.537  37.169  38.108  1.00  0.00    -0.200 F 
ATOM     83  F   UNL A   1      39.001  36.355  40.210  1.00  0.00    -0.200 F 
ENDBRANCH  49  73
BRANCH  61  84
ATOM     84  C   UNL A   1      43.958  28.809  35.277  1.00  0.00     0.064 A 
ATOM     85  C   UNL A   1      45.259  29.267  35.021  1.00  0.00     0.173 A 
ATOM     86  C   UNL A   1      43.789  27.817  36.253  1.00  0.00     0.173 A 
ATOM     87  F   UNL A   1      45.473  30.204  34.085  1.00  0.00    -0.203 F 
ATOM     88  C   UNL A   1      46.350  28.733  35.700  1.00  0.00     0.198 A 
ATOM     89  C   UNL A   1      44.881  27.304  36.949  1.00  0.00     0.198 A 
ATOM     90  F   UNL A   1      42.564  27.350  36.538  1.00  0.00    -0.203 F 
ATOM     91  F   UNL A   1      47.590  29.152  35.407  1.00  0.00    -0.200 F 
ATOM     92  C   UNL A   1      46.160  27.757  36.667  1.00  0.00     0.200 A 
ATOM     93  F   UNL A   1      44.693  26.369  37.891  1.00  0.00    -0.200 F 
ATOM     94  F   UNL A   1      47.212  27.246  37.322  1.00  0.00    -0.200 F 
ENDBRANCH  61  84
ENDBRANCH  35  36
ENDBRANCH  27  30
ENDBRANCH  25  26
ENDBRANCH  24  25
ENDBRANCH  23  24
ENDBRANCH  22  23
ENDBRANCH   1  22
TORSDOF 17
ENDMDL
MODEL 3
REMARK VINA RESULT:     -11.0      6.111     10.569
REMARK SMILES C[C@H](Nc1ccc(N(C)C)cc1)[C@@H](C)C(=O)NCCCCCCNC(=O)c1ccc(-c2c3nc(c(-c4c(F)c(F)c(F)c(F)c4F)c4ccc([nH]4)c(-c4c(F)c(F)c(F)c(F)c4F)c4nc(c(-c5c(F)c(F)c(F)c(F)c5F)c5ccc2[nH]5)C=C4)C=C3)cc1
REMARK SMILES IDX 19 1 18 2 17 3 15 4 16 5 13 7 14 8 2 9 1 10 3 11 4 13 5 14
REMARK SMILES IDX 12 15 6 16 11 17 7 18 8 19 9 20 10 21 20 22 21 23 22 24
REMARK SMILES IDX 23 25 24 26 25 27 26 29 27 30 28 31 89 32 29 33 88 34 30 35
REMARK SMILES IDX 31 36 32 37 82 38 33 39 87 40 81 41 83 42 34 43 86 44 80 45
REMARK SMILES IDX 79 46 35 48 67 49 47 50 66 51 48 52 51 53 65 54 84 55 49 56
REMARK SMILES IDX 50 57 64 59 85 60 52 61 36 62 37 63 45 64 38 65 39 66 43 67
REMARK SMILES IDX 46 68 40 69 41 70 44 71 42 72 68 73 69 74 77 75 70 76 71 77
REMARK SMILES IDX 75 78 78 79 72 80 73 81 76 82 74 83 53 84 54 85 62 86 55 87
REMARK SMILES IDX 56 88 60 89 63 90 57 91 58 92 61 93 59 94
REMARK H PARENT 17 6 3 12 24 28 83 47 51 58
REMARK Flexibility Score: inf
ROOT
ATOM      1  C   UNL A   1      34.033  31.574  27.809  1.00  0.00     0.021 C 
ENDROOT
BRANCH   1   2
ATOM      2  C   UNL A   1      34.721  30.221  27.604  1.00  0.00     0.116 C 
BRANCH   2   3
ATOM      3  N   UNL A   1      33.759  29.136  27.673  1.00  0.00    -0.356 N 
ATOM      4  C   UNL A   1      32.908  28.620  26.746  1.00  0.00     0.224 C 
ATOM      5  O   UNL A   1      32.115  27.755  27.128  1.00  0.00    -0.275 OA
ATOM      6  H   UNL A   1      33.712  28.693  28.552  1.00  0.00     0.163 HD
BRANCH   4   7
ATOM      7  C   UNL A   1      32.940  29.037  25.279  1.00  0.00     0.097 C 
ATOM      8  C   UNL A   1      31.524  29.416  24.844  1.00  0.00     0.020 C 
BRANCH   7   9
ATOM      9  C   UNL A   1      33.703  28.022  24.401  1.00  0.00     0.088 C 
ATOM     10  C   UNL A   1      33.983  28.626  23.014  1.00  0.00     0.031 C 
BRANCH   9  11
ATOM     11  N   UNL A   1      32.949  26.772  24.213  1.00  0.00    -0.382 N 
ATOM     12  H   UNL A   1      31.991  26.777  23.986  1.00  0.00     0.160 HD
BRANCH  11  13
ATOM     13  C   UNL A   1      33.654  25.577  24.369  1.00  0.00     0.034 A 
ATOM     14  C   UNL A   1      33.997  24.796  23.271  1.00  0.00     0.028 A 
ATOM     15  C   UNL A   1      34.135  25.177  25.610  1.00  0.00     0.028 A 
ATOM     16  C   UNL A   1      34.785  23.637  23.421  1.00  0.00     0.028 A 
ATOM     17  C   UNL A   1      34.910  24.017  25.754  1.00  0.00     0.028 A 
ATOM     18  C   UNL A   1      35.263  23.202  24.667  1.00  0.00     0.036 A 
BRANCH  18  19
ATOM     19  N   UNL A   1      36.025  22.057  24.840  1.00  0.00    -0.378 N 
ATOM     20  C   UNL A   1      35.471  20.714  24.969  1.00  0.00     0.143 C 
ATOM     21  C   UNL A   1      37.483  22.136  24.905  1.00  0.00     0.143 C 
ENDBRANCH  18  19
ENDBRANCH  11  13
ENDBRANCH   9  11
ENDBRANCH   7   9
ENDBRANCH   4   7
ENDBRANCH   2   3
ENDBRANCH   1   2
BRANCH   1  22
ATOM     22  C   UNL A   1      34.675  32.442  28.898  1.00  0.00     0.002 C 
BRANCH  22  23
ATOM     23  C   UNL A   1      34.614  33.953  28.646  1.00  0.00     0.002 C 
BRANCH  23  24
ATOM     24  C   UNL A   1      33.249  34.601  28.893  1.00  0.00     0.021 C 
BRANCH  24  25
ATOM     25  C   UNL A   1      33.303  36.036  29.409  1.00  0.00     0.116 C 
BRANCH  25  26
ATOM     26  N   UNL A   1      32.517  36.214  30.619  1.00  0.00    -0.352 N 
ATOM     27  C   UNL A   1      32.689  35.664  31.862  1.00  0.00     0.251 C 
ATOM     28  H   UNL A   1      31.746  36.821  30.532  1.00  0.00     0.163 HD
ATOM     29  O   UNL A   1      31.814  35.794  32.718  1.00  0.00    -0.269 OA
BRANCH  27  30
ATOM     30  C   UNL A   1      33.913  34.899  32.181  1.00  0.00     0.039 A 
ATOM     31  C   UNL A   1      35.141  35.567  32.180  1.00  0.00     0.014 A 
ATOM     32  C   UNL A   1      33.863  33.527  32.446  1.00  0.00     0.014 A 
ATOM     33  C   UNL A   1      36.311  34.873  32.490  1.00  0.00     0.010 A 
ATOM     34  C   UNL A   1      35.023  32.847  32.814  1.00  0.00     0.010 A 
ATOM     35  C   UNL A   1      36.258  33.512  32.832  1.00  0.00    -0.014 A 
BRANCH  35  36
ATOM     36  C   UNL A   1      37.490  32.773  33.207  1.00  0.00     0.031 A 
ATOM     37  C   UNL A   1      38.192  33.074  34.502  1.00  0.00     0.074 A 
ATOM     38  C   UNL A   1      38.005  31.866  32.355  1.00  0.00     0.049 A 
ATOM     39  N   UNL A   1      39.299  32.566  34.981  1.00  0.00    -0.248 NA
ATOM     40  C   UNL A   1      37.581  34.101  35.362  1.00  0.00     0.031 C 
ATOM     41  C   UNL A   1      37.445  31.522  31.048  1.00  0.00     0.029 A 
ATOM     42  N   UNL A   1      39.121  31.073  32.458  1.00  0.00    -0.354 N 
ATOM     43  C   UNL A   1      39.524  33.219  36.185  1.00  0.00     0.074 A 
ATOM     44  C   UNL A   1      38.465  34.192  36.344  1.00  0.00     0.031 C 
ATOM     45  C   UNL A   1      38.209  30.576  30.478  1.00  0.00     0.029 A 
ATOM     46  C   UNL A   1      39.326  30.267  31.367  1.00  0.00     0.049 A 
ATOM     47  H   UNL A   1      39.718  31.083  33.242  1.00  0.00     0.167 HD
ATOM     48  C   UNL A   1      40.515  33.012  37.086  1.00  0.00     0.037 A 
ATOM     49  C   UNL A   1      40.305  29.379  31.110  1.00  0.00     0.037 A 
ATOM     50  C   UNL A   1      41.549  32.021  36.943  1.00  0.00     0.049 A 
ATOM     51  C   UNL A   1      41.379  29.152  32.138  1.00  0.00     0.074 A 
ATOM     52  C   UNL A   1      42.557  31.689  37.830  1.00  0.00     0.029 A 
ATOM     53  N   UNL A   1      41.706  31.201  35.835  1.00  0.00    -0.354 N 
ATOM     54  N   UNL A   1      41.543  29.727  33.304  1.00  0.00    -0.248 NA
ATOM     55  C   UNL A   1      42.401  28.145  31.817  1.00  0.00     0.031 C 
ATOM     56  C   UNL A   1      43.347  30.694  37.245  1.00  0.00     0.029 A 
ATOM     57  C   UNL A   1      42.806  30.375  36.010  1.00  0.00     0.049 A 
ATOM     58  H   UNL A   1      41.123  31.205  35.042  1.00  0.00     0.167 HD
ATOM     59  C   UNL A   1      42.666  29.136  33.867  1.00  0.00     0.074 A 
ATOM     60  C   UNL A   1      43.136  28.147  32.919  1.00  0.00     0.031 C 
ATOM     61  C   UNL A   1      43.256  29.392  35.060  1.00  0.00     0.037 A 
BRANCH  48  62
ATOM     62  C   UNL A   1      40.524  33.869  38.318  1.00  0.00     0.064 A 
ATOM     63  C   UNL A   1      39.769  33.533  39.452  1.00  0.00     0.173 A 
ATOM     64  C   UNL A   1      41.330  35.015  38.381  1.00  0.00     0.173 A 
ATOM     65  F   UNL A   1      38.973  32.453  39.438  1.00  0.00    -0.203 F 
ATOM     66  C   UNL A   1      39.801  34.327  40.595  1.00  0.00     0.198 A 
ATOM     67  C   UNL A   1      41.380  35.793  39.536  1.00  0.00     0.198 A 
ATOM     68  F   UNL A   1      42.075  35.378  37.326  1.00  0.00    -0.203 F 
ATOM     69  F   UNL A   1      39.039  34.011  41.651  1.00  0.00    -0.200 F 
ATOM     70  C   UNL A   1      40.611  35.452  40.639  1.00  0.00     0.200 A 
ATOM     71  F   UNL A   1      42.172  36.872  39.581  1.00  0.00    -0.200 F 
ATOM     72  F   UNL A   1      40.648  36.211  41.742  1.00  0.00    -0.200 F 
ENDBRANCH  48  62
BRANCH  49  73
ATOM     73  C   UNL A   1      40.297  28.616  29.837  1.00  0.00     0.064 A 
ATOM     74  C   UNL A   1      40.990  29.089  28.712  1.00  0.00     0.173 A 
ATOM     75  C   UNL A   1      39.600  27.407  29.714  1.00  0.00     0.173 A 
ATOM     76  F   UNL A   1      41.654  30.252  28.776  1.00  0.00    -0.203 F 
ATOM     77  C   UNL A   1      40.968  28.389  27.508  1.00  0.00     0.198 A 
ATOM     78  C   UNL A   1      39.599  26.696  28.516  1.00  0.00     0.198 A 
ATOM     79  F   UNL A   1      38.926  26.911  30.762  1.00  0.00    -0.203 F 
ATOM     80  F   UNL A   1      41.602  28.886  26.436  1.00  0.00    -0.200 F 
ATOM     81  C   UNL A   1      40.278  27.191  27.412  1.00  0.00     0.200 A 
ATOM     82  F   UNL A   1      38.941  25.531  28.431  1.00  0.00    -0.200 F 
ATOM     83  F   UNL A   1      40.258  26.517  26.254  1.00  0.00    -0.200 F 
ENDBRANCH  49  73
BRANCH  61  84
ATOM     84  C   UNL A   1      44.458  28.569  35.420  1.00  0.00     0.064 A 
ATOM     85  C   UNL A   1      45.757  28.995  35.109  1.00  0.00     0.173 A 
ATOM     86  C   UNL A   1      44.309  27.358  36.111  1.00  0.00     0.173 A 
ATOM     87  F   UNL A   1      45.951  30.139  34.435  1.00  0.00    -0.203 F 
ATOM     88  C   UNL A   1      46.863  28.224  35.457  1.00  0.00     0.198 A 
ATOM     89  C   UNL A   1      45.419  26.604  36.480  1.00  0.00     0.198 A 
ATOM     90  F   UNL A   1      43.086  26.911  36.436  1.00  0.00    -0.203 F 
ATOM     91  F   UNL A   1      48.094  28.627  35.109  1.00  0.00    -0.200 F 
ATOM     92  C   UNL A   1      46.694  27.033  36.147  1.00  0.00     0.200 A 
ATOM     93  F   UNL A   1      45.253  25.458  37.157  1.00  0.00    -0.200 F 
ATOM     94  F   UNL A   1      47.760  26.294  36.483  1.00  0.00    -0.200 F 
ENDBRANCH  61  84
ENDBRANCH  35  36
ENDBRANCH  27  30
ENDBRANCH  25  26
ENDBRANCH  24  25
ENDBRANCH  23  24
ENDBRANCH  22  23
ENDBRANCH   1  22
TORSDOF 17
ENDMDL
