MODEL 1
REMARK VINA RESULT:     -12.1      0.000      0.000
REMARK SMILES CC[C@H](C)CN(CC)c1nc(C(=O)NCCCCCCNC(=O)c2ccc(-c3c4nc(c(-c5c(F)c(F)c(F)c(F)c5F)c5ccc([nH]5)c(-c5c(F)c(F)c(F)c(F)c5F)c5nc(c(-c6c(F)c(F)c(F)c(F)c6F)c6ccc3[nH]6)C=C5)C=C4)cc2)cc2ccccc12
REMARK SMILES IDX 16 1 15 2 14 3 12 4 13 5 11 7 9 8 10 9 93 10 88 11 92 12
REMARK SMILES IDX 87 13 89 14 91 15 90 16 6 17 5 18 3 19 4 20 2 21 1 22 7 23
REMARK SMILES IDX 8 24 17 25 18 26 19 27 20 28 21 29 22 30 23 32 24 33 25 34
REMARK SMILES IDX 86 35 26 36 85 37 27 38 28 39 29 40 79 41 30 42 84 43 78 44
REMARK SMILES IDX 80 45 31 46 83 47 77 48 76 49 32 51 64 52 44 53 63 54 45 55
REMARK SMILES IDX 48 56 62 57 81 58 46 59 47 60 61 62 82 63 49 64 33 65 34 66
REMARK SMILES IDX 42 67 35 68 36 69 40 70 43 71 37 72 38 73 41 74 39 75 65 76
REMARK SMILES IDX 66 77 74 78 67 79 68 80 72 81 75 82 69 83 70 84 73 85 71 86
REMARK SMILES IDX 50 87 51 88 59 89 52 90 53 91 57 92 60 93 54 94 55 95 58 96
REMARK SMILES IDX 56 97
REMARK H PARENT 14 6 21 31 80 50 48 61
REMARK Flexibility Score: inf
ROOT
ATOM      1  C   UNL A   1      30.220  26.846  24.526  1.00  0.00     0.021 C 
ENDROOT
BRANCH   1   2
ATOM      2  C   UNL A   1      30.144  25.326  24.414  1.00  0.00     0.116 C 
BRANCH   2   3
ATOM      3  N   UNL A   1      29.918  24.692  25.692  1.00  0.00    -0.351 N 
ATOM      4  C   UNL A   1      30.649  23.729  26.348  1.00  0.00     0.269 C 
ATOM      5  O   UNL A   1      30.209  23.344  27.435  1.00  0.00    -0.268 OA
ATOM      6  H   UNL A   1      29.114  24.997  26.170  1.00  0.00     0.163 HD
BRANCH   4   7
ATOM      7  C   UNL A   1      31.933  23.148  25.822  1.00  0.00     0.131 A 
ATOM      8  C   UNL A   1      33.080  21.540  24.596  1.00  0.00     0.137 A 
ATOM      9  N   UNL A   1      31.915  21.988  25.120  1.00  0.00    -0.225 NA
ATOM     10  C   UNL A   1      34.277  22.300  24.663  1.00  0.00     0.024 A 
ATOM     11  C   UNL A   1      34.288  23.434  25.496  1.00  0.00    -0.012 A 
ATOM     12  C   UNL A   1      35.472  21.966  23.985  1.00  0.00     0.012 A 
ATOM     13  C   UNL A   1      33.097  23.861  26.076  1.00  0.00     0.043 A 
ATOM     14  C   UNL A   1      35.497  24.106  25.751  1.00  0.00     0.009 A 
ATOM     15  C   UNL A   1      36.664  22.649  24.227  1.00  0.00     0.001 A 
ATOM     16  C   UNL A   1      36.682  23.699  25.138  1.00  0.00     0.001 A 
BRANCH   8  17
ATOM     17  N   UNL A   1      33.130  20.216  24.137  1.00  0.00    -0.356 N 
BRANCH  17  18
ATOM     18  C   UNL A   1      33.250  19.177  25.186  1.00  0.00     0.121 C 
BRANCH  18  19
ATOM     19  C   UNL A   1      33.312  17.738  24.611  1.00  0.00     0.005 C 
ATOM     20  C   UNL A   1      34.750  17.231  24.393  1.00  0.00     0.009 C 
BRANCH  19  21
ATOM     21  C   UNL A   1      32.533  16.711  25.460  1.00  0.00     0.002 C 
ATOM     22  C   UNL A   1      33.047  15.279  25.377  1.00  0.00     0.004 C 
ENDBRANCH  19  21
ENDBRANCH  18  19
ENDBRANCH  17  18
BRANCH  17  23
ATOM     23  C   UNL A   1      32.363  19.893  22.932  1.00  0.00     0.114 C 
ATOM     24  C   UNL A   1      31.925  21.105  22.123  1.00  0.00     0.027 C 
ENDBRANCH  17  23
ENDBRANCH   8  17
ENDBRANCH   4   7
ENDBRANCH   2   3
ENDBRANCH   1   2
BRANCH   1  25
ATOM     25  C   UNL A   1      31.485  27.408  25.180  1.00  0.00     0.002 C 
BRANCH  25  26
ATOM     26  C   UNL A   1      31.438  27.572  26.701  1.00  0.00     0.002 C 
BRANCH  26  27
ATOM     27  C   UNL A   1      31.785  28.964  27.235  1.00  0.00     0.021 C 
BRANCH  27  28
ATOM     28  C   UNL A   1      32.759  29.773  26.387  1.00  0.00     0.116 C 
BRANCH  28  29
ATOM     29  N   UNL A   1      32.613  31.206  26.572  1.00  0.00    -0.352 N 
ATOM     30  C   UNL A   1      33.361  32.074  27.327  1.00  0.00     0.251 C 
ATOM     31  H   UNL A   1      31.865  31.616  26.082  1.00  0.00     0.163 HD
ATOM     32  O   UNL A   1      32.994  33.236  27.460  1.00  0.00    -0.269 OA
BRANCH  30  33
ATOM     33  C   UNL A   1      34.599  31.617  28.001  1.00  0.00     0.039 A 
ATOM     34  C   UNL A   1      34.614  30.336  28.561  1.00  0.00     0.014 A 
ATOM     35  C   UNL A   1      35.717  32.445  28.130  1.00  0.00     0.014 A 
ATOM     36  C   UNL A   1      35.754  29.878  29.225  1.00  0.00     0.010 A 
ATOM     37  C   UNL A   1      36.881  31.960  28.725  1.00  0.00     0.010 A 
ATOM     38  C   UNL A   1      36.904  30.680  29.300  1.00  0.00    -0.014 A 
BRANCH  38  39
ATOM     39  C   UNL A   1      38.115  30.202  30.015  1.00  0.00     0.031 A 
ATOM     40  C   UNL A   1      38.383  30.640  31.429  1.00  0.00     0.074 A 
ATOM     41  C   UNL A   1      38.984  29.388  29.386  1.00  0.00     0.049 A 
ATOM     42  N   UNL A   1      39.378  30.326  32.221  1.00  0.00    -0.248 NA
ATOM     43  C   UNL A   1      37.420  31.580  32.025  1.00  0.00     0.031 C 
ATOM     44  C   UNL A   1      38.865  28.933  28.001  1.00  0.00     0.029 A 
ATOM     45  N   UNL A   1      40.139  28.796  29.831  1.00  0.00    -0.354 N 
ATOM     46  C   UNL A   1      39.163  31.032  33.397  1.00  0.00     0.074 A 
ATOM     47  C   UNL A   1      37.982  31.841  33.195  1.00  0.00     0.031 C 
ATOM     48  C   UNL A   1      39.886  28.108  27.719  1.00  0.00     0.029 A 
ATOM     49  C   UNL A   1      40.746  27.998  28.894  1.00  0.00     0.049 A 
ATOM     50  H   UNL A   1      40.498  28.931  30.738  1.00  0.00     0.167 HD
ATOM     51  C   UNL A   1      39.871  30.990  34.552  1.00  0.00     0.037 A 
ATOM     52  C   UNL A   1      41.866  27.254  28.976  1.00  0.00     0.037 A 
ATOM     53  C   UNL A   1      41.032  30.165  34.760  1.00  0.00     0.049 A 
ATOM     54  C   UNL A   1      42.624  27.212  30.275  1.00  0.00     0.074 A 
ATOM     55  C   UNL A   1      41.789  30.011  35.909  1.00  0.00     0.029 A 
ATOM     56  N   UNL A   1      41.604  29.353  33.792  1.00  0.00    -0.354 N 
ATOM     57  N   UNL A   1      42.371  27.828  31.404  1.00  0.00    -0.248 NA
ATOM     58  C   UNL A   1      43.816  26.354  30.316  1.00  0.00     0.031 C 
ATOM     59  C   UNL A   1      42.845  29.140  35.623  1.00  0.00     0.029 A 
ATOM     60  C   UNL A   1      42.716  28.707  34.313  1.00  0.00     0.049 A 
ATOM     61  H   UNL A   1      41.271  29.249  32.872  1.00  0.00     0.167 HD
ATOM     62  C   UNL A   1      43.349  27.410  32.296  1.00  0.00     0.074 A 
ATOM     63  C   UNL A   1      44.190  26.471  31.582  1.00  0.00     0.031 C 
ATOM     64  C   UNL A   1      43.537  27.770  33.590  1.00  0.00     0.037 A 
BRANCH  51  65
ATOM     65  C   UNL A   1      39.400  31.860  35.685  1.00  0.00     0.064 A 
ATOM     66  C   UNL A   1      38.440  31.413  36.606  1.00  0.00     0.173 A 
ATOM     67  C   UNL A   1      39.936  33.143  35.868  1.00  0.00     0.173 A 
ATOM     68  F   UNL A   1      37.888  30.198  36.470  1.00  0.00    -0.203 F 
ATOM     69  C   UNL A   1      38.008  32.231  37.647  1.00  0.00     0.198 A 
ATOM     70  C   UNL A   1      39.525  33.947  36.930  1.00  0.00     0.198 A 
ATOM     71  F   UNL A   1      40.861  33.619  35.022  1.00  0.00    -0.203 F 
ATOM     72  F   UNL A   1      37.049  31.803  38.480  1.00  0.00    -0.200 F 
ATOM     73  C   UNL A   1      38.556  33.494  37.813  1.00  0.00     0.200 A 
ATOM     74  F   UNL A   1      40.065  35.162  37.097  1.00  0.00    -0.200 F 
ATOM     75  F   UNL A   1      38.144  34.279  38.818  1.00  0.00    -0.200 F 
ENDBRANCH  51  65
BRANCH  52  76
ATOM     76  C   UNL A   1      42.315  26.454  27.807  1.00  0.00     0.064 A 
ATOM     77  C   UNL A   1      41.778  25.184  27.553  1.00  0.00     0.173 A 
ATOM     78  C   UNL A   1      43.295  26.935  26.926  1.00  0.00     0.173 A 
ATOM     79  F   UNL A   1      40.853  24.672  28.378  1.00  0.00    -0.203 F 
ATOM     80  C   UNL A   1      42.222  24.414  26.480  1.00  0.00     0.198 A 
ATOM     81  C   UNL A   1      43.717  26.178  25.836  1.00  0.00     0.198 A 
ATOM     82  F   UNL A   1      43.837  28.147  27.120  1.00  0.00    -0.203 F 
ATOM     83  F   UNL A   1      41.729  23.183  26.292  1.00  0.00    -0.200 F 
ATOM     84  C   UNL A   1      43.187  24.915  25.619  1.00  0.00     0.200 A 
ATOM     85  F   UNL A   1      44.639  26.669  24.998  1.00  0.00    -0.200 F 
ATOM     86  F   UNL A   1      43.614  24.175  24.586  1.00  0.00    -0.200 F 
ENDBRANCH  52  76
BRANCH  64  87
ATOM     87  C   UNL A   1      44.670  27.113  34.326  1.00  0.00     0.064 A 
ATOM     88  C   UNL A   1      45.950  27.686  34.377  1.00  0.00     0.173 A 
ATOM     89  C   UNL A   1      44.467  25.900  35.003  1.00  0.00     0.173 A 
ATOM     90  F   UNL A   1      46.200  28.838  33.736  1.00  0.00    -0.203 F 
ATOM     91  C   UNL A   1      46.993  27.049  35.043  1.00  0.00     0.198 A 
ATOM     92  C   UNL A   1      45.504  25.284  35.697  1.00  0.00     0.198 A 
ATOM     93  F   UNL A   1      43.260  25.314  34.994  1.00  0.00    -0.203 F 
ATOM     94  F   UNL A   1      48.222  27.584  35.025  1.00  0.00    -0.200 F 
ATOM     95  C   UNL A   1      46.768  25.852  35.707  1.00  0.00     0.200 A 
ATOM     96  F   UNL A   1      45.281  24.135  36.350  1.00  0.00    -0.200 F 
ATOM     97  F   UNL A   1      47.774  25.241  36.348  1.00  0.00    -0.200 F 
ENDBRANCH  64  87
ENDBRANCH  38  39
ENDBRANCH  30  33
ENDBRANCH  28  29
ENDBRANCH  27  28
ENDBRANCH  26  27
ENDBRANCH  25  26
ENDBRANCH   1  25
TORSDOF 18
ENDMDL
MODEL 2
REMARK VINA RESULT:     -11.8      1.193      2.814
REMARK SMILES CC[C@H](C)CN(CC)c1nc(C(=O)NCCCCCCNC(=O)c2ccc(-c3c4nc(c(-c5c(F)c(F)c(F)c(F)c5F)c5ccc([nH]5)c(-c5c(F)c(F)c(F)c(F)c5F)c5nc(c(-c6c(F)c(F)c(F)c(F)c6F)c6ccc3[nH]6)C=C5)C=C4)cc2)cc2ccccc12
REMARK SMILES IDX 16 1 15 2 14 3 12 4 13 5 11 7 9 8 10 9 93 10 88 11 92 12
REMARK SMILES IDX 87 13 89 14 91 15 90 16 6 17 5 18 3 19 4 20 2 21 1 22 7 23
REMARK SMILES IDX 8 24 17 25 18 26 19 27 20 28 21 29 22 30 23 32 24 33 25 34
REMARK SMILES IDX 86 35 26 36 85 37 27 38 28 39 29 40 79 41 30 42 84 43 78 44
REMARK SMILES IDX 80 45 31 46 83 47 77 48 76 49 32 51 64 52 44 53 63 54 45 55
REMARK SMILES IDX 48 56 62 57 81 58 46 59 47 60 61 62 82 63 49 64 33 65 34 66
REMARK SMILES IDX 42 67 35 68 36 69 40 70 43 71 37 72 38 73 41 74 39 75 65 76
REMARK SMILES IDX 66 77 74 78 67 79 68 80 72 81 75 82 69 83 70 84 73 85 71 86
REMARK SMILES IDX 50 87 51 88 59 89 52 90 53 91 57 92 60 93 54 94 55 95 58 96
REMARK SMILES IDX 56 97
REMARK H PARENT 14 6 21 31 80 50 48 61
REMARK Flexibility Score: inf
ROOT
ATOM      1  C   UNL A   1      29.734  26.367  24.023  1.00  0.00     0.021 C 
ENDROOT
BRANCH   1   2
ATOM      2  C   UNL A   1      30.317  25.041  23.544  1.00  0.00     0.116 C 
BRANCH   2   3
ATOM      3  N   UNL A   1      31.419  25.223  22.628  1.00  0.00    -0.351 N 
ATOM      4  C   UNL A   1      32.540  24.454  22.421  1.00  0.00     0.269 C 
ATOM      5  O   UNL A   1      33.344  24.860  21.578  1.00  0.00    -0.268 OA
ATOM      6  H   UNL A   1      31.357  26.025  22.060  1.00  0.00     0.163 HD
BRANCH   4   7
ATOM      7  C   UNL A   1      32.819  23.167  23.148  1.00  0.00     0.131 A 
ATOM      8  C   UNL A   1      33.586  22.018  25.018  1.00  0.00     0.137 A 
ATOM      9  N   UNL A   1      33.425  23.191  24.361  1.00  0.00    -0.225 NA
ATOM     10  C   UNL A   1      33.042  20.801  24.531  1.00  0.00     0.024 A 
ATOM     11  C   UNL A   1      32.527  20.791  23.221  1.00  0.00    -0.012 A 
ATOM     12  C   UNL A   1      33.027  19.588  25.257  1.00  0.00     0.012 A 
ATOM     13  C   UNL A   1      32.413  21.993  22.529  1.00  0.00     0.043 A 
ATOM     14  C   UNL A   1      32.158  19.574  22.622  1.00  0.00     0.009 A 
ATOM     15  C   UNL A   1      32.640  18.387  24.662  1.00  0.00     0.001 A 
ATOM     16  C   UNL A   1      32.238  18.376  23.332  1.00  0.00     0.001 A 
BRANCH   8  17
ATOM     17  N   UNL A   1      34.464  21.991  26.112  1.00  0.00    -0.356 N 
BRANCH  17  18
ATOM     18  C   UNL A   1      35.675  22.836  25.984  1.00  0.00     0.121 C 
BRANCH  18  19
ATOM     19  C   UNL A   1      36.801  22.161  25.159  1.00  0.00     0.005 C 
ATOM     20  C   UNL A   1      36.790  22.561  23.672  1.00  0.00     0.009 C 
BRANCH  19  21
ATOM     21  C   UNL A   1      38.209  22.405  25.743  1.00  0.00     0.002 C 
ATOM     22  C   UNL A   1      38.386  23.730  26.474  1.00  0.00     0.004 C 
ENDBRANCH  19  21
ENDBRANCH  18  19
ENDBRANCH  17  18
BRANCH  17  23
ATOM     23  C   UNL A   1      33.875  21.828  27.442  1.00  0.00     0.114 C 
ATOM     24  C   UNL A   1      32.669  22.717  27.709  1.00  0.00     0.027 C 
ENDBRANCH  17  23
ENDBRANCH   8  17
ENDBRANCH   4   7
ENDBRANCH   2   3
ENDBRANCH   1   2
BRANCH   1  25
ATOM     25  C   UNL A   1      30.740  27.382  24.572  1.00  0.00     0.002 C 
BRANCH  25  26
ATOM     26  C   UNL A   1      31.327  27.068  25.950  1.00  0.00     0.002 C 
BRANCH  26  27
ATOM     27  C   UNL A   1      31.835  28.270  26.750  1.00  0.00     0.021 C 
BRANCH  27  28
ATOM     28  C   UNL A   1      32.841  29.163  26.035  1.00  0.00     0.116 C 
BRANCH  28  29
ATOM     29  N   UNL A   1      32.604  30.578  26.263  1.00  0.00    -0.352 N 
ATOM     30  C   UNL A   1      33.252  31.452  27.098  1.00  0.00     0.251 C 
ATOM     31  H   UNL A   1      31.867  30.968  25.740  1.00  0.00     0.163 HD
ATOM     32  O   UNL A   1      32.814  32.587  27.250  1.00  0.00    -0.269 OA
BRANCH  30  33
ATOM     33  C   UNL A   1      34.468  31.035  27.835  1.00  0.00     0.039 A 
ATOM     34  C   UNL A   1      35.499  31.966  27.995  1.00  0.00     0.014 A 
ATOM     35  C   UNL A   1      34.625  29.734  28.322  1.00  0.00     0.014 A 
ATOM     36  C   UNL A   1      36.670  31.603  28.663  1.00  0.00     0.010 A 
ATOM     37  C   UNL A   1      35.761  29.395  29.056  1.00  0.00     0.010 A 
ATOM     38  C   UNL A   1      36.806  30.319  29.214  1.00  0.00    -0.014 A 
BRANCH  38  39
ATOM     39  C   UNL A   1      38.055  29.925  29.916  1.00  0.00     0.031 A 
ATOM     40  C   UNL A   1      38.342  30.443  31.299  1.00  0.00     0.074 A 
ATOM     41  C   UNL A   1      38.940  29.117  29.302  1.00  0.00     0.049 A 
ATOM     42  N   UNL A   1      39.370  30.208  32.076  1.00  0.00    -0.248 NA
ATOM     43  C   UNL A   1      37.357  31.372  31.877  1.00  0.00     0.031 C 
ATOM     44  C   UNL A   1      38.802  28.590  27.944  1.00  0.00     0.029 A 
ATOM     45  N   UNL A   1      40.130  28.595  29.742  1.00  0.00    -0.354 N 
ATOM     46  C   UNL A   1      39.158  30.963  33.223  1.00  0.00     0.074 A 
ATOM     47  C   UNL A   1      37.938  31.712  33.016  1.00  0.00     0.031 C 
ATOM     48  C   UNL A   1      39.849  27.794  27.673  1.00  0.00     0.029 A 
ATOM     49  C   UNL A   1      40.744  27.776  28.826  1.00  0.00     0.049 A 
ATOM     50  H   UNL A   1      40.507  28.789  30.630  1.00  0.00     0.167 HD
ATOM     51  C   UNL A   1      39.897  31.006  34.358  1.00  0.00     0.037 A 
ATOM     52  C   UNL A   1      41.896  27.083  28.912  1.00  0.00     0.037 A 
ATOM     53  C   UNL A   1      41.096  30.239  34.572  1.00  0.00     0.049 A 
ATOM     54  C   UNL A   1      42.689  27.135  30.190  1.00  0.00     0.074 A 
ATOM     55  C   UNL A   1      41.889  30.172  35.704  1.00  0.00     0.029 A 
ATOM     56  N   UNL A   1      41.676  29.404  33.628  1.00  0.00    -0.354 N 
ATOM     57  N   UNL A   1      42.441  27.796  31.294  1.00  0.00    -0.248 NA
ATOM     58  C   UNL A   1      43.916  26.329  30.237  1.00  0.00     0.031 C 
ATOM     59  C   UNL A   1      42.973  29.331  35.430  1.00  0.00     0.029 A 
ATOM     60  C   UNL A   1      42.827  28.829  34.147  1.00  0.00     0.049 A 
ATOM     61  H   UNL A   1      41.323  29.242  32.724  1.00  0.00     0.167 HD
ATOM     62  C   UNL A   1      43.460  27.461  32.176  1.00  0.00     0.074 A 
ATOM     63  C   UNL A   1      44.319  26.523  31.485  1.00  0.00     0.031 C 
ATOM     64  C   UNL A   1      43.667  27.891  33.447  1.00  0.00     0.037 A 
BRANCH  51  65
ATOM     65  C   UNL A   1      39.421  31.910  35.461  1.00  0.00     0.064 A 
ATOM     66  C   UNL A   1      38.539  31.458  36.454  1.00  0.00     0.173 A 
ATOM     67  C   UNL A   1      39.874  33.235  35.541  1.00  0.00     0.173 A 
ATOM     68  F   UNL A   1      38.067  30.203  36.419  1.00  0.00    -0.203 F 
ATOM     69  C   UNL A   1      38.101  32.308  37.467  1.00  0.00     0.198 A 
ATOM     70  C   UNL A   1      39.459  34.073  36.574  1.00  0.00     0.198 A 
ATOM     71  F   UNL A   1      40.722  33.718  34.621  1.00  0.00    -0.203 F 
ATOM     72  F   UNL A   1      37.215  31.869  38.372  1.00  0.00    -0.200 F 
ATOM     73  C   UNL A   1      38.567  33.612  37.530  1.00  0.00     0.200 A 
ATOM     74  F   UNL A   1      39.920  35.330  36.641  1.00  0.00    -0.200 F 
ATOM     75  F   UNL A   1      38.150  34.429  38.507  1.00  0.00    -0.200 F 
ENDBRANCH  51  65
BRANCH  52  76
ATOM     76  C   UNL A   1      42.346  26.246  27.771  1.00  0.00     0.064 A 
ATOM     77  C   UNL A   1      41.825  24.959  27.570  1.00  0.00     0.173 A 
ATOM     78  C   UNL A   1      43.312  26.707  26.863  1.00  0.00     0.173 A 
ATOM     79  F   UNL A   1      40.914  24.467  28.422  1.00  0.00    -0.203 F 
ATOM     80  C   UNL A   1      42.271  24.155  26.523  1.00  0.00     0.198 A 
ATOM     81  C   UNL A   1      43.735  25.914  25.799  1.00  0.00     0.198 A 
ATOM     82  F   UNL A   1      43.837  27.932  27.006  1.00  0.00    -0.203 F 
ATOM     83  F   UNL A   1      41.793  22.911  26.386  1.00  0.00    -0.200 F 
ATOM     84  C   UNL A   1      43.222  24.636  25.635  1.00  0.00     0.200 A 
ATOM     85  F   UNL A   1      44.643  26.386  24.934  1.00  0.00    -0.200 F 
ATOM     86  F   UNL A   1      43.650  23.863  24.627  1.00  0.00    -0.200 F 
ENDBRANCH  52  76
BRANCH  64  87
ATOM     87  C   UNL A   1      44.845  27.318  34.180  1.00  0.00     0.064 A 
ATOM     88  C   UNL A   1      44.748  26.132  34.923  1.00  0.00     0.173 A 
ATOM     89  C   UNL A   1      46.093  27.958  34.126  1.00  0.00     0.173 A 
ATOM     90  F   UNL A   1      43.575  25.487  35.017  1.00  0.00    -0.203 F 
ATOM     91  C   UNL A   1      45.846  25.630  35.616  1.00  0.00     0.198 A 
ATOM     92  C   UNL A   1      47.197  27.434  34.793  1.00  0.00     0.198 A 
ATOM     93  F   UNL A   1      46.242  29.091  33.423  1.00  0.00    -0.203 F 
ATOM     94  F   UNL A   1      45.714  24.529  36.370  1.00  0.00    -0.200 F 
ATOM     95  C   UNL A   1      47.070  26.279  35.546  1.00  0.00     0.200 A 
ATOM     96  F   UNL A   1      48.383  28.055  34.712  1.00  0.00    -0.200 F 
ATOM     97  F   UNL A   1      48.126  25.794  36.215  1.00  0.00    -0.200 F 
ENDBRANCH  64  87
ENDBRANCH  38  39
ENDBRANCH  30  33
ENDBRANCH  28  29
ENDBRANCH  27  28
ENDBRANCH  26  27
ENDBRANCH  25  26
ENDBRANCH   1  25
TORSDOF 18
ENDMDL
MODEL 3
REMARK VINA RESULT:     -11.6      4.741     10.304
REMARK SMILES CC[C@H](C)CN(CC)c1nc(C(=O)NCCCCCCNC(=O)c2ccc(-c3c4nc(c(-c5c(F)c(F)c(F)c(F)c5F)c5ccc([nH]5)c(-c5c(F)c(F)c(F)c(F)c5F)c5nc(c(-c6c(F)c(F)c(F)c(F)c6F)c6ccc3[nH]6)C=C5)C=C4)cc2)cc2ccccc12
REMARK SMILES IDX 16 1 15 2 14 3 12 4 13 5 11 7 9 8 10 9 93 10 88 11 92 12
REMARK SMILES IDX 87 13 89 14 91 15 90 16 6 17 5 18 3 19 4 20 2 21 1 22 7 23
REMARK SMILES IDX 8 24 17 25 18 26 19 27 20 28 21 29 22 30 23 32 24 33 25 34
REMARK SMILES IDX 86 35 26 36 85 37 27 38 28 39 29 40 79 41 30 42 84 43 78 44
REMARK SMILES IDX 80 45 31 46 83 47 77 48 76 49 32 51 64 52 44 53 63 54 45 55
REMARK SMILES IDX 48 56 62 57 81 58 46 59 47 60 61 62 82 63 49 64 33 65 34 66
REMARK SMILES IDX 42 67 35 68 36 69 40 70 43 71 37 72 38 73 41 74 39 75 65 76
REMARK SMILES IDX 66 77 74 78 67 79 68 80 72 81 75 82 69 83 70 84 73 85 71 86
REMARK SMILES IDX 50 87 51 88 59 89 52 90 53 91 57 92 60 93 54 94 55 95 58 96
REMARK SMILES IDX 56 97
REMARK H PARENT 14 6 21 31 80 50 48 61
REMARK Flexibility Score: inf
ROOT
ATOM      1  C   UNL A   1      38.241  23.696  26.185  1.00  0.00     0.021 C 
ENDROOT
BRANCH   1   2
ATOM      2  C   UNL A   1      36.719  23.719  26.078  1.00  0.00     0.116 C 
BRANCH   2   3
ATOM      3  N   UNL A   1      36.263  23.645  24.710  1.00  0.00    -0.351 N 
ATOM      4  C   UNL A   1      35.143  24.179  24.117  1.00  0.00     0.269 C 
ATOM      5  O   UNL A   1      34.983  23.940  22.917  1.00  0.00    -0.268 OA
ATOM      6  H   UNL A   1      36.847  23.133  24.105  1.00  0.00     0.163 HD
BRANCH   4   7
ATOM      7  C   UNL A   1      34.135  25.029  24.841  1.00  0.00     0.131 A 
ATOM      8  C   UNL A   1      32.193  25.244  26.100  1.00  0.00     0.137 A 
ATOM      9  N   UNL A   1      33.034  24.458  25.388  1.00  0.00    -0.225 NA
ATOM     10  C   UNL A   1      32.489  26.603  26.381  1.00  0.00     0.024 A 
ATOM     11  C   UNL A   1      33.572  27.192  25.701  1.00  0.00    -0.012 A 
ATOM     12  C   UNL A   1      31.739  27.417  27.260  1.00  0.00     0.012 A 
ATOM     13  C   UNL A   1      34.404  26.389  24.927  1.00  0.00     0.043 A 
ATOM     14  C   UNL A   1      33.787  28.579  25.792  1.00  0.00     0.009 A 
ATOM     15  C   UNL A   1      31.971  28.789  27.361  1.00  0.00     0.001 A 
ATOM     16  C   UNL A   1      32.974  29.375  26.598  1.00  0.00     0.001 A 
BRANCH   8  17
ATOM     17  N   UNL A   1      30.922  24.739  26.409  1.00  0.00    -0.356 N 
BRANCH  17  18
ATOM     18  C   UNL A   1      29.800  25.295  25.616  1.00  0.00     0.121 C 
BRANCH  18  19
ATOM     19  C   UNL A   1      30.239  25.803  24.218  1.00  0.00     0.005 C 
ATOM     20  C   UNL A   1      30.154  24.723  23.123  1.00  0.00     0.009 C 
BRANCH  19  21
ATOM     21  C   UNL A   1      29.465  27.058  23.759  1.00  0.00     0.002 C 
ATOM     22  C   UNL A   1      30.255  28.359  23.810  1.00  0.00     0.004 C 
ENDBRANCH  19  21
ENDBRANCH  18  19
ENDBRANCH  17  18
BRANCH  17  23
ATOM     23  C   UNL A   1      30.839  23.339  26.833  1.00  0.00     0.114 C 
ATOM     24  C   UNL A   1      29.441  22.884  27.224  1.00  0.00     0.027 C 
ENDBRANCH  17  23
ENDBRANCH   8  17
ENDBRANCH   4   7
ENDBRANCH   2   3
ENDBRANCH   1   2
BRANCH   1  25
ATOM     25  C   UNL A   1      38.899  22.317  26.091  1.00  0.00     0.002 C 
BRANCH  25  26
ATOM     26  C   UNL A   1      38.164  21.279  25.241  1.00  0.00     0.002 C 
BRANCH  26  27
ATOM     27  C   UNL A   1      38.821  19.899  25.153  1.00  0.00     0.021 C 
BRANCH  27  28
ATOM     28  C   UNL A   1      39.658  19.488  26.359  1.00  0.00     0.116 C 
BRANCH  28  29
ATOM     29  N   UNL A   1      40.890  18.815  25.988  1.00  0.00    -0.352 N 
ATOM     30  C   UNL A   1      42.161  19.316  25.866  1.00  0.00     0.251 C 
ATOM     31  H   UNL A   1      40.799  17.854  25.794  1.00  0.00     0.163 HD
ATOM     32  O   UNL A   1      43.052  18.609  25.408  1.00  0.00    -0.269 OA
BRANCH  30  33
ATOM     33  C   UNL A   1      42.466  20.710  26.265  1.00  0.00     0.039 A 
ATOM     34  C   UNL A   1      42.620  21.668  25.258  1.00  0.00     0.014 A 
ATOM     35  C   UNL A   1      42.650  21.072  27.602  1.00  0.00     0.014 A 
ATOM     36  C   UNL A   1      42.931  22.987  25.592  1.00  0.00     0.010 A 
ATOM     37  C   UNL A   1      42.884  22.404  27.940  1.00  0.00     0.010 A 
ATOM     38  C   UNL A   1      43.050  23.371  26.937  1.00  0.00    -0.014 A 
BRANCH  38  39
ATOM     39  C   UNL A   1      43.392  24.772  27.297  1.00  0.00     0.031 A 
ATOM     40  C   UNL A   1      44.780  25.300  27.052  1.00  0.00     0.074 A 
ATOM     41  C   UNL A   1      42.460  25.563  27.861  1.00  0.00     0.049 A 
ATOM     42  N   UNL A   1      45.268  26.492  27.291  1.00  0.00    -0.248 NA
ATOM     43  C   UNL A   1      45.759  24.356  26.491  1.00  0.00     0.031 C 
ATOM     44  C   UNL A   1      41.096  25.155  28.197  1.00  0.00     0.029 A 
ATOM     45  N   UNL A   1      42.518  26.878  28.250  1.00  0.00    -0.354 N 
ATOM     46  C   UNL A   1      46.605  26.435  26.917  1.00  0.00     0.074 A 
ATOM     47  C   UNL A   1      46.869  25.077  26.498  1.00  0.00     0.031 C 
ATOM     48  C   UNL A   1      40.436  26.205  28.711  1.00  0.00     0.029 A 
ATOM     49  C   UNL A   1      41.338  27.352  28.767  1.00  0.00     0.049 A 
ATOM     50  H   UNL A   1      43.330  27.429  28.166  1.00  0.00     0.167 HD
ATOM     51  C   UNL A   1      47.522  27.432  26.898  1.00  0.00     0.037 A 
ATOM     52  C   UNL A   1      41.017  28.578  29.225  1.00  0.00     0.037 A 
ATOM     53  C   UNL A   1      47.250  28.790  27.292  1.00  0.00     0.049 A 
ATOM     54  C   UNL A   1      42.050  29.671  29.177  1.00  0.00     0.074 A 
ATOM     55  C   UNL A   1      48.096  29.885  27.261  1.00  0.00     0.029 A 
ATOM     56  N   UNL A   1      46.035  29.237  27.790  1.00  0.00    -0.354 N 
ATOM     57  N   UNL A   1      43.290  29.623  28.755  1.00  0.00    -0.248 NA
ATOM     58  C   UNL A   1      41.631  30.995  29.656  1.00  0.00     0.031 C 
ATOM     59  C   UNL A   1      47.406  30.985  27.782  1.00  0.00     0.029 A 
ATOM     60  C   UNL A   1      46.114  30.590  28.085  1.00  0.00     0.049 A 
ATOM     61  H   UNL A   1      45.235  28.678  27.914  1.00  0.00     0.167 HD
ATOM     62  C   UNL A   1      43.788  30.913  28.886  1.00  0.00     0.074 A 
ATOM     63  C   UNL A   1      42.709  31.725  29.409  1.00  0.00     0.031 C 
ATOM     64  C   UNL A   1      45.027  31.385  28.599  1.00  0.00     0.037 A 
BRANCH  51  65
ATOM     65  C   UNL A   1      48.909  27.089  26.428  1.00  0.00     0.064 A 
ATOM     66  C   UNL A   1      49.899  26.646  27.318  1.00  0.00     0.173 A 
ATOM     67  C   UNL A   1      49.243  27.179  25.069  1.00  0.00     0.173 A 
ATOM     68  F   UNL A   1      49.636  26.553  28.630  1.00  0.00    -0.203 F 
ATOM     69  C   UNL A   1      51.181  26.337  26.870  1.00  0.00     0.198 A 
ATOM     70  C   UNL A   1      50.517  26.838  24.620  1.00  0.00     0.198 A 
ATOM     71  F   UNL A   1      48.334  27.591  24.174  1.00  0.00    -0.203 F 
ATOM     72  F   UNL A   1      52.125  25.970  27.748  1.00  0.00    -0.200 F 
ATOM     73  C   UNL A   1      51.487  26.426  25.521  1.00  0.00     0.200 A 
ATOM     74  F   UNL A   1      50.807  26.912  23.314  1.00  0.00    -0.200 F 
ATOM     75  F   UNL A   1      52.719  26.125  25.090  1.00  0.00    -0.200 F 
ENDBRANCH  51  65
BRANCH  52  76
ATOM     76  C   UNL A   1      39.646  28.848  29.728  1.00  0.00     0.064 A 
ATOM     77  C   UNL A   1      38.656  29.367  28.881  1.00  0.00     0.173 A 
ATOM     78  C   UNL A   1      39.297  28.604  31.065  1.00  0.00     0.173 A 
ATOM     79  F   UNL A   1      38.946  29.635  27.599  1.00  0.00    -0.203 F 
ATOM     80  C   UNL A   1      37.379  29.657  29.357  1.00  0.00     0.198 A 
ATOM     81  C   UNL A   1      38.011  28.866  31.532  1.00  0.00     0.198 A 
ATOM     82  F   UNL A   1      40.205  28.102  31.915  1.00  0.00    -0.203 F 
ATOM     83  F   UNL A   1      36.469  30.201  28.538  1.00  0.00    -0.200 F 
ATOM     84  C   UNL A   1      37.056  29.401  30.681  1.00  0.00     0.200 A 
ATOM     85  F   UNL A   1      37.699  28.604  32.808  1.00  0.00    -0.200 F 
ATOM     86  F   UNL A   1      35.828  29.679  31.139  1.00  0.00    -0.200 F 
ENDBRANCH  52  76
BRANCH  64  87
ATOM     87  C   UNL A   1      45.266  32.853  28.807  1.00  0.00     0.064 A 
ATOM     88  C   UNL A   1      44.945  33.801  27.824  1.00  0.00     0.173 A 
ATOM     89  C   UNL A   1      45.812  33.317  30.014  1.00  0.00     0.173 A 
ATOM     90  F   UNL A   1      44.432  33.408  26.648  1.00  0.00    -0.203 F 
ATOM     91  C   UNL A   1      45.197  35.155  28.026  1.00  0.00     0.198 A 
ATOM     92  C   UNL A   1      46.031  34.676  30.225  1.00  0.00     0.198 A 
ATOM     93  F   UNL A   1      46.129  32.454  30.990  1.00  0.00    -0.203 F 
ATOM     94  F   UNL A   1      44.939  36.036  27.050  1.00  0.00    -0.200 F 
ATOM     95  C   UNL A   1      45.735  35.592  29.229  1.00  0.00     0.200 A 
ATOM     96  F   UNL A   1      46.537  35.097  31.393  1.00  0.00    -0.200 F 
ATOM     97  F   UNL A   1      45.977  36.896  29.421  1.00  0.00    -0.200 F 
ENDBRANCH  64  87
ENDBRANCH  38  39
ENDBRANCH  30  33
ENDBRANCH  28  29
ENDBRANCH  27  28
ENDBRANCH  26  27
ENDBRANCH  25  26
ENDBRANCH   1  25
TORSDOF 18
ENDMDL
