MODEL 1
REMARK VINA RESULT:     -13.4      0.000      0.000
REMARK SMILES Cc1cc(C)n(-c2nc(C)c(C)c(Oc3cccc(C(=O)NCCCCCCNC(=O)c4ccc(-c5c6nc(c(-c7c(F)c(F)c(F)c(F)c7F)c7ccc([nH]7)c(-c7c(F)c(F)c(F)c(F)c7F)c7nc(c(-c8c(F)c(F)c(F)c(F)c8F)c8ccc5[nH]8)C=C7)C=C6)cc4)c3)n2)n1
REMARK SMILES IDX 25 1 24 2 23 3 22 4 20 5 21 6 19 8 15 9 16 10 95 11 17 12
REMARK SMILES IDX 18 13 14 14 13 15 7 16 8 17 96 18 9 19 10 20 11 21 12 22
REMARK SMILES IDX 6 23 1 24 2 25 3 26 97 27 4 28 5 29 26 30 27 31 28 32 29 33
REMARK SMILES IDX 30 34 31 36 32 37 33 38 94 39 34 40 93 41 35 42 36 43 37 44
REMARK SMILES IDX 87 45 38 46 92 47 86 48 88 49 39 50 91 51 85 52 84 53 40 55
REMARK SMILES IDX 72 56 52 57 71 58 53 59 56 60 70 61 89 62 54 63 55 64 69 66
REMARK SMILES IDX 90 67 57 68 41 69 42 70 50 71 43 72 44 73 48 74 51 75 45 76
REMARK SMILES IDX 46 77 49 78 47 79 73 80 74 81 82 82 75 83 76 84 80 85 83 86
REMARK SMILES IDX 77 87 78 88 81 89 79 90 58 91 59 92 67 93 60 94 61 95 65 96
REMARK SMILES IDX 68 97 62 98 63 99 66 100 64 101
REMARK H PARENT 22 7 29 35 88 54 56 65
REMARK Flexibility Score: inf
ROOT
ATOM      1  C   UNL A   1      31.715  29.197  24.930  1.00  0.00     0.002 C 
ENDROOT
BRANCH   1   2
ATOM      2  C   UNL A   1      31.775  29.157  23.394  1.00  0.00     0.021 C 
BRANCH   2   3
ATOM      3  C   UNL A   1      33.193  28.953  22.855  1.00  0.00     0.116 C 
BRANCH   3   4
ATOM      4  N   UNL A   1      33.199  27.871  21.893  1.00  0.00    -0.352 N 
ATOM      5  C   UNL A   1      33.199  26.505  21.992  1.00  0.00     0.251 C 
ATOM      6  O   UNL A   1      33.278  25.883  20.930  1.00  0.00    -0.269 OA
ATOM      7  H   UNL A   1      33.206  28.187  20.961  1.00  0.00     0.163 HD
BRANCH   5   8
ATOM      8  C   UNL A   1      33.046  25.740  23.265  1.00  0.00     0.043 A 
ATOM      9  C   UNL A   1      33.845  24.622  25.261  1.00  0.00     0.130 A 
ATOM     10  C   UNL A   1      32.546  24.514  25.750  1.00  0.00     0.047 A 
ATOM     11  C   UNL A   1      34.081  25.140  23.983  1.00  0.00     0.061 A 
ATOM     12  C   UNL A   1      31.486  25.003  24.995  1.00  0.00     0.005 A 
ATOM     13  C   UNL A   1      31.740  25.636  23.776  1.00  0.00     0.014 A 
BRANCH   9  14
ATOM     14  O   UNL A   1      34.854  24.122  26.051  1.00  0.00    -0.439 OA
BRANCH  14  15
ATOM     15  C   UNL A   1      35.377  22.864  25.735  1.00  0.00     0.227 A 
ATOM     16  C   UNL A   1      35.113  20.691  25.070  1.00  0.00     0.254 A 
ATOM     17  N   UNL A   1      36.434  20.442  25.215  1.00  0.00    -0.216 NA
ATOM     18  N   UNL A   1      34.550  21.892  25.293  1.00  0.00    -0.175 NA
ATOM     19  C   UNL A   1      37.247  21.473  25.526  1.00  0.00     0.050 A 
ATOM     20  C   UNL A   1      38.710  21.175  25.376  1.00  0.00     0.067 C 
ATOM     21  C   UNL A   1      36.754  22.724  25.858  1.00  0.00     0.033 A 
ATOM     22  C   UNL A   1      37.641  23.851  26.283  1.00  0.00     0.052 C 
BRANCH  16  23
ATOM     23  N   UNL A   1      34.297  19.587  24.626  1.00  0.00    -0.203 N 
ATOM     24  C   UNL A   1      33.700  16.074  24.595  1.00  0.00     0.069 C 
ATOM     25  C   UNL A   1      33.655  17.551  24.463  1.00  0.00     0.060 A 
ATOM     26  C   UNL A   1      32.528  18.337  24.155  1.00  0.00     0.049 A 
ATOM     27  N   UNL A   1      34.754  18.299  24.626  1.00  0.00    -0.170 NA
ATOM     28  C   UNL A   1      32.962  19.640  24.232  1.00  0.00     0.045 A 
ATOM     29  C   UNL A   1      32.240  20.902  23.932  1.00  0.00     0.067 C 
ENDBRANCH  16  23
ENDBRANCH  14  15
ENDBRANCH   9  14
ENDBRANCH   5   8
ENDBRANCH   3   4
ENDBRANCH   2   3
ENDBRANCH   1   2
BRANCH   1  30
ATOM     30  C   UNL A   1      33.067  29.037  25.645  1.00  0.00     0.002 C 
BRANCH  30  31
ATOM     31  C   UNL A   1      33.183  29.725  27.013  1.00  0.00     0.021 C 
BRANCH  31  32
ATOM     32  C   UNL A   1      34.556  30.325  27.262  1.00  0.00     0.116 C 
BRANCH  32  33
ATOM     33  N   UNL A   1      34.479  31.524  28.092  1.00  0.00    -0.352 N 
ATOM     34  C   UNL A   1      35.161  31.811  29.257  1.00  0.00     0.251 C 
ATOM     35  H   UNL A   1      33.859  32.221  27.778  1.00  0.00     0.163 HD
ATOM     36  O   UNL A   1      34.774  32.672  30.024  1.00  0.00    -0.269 OA
BRANCH  34  37
ATOM     37  C   UNL A   1      36.378  31.038  29.554  1.00  0.00     0.039 A 
ATOM     38  C   UNL A   1      36.298  29.703  29.955  1.00  0.00     0.014 A 
ATOM     39  C   UNL A   1      37.609  31.668  29.391  1.00  0.00     0.014 A 
ATOM     40  C   UNL A   1      37.476  28.983  30.120  1.00  0.00     0.010 A 
ATOM     41  C   UNL A   1      38.758  30.920  29.406  1.00  0.00     0.010 A 
ATOM     42  C   UNL A   1      38.705  29.595  29.826  1.00  0.00    -0.014 A 
BRANCH  42  43
ATOM     43  C   UNL A   1      39.947  28.836  29.899  1.00  0.00     0.031 A 
ATOM     44  C   UNL A   1      40.495  28.614  31.268  1.00  0.00     0.074 A 
ATOM     45  C   UNL A   1      40.463  28.198  28.828  1.00  0.00     0.049 A 
ATOM     46  N   UNL A   1      41.644  28.982  31.736  1.00  0.00    -0.248 NA
ATOM     47  C   UNL A   1      39.627  27.968  32.266  1.00  0.00     0.031 C 
ATOM     48  C   UNL A   1      39.894  28.054  27.481  1.00  0.00     0.029 A 
ATOM     49  N   UNL A   1      41.589  27.438  28.758  1.00  0.00    -0.354 N 
ATOM     50  C   UNL A   1      41.714  28.493  33.038  1.00  0.00     0.074 A 
ATOM     51  C   UNL A   1      40.403  27.986  33.353  1.00  0.00     0.031 C 
ATOM     52  C   UNL A   1      40.550  27.081  26.814  1.00  0.00     0.029 A 
ATOM     53  C   UNL A   1      41.688  26.667  27.610  1.00  0.00     0.049 A 
ATOM     54  H   UNL A   1      42.275  27.436  29.465  1.00  0.00     0.167 HD
ATOM     55  C   UNL A   1      42.902  28.377  33.694  1.00  0.00     0.037 A 
ATOM     56  C   UNL A   1      42.630  25.731  27.350  1.00  0.00     0.037 A 
ATOM     57  C   UNL A   1      43.928  29.167  33.067  1.00  0.00     0.049 A 
ATOM     58  C   UNL A   1      43.790  26.029  28.226  1.00  0.00     0.074 A 
ATOM     59  C   UNL A   1      44.113  30.519  32.850  1.00  0.00     0.029 A 
ATOM     60  N   UNL A   1      44.803  28.537  32.219  1.00  0.00    -0.354 N 
ATOM     61  N   UNL A   1      44.531  27.098  28.116  1.00  0.00    -0.248 NA
ATOM     62  C   UNL A   1      43.865  25.346  29.506  1.00  0.00     0.031 C 
ATOM     63  C   UNL A   1      44.709  30.608  31.556  1.00  0.00     0.029 A 
ATOM     64  C   UNL A   1      44.902  29.307  31.087  1.00  0.00     0.049 A 
ATOM     65  H   UNL A   1      45.273  27.689  32.391  1.00  0.00     0.167 HD
ATOM     66  C   UNL A   1      44.822  27.460  29.422  1.00  0.00     0.074 A 
ATOM     67  C   UNL A   1      44.476  26.290  30.225  1.00  0.00     0.031 C 
ATOM     68  C   UNL A   1      45.052  28.765  29.756  1.00  0.00     0.037 A 
BRANCH  55  69
ATOM     69  C   UNL A   1      43.219  27.316  34.720  1.00  0.00     0.064 A 
ATOM     70  C   UNL A   1      43.490  27.688  36.052  1.00  0.00     0.173 A 
ATOM     71  C   UNL A   1      43.541  25.984  34.385  1.00  0.00     0.173 A 
ATOM     72  F   UNL A   1      43.250  28.939  36.475  1.00  0.00    -0.203 F 
ATOM     73  C   UNL A   1      44.090  26.809  36.960  1.00  0.00     0.198 A 
ATOM     74  C   UNL A   1      44.090  25.093  35.307  1.00  0.00     0.198 A 
ATOM     75  F   UNL A   1      43.442  25.524  33.132  1.00  0.00    -0.203 F 
ATOM     76  F   UNL A   1      44.432  27.243  38.180  1.00  0.00    -0.200 F 
ATOM     77  C   UNL A   1      44.391  25.512  36.585  1.00  0.00     0.200 A 
ATOM     78  F   UNL A   1      44.394  23.846  34.918  1.00  0.00    -0.200 F 
ATOM     79  F   UNL A   1      45.014  24.685  37.434  1.00  0.00    -0.200 F 
ENDBRANCH  55  69
BRANCH  56  80
ATOM     80  C   UNL A   1      42.447  24.420  26.684  1.00  0.00     0.064 A 
ATOM     81  C   UNL A   1      43.181  24.099  25.532  1.00  0.00     0.173 A 
ATOM     82  C   UNL A   1      41.791  23.353  27.329  1.00  0.00     0.173 A 
ATOM     83  F   UNL A   1      43.862  25.053  24.880  1.00  0.00    -0.203 F 
ATOM     84  C   UNL A   1      43.297  22.781  25.081  1.00  0.00     0.198 A 
ATOM     85  C   UNL A   1      41.901  22.039  26.873  1.00  0.00     0.198 A 
ATOM     86  F   UNL A   1      41.117  23.544  28.473  1.00  0.00    -0.203 F 
ATOM     87  F   UNL A   1      44.074  22.503  24.025  1.00  0.00    -0.200 F 
ATOM     88  C   UNL A   1      42.669  21.750  25.761  1.00  0.00     0.200 A 
ATOM     89  F   UNL A   1      41.318  21.046  27.561  1.00  0.00    -0.200 F 
ATOM     90  F   UNL A   1      42.844  20.479  25.376  1.00  0.00    -0.200 F 
ENDBRANCH  56  80
BRANCH  68  91
ATOM     91  C   UNL A   1      45.236  29.750  28.630  1.00  0.00     0.064 A 
ATOM     92  C   UNL A   1      44.187  30.470  28.032  1.00  0.00     0.173 A 
ATOM     93  C   UNL A   1      46.538  30.073  28.230  1.00  0.00     0.173 A 
ATOM     94  F   UNL A   1      42.921  30.303  28.427  1.00  0.00    -0.203 F 
ATOM     95  C   UNL A   1      44.427  31.426  27.045  1.00  0.00     0.198 A 
ATOM     96  C   UNL A   1      46.781  31.055  27.272  1.00  0.00     0.198 A 
ATOM     97  F   UNL A   1      47.588  29.463  28.804  1.00  0.00    -0.203 F 
ATOM     98  F   UNL A   1      43.403  32.083  26.480  1.00  0.00    -0.200 F 
ATOM     99  C   UNL A   1      45.726  31.722  26.671  1.00  0.00     0.200 A 
ATOM    100  F   UNL A   1      48.042  31.374  26.950  1.00  0.00    -0.200 F 
ATOM    101  F   UNL A   1      45.962  32.668  25.751  1.00  0.00    -0.200 F 
ENDBRANCH  68  91
ENDBRANCH  42  43
ENDBRANCH  34  37
ENDBRANCH  32  33
ENDBRANCH  31  32
ENDBRANCH  30  31
ENDBRANCH   1  30
TORSDOF 16
ENDMDL
MODEL 2
REMARK VINA RESULT:     -13.4      3.196      9.346
REMARK SMILES Cc1cc(C)n(-c2nc(C)c(C)c(Oc3cccc(C(=O)NCCCCCCNC(=O)c4ccc(-c5c6nc(c(-c7c(F)c(F)c(F)c(F)c7F)c7ccc([nH]7)c(-c7c(F)c(F)c(F)c(F)c7F)c7nc(c(-c8c(F)c(F)c(F)c(F)c8F)c8ccc5[nH]8)C=C7)C=C6)cc4)c3)n2)n1
REMARK SMILES IDX 25 1 24 2 23 3 22 4 20 5 21 6 19 8 15 9 16 10 95 11 17 12
REMARK SMILES IDX 18 13 14 14 13 15 7 16 8 17 96 18 9 19 10 20 11 21 12 22
REMARK SMILES IDX 6 23 1 24 2 25 3 26 97 27 4 28 5 29 26 30 27 31 28 32 29 33
REMARK SMILES IDX 30 34 31 36 32 37 33 38 94 39 34 40 93 41 35 42 36 43 37 44
REMARK SMILES IDX 87 45 38 46 92 47 86 48 88 49 39 50 91 51 85 52 84 53 40 55
REMARK SMILES IDX 72 56 52 57 71 58 53 59 56 60 70 61 89 62 54 63 55 64 69 66
REMARK SMILES IDX 90 67 57 68 41 69 42 70 50 71 43 72 44 73 48 74 51 75 45 76
REMARK SMILES IDX 46 77 49 78 47 79 73 80 74 81 82 82 75 83 76 84 80 85 83 86
REMARK SMILES IDX 77 87 78 88 81 89 79 90 58 91 59 92 67 93 60 94 61 95 65 96
REMARK SMILES IDX 68 97 62 98 63 99 66 100 64 101
REMARK H PARENT 22 7 29 35 88 54 56 65
REMARK Flexibility Score: inf
ROOT
ATOM      1  C   UNL A   1      35.799  21.454  25.856  1.00  0.00     0.002 C 
ENDROOT
BRANCH   1   2
ATOM      2  C   UNL A   1      34.703  21.180  24.814  1.00  0.00     0.021 C 
BRANCH   2   3
ATOM      3  C   UNL A   1      33.478  20.477  25.403  1.00  0.00     0.116 C 
BRANCH   3   4
ATOM      4  N   UNL A   1      32.994  21.217  26.549  1.00  0.00    -0.352 N 
ATOM      5  C   UNL A   1      32.470  22.471  26.725  1.00  0.00     0.251 C 
ATOM      6  O   UNL A   1      32.224  22.800  27.888  1.00  0.00    -0.269 OA
ATOM      7  H   UNL A   1      33.054  20.708  27.388  1.00  0.00     0.163 HD
BRANCH   5   8
ATOM      8  C   UNL A   1      32.126  23.416  25.622  1.00  0.00     0.043 A 
ATOM      9  C   UNL A   1      32.420  25.401  24.262  1.00  0.00     0.130 A 
ATOM     10  C   UNL A   1      31.468  24.948  23.352  1.00  0.00     0.047 A 
ATOM     11  C   UNL A   1      32.672  24.687  25.439  1.00  0.00     0.061 A 
ATOM     12  C   UNL A   1      30.827  23.735  23.577  1.00  0.00     0.005 A 
ATOM     13  C   UNL A   1      31.175  22.965  24.688  1.00  0.00     0.014 A 
BRANCH   9  14
ATOM     14  O   UNL A   1      33.023  26.606  23.988  1.00  0.00    -0.439 OA
BRANCH  14  15
ATOM     15  C   UNL A   1      32.337  27.778  24.321  1.00  0.00     0.227 A 
ATOM     16  C   UNL A   1      30.674  29.305  23.947  1.00  0.00     0.254 A 
ATOM     17  N   UNL A   1      31.103  30.083  24.966  1.00  0.00    -0.216 NA
ATOM     18  N   UNL A   1      31.245  28.134  23.611  1.00  0.00    -0.175 NA
ATOM     19  C   UNL A   1      32.111  29.627  25.737  1.00  0.00     0.050 A 
ATOM     20  C   UNL A   1      32.321  30.403  27.005  1.00  0.00     0.067 C 
ATOM     21  C   UNL A   1      32.817  28.479  25.421  1.00  0.00     0.033 A 
ATOM     22  C   UNL A   1      33.988  28.007  26.224  1.00  0.00     0.052 C 
BRANCH  16  23
ATOM     23  N   UNL A   1      29.522  29.777  23.219  1.00  0.00    -0.203 N 
ATOM     24  C   UNL A   1      28.127  32.141  20.946  1.00  0.00     0.069 C 
ATOM     25  C   UNL A   1      28.419  31.005  21.856  1.00  0.00     0.060 A 
ATOM     26  C   UNL A   1      27.693  29.804  21.967  1.00  0.00     0.049 A 
ATOM     27  N   UNL A   1      29.455  31.041  22.704  1.00  0.00    -0.170 NA
ATOM     28  C   UNL A   1      28.394  29.038  22.869  1.00  0.00     0.045 A 
ATOM     29  C   UNL A   1      28.069  27.707  23.441  1.00  0.00     0.067 C 
ENDBRANCH  16  23
ENDBRANCH  14  15
ENDBRANCH   9  14
ENDBRANCH   5   8
ENDBRANCH   3   4
ENDBRANCH   2   3
ENDBRANCH   1   2
BRANCH   1  30
ATOM     30  C   UNL A   1      37.021  22.232  25.336  1.00  0.00     0.002 C 
BRANCH  30  31
ATOM     31  C   UNL A   1      38.382  21.553  25.546  1.00  0.00     0.021 C 
BRANCH  31  32
ATOM     32  C   UNL A   1      39.313  22.352  26.441  1.00  0.00     0.116 C 
BRANCH  32  33
ATOM     33  N   UNL A   1      40.710  22.198  26.042  1.00  0.00    -0.352 N 
ATOM     34  C   UNL A   1      41.705  23.152  26.005  1.00  0.00     0.251 C 
ATOM     35  H   UNL A   1      40.976  21.292  25.764  1.00  0.00     0.163 HD
ATOM     36  O   UNL A   1      42.717  22.991  25.350  1.00  0.00    -0.269 OA
BRANCH  34  37
ATOM     37  C   UNL A   1      41.510  24.387  26.783  1.00  0.00     0.039 A 
ATOM     38  C   UNL A   1      42.146  24.566  28.014  1.00  0.00     0.014 A 
ATOM     39  C   UNL A   1      40.701  25.381  26.240  1.00  0.00     0.014 A 
ATOM     40  C   UNL A   1      42.018  25.791  28.660  1.00  0.00     0.010 A 
ATOM     41  C   UNL A   1      40.699  26.632  26.800  1.00  0.00     0.010 A 
ATOM     42  C   UNL A   1      41.305  26.828  28.037  1.00  0.00    -0.014 A 
BRANCH  42  43
ATOM     43  C   UNL A   1      41.235  28.149  28.647  1.00  0.00     0.031 A 
ATOM     44  C   UNL A   1      42.290  29.116  28.231  1.00  0.00     0.074 A 
ATOM     45  C   UNL A   1      40.173  28.547  29.379  1.00  0.00     0.049 A 
ATOM     46  N   UNL A   1      43.163  29.712  28.978  1.00  0.00    -0.248 NA
ATOM     47  C   UNL A   1      42.446  29.398  26.795  1.00  0.00     0.031 C 
ATOM     48  C   UNL A   1      38.912  27.836  29.631  1.00  0.00     0.029 A 
ATOM     49  N   UNL A   1      39.962  29.748  29.979  1.00  0.00    -0.354 N 
ATOM     50  C   UNL A   1      43.887  30.557  28.139  1.00  0.00     0.074 A 
ATOM     51  C   UNL A   1      43.488  30.233  26.793  1.00  0.00     0.031 C 
ATOM     52  C   UNL A   1      37.997  28.698  30.123  1.00  0.00     0.029 A 
ATOM     53  C   UNL A   1      38.655  29.961  30.391  1.00  0.00     0.049 A 
ATOM     54  H   UNL A   1      40.678  30.412  30.110  1.00  0.00     0.167 HD
ATOM     55  C   UNL A   1      44.628  31.589  28.632  1.00  0.00     0.037 A 
ATOM     56  C   UNL A   1      38.147  31.111  30.892  1.00  0.00     0.037 A 
ATOM     57  C   UNL A   1      44.882  31.428  30.039  1.00  0.00     0.049 A 
ATOM     58  C   UNL A   1      39.293  31.906  31.398  1.00  0.00     0.074 A 
ATOM     59  C   UNL A   1      45.563  30.499  30.801  1.00  0.00     0.029 A 
ATOM     60  N   UNL A   1      44.088  32.115  30.923  1.00  0.00    -0.354 N 
ATOM     61  N   UNL A   1      40.033  31.554  32.413  1.00  0.00    -0.248 NA
ATOM     62  C   UNL A   1      39.887  32.885  30.502  1.00  0.00     0.031 C 
ATOM     63  C   UNL A   1      44.782  30.347  31.985  1.00  0.00     0.029 A 
ATOM     64  C   UNL A   1      43.705  31.231  31.900  1.00  0.00     0.049 A 
ATOM     65  H   UNL A   1      43.840  33.066  30.866  1.00  0.00     0.167 HD
ATOM     66  C   UNL A   1      41.320  31.925  32.057  1.00  0.00     0.074 A 
ATOM     67  C   UNL A   1      41.153  32.831  30.923  1.00  0.00     0.031 C 
ATOM     68  C   UNL A   1      42.406  31.247  32.534  1.00  0.00     0.037 A 
BRANCH  55  69
ATOM     69  C   UNL A   1      44.866  32.896  27.916  1.00  0.00     0.064 A 
ATOM     70  C   UNL A   1      46.144  33.188  27.398  1.00  0.00     0.173 A 
ATOM     71  C   UNL A   1      43.969  33.984  27.966  1.00  0.00     0.173 A 
ATOM     72  F   UNL A   1      47.088  32.237  27.329  1.00  0.00    -0.203 F 
ATOM     73  C   UNL A   1      46.510  34.482  27.015  1.00  0.00     0.198 A 
ATOM     74  C   UNL A   1      44.320  35.262  27.533  1.00  0.00     0.198 A 
ATOM     75  F   UNL A   1      42.761  33.881  28.534  1.00  0.00    -0.203 F 
ATOM     76  F   UNL A   1      47.771  34.734  26.636  1.00  0.00    -0.200 F 
ATOM     77  C   UNL A   1      45.597  35.519  27.085  1.00  0.00     0.200 A 
ATOM     78  F   UNL A   1      43.427  36.258  27.629  1.00  0.00    -0.200 F 
ATOM     79  F   UNL A   1      45.960  36.769  26.770  1.00  0.00    -0.200 F 
ENDBRANCH  55  69
BRANCH  56  80
ATOM     80  C   UNL A   1      36.817  31.706  30.626  1.00  0.00     0.064 A 
ATOM     81  C   UNL A   1      35.897  31.887  31.671  1.00  0.00     0.173 A 
ATOM     82  C   UNL A   1      36.540  32.385  29.423  1.00  0.00     0.173 A 
ATOM     83  F   UNL A   1      36.107  31.303  32.860  1.00  0.00    -0.203 F 
ATOM     84  C   UNL A   1      34.796  32.737  31.540  1.00  0.00     0.198 A 
ATOM     85  C   UNL A   1      35.436  33.227  29.290  1.00  0.00     0.198 A 
ATOM     86  F   UNL A   1      37.390  32.329  28.386  1.00  0.00    -0.203 F 
ATOM     87  F   UNL A   1      33.987  32.948  32.587  1.00  0.00    -0.200 F 
ATOM     88  C   UNL A   1      34.575  33.419  30.354  1.00  0.00     0.200 A 
ATOM     89  F   UNL A   1      35.253  33.907  28.149  1.00  0.00    -0.200 F 
ATOM     90  F   UNL A   1      33.565  34.293  30.253  1.00  0.00    -0.200 F 
ENDBRANCH  56  80
BRANCH  68  91
ATOM     91  C   UNL A   1      42.177  30.263  33.653  1.00  0.00     0.064 A 
ATOM     92  C   UNL A   1      41.863  28.906  33.459  1.00  0.00     0.173 A 
ATOM     93  C   UNL A   1      42.410  30.680  34.969  1.00  0.00     0.173 A 
ATOM     94  F   UNL A   1      41.727  28.398  32.230  1.00  0.00    -0.203 F 
ATOM     95  C   UNL A   1      41.737  28.025  34.533  1.00  0.00     0.198 A 
ATOM     96  C   UNL A   1      42.322  29.791  36.038  1.00  0.00     0.198 A 
ATOM     97  F   UNL A   1      42.771  31.950  35.217  1.00  0.00    -0.203 F 
ATOM     98  F   UNL A   1      41.418  26.740  34.316  1.00  0.00    -0.200 F 
ATOM     99  C   UNL A   1      41.974  28.468  35.822  1.00  0.00     0.200 A 
ATOM    100  F   UNL A   1      42.602  30.213  37.279  1.00  0.00    -0.200 F 
ATOM    101  F   UNL A   1      41.892  27.615  36.852  1.00  0.00    -0.200 F 
ENDBRANCH  68  91
ENDBRANCH  42  43
ENDBRANCH  34  37
ENDBRANCH  32  33
ENDBRANCH  31  32
ENDBRANCH  30  31
ENDBRANCH   1  30
TORSDOF 16
ENDMDL
MODEL 3
REMARK VINA RESULT:     -13.1      3.042      9.260
REMARK SMILES Cc1cc(C)n(-c2nc(C)c(C)c(Oc3cccc(C(=O)NCCCCCCNC(=O)c4ccc(-c5c6nc(c(-c7c(F)c(F)c(F)c(F)c7F)c7ccc([nH]7)c(-c7c(F)c(F)c(F)c(F)c7F)c7nc(c(-c8c(F)c(F)c(F)c(F)c8F)c8ccc5[nH]8)C=C7)C=C6)cc4)c3)n2)n1
REMARK SMILES IDX 25 1 24 2 23 3 22 4 20 5 21 6 19 8 15 9 16 10 95 11 17 12
REMARK SMILES IDX 18 13 14 14 13 15 7 16 8 17 96 18 9 19 10 20 11 21 12 22
REMARK SMILES IDX 6 23 1 24 2 25 3 26 97 27 4 28 5 29 26 30 27 31 28 32 29 33
REMARK SMILES IDX 30 34 31 36 32 37 33 38 94 39 34 40 93 41 35 42 36 43 37 44
REMARK SMILES IDX 87 45 38 46 92 47 86 48 88 49 39 50 91 51 85 52 84 53 40 55
REMARK SMILES IDX 72 56 52 57 71 58 53 59 56 60 70 61 89 62 54 63 55 64 69 66
REMARK SMILES IDX 90 67 57 68 41 69 42 70 50 71 43 72 44 73 48 74 51 75 45 76
REMARK SMILES IDX 46 77 49 78 47 79 73 80 74 81 82 82 75 83 76 84 80 85 83 86
REMARK SMILES IDX 77 87 78 88 81 89 79 90 58 91 59 92 67 93 60 94 61 95 65 96
REMARK SMILES IDX 68 97 62 98 63 99 66 100 64 101
REMARK H PARENT 22 7 29 35 88 54 56 65
REMARK Flexibility Score: inf
ROOT
ATOM      1  C   UNL A   1      35.302  20.723  25.354  1.00  0.00     0.002 C 
ENDROOT
BRANCH   1   2
ATOM      2  C   UNL A   1      34.632  19.518  24.674  1.00  0.00     0.021 C 
BRANCH   2   3
ATOM      3  C   UNL A   1      33.104  19.552  24.762  1.00  0.00     0.116 C 
BRANCH   3   4
ATOM      4  N   UNL A   1      32.546  19.841  23.459  1.00  0.00    -0.352 N 
ATOM      5  C   UNL A   1      32.214  20.991  22.795  1.00  0.00     0.251 C 
ATOM      6  O   UNL A   1      31.682  20.850  21.691  1.00  0.00    -0.269 OA
ATOM      7  H   UNL A   1      32.364  19.030  22.931  1.00  0.00     0.163 HD
BRANCH   5   8
ATOM      8  C   UNL A   1      32.508  22.373  23.279  1.00  0.00     0.043 A 
ATOM      9  C   UNL A   1      32.095  24.374  24.584  1.00  0.00     0.130 A 
ATOM     10  C   UNL A   1      33.352  24.875  24.256  1.00  0.00     0.047 A 
ATOM     11  C   UNL A   1      31.639  23.178  24.018  1.00  0.00     0.061 A 
ATOM     12  C   UNL A   1      34.189  24.139  23.426  1.00  0.00     0.005 A 
ATOM     13  C   UNL A   1      33.779  22.886  22.966  1.00  0.00     0.014 A 
BRANCH   9  14
ATOM     14  O   UNL A   1      31.310  25.143  25.410  1.00  0.00    -0.439 OA
BRANCH  14  15
ATOM     15  C   UNL A   1      31.396  26.534  25.293  1.00  0.00     0.227 A 
ATOM     16  C   UNL A   1      32.331  28.543  25.868  1.00  0.00     0.254 A 
ATOM     17  N   UNL A   1      31.462  29.219  25.083  1.00  0.00    -0.216 NA
ATOM     18  N   UNL A   1      32.349  27.202  25.979  1.00  0.00    -0.175 NA
ATOM     19  C   UNL A   1      30.616  28.509  24.309  1.00  0.00     0.050 A 
ATOM     20  C   UNL A   1      29.904  29.319  23.264  1.00  0.00     0.067 C 
ATOM     21  C   UNL A   1      30.500  27.133  24.416  1.00  0.00     0.033 A 
ATOM     22  C   UNL A   1      29.508  26.345  23.620  1.00  0.00     0.052 C 
BRANCH  16  23
ATOM     23  N   UNL A   1      33.293  29.336  26.592  1.00  0.00    -0.203 N 
ATOM     24  C   UNL A   1      36.692  29.901  27.503  1.00  0.00     0.069 C 
ATOM     25  C   UNL A   1      35.227  29.956  27.269  1.00  0.00     0.060 A 
ATOM     26  C   UNL A   1      34.392  31.081  27.405  1.00  0.00     0.049 A 
ATOM     27  N   UNL A   1      34.540  28.868  26.897  1.00  0.00    -0.170 NA
ATOM     28  C   UNL A   1      33.148  30.661  26.998  1.00  0.00     0.045 A 
ATOM     29  C   UNL A   1      31.852  31.387  26.998  1.00  0.00     0.067 C 
ENDBRANCH  16  23
ENDBRANCH  14  15
ENDBRANCH   9  14
ENDBRANCH   5   8
ENDBRANCH   3   4
ENDBRANCH   2   3
ENDBRANCH   1   2
BRANCH   1  30
ATOM     30  C   UNL A   1      36.811  20.869  25.096  1.00  0.00     0.002 C 
BRANCH  30  31
ATOM     31  C   UNL A   1      37.320  22.305  24.908  1.00  0.00     0.021 C 
BRANCH  31  32
ATOM     32  C   UNL A   1      38.174  22.790  26.067  1.00  0.00     0.116 C 
BRANCH  32  33
ATOM     33  N   UNL A   1      39.518  22.221  26.023  1.00  0.00    -0.352 N 
ATOM     34  C   UNL A   1      40.724  22.840  26.278  1.00  0.00     0.251 C 
ATOM     35  H   UNL A   1      39.571  21.268  25.780  1.00  0.00     0.163 HD
ATOM     36  O   UNL A   1      41.776  22.369  25.889  1.00  0.00    -0.269 OA
BRANCH  34  37
ATOM     37  C   UNL A   1      40.707  24.102  27.037  1.00  0.00     0.039 A 
ATOM     38  C   UNL A   1      41.553  24.290  28.132  1.00  0.00     0.014 A 
ATOM     39  C   UNL A   1      39.850  25.111  26.608  1.00  0.00     0.014 A 
ATOM     40  C   UNL A   1      41.580  25.536  28.750  1.00  0.00     0.010 A 
ATOM     41  C   UNL A   1      39.986  26.377  27.118  1.00  0.00     0.010 A 
ATOM     42  C   UNL A   1      40.804  26.582  28.225  1.00  0.00    -0.014 A 
BRANCH  42  43
ATOM     43  C   UNL A   1      40.884  27.921  28.794  1.00  0.00     0.031 A 
ATOM     44  C   UNL A   1      41.972  28.791  28.263  1.00  0.00     0.074 A 
ATOM     45  C   UNL A   1      39.920  28.420  29.595  1.00  0.00     0.049 A 
ATOM     46  N   UNL A   1      42.946  29.337  28.916  1.00  0.00    -0.248 NA
ATOM     47  C   UNL A   1      42.029  29.021  26.810  1.00  0.00     0.031 C 
ATOM     48  C   UNL A   1      38.634  27.817  29.972  1.00  0.00     0.029 A 
ATOM     49  N   UNL A   1      39.851  29.650  30.170  1.00  0.00    -0.354 N 
ATOM     50  C   UNL A   1      43.660  30.100  27.994  1.00  0.00     0.074 A 
ATOM     51  C   UNL A   1      43.127  29.771  26.696  1.00  0.00     0.031 C 
ATOM     52  C   UNL A   1      37.830  28.761  30.506  1.00  0.00     0.029 A 
ATOM     53  C   UNL A   1      38.602  29.975  30.678  1.00  0.00     0.049 A 
ATOM     54  H   UNL A   1      40.623  30.259  30.220  1.00  0.00     0.167 HD
ATOM     55  C   UNL A   1      44.515  31.084  28.390  1.00  0.00     0.037 A 
ATOM     56  C   UNL A   1      38.226  31.175  31.178  1.00  0.00     0.037 A 
ATOM     57  C   UNL A   1      44.871  30.942  29.777  1.00  0.00     0.049 A 
ATOM     58  C   UNL A   1      39.466  31.892  31.564  1.00  0.00     0.074 A 
ATOM     59  C   UNL A   1      45.540  29.984  30.513  1.00  0.00     0.029 A 
ATOM     60  N   UNL A   1      44.208  31.713  30.698  1.00  0.00    -0.354 N 
ATOM     61  N   UNL A   1      40.259  31.511  32.528  1.00  0.00    -0.248 NA
ATOM     62  C   UNL A   1      40.056  32.796  30.591  1.00  0.00     0.031 C 
ATOM     63  C   UNL A   1      44.851  29.926  31.760  1.00  0.00     0.029 A 
ATOM     64  C   UNL A   1      43.841  30.889  31.733  1.00  0.00     0.049 A 
ATOM     65  H   UNL A   1      44.028  32.678  30.629  1.00  0.00     0.167 HD
ATOM     66  C   UNL A   1      41.536  31.771  32.057  1.00  0.00     0.074 A 
ATOM     67  C   UNL A   1      41.345  32.655  30.910  1.00  0.00     0.031 C 
ATOM     68  C   UNL A   1      42.604  31.024  32.468  1.00  0.00     0.037 A 
BRANCH  55  69
ATOM     69  C   UNL A   1      44.790  32.348  27.614  1.00  0.00     0.064 A 
ATOM     70  C   UNL A   1      46.001  32.484  26.904  1.00  0.00     0.173 A 
ATOM     71  C   UNL A   1      44.043  33.535  27.770  1.00  0.00     0.173 A 
ATOM     72  F   UNL A   1      46.807  31.427  26.719  1.00  0.00    -0.203 F 
ATOM     73  C   UNL A   1      46.451  33.723  26.438  1.00  0.00     0.198 A 
ATOM     74  C   UNL A   1      44.469  34.759  27.258  1.00  0.00     0.198 A 
ATOM     75  F   UNL A   1      42.931  33.579  28.515  1.00  0.00    -0.203 F 
ATOM     76  F   UNL A   1      47.660  33.821  25.868  1.00  0.00    -0.200 F 
ATOM     77  C   UNL A   1      45.685  34.861  26.617  1.00  0.00     0.200 A 
ATOM     78  F   UNL A   1      43.722  35.854  27.460  1.00  0.00    -0.200 F 
ATOM     79  F   UNL A   1      46.138  36.057  26.220  1.00  0.00    -0.200 F 
ENDBRANCH  55  69
BRANCH  56  80
ATOM     80  C   UNL A   1      36.926  31.865  31.001  1.00  0.00     0.064 A 
ATOM     81  C   UNL A   1      36.024  31.968  32.071  1.00  0.00     0.173 A 
ATOM     82  C   UNL A   1      36.678  32.693  29.889  1.00  0.00     0.173 A 
ATOM     83  F   UNL A   1      36.210  31.238  33.181  1.00  0.00    -0.203 F 
ATOM     84  C   UNL A   1      34.968  32.883  32.054  1.00  0.00     0.198 A 
ATOM     85  C   UNL A   1      35.618  33.600  29.869  1.00  0.00     0.198 A 
ATOM     86  F   UNL A   1      37.517  32.717  28.843  1.00  0.00    -0.203 F 
ATOM     87  F   UNL A   1      34.178  33.010  33.128  1.00  0.00    -0.200 F 
ATOM     88  C   UNL A   1      34.775  33.710  30.959  1.00  0.00     0.200 A 
ATOM     89  F   UNL A   1      35.465  34.419  28.818  1.00  0.00    -0.200 F 
ATOM     90  F   UNL A   1      33.812  34.640  30.974  1.00  0.00    -0.200 F 
ENDBRANCH  56  80
BRANCH  68  91
ATOM     91  C   UNL A   1      42.394  30.092  33.634  1.00  0.00     0.064 A 
ATOM     92  C   UNL A   1      41.966  28.758  33.511  1.00  0.00     0.173 A 
ATOM     93  C   UNL A   1      42.763  30.526  34.913  1.00  0.00     0.173 A 
ATOM     94  F   UNL A   1      41.694  28.227  32.315  1.00  0.00    -0.203 F 
ATOM     95  C   UNL A   1      41.864  27.919  34.621  1.00  0.00     0.198 A 
ATOM     96  C   UNL A   1      42.697  29.677  36.015  1.00  0.00     0.198 A 
ATOM     97  F   UNL A   1      43.236  31.771  35.089  1.00  0.00    -0.203 F 
ATOM     98  F   UNL A   1      41.435  26.656  34.474  1.00  0.00    -0.200 F 
ATOM     99  C   UNL A   1      42.236  28.378  35.872  1.00  0.00     0.200 A 
ATOM    100  F   UNL A   1      43.107  30.111  37.215  1.00  0.00    -0.200 F 
ATOM    101  F   UNL A   1      42.175  27.563  36.934  1.00  0.00    -0.200 F 
ENDBRANCH  68  91
ENDBRANCH  42  43
ENDBRANCH  34  37
ENDBRANCH  32  33
ENDBRANCH  31  32
ENDBRANCH  30  31
ENDBRANCH   1  30
TORSDOF 16
ENDMDL
