MODEL 1
REMARK VINA RESULT:     -13.4      0.000      0.000
REMARK SMILES Cc1ccc([C@H](C)NC(=O)[C@H]2[C@@H]3CC[C@@H](C3)[C@@H]2C(=O)NCCCCCCNC(=O)c2ccc(-c3c4nc(c(-c5c(F)c(F)c(F)c(F)c5F)c5ccc([nH]5)c(-c5c(F)c(F)c(F)c(F)c5F)c5nc(c(-c6c(F)c(F)c(F)c(F)c6F)c6ccc3[nH]6)C=C5)C=C4)cc2)cc1
REMARK SMILES IDX 23 1 22 2 21 3 20 4 18 5 19 6 17 8 11 9 12 10 13 11 16 12
REMARK SMILES IDX 15 13 14 14 9 15 8 16 10 18 6 19 7 20 5 21 1 22 2 23 3 24
REMARK SMILES IDX 94 25 4 26 93 27 24 28 25 29 26 30 27 31 28 32 29 34 30 35
REMARK SMILES IDX 31 36 92 37 32 38 91 39 33 40 34 41 35 42 85 43 36 44 90 45
REMARK SMILES IDX 84 46 86 47 37 48 89 49 83 50 82 51 38 53 70 54 50 55 69 56
REMARK SMILES IDX 51 57 54 58 68 59 87 60 52 61 53 62 67 64 88 65 55 66 39 67
REMARK SMILES IDX 40 68 48 69 41 70 42 71 46 72 49 73 43 74 44 75 47 76 45 77
REMARK SMILES IDX 71 78 72 79 80 80 73 81 74 82 78 83 81 84 75 85 76 86 79 87
REMARK SMILES IDX 77 88 56 89 57 90 65 91 58 92 59 93 63 94 66 95 60 96 61 97
REMARK SMILES IDX 64 98 62 99
REMARK H PARENT 20 7 8 17 27 33 86 52 54 63
REMARK Flexibility Score: inf
ROOT
ATOM      1  C   UNL A   1      32.083  27.713  26.563  1.00  0.00     0.002 C 
ENDROOT
BRANCH   1   2
ATOM      2  C   UNL A   1      31.439  26.352  26.871  1.00  0.00     0.021 C 
BRANCH   2   3
ATOM      3  C   UNL A   1      30.276  25.989  25.944  1.00  0.00     0.116 C 
BRANCH   3   4
ATOM      4  N   UNL A   1      30.353  24.599  25.552  1.00  0.00    -0.356 N 
ATOM      5  C   UNL A   1      31.233  23.919  24.776  1.00  0.00     0.224 C 
ATOM      6  O   UNL A   1      30.982  22.724  24.586  1.00  0.00    -0.275 OA
ATOM      7  H   UNL A   1      29.631  24.040  25.919  1.00  0.00     0.163 HD
BRANCH   5   8
ATOM      8  C   UNL A   1      32.558  24.521  24.306  1.00  0.00     0.094 C 
ATOM      9  C   UNL A   1      33.176  24.100  22.969  1.00  0.00     0.094 C 
ATOM     10  C   UNL A   1      34.620  23.673  23.339  1.00  0.00     0.002 C 
ATOM     11  C   UNL A   1      34.546  22.308  24.051  1.00  0.00     0.005 C 
ATOM     12  C   UNL A   1      34.966  24.587  24.508  1.00  0.00     0.009 C 
ATOM     13  C   UNL A   1      33.718  24.199  25.300  1.00  0.00     0.002 C 
ATOM     14  C   UNL A   1      33.933  22.673  25.412  1.00  0.00     0.005 C 
BRANCH   9  15
ATOM     15  C   UNL A   1      33.162  25.076  21.786  1.00  0.00     0.224 C 
ATOM     16  N   UNL A   1      33.051  26.421  21.830  1.00  0.00    -0.349 N 
ATOM     17  H   UNL A   1      33.004  26.814  20.928  1.00  0.00     0.164 HD
ATOM     18  O   UNL A   1      33.278  24.597  20.647  1.00  0.00    -0.275 OA
BRANCH  16  19
ATOM     19  C   UNL A   1      32.982  27.442  22.872  1.00  0.00     0.109 C 
ATOM     20  C   UNL A   1      33.993  28.553  22.572  1.00  0.00     0.036 C 
BRANCH  19  21
ATOM     21  C   UNL A   1      31.580  28.013  23.027  1.00  0.00    -0.026 A 
ATOM     22  C   UNL A   1      27.654  29.841  23.123  1.00  0.00     0.044 C 
ATOM     23  C   UNL A   1      29.004  29.186  23.126  1.00  0.00    -0.051 A 
ATOM     24  C   UNL A   1      30.138  29.938  23.445  1.00  0.00     0.004 A 
ATOM     25  C   UNL A   1      29.160  27.838  22.792  1.00  0.00     0.004 A 
ATOM     26  C   UNL A   1      31.409  29.360  23.388  1.00  0.00     0.006 A 
ATOM     27  C   UNL A   1      30.433  27.255  22.749  1.00  0.00     0.006 A 
ENDBRANCH  19  21
ENDBRANCH  16  19
ENDBRANCH   9  15
ENDBRANCH   5   8
ENDBRANCH   3   4
ENDBRANCH   2   3
ENDBRANCH   1   2
BRANCH   1  28
ATOM     28  C   UNL A   1      31.537  28.913  27.356  1.00  0.00     0.002 C 
BRANCH  28  29
ATOM     29  C   UNL A   1      31.998  30.292  26.875  1.00  0.00     0.021 C 
BRANCH  29  30
ATOM     30  C   UNL A   1      33.509  30.467  26.896  1.00  0.00     0.116 C 
BRANCH  30  31
ATOM     31  N   UNL A   1      33.975  31.483  27.831  1.00  0.00    -0.352 N 
ATOM     32  C   UNL A   1      35.007  31.442  28.755  1.00  0.00     0.251 C 
ATOM     33  H   UNL A   1      33.479  32.333  27.800  1.00  0.00     0.163 HD
ATOM     34  O   UNL A   1      35.184  32.374  29.514  1.00  0.00    -0.269 OA
BRANCH  32  35
ATOM     35  C   UNL A   1      35.977  30.316  28.723  1.00  0.00     0.039 A 
ATOM     36  C   UNL A   1      36.295  29.685  29.934  1.00  0.00     0.014 A 
ATOM     37  C   UNL A   1      36.698  30.014  27.573  1.00  0.00     0.014 A 
ATOM     38  C   UNL A   1      37.476  28.951  30.039  1.00  0.00     0.010 A 
ATOM     39  C   UNL A   1      37.921  29.391  27.700  1.00  0.00     0.010 A 
ATOM     40  C   UNL A   1      38.336  28.909  28.945  1.00  0.00    -0.014 A 
BRANCH  40  41
ATOM     41  C   UNL A   1      39.724  28.476  29.016  1.00  0.00     0.031 A 
ATOM     42  C   UNL A   1      40.114  27.121  28.573  1.00  0.00     0.074 A 
ATOM     43  C   UNL A   1      40.681  29.373  29.344  1.00  0.00     0.049 A 
ATOM     44  N   UNL A   1      41.204  26.532  28.934  1.00  0.00    -0.248 NA
ATOM     45  C   UNL A   1      39.281  26.298  27.706  1.00  0.00     0.031 C 
ATOM     46  C   UNL A   1      42.117  29.249  29.108  1.00  0.00     0.029 A 
ATOM     47  N   UNL A   1      40.555  30.539  30.119  1.00  0.00    -0.354 N 
ATOM     48  C   UNL A   1      41.360  25.411  28.150  1.00  0.00     0.074 A 
ATOM     49  C   UNL A   1      40.101  25.270  27.456  1.00  0.00     0.031 C 
ATOM     50  C   UNL A   1      42.768  30.088  29.926  1.00  0.00     0.029 A 
ATOM     51  C   UNL A   1      41.780  30.666  30.817  1.00  0.00     0.049 A 
ATOM     52  H   UNL A   1      39.777  31.141  30.168  1.00  0.00     0.167 HD
ATOM     53  C   UNL A   1      42.587  24.816  28.083  1.00  0.00     0.037 A 
ATOM     54  C   UNL A   1      41.847  30.626  32.179  1.00  0.00     0.037 A 
ATOM     55  C   UNL A   1      43.552  25.513  28.933  1.00  0.00     0.049 A 
ATOM     56  C   UNL A   1      42.753  29.550  32.723  1.00  0.00     0.074 A 
ATOM     57  C   UNL A   1      44.533  26.451  28.655  1.00  0.00     0.029 A 
ATOM     58  N   UNL A   1      43.402  25.493  30.312  1.00  0.00    -0.354 N 
ATOM     59  N   UNL A   1      43.102  28.492  32.048  1.00  0.00    -0.248 NA
ATOM     60  C   UNL A   1      43.314  29.562  34.069  1.00  0.00     0.031 C 
ATOM     61  C   UNL A   1      44.987  26.989  29.882  1.00  0.00     0.029 A 
ATOM     62  C   UNL A   1      44.283  26.376  30.903  1.00  0.00     0.049 A 
ATOM     63  H   UNL A   1      42.759  24.930  30.801  1.00  0.00     0.167 HD
ATOM     64  C   UNL A   1      43.897  27.688  32.827  1.00  0.00     0.074 A 
ATOM     65  C   UNL A   1      44.013  28.413  34.078  1.00  0.00     0.031 C 
ATOM     66  C   UNL A   1      44.370  26.496  32.351  1.00  0.00     0.037 A 
BRANCH  53  67
ATOM     67  C   UNL A   1      43.015  23.793  27.048  1.00  0.00     0.064 A 
ATOM     68  C   UNL A   1      42.634  22.436  27.176  1.00  0.00     0.173 A 
ATOM     69  C   UNL A   1      43.829  24.063  25.934  1.00  0.00     0.173 A 
ATOM     70  F   UNL A   1      41.753  22.034  28.100  1.00  0.00    -0.203 F 
ATOM     71  C   UNL A   1      43.139  21.427  26.349  1.00  0.00     0.198 A 
ATOM     72  C   UNL A   1      44.372  23.051  25.134  1.00  0.00     0.198 A 
ATOM     73  F   UNL A   1      44.071  25.315  25.533  1.00  0.00    -0.203 F 
ATOM     74  F   UNL A   1      42.750  20.158  26.536  1.00  0.00    -0.200 F 
ATOM     75  C   UNL A   1      44.040  21.730  25.352  1.00  0.00     0.200 A 
ATOM     76  F   UNL A   1      45.217  23.370  24.143  1.00  0.00    -0.200 F 
ATOM     77  F   UNL A   1      44.558  20.762  24.586  1.00  0.00    -0.200 F 
ENDBRANCH  53  67
BRANCH  54  78
ATOM     78  C   UNL A   1      40.610  31.114  32.836  1.00  0.00     0.064 A 
ATOM     79  C   UNL A   1      40.384  32.503  32.870  1.00  0.00     0.173 A 
ATOM     80  C   UNL A   1      39.511  30.269  33.023  1.00  0.00     0.173 A 
ATOM     81  F   UNL A   1      41.408  33.352  32.692  1.00  0.00    -0.203 F 
ATOM     82  C   UNL A   1      39.095  33.021  32.963  1.00  0.00     0.198 A 
ATOM     83  C   UNL A   1      38.221  30.793  33.123  1.00  0.00     0.198 A 
ATOM     84  F   UNL A   1      39.665  28.938  32.983  1.00  0.00    -0.203 F 
ATOM     85  F   UNL A   1      38.898  34.344  32.878  1.00  0.00    -0.200 F 
ATOM     86  C   UNL A   1      38.011  32.163  33.056  1.00  0.00     0.200 A 
ATOM     87  F   UNL A   1      37.168  29.964  33.187  1.00  0.00    -0.200 F 
ATOM     88  F   UNL A   1      36.763  32.654  33.041  1.00  0.00    -0.200 F 
ENDBRANCH  54  78
BRANCH  66  89
ATOM     89  C   UNL A   1      45.036  25.371  33.122  1.00  0.00     0.064 A 
ATOM     90  C   UNL A   1      46.423  25.161  33.197  1.00  0.00     0.173 A 
ATOM     91  C   UNL A   1      44.261  24.519  33.956  1.00  0.00     0.173 A 
ATOM     92  F   UNL A   1      47.290  25.953  32.556  1.00  0.00    -0.203 F 
ATOM     93  C   UNL A   1      46.982  24.155  33.996  1.00  0.00     0.198 A 
ATOM     94  C   UNL A   1      44.827  23.561  34.797  1.00  0.00     0.198 A 
ATOM     95  F   UNL A   1      42.925  24.606  34.013  1.00  0.00    -0.203 F 
ATOM     96  F   UNL A   1      48.312  23.977  33.999  1.00  0.00    -0.200 F 
ATOM     97  C   UNL A   1      46.188  23.368  34.805  1.00  0.00     0.200 A 
ATOM     98  F   UNL A   1      44.039  22.844  35.612  1.00  0.00    -0.200 F 
ATOM     99  F   UNL A   1      46.735  22.444  35.607  1.00  0.00    -0.200 F 
ENDBRANCH  66  89
ENDBRANCH  40  41
ENDBRANCH  32  35
ENDBRANCH  30  31
ENDBRANCH  29  30
ENDBRANCH  28  29
ENDBRANCH   1  28
TORSDOF 16
ENDMDL
MODEL 2
REMARK VINA RESULT:     -13.3      1.211      2.233
REMARK SMILES Cc1ccc([C@H](C)NC(=O)[C@H]2[C@@H]3CC[C@@H](C3)[C@@H]2C(=O)NCCCCCCNC(=O)c2ccc(-c3c4nc(c(-c5c(F)c(F)c(F)c(F)c5F)c5ccc([nH]5)c(-c5c(F)c(F)c(F)c(F)c5F)c5nc(c(-c6c(F)c(F)c(F)c(F)c6F)c6ccc3[nH]6)C=C5)C=C4)cc2)cc1
REMARK SMILES IDX 23 1 22 2 21 3 20 4 18 5 19 6 17 8 11 9 12 10 13 11 16 12
REMARK SMILES IDX 15 13 14 14 9 15 8 16 10 18 6 19 7 20 5 21 1 22 2 23 3 24
REMARK SMILES IDX 94 25 4 26 93 27 24 28 25 29 26 30 27 31 28 32 29 34 30 35
REMARK SMILES IDX 31 36 92 37 32 38 91 39 33 40 34 41 35 42 85 43 36 44 90 45
REMARK SMILES IDX 84 46 86 47 37 48 89 49 83 50 82 51 38 53 70 54 50 55 69 56
REMARK SMILES IDX 51 57 54 58 68 59 87 60 52 61 53 62 67 64 88 65 55 66 39 67
REMARK SMILES IDX 40 68 48 69 41 70 42 71 46 72 49 73 43 74 44 75 47 76 45 77
REMARK SMILES IDX 71 78 72 79 80 80 73 81 74 82 78 83 81 84 75 85 76 86 79 87
REMARK SMILES IDX 77 88 56 89 57 90 65 91 58 92 59 93 63 94 66 95 60 96 61 97
REMARK SMILES IDX 64 98 62 99
REMARK H PARENT 20 7 8 17 27 33 86 52 54 63
REMARK Flexibility Score: inf
ROOT
ATOM      1  C   UNL A   1      33.045  27.893  25.484  1.00  0.00     0.002 C 
ENDROOT
BRANCH   1   2
ATOM      2  C   UNL A   1      33.445  26.779  26.465  1.00  0.00     0.021 C 
BRANCH   2   3
ATOM      3  C   UNL A   1      33.684  25.421  25.800  1.00  0.00     0.116 C 
BRANCH   3   4
ATOM      4  N   UNL A   1      33.728  25.560  24.360  1.00  0.00    -0.356 N 
ATOM      5  C   UNL A   1      34.185  24.742  23.380  1.00  0.00     0.224 C 
ATOM      6  O   UNL A   1      34.129  25.188  22.229  1.00  0.00    -0.275 OA
ATOM      7  H   UNL A   1      33.354  26.409  24.030  1.00  0.00     0.163 HD
BRANCH   5   8
ATOM      8  C   UNL A   1      34.576  23.286  23.634  1.00  0.00     0.094 C 
ATOM      9  C   UNL A   1      34.134  22.570  24.914  1.00  0.00     0.094 C 
ATOM     10  C   UNL A   1      35.453  22.011  25.507  1.00  0.00     0.002 C 
ATOM     11  C   UNL A   1      36.243  23.189  26.109  1.00  0.00     0.005 C 
ATOM     12  C   UNL A   1      36.291  21.706  24.272  1.00  0.00     0.009 C 
ATOM     13  C   UNL A   1      36.127  23.114  23.701  1.00  0.00     0.002 C 
ATOM     14  C   UNL A   1      36.719  23.946  24.861  1.00  0.00     0.005 C 
BRANCH   9  15
ATOM     15  C   UNL A   1      33.046  21.492  24.841  1.00  0.00     0.224 C 
ATOM     16  N   UNL A   1      31.834  21.503  25.436  1.00  0.00    -0.349 N 
ATOM     17  H   UNL A   1      31.345  20.662  25.287  1.00  0.00     0.164 HD
ATOM     18  O   UNL A   1      33.281  20.487  24.151  1.00  0.00    -0.275 OA
BRANCH  16  19
ATOM     19  C   UNL A   1      31.064  22.444  26.247  1.00  0.00     0.109 C 
ATOM     20  C   UNL A   1      31.884  22.855  27.474  1.00  0.00     0.036 C 
BRANCH  19  21
ATOM     21  C   UNL A   1      30.628  23.666  25.452  1.00  0.00    -0.026 A 
ATOM     22  C   UNL A   1      29.733  27.319  23.302  1.00  0.00     0.044 C 
ATOM     23  C   UNL A   1      30.006  26.037  24.033  1.00  0.00    -0.051 A 
ATOM     24  C   UNL A   1      29.902  25.996  25.425  1.00  0.00     0.004 A 
ATOM     25  C   UNL A   1      30.389  24.878  23.351  1.00  0.00     0.004 A 
ATOM     26  C   UNL A   1      30.217  24.829  26.125  1.00  0.00     0.006 A 
ATOM     27  C   UNL A   1      30.690  23.703  24.051  1.00  0.00     0.006 A 
ENDBRANCH  19  21
ENDBRANCH  16  19
ENDBRANCH   9  15
ENDBRANCH   5   8
ENDBRANCH   3   4
ENDBRANCH   2   3
ENDBRANCH   1   2
BRANCH   1  28
ATOM     28  C   UNL A   1      31.974  28.878  25.983  1.00  0.00     0.002 C 
BRANCH  28  29
ATOM     29  C   UNL A   1      32.433  29.868  27.058  1.00  0.00     0.021 C 
BRANCH  29  30
ATOM     30  C   UNL A   1      33.881  30.310  26.897  1.00  0.00     0.116 C 
BRANCH  30  31
ATOM     31  N   UNL A   1      34.326  31.260  27.907  1.00  0.00    -0.352 N 
ATOM     32  C   UNL A   1      35.331  31.151  28.857  1.00  0.00     0.251 C 
ATOM     33  H   UNL A   1      33.838  32.114  27.917  1.00  0.00     0.163 HD
ATOM     34  O   UNL A   1      35.493  32.032  29.678  1.00  0.00    -0.269 OA
BRANCH  32  35
ATOM     35  C   UNL A   1      36.293  30.021  28.780  1.00  0.00     0.039 A 
ATOM     36  C   UNL A   1      36.591  29.328  29.963  1.00  0.00     0.014 A 
ATOM     37  C   UNL A   1      37.027  29.771  27.626  1.00  0.00     0.014 A 
ATOM     38  C   UNL A   1      37.765  28.581  30.047  1.00  0.00     0.010 A 
ATOM     39  C   UNL A   1      38.244  29.133  27.738  1.00  0.00     0.010 A 
ATOM     40  C   UNL A   1      38.639  28.587  28.963  1.00  0.00    -0.014 A 
BRANCH  40  41
ATOM     41  C   UNL A   1      40.023  28.140  29.030  1.00  0.00     0.031 A 
ATOM     42  C   UNL A   1      40.413  26.815  28.504  1.00  0.00     0.074 A 
ATOM     43  C   UNL A   1      40.979  29.007  29.435  1.00  0.00     0.049 A 
ATOM     44  N   UNL A   1      41.493  26.196  28.845  1.00  0.00    -0.248 NA
ATOM     45  C   UNL A   1      39.592  26.058  27.569  1.00  0.00     0.031 C 
ATOM     46  C   UNL A   1      42.418  28.888  29.218  1.00  0.00     0.029 A 
ATOM     47  N   UNL A   1      40.845  30.119  30.284  1.00  0.00    -0.354 N 
ATOM     48  C   UNL A   1      41.657  25.129  27.991  1.00  0.00     0.074 A 
ATOM     49  C   UNL A   1      40.410  25.043  27.266  1.00  0.00     0.031 C 
ATOM     50  C   UNL A   1      43.059  29.666  30.102  1.00  0.00     0.029 A 
ATOM     51  C   UNL A   1      42.058  30.191  31.012  1.00  0.00     0.049 A 
ATOM     52  H   UNL A   1      40.070  30.722  30.359  1.00  0.00     0.167 HD
ATOM     53  C   UNL A   1      42.882  24.531  27.907  1.00  0.00     0.037 A 
ATOM     54  C   UNL A   1      42.099  30.059  32.369  1.00  0.00     0.037 A 
ATOM     55  C   UNL A   1      43.834  25.162  28.819  1.00  0.00     0.049 A 
ATOM     56  C   UNL A   1      42.988  28.943  32.856  1.00  0.00     0.074 A 
ATOM     57  C   UNL A   1      44.826  26.110  28.623  1.00  0.00     0.029 A 
ATOM     58  N   UNL A   1      43.658  25.051  30.191  1.00  0.00    -0.354 N 
ATOM     59  N   UNL A   1      43.343  27.929  32.118  1.00  0.00    -0.248 NA
ATOM     60  C   UNL A   1      43.524  28.861  34.210  1.00  0.00     0.031 C 
ATOM     61  C   UNL A   1      45.260  26.562  29.891  1.00  0.00     0.029 A 
ATOM     62  C   UNL A   1      44.534  25.886  30.856  1.00  0.00     0.049 A 
ATOM     63  H   UNL A   1      43.003  24.461  30.629  1.00  0.00     0.167 HD
ATOM     64  C   UNL A   1      44.119  27.069  32.856  1.00  0.00     0.074 A 
ATOM     65  C   UNL A   1      44.215  27.709  34.154  1.00  0.00     0.031 C 
ATOM     66  C   UNL A   1      44.594  25.909  32.310  1.00  0.00     0.037 A 
BRANCH  53  67
ATOM     67  C   UNL A   1      43.323  23.576  26.814  1.00  0.00     0.064 A 
ATOM     68  C   UNL A   1      42.926  22.218  26.839  1.00  0.00     0.173 A 
ATOM     69  C   UNL A   1      44.165  23.912  25.739  1.00  0.00     0.173 A 
ATOM     70  F   UNL A   1      42.020  21.764  27.713  1.00  0.00    -0.203 F 
ATOM     71  C   UNL A   1      43.440  21.263  25.956  1.00  0.00     0.198 A 
ATOM     72  C   UNL A   1      44.717  22.951  24.883  1.00  0.00     0.198 A 
ATOM     73  F   UNL A   1      44.430  25.187  25.431  1.00  0.00    -0.203 F 
ATOM     74  F   UNL A   1      43.034  19.989  26.047  1.00  0.00    -0.200 F 
ATOM     75  C   UNL A   1      44.367  21.623  25.003  1.00  0.00     0.200 A 
ATOM     76  F   UNL A   1      45.587  23.329  23.936  1.00  0.00    -0.200 F 
ATOM     77  F   UNL A   1      44.892  20.703  24.184  1.00  0.00    -0.200 F 
ENDBRANCH  53  67
BRANCH  54  78
ATOM     78  C   UNL A   1      40.853  30.510  33.034  1.00  0.00     0.064 A 
ATOM     79  C   UNL A   1      40.631  31.895  33.153  1.00  0.00     0.173 A 
ATOM     80  C   UNL A   1      39.747  29.660  33.149  1.00  0.00     0.173 A 
ATOM     81  F   UNL A   1      41.661  32.749  33.046  1.00  0.00    -0.203 F 
ATOM     82  C   UNL A   1      39.342  32.413  33.255  1.00  0.00     0.198 A 
ATOM     83  C   UNL A   1      38.457  30.184  33.260  1.00  0.00     0.198 A 
ATOM     84  F   UNL A   1      39.896  28.334  33.027  1.00  0.00    -0.203 F 
ATOM     85  F   UNL A   1      39.153  33.739  33.251  1.00  0.00    -0.200 F 
ATOM     86  C   UNL A   1      38.254  31.557  33.276  1.00  0.00     0.200 A 
ATOM     87  F   UNL A   1      37.401  29.357  33.253  1.00  0.00    -0.200 F 
ATOM     88  F   UNL A   1      37.009  32.053  33.270  1.00  0.00    -0.200 F 
ENDBRANCH  54  78
BRANCH  66  89
ATOM     89  C   UNL A   1      45.239  24.730  33.016  1.00  0.00     0.064 A 
ATOM     90  C   UNL A   1      46.550  24.716  33.520  1.00  0.00     0.173 A 
ATOM     91  C   UNL A   1      44.467  23.580  33.339  1.00  0.00     0.173 A 
ATOM     92  F   UNL A   1      47.363  25.770  33.393  1.00  0.00    -0.203 F 
ATOM     93  C   UNL A   1      47.061  23.627  34.238  1.00  0.00     0.198 A 
ATOM     94  C   UNL A   1      44.960  22.527  34.108  1.00  0.00     0.198 A 
ATOM     95  F   UNL A   1      43.191  23.449  32.948  1.00  0.00    -0.203 F 
ATOM     96  F   UNL A   1      48.333  23.655  34.663  1.00  0.00    -0.200 F 
ATOM     97  C   UNL A   1      46.264  22.542  34.545  1.00  0.00     0.200 A 
ATOM     98  F   UNL A   1      44.151  21.508  34.437  1.00  0.00    -0.200 F 
ATOM     99  F   UNL A   1      46.743  21.529  35.280  1.00  0.00    -0.200 F 
ENDBRANCH  66  89
ENDBRANCH  40  41
ENDBRANCH  32  35
ENDBRANCH  30  31
ENDBRANCH  29  30
ENDBRANCH  28  29
ENDBRANCH   1  28
TORSDOF 16
ENDMDL
MODEL 3
REMARK VINA RESULT:     -13.2      3.549      9.813
REMARK SMILES Cc1ccc([C@H](C)NC(=O)[C@H]2[C@@H]3CC[C@@H](C3)[C@@H]2C(=O)NCCCCCCNC(=O)c2ccc(-c3c4nc(c(-c5c(F)c(F)c(F)c(F)c5F)c5ccc([nH]5)c(-c5c(F)c(F)c(F)c(F)c5F)c5nc(c(-c6c(F)c(F)c(F)c(F)c6F)c6ccc3[nH]6)C=C5)C=C4)cc2)cc1
REMARK SMILES IDX 23 1 22 2 21 3 20 4 18 5 19 6 17 8 11 9 12 10 13 11 16 12
REMARK SMILES IDX 15 13 14 14 9 15 8 16 10 18 6 19 7 20 5 21 1 22 2 23 3 24
REMARK SMILES IDX 94 25 4 26 93 27 24 28 25 29 26 30 27 31 28 32 29 34 30 35
REMARK SMILES IDX 31 36 92 37 32 38 91 39 33 40 34 41 35 42 85 43 36 44 90 45
REMARK SMILES IDX 84 46 86 47 37 48 89 49 83 50 82 51 38 53 70 54 50 55 69 56
REMARK SMILES IDX 51 57 54 58 68 59 87 60 52 61 53 62 67 64 88 65 55 66 39 67
REMARK SMILES IDX 40 68 48 69 41 70 42 71 46 72 49 73 43 74 44 75 47 76 45 77
REMARK SMILES IDX 71 78 72 79 80 80 73 81 74 82 78 83 81 84 75 85 76 86 79 87
REMARK SMILES IDX 77 88 56 89 57 90 65 91 58 92 59 93 63 94 66 95 60 96 61 97
REMARK SMILES IDX 64 98 62 99
REMARK H PARENT 20 7 8 17 27 33 86 52 54 63
REMARK Flexibility Score: inf
ROOT
ATOM      1  C   UNL A   1      35.902  23.367  23.947  1.00  0.00     0.002 C 
ENDROOT
BRANCH   1   2
ATOM      2  C   UNL A   1      34.609  23.254  23.122  1.00  0.00     0.021 C 
BRANCH   2   3
ATOM      3  C   UNL A   1      33.565  24.325  23.453  1.00  0.00     0.116 C 
BRANCH   3   4
ATOM      4  N   UNL A   1      34.113  25.304  24.367  1.00  0.00    -0.356 N 
ATOM      5  C   UNL A   1      33.568  25.988  25.402  1.00  0.00     0.224 C 
ATOM      6  O   UNL A   1      34.303  26.811  25.959  1.00  0.00    -0.275 OA
ATOM      7  H   UNL A   1      35.062  25.512  24.206  1.00  0.00     0.163 HD
BRANCH   5   8
ATOM      8  C   UNL A   1      32.195  25.650  25.985  1.00  0.00     0.094 C 
ATOM      9  C   UNL A   1      31.441  24.396  25.533  1.00  0.00     0.094 C 
ATOM     10  C   UNL A   1      30.050  24.926  25.102  1.00  0.00     0.002 C 
ATOM     11  C   UNL A   1      30.212  25.652  23.753  1.00  0.00     0.005 C 
ATOM     12  C   UNL A   1      29.821  26.107  26.037  1.00  0.00     0.009 C 
ATOM     13  C   UNL A   1      31.151  26.769  25.674  1.00  0.00     0.002 C 
ATOM     14  C   UNL A   1      30.963  26.932  24.149  1.00  0.00     0.005 C 
BRANCH   9  15
ATOM     15  C   UNL A   1      31.320  23.200  26.485  1.00  0.00     0.224 C 
ATOM     16  N   UNL A   1      32.198  22.188  26.653  1.00  0.00    -0.349 N 
ATOM     17  H   UNL A   1      31.858  21.508  27.280  1.00  0.00     0.164 HD
ATOM     18  O   UNL A   1      30.310  23.141  27.205  1.00  0.00    -0.275 OA
BRANCH  16  19
ATOM     19  C   UNL A   1      33.522  21.843  26.142  1.00  0.00     0.109 C 
ATOM     20  C   UNL A   1      34.526  21.809  27.298  1.00  0.00     0.036 C 
BRANCH  19  21
ATOM     21  C   UNL A   1      33.521  20.523  25.385  1.00  0.00    -0.026 A 
ATOM     22  C   UNL A   1      33.549  16.982  22.890  1.00  0.00     0.044 C 
ATOM     23  C   UNL A   1      33.537  18.183  23.789  1.00  0.00    -0.051 A 
ATOM     24  C   UNL A   1      32.398  18.989  23.853  1.00  0.00     0.004 A 
ATOM     25  C   UNL A   1      34.655  18.533  24.552  1.00  0.00     0.004 A 
ATOM     26  C   UNL A   1      32.394  20.148  24.634  1.00  0.00     0.006 A 
ATOM     27  C   UNL A   1      34.646  19.686  25.347  1.00  0.00     0.006 A 
ENDBRANCH  19  21
ENDBRANCH  16  19
ENDBRANCH   9  15
ENDBRANCH   5   8
ENDBRANCH   3   4
ENDBRANCH   2   3
ENDBRANCH   1   2
BRANCH   1  28
ATOM     28  C   UNL A   1      36.924  22.234  23.755  1.00  0.00     0.002 C 
BRANCH  28  29
ATOM     29  C   UNL A   1      37.619  21.744  25.029  1.00  0.00     0.021 C 
BRANCH  29  30
ATOM     30  C   UNL A   1      38.185  22.870  25.882  1.00  0.00     0.116 C 
BRANCH  30  31
ATOM     31  N   UNL A   1      39.606  22.735  26.173  1.00  0.00    -0.352 N 
ATOM     32  C   UNL A   1      40.534  23.689  26.562  1.00  0.00     0.251 C 
ATOM     33  H   UNL A   1      39.964  21.823  26.080  1.00  0.00     0.163 HD
ATOM     34  O   UNL A   1      41.707  23.390  26.673  1.00  0.00    -0.269 OA
BRANCH  32  35
ATOM     35  C   UNL A   1      40.069  25.040  26.974  1.00  0.00     0.039 A 
ATOM     36  C   UNL A   1      40.532  26.146  26.246  1.00  0.00     0.014 A 
ATOM     37  C   UNL A   1      39.359  25.233  28.154  1.00  0.00     0.014 A 
ATOM     38  C   UNL A   1      40.495  27.414  26.823  1.00  0.00     0.010 A 
ATOM     39  C   UNL A   1      39.427  26.461  28.776  1.00  0.00     0.010 A 
ATOM     40  C   UNL A   1      40.045  27.539  28.135  1.00  0.00    -0.014 A 
BRANCH  40  41
ATOM     41  C   UNL A   1      40.261  28.717  28.962  1.00  0.00     0.031 A 
ATOM     42  C   UNL A   1      39.200  29.734  29.117  1.00  0.00     0.074 A 
ATOM     43  C   UNL A   1      41.382  28.801  29.714  1.00  0.00     0.049 A 
ATOM     44  N   UNL A   1      39.416  30.946  29.501  1.00  0.00    -0.248 NA
ATOM     45  C   UNL A   1      37.798  29.473  28.814  1.00  0.00     0.031 C 
ATOM     46  C   UNL A   1      41.605  29.679  30.859  1.00  0.00     0.029 A 
ATOM     47  N   UNL A   1      42.632  28.201  29.486  1.00  0.00    -0.354 N 
ATOM     48  C   UNL A   1      38.198  31.530  29.770  1.00  0.00     0.074 A 
ATOM     49  C   UNL A   1      37.222  30.597  29.254  1.00  0.00     0.031 C 
ATOM     50  C   UNL A   1      42.924  29.799  31.067  1.00  0.00     0.029 A 
ATOM     51  C   UNL A   1      43.591  29.124  29.970  1.00  0.00     0.049 A 
ATOM     52  H   UNL A   1      42.807  27.324  29.074  1.00  0.00     0.167 HD
ATOM     53  C   UNL A   1      38.162  32.671  30.519  1.00  0.00     0.037 A 
ATOM     54  C   UNL A   1      44.519  29.702  29.154  1.00  0.00     0.037 A 
ATOM     55  C   UNL A   1      39.511  33.094  30.890  1.00  0.00     0.049 A 
ATOM     56  C   UNL A   1      44.482  31.210  29.146  1.00  0.00     0.074 A 
ATOM     57  C   UNL A   1      40.252  32.938  32.051  1.00  0.00     0.029 A 
ATOM     58  N   UNL A   1      40.394  33.532  29.913  1.00  0.00    -0.354 N 
ATOM     59  N   UNL A   1      43.442  31.909  29.505  1.00  0.00    -0.248 NA
ATOM     60  C   UNL A   1      45.594  32.049  28.712  1.00  0.00     0.031 C 
ATOM     61  C   UNL A   1      41.590  33.299  31.771  1.00  0.00     0.029 A 
ATOM     62  C   UNL A   1      41.661  33.678  30.442  1.00  0.00     0.049 A 
ATOM     63  H   UNL A   1      40.153  33.713  28.976  1.00  0.00     0.167 HD
ATOM     64  C   UNL A   1      43.709  33.247  29.351  1.00  0.00     0.074 A 
ATOM     65  C   UNL A   1      45.076  33.280  28.868  1.00  0.00     0.031 C 
ATOM     66  C   UNL A   1      42.759  34.188  29.634  1.00  0.00     0.037 A 
BRANCH  53  67
ATOM     67  C   UNL A   1      36.924  33.258  31.170  1.00  0.00     0.064 A 
ATOM     68  C   UNL A   1      36.679  33.075  32.552  1.00  0.00     0.173 A 
ATOM     69  C   UNL A   1      35.919  33.973  30.494  1.00  0.00     0.173 A 
ATOM     70  F   UNL A   1      37.596  32.537  33.365  1.00  0.00    -0.203 F 
ATOM     71  C   UNL A   1      35.478  33.446  33.163  1.00  0.00     0.198 A 
ATOM     72  C   UNL A   1      34.697  34.304  31.093  1.00  0.00     0.198 A 
ATOM     73  F   UNL A   1      36.106  34.441  29.256  1.00  0.00    -0.203 F 
ATOM     74  F   UNL A   1      35.304  33.227  34.474  1.00  0.00    -0.200 F 
ATOM     75  C   UNL A   1      34.470  34.025  32.424  1.00  0.00     0.200 A 
ATOM     76  F   UNL A   1      33.744  34.903  30.365  1.00  0.00    -0.200 F 
ATOM     77  F   UNL A   1      33.303  34.344  32.997  1.00  0.00    -0.200 F 
ENDBRANCH  53  67
BRANCH  54  78
ATOM     78  C   UNL A   1      44.885  28.851  27.997  1.00  0.00     0.064 A 
ATOM     79  C   UNL A   1      45.755  27.767  28.223  1.00  0.00     0.173 A 
ATOM     80  C   UNL A   1      44.097  28.825  26.841  1.00  0.00     0.173 A 
ATOM     81  F   UNL A   1      46.527  27.747  29.320  1.00  0.00    -0.203 F 
ATOM     82  C   UNL A   1      45.743  26.648  27.394  1.00  0.00     0.198 A 
ATOM     83  C   UNL A   1      44.095  27.704  26.008  1.00  0.00     0.198 A 
ATOM     84  F   UNL A   1      43.239  29.822  26.583  1.00  0.00    -0.203 F 
ATOM     85  F   UNL A   1      46.497  25.583  27.698  1.00  0.00    -0.200 F 
ATOM     86  C   UNL A   1      44.888  26.605  26.305  1.00  0.00     0.200 A 
ATOM     87  F   UNL A   1      43.248  27.650  24.969  1.00  0.00    -0.200 F 
ATOM     88  F   UNL A   1      44.798  25.490  25.565  1.00  0.00    -0.200 F 
ENDBRANCH  54  78
BRANCH  66  89
ATOM     89  C   UNL A   1      42.769  35.668  29.297  1.00  0.00     0.064 A 
ATOM     90  C   UNL A   1      43.514  36.642  29.981  1.00  0.00     0.173 A 
ATOM     91  C   UNL A   1      42.101  36.141  28.133  1.00  0.00     0.173 A 
ATOM     92  F   UNL A   1      44.282  36.331  31.030  1.00  0.00    -0.203 F 
ATOM     93  C   UNL A   1      43.548  37.981  29.569  1.00  0.00     0.198 A 
ATOM     94  C   UNL A   1      42.190  37.460  27.691  1.00  0.00     0.198 A 
ATOM     95  F   UNL A   1      41.364  35.331  27.360  1.00  0.00    -0.203 F 
ATOM     96  F   UNL A   1      44.247  38.874  30.283  1.00  0.00    -0.200 F 
ATOM     97  C   UNL A   1      42.901  38.386  28.418  1.00  0.00     0.200 A 
ATOM     98  F   UNL A   1      41.595  37.818  26.543  1.00  0.00    -0.200 F 
ATOM     99  F   UNL A   1      42.983  39.656  28.000  1.00  0.00    -0.200 F 
ENDBRANCH  66  89
ENDBRANCH  40  41
ENDBRANCH  32  35
ENDBRANCH  30  31
ENDBRANCH  29  30
ENDBRANCH  28  29
ENDBRANCH   1  28
TORSDOF 16
ENDMDL
