MODEL 1
REMARK VINA RESULT:     -11.5      0.000      0.000
REMARK SMILES O=C(C[C@@H]1C=CS(=O)(=O)C1)NCCCCCCNC(=O)c1ccc(-c2c3nc(c(-c4c(F)c(F)c(F)c(F)c4F)c4ccc([nH]4)c(-c4c(F)c(F)c(F)c(F)c4F)c4nc(c(-c5c(F)c(F)c(F)c(F)c5F)c5ccc2[nH]5)C=C4)C=C3)cc1
REMARK SMILES IDX 15 1 14 2 13 3 12 4 11 5 1 6 2 7 3 9 4 10 5 11 10 12 6 13
REMARK SMILES IDX 7 14 8 15 9 16 16 17 17 18 18 19 19 20 20 22 21 23 22 24
REMARK SMILES IDX 83 25 23 26 82 27 24 28 25 29 26 30 76 31 27 32 81 33 75 34
REMARK SMILES IDX 77 35 28 36 80 37 74 38 73 39 29 41 61 42 41 43 60 44 42 45
REMARK SMILES IDX 45 46 59 47 78 48 43 49 44 50 58 52 79 53 46 54 30 55 31 56
REMARK SMILES IDX 39 57 32 58 33 59 37 60 40 61 34 62 35 63 38 64 36 65 62 66
REMARK SMILES IDX 63 67 71 68 64 69 65 70 69 71 72 72 66 73 67 74 70 75 68 76
REMARK SMILES IDX 47 77 48 78 56 79 49 80 50 81 54 82 57 83 51 84 52 85 55 86
REMARK SMILES IDX 53 87
REMARK H PARENT 11 8 18 21 77 40 45 51
REMARK Flexibility Score: inf
ROOT
ATOM      1  C   UNL A   1      31.775  30.412  26.778  1.00  0.00     0.002 C 
ENDROOT
BRANCH   1   2
ATOM      2  C   UNL A   1      33.179  29.950  26.374  1.00  0.00     0.002 C 
BRANCH   2   3
ATOM      3  C   UNL A   1      33.425  28.434  26.444  1.00  0.00     0.021 C 
BRANCH   3   4
ATOM      4  C   UNL A   1      33.368  27.708  25.100  1.00  0.00     0.116 C 
BRANCH   4   5
ATOM      5  N   UNL A   1      32.223  28.136  24.325  1.00  0.00    -0.356 N 
ATOM      6  O   UNL A   1      33.350  28.790  22.429  1.00  0.00    -0.275 OA
ATOM      7  C   UNL A   1      32.304  28.627  23.043  1.00  0.00     0.220 C 
ATOM      8  H   UNL A   1      31.332  28.072  24.740  1.00  0.00     0.163 HD
BRANCH   7   9
ATOM      9  C   UNL A   1      30.951  29.000  22.463  1.00  0.00     0.108 C 
BRANCH   9  10
ATOM     10  C   UNL A   1      29.786  29.145  23.461  1.00  0.00     0.037 C 
ATOM     11  C   UNL A   1      28.494  28.462  23.077  1.00  0.00    -0.010 C 
ATOM     12  C   UNL A   1      29.433  30.611  23.759  1.00  0.00     0.150 C 
ATOM     13  C   UNL A   1      27.468  29.263  22.756  1.00  0.00     0.102 C 
ATOM     14  S   UNL A   1      27.881  30.934  22.929  1.00  0.00     0.171 S 
ATOM     15  O   UNL A   1      26.970  31.554  23.875  1.00  0.00    -0.224 OA
ATOM     16  O   UNL A   1      28.145  31.511  21.633  1.00  0.00    -0.224 OA
ENDBRANCH   9  10
ENDBRANCH   7   9
ENDBRANCH   4   5
ENDBRANCH   3   4
ENDBRANCH   2   3
ENDBRANCH   1   2
BRANCH   1  17
ATOM     17  C   UNL A   1      31.577  31.927  26.818  1.00  0.00     0.021 C 
BRANCH  17  18
ATOM     18  C   UNL A   1      32.789  32.723  27.292  1.00  0.00     0.116 C 
BRANCH  18  19
ATOM     19  N   UNL A   1      32.463  34.101  27.626  1.00  0.00    -0.352 N 
ATOM     20  C   UNL A   1      33.016  34.906  28.594  1.00  0.00     0.251 C 
ATOM     21  H   UNL A   1      31.751  34.513  27.086  1.00  0.00     0.163 HD
ATOM     22  O   UNL A   1      32.530  36.005  28.843  1.00  0.00    -0.269 OA
BRANCH  20  23
ATOM     23  C   UNL A   1      34.185  34.425  29.361  1.00  0.00     0.039 A 
ATOM     24  C   UNL A   1      33.975  33.751  30.568  1.00  0.00     0.014 A 
ATOM     25  C   UNL A   1      35.481  34.621  28.879  1.00  0.00     0.014 A 
ATOM     26  C   UNL A   1      35.065  33.210  31.256  1.00  0.00     0.010 A 
ATOM     27  C   UNL A   1      36.557  34.024  29.530  1.00  0.00     0.010 A 
ATOM     28  C   UNL A   1      36.360  33.311  30.725  1.00  0.00    -0.014 A 
BRANCH  28  29
ATOM     29  C   UNL A   1      37.531  32.688  31.395  1.00  0.00     0.031 A 
ATOM     30  C   UNL A   1      38.240  31.535  30.741  1.00  0.00     0.074 A 
ATOM     31  C   UNL A   1      37.897  33.096  32.627  1.00  0.00     0.049 A 
ATOM     32  N   UNL A   1      39.189  30.768  31.215  1.00  0.00    -0.248 NA
ATOM     33  C   UNL A   1      37.807  31.179  29.379  1.00  0.00     0.031 C 
ATOM     34  C   UNL A   1      37.266  34.179  33.384  1.00  0.00     0.029 A 
ATOM     35  N   UNL A   1      38.877  32.632  33.469  1.00  0.00    -0.354 N 
ATOM     36  C   UNL A   1      39.442  29.824  30.228  1.00  0.00     0.074 A 
ATOM     37  C   UNL A   1      38.525  30.090  29.141  1.00  0.00     0.031 C 
ATOM     38  C   UNL A   1      37.879  34.300  34.573  1.00  0.00     0.029 A 
ATOM     39  C   UNL A   1      38.915  33.279  34.682  1.00  0.00     0.049 A 
ATOM     40  H   UNL A   1      39.495  31.905  33.228  1.00  0.00     0.167 HD
ATOM     41  C   UNL A   1      40.367  28.836  30.223  1.00  0.00     0.037 A 
ATOM     42  C   UNL A   1      39.687  33.058  35.765  1.00  0.00     0.037 A 
ATOM     43  C   UNL A   1      41.310  28.604  31.285  1.00  0.00     0.049 A 
ATOM     44  C   UNL A   1      40.707  31.950  35.727  1.00  0.00     0.074 A 
ATOM     45  C   UNL A   1      42.336  27.678  31.337  1.00  0.00     0.029 A 
ATOM     46  N   UNL A   1      41.341  29.306  32.480  1.00  0.00    -0.354 N 
ATOM     47  N   UNL A   1      40.986  31.112  34.759  1.00  0.00    -0.248 NA
ATOM     48  C   UNL A   1      41.524  31.758  36.935  1.00  0.00     0.031 C 
ATOM     49  C   UNL A   1      42.960  27.787  32.582  1.00  0.00     0.029 A 
ATOM     50  C   UNL A   1      42.357  28.817  33.285  1.00  0.00     0.049 A 
ATOM     51  H   UNL A   1      40.732  30.041  32.722  1.00  0.00     0.167 HD
ATOM     52  C   UNL A   1      42.033  30.328  35.222  1.00  0.00     0.074 A 
ATOM     53  C   UNL A   1      42.347  30.791  36.556  1.00  0.00     0.031 C 
ATOM     54  C   UNL A   1      42.679  29.313  34.597  1.00  0.00     0.037 A 
BRANCH  41  55
ATOM     55  C   UNL A   1      40.421  27.926  29.032  1.00  0.00     0.064 A 
ATOM     56  C   UNL A   1      39.657  26.751  28.968  1.00  0.00     0.173 A 
ATOM     57  C   UNL A   1      41.184  28.276  27.908  1.00  0.00     0.173 A 
ATOM     58  F   UNL A   1      38.919  26.367  30.020  1.00  0.00    -0.203 F 
ATOM     59  C   UNL A   1      39.668  25.953  27.826  1.00  0.00     0.198 A 
ATOM     60  C   UNL A   1      41.170  27.491  26.759  1.00  0.00     0.198 A 
ATOM     61  F   UNL A   1      41.927  29.394  27.916  1.00  0.00    -0.203 F 
ATOM     62  F   UNL A   1      38.956  24.818  27.799  1.00  0.00    -0.200 F 
ATOM     63  C   UNL A   1      40.415  26.329  26.720  1.00  0.00     0.200 A 
ATOM     64  F   UNL A   1      41.881  27.864  25.685  1.00  0.00    -0.200 F 
ATOM     65  F   UNL A   1      40.407  25.570  25.616  1.00  0.00    -0.200 F 
ENDBRANCH  41  55
BRANCH  42  66
ATOM     66  C   UNL A   1      39.536  33.899  36.982  1.00  0.00     0.064 A 
ATOM     67  C   UNL A   1      38.754  33.465  38.062  1.00  0.00     0.173 A 
ATOM     68  C   UNL A   1      40.126  35.168  37.075  1.00  0.00     0.173 A 
ATOM     69  F   UNL A   1      38.150  32.268  38.014  1.00  0.00    -0.203 F 
ATOM     70  C   UNL A   1      38.537  34.281  39.171  1.00  0.00     0.198 A 
ATOM     71  C   UNL A   1      39.935  35.971  38.198  1.00  0.00     0.198 A 
ATOM     72  F   UNL A   1      40.887  35.630  36.072  1.00  0.00    -0.203 F 
ATOM     73  F   UNL A   1      37.732  33.867  40.159  1.00  0.00    -0.200 F 
ATOM     74  C   UNL A   1      39.130  35.533  39.240  1.00  0.00     0.200 A 
ATOM     75  F   UNL A   1      40.521  37.174  38.266  1.00  0.00    -0.200 F 
ATOM     76  F   UNL A   1      38.915  36.322  40.300  1.00  0.00    -0.200 F 
ENDBRANCH  42  66
BRANCH  54  77
ATOM     77  C   UNL A   1      43.832  28.676  35.316  1.00  0.00     0.064 A 
ATOM     78  C   UNL A   1      45.151  29.111  35.130  1.00  0.00     0.173 A 
ATOM     79  C   UNL A   1      43.600  27.653  36.249  1.00  0.00     0.173 A 
ATOM     80  F   UNL A   1      45.425  30.076  34.240  1.00  0.00    -0.203 F 
ATOM     81  C   UNL A   1      46.200  28.532  35.840  1.00  0.00     0.198 A 
ATOM     82  C   UNL A   1      44.647  27.097  36.978  1.00  0.00     0.198 A 
ATOM     83  F   UNL A   1      42.354  27.206  36.468  1.00  0.00    -0.203 F 
ATOM     84  F   UNL A   1      47.459  28.935  35.618  1.00  0.00    -0.200 F 
ATOM     85  C   UNL A   1      45.947  27.533  36.769  1.00  0.00     0.200 A 
ATOM     86  F   UNL A   1      44.398  26.145  37.886  1.00  0.00    -0.200 F 
ATOM     87  F   UNL A   1      46.956  26.988  37.461  1.00  0.00    -0.200 F 
ENDBRANCH  54  77
ENDBRANCH  28  29
ENDBRANCH  20  23
ENDBRANCH  18  19
ENDBRANCH  17  18
ENDBRANCH   1  17
TORSDOF 14
ENDMDL
MODEL 2
REMARK VINA RESULT:     -11.4      1.993      2.776
REMARK SMILES O=C(C[C@@H]1C=CS(=O)(=O)C1)NCCCCCCNC(=O)c1ccc(-c2c3nc(c(-c4c(F)c(F)c(F)c(F)c4F)c4ccc([nH]4)c(-c4c(F)c(F)c(F)c(F)c4F)c4nc(c(-c5c(F)c(F)c(F)c(F)c5F)c5ccc2[nH]5)C=C4)C=C3)cc1
REMARK SMILES IDX 15 1 14 2 13 3 12 4 11 5 1 6 2 7 3 9 4 10 5 11 10 12 6 13
REMARK SMILES IDX 7 14 8 15 9 16 16 17 17 18 18 19 19 20 20 22 21 23 22 24
REMARK SMILES IDX 83 25 23 26 82 27 24 28 25 29 26 30 76 31 27 32 81 33 75 34
REMARK SMILES IDX 77 35 28 36 80 37 74 38 73 39 29 41 61 42 41 43 60 44 42 45
REMARK SMILES IDX 45 46 59 47 78 48 43 49 44 50 58 52 79 53 46 54 30 55 31 56
REMARK SMILES IDX 39 57 32 58 33 59 37 60 40 61 34 62 35 63 38 64 36 65 62 66
REMARK SMILES IDX 63 67 71 68 64 69 65 70 69 71 72 72 66 73 67 74 70 75 68 76
REMARK SMILES IDX 47 77 48 78 56 79 49 80 50 81 54 82 57 83 51 84 52 85 55 86
REMARK SMILES IDX 53 87
REMARK H PARENT 11 8 18 21 77 40 45 51
REMARK Flexibility Score: inf
ROOT
ATOM      1  C   UNL A   1      31.747  30.643  26.174  1.00  0.00     0.002 C 
ENDROOT
BRANCH   1   2
ATOM      2  C   UNL A   1      32.283  29.635  27.195  1.00  0.00     0.002 C 
BRANCH   2   3
ATOM      3  C   UNL A   1      33.544  28.866  26.770  1.00  0.00     0.021 C 
BRANCH   3   4
ATOM      4  C   UNL A   1      33.409  28.073  25.469  1.00  0.00     0.116 C 
BRANCH   4   5
ATOM      5  N   UNL A   1      33.859  26.709  25.643  1.00  0.00    -0.356 N 
ATOM      6  O   UNL A   1      33.802  26.072  23.433  1.00  0.00    -0.275 OA
ATOM      7  C   UNL A   1      34.038  25.822  24.607  1.00  0.00     0.220 C 
ATOM      8  H   UNL A   1      34.051  26.396  26.556  1.00  0.00     0.163 HD
BRANCH   7   9
ATOM      9  C   UNL A   1      34.519  24.458  25.069  1.00  0.00     0.108 C 
BRANCH   9  10
ATOM     10  C   UNL A   1      33.437  23.388  25.315  1.00  0.00     0.037 C 
ATOM     11  C   UNL A   1      32.241  23.430  24.394  1.00  0.00    -0.010 C 
ATOM     12  C   UNL A   1      32.885  23.415  26.749  1.00  0.00     0.150 C 
ATOM     13  C   UNL A   1      31.078  23.806  24.943  1.00  0.00     0.102 C 
ATOM     14  S   UNL A   1      31.235  24.099  26.641  1.00  0.00     0.171 S 
ATOM     15  O   UNL A   1      30.324  23.226  27.360  1.00  0.00    -0.224 OA
ATOM     16  O   UNL A   1      31.290  25.518  26.891  1.00  0.00    -0.224 OA
ENDBRANCH   9  10
ENDBRANCH   7   9
ENDBRANCH   4   5
ENDBRANCH   3   4
ENDBRANCH   2   3
ENDBRANCH   1   2
BRANCH   1  17
ATOM     17  C   UNL A   1      31.442  32.033  26.732  1.00  0.00     0.021 C 
BRANCH  17  18
ATOM     18  C   UNL A   1      32.646  32.779  27.297  1.00  0.00     0.116 C 
BRANCH  18  19
ATOM     19  N   UNL A   1      32.349  34.164  27.627  1.00  0.00    -0.352 N 
ATOM     20  C   UNL A   1      32.948  34.975  28.561  1.00  0.00     0.251 C 
ATOM     21  H   UNL A   1      31.620  34.577  27.111  1.00  0.00     0.163 HD
ATOM     22  O   UNL A   1      32.485  36.082  28.816  1.00  0.00    -0.269 OA
BRANCH  20  23
ATOM     23  C   UNL A   1      34.143  34.491  29.286  1.00  0.00     0.039 A 
ATOM     24  C   UNL A   1      33.980  33.870  30.528  1.00  0.00     0.014 A 
ATOM     25  C   UNL A   1      35.418  34.630  28.730  1.00  0.00     0.014 A 
ATOM     26  C   UNL A   1      35.089  33.326  31.181  1.00  0.00     0.010 A 
ATOM     27  C   UNL A   1      36.509  34.029  29.350  1.00  0.00     0.010 A 
ATOM     28  C   UNL A   1      36.357  33.369  30.580  1.00  0.00    -0.014 A 
BRANCH  28  29
ATOM     29  C   UNL A   1      37.544  32.739  31.214  1.00  0.00     0.031 A 
ATOM     30  C   UNL A   1      38.233  31.589  30.533  1.00  0.00     0.074 A 
ATOM     31  C   UNL A   1      37.945  33.139  32.438  1.00  0.00     0.049 A 
ATOM     32  N   UNL A   1      39.192  30.817  30.976  1.00  0.00    -0.248 NA
ATOM     33  C   UNL A   1      37.761  31.243  29.182  1.00  0.00     0.031 C 
ATOM     34  C   UNL A   1      37.337  34.218  33.219  1.00  0.00     0.029 A 
ATOM     35  N   UNL A   1      38.947  32.667  33.250  1.00  0.00    -0.354 N 
ATOM     36  C   UNL A   1      39.416  29.879  29.976  1.00  0.00     0.074 A 
ATOM     37  C   UNL A   1      38.471  30.155  28.917  1.00  0.00     0.031 C 
ATOM     38  C   UNL A   1      37.983  34.330  34.392  1.00  0.00     0.029 A 
ATOM     39  C   UNL A   1      39.019  33.306  34.465  1.00  0.00     0.049 A 
ATOM     40  H   UNL A   1      39.556  31.940  32.987  1.00  0.00     0.167 HD
ATOM     41  C   UNL A   1      40.339  28.890  29.940  1.00  0.00     0.037 A 
ATOM     42  C   UNL A   1      39.820  33.077  35.525  1.00  0.00     0.037 A 
ATOM     43  C   UNL A   1      41.310  28.649  30.974  1.00  0.00     0.049 A 
ATOM     44  C   UNL A   1      40.836  31.966  35.452  1.00  0.00     0.074 A 
ATOM     45  C   UNL A   1      42.335  27.721  30.991  1.00  0.00     0.029 A 
ATOM     46  N   UNL A   1      41.375  29.343  32.172  1.00  0.00    -0.354 N 
ATOM     47  N   UNL A   1      41.086  31.135  34.471  1.00  0.00    -0.248 NA
ATOM     48  C   UNL A   1      41.686  31.765  36.637  1.00  0.00     0.031 C 
ATOM     49  C   UNL A   1      42.993  27.820  32.220  1.00  0.00     0.029 A 
ATOM     50  C   UNL A   1      42.411  28.846  32.946  1.00  0.00     0.049 A 
ATOM     51  H   UNL A   1      40.775  30.078  32.435  1.00  0.00     0.167 HD
ATOM     52  C   UNL A   1      42.144  30.345  34.900  1.00  0.00     0.074 A 
ATOM     53  C   UNL A   1      42.496  30.799  36.228  1.00  0.00     0.031 C 
ATOM     54  C   UNL A   1      42.771  29.334  34.252  1.00  0.00     0.037 A 
BRANCH  41  55
ATOM     55  C   UNL A   1      40.358  27.987  28.742  1.00  0.00     0.064 A 
ATOM     56  C   UNL A   1      41.097  28.304  27.593  1.00  0.00     0.173 A 
ATOM     57  C   UNL A   1      39.692  26.752  28.776  1.00  0.00     0.173 A 
ATOM     58  F   UNL A   1      41.743  29.476  27.507  1.00  0.00    -0.203 F 
ATOM     59  C   UNL A   1      41.158  27.422  26.516  1.00  0.00     0.198 A 
ATOM     60  C   UNL A   1      39.778  25.862  27.710  1.00  0.00     0.198 A 
ATOM     61  F   UNL A   1      38.976  26.399  29.854  1.00  0.00    -0.203 F 
ATOM     62  F   UNL A   1      41.845  27.759  25.416  1.00  0.00    -0.200 F 
ATOM     63  C   UNL A   1      40.508  26.198  26.580  1.00  0.00     0.200 A 
ATOM     64  F   UNL A   1      39.162  24.673  27.779  1.00  0.00    -0.200 F 
ATOM     65  F   UNL A   1      40.585  25.344  25.551  1.00  0.00    -0.200 F 
ENDBRANCH  41  55
BRANCH  42  66
ATOM     66  C   UNL A   1      39.704  33.909  36.752  1.00  0.00     0.064 A 
ATOM     67  C   UNL A   1      38.885  33.508  37.818  1.00  0.00     0.173 A 
ATOM     68  C   UNL A   1      40.365  35.141  36.868  1.00  0.00     0.173 A 
ATOM     69  F   UNL A   1      38.214  32.350  37.747  1.00  0.00    -0.203 F 
ATOM     70  C   UNL A   1      38.704  34.322  38.935  1.00  0.00     0.198 A 
ATOM     71  C   UNL A   1      40.209  35.940  37.999  1.00  0.00     0.198 A 
ATOM     72  F   UNL A   1      41.164  35.570  35.879  1.00  0.00    -0.203 F 
ATOM     73  F   UNL A   1      37.865  33.944  39.908  1.00  0.00    -0.200 F 
ATOM     74  C   UNL A   1      39.368  35.536  39.026  1.00  0.00     0.200 A 
ATOM     75  F   UNL A   1      40.863  37.105  38.089  1.00  0.00    -0.200 F 
ATOM     76  F   UNL A   1      39.187  36.323  40.094  1.00  0.00    -0.200 F 
ENDBRANCH  42  66
BRANCH  54  77
ATOM     77  C   UNL A   1      43.941  28.689  34.934  1.00  0.00     0.064 A 
ATOM     78  C   UNL A   1      45.244  29.190  34.800  1.00  0.00     0.173 A 
ATOM     79  C   UNL A   1      43.743  27.589  35.784  1.00  0.00     0.173 A 
ATOM     80  F   UNL A   1      45.487  30.230  33.989  1.00  0.00    -0.203 F 
ATOM     81  C   UNL A   1      46.309  28.600  35.476  1.00  0.00     0.198 A 
ATOM     82  C   UNL A   1      44.804  27.021  36.482  1.00  0.00     0.198 A 
ATOM     83  F   UNL A   1      42.514  27.078  35.952  1.00  0.00    -0.203 F 
ATOM     84  F   UNL A   1      47.551  29.068  35.303  1.00  0.00    -0.200 F 
ATOM     85  C   UNL A   1      46.087  27.524  36.323  1.00  0.00     0.200 A 
ATOM     86  F   UNL A   1      44.585  25.992  37.311  1.00  0.00    -0.200 F 
ATOM     87  F   UNL A   1      47.111  26.967  36.984  1.00  0.00    -0.200 F 
ENDBRANCH  54  77
ENDBRANCH  28  29
ENDBRANCH  20  23
ENDBRANCH  18  19
ENDBRANCH  17  18
ENDBRANCH   1  17
TORSDOF 14
ENDMDL
MODEL 3
REMARK VINA RESULT:     -11.3      2.206      7.987
REMARK SMILES O=C(C[C@@H]1C=CS(=O)(=O)C1)NCCCCCCNC(=O)c1ccc(-c2c3nc(c(-c4c(F)c(F)c(F)c(F)c4F)c4ccc([nH]4)c(-c4c(F)c(F)c(F)c(F)c4F)c4nc(c(-c5c(F)c(F)c(F)c(F)c5F)c5ccc2[nH]5)C=C4)C=C3)cc1
REMARK SMILES IDX 15 1 14 2 13 3 12 4 11 5 1 6 2 7 3 9 4 10 5 11 10 12 6 13
REMARK SMILES IDX 7 14 8 15 9 16 16 17 17 18 18 19 19 20 20 22 21 23 22 24
REMARK SMILES IDX 83 25 23 26 82 27 24 28 25 29 26 30 76 31 27 32 81 33 75 34
REMARK SMILES IDX 77 35 28 36 80 37 74 38 73 39 29 41 61 42 41 43 60 44 42 45
REMARK SMILES IDX 45 46 59 47 78 48 43 49 44 50 58 52 79 53 46 54 30 55 31 56
REMARK SMILES IDX 39 57 32 58 33 59 37 60 40 61 34 62 35 63 38 64 36 65 62 66
REMARK SMILES IDX 63 67 71 68 64 69 65 70 69 71 72 72 66 73 67 74 70 75 68 76
REMARK SMILES IDX 47 77 48 78 56 79 49 80 50 81 54 82 57 83 51 84 52 85 55 86
REMARK SMILES IDX 53 87
REMARK H PARENT 11 8 18 21 77 40 45 51
REMARK Flexibility Score: inf
ROOT
ATOM      1  C   UNL A   1      34.412  33.534  29.191  1.00  0.00     0.002 C 
ENDROOT
BRANCH   1   2
ATOM      2  C   UNL A   1      35.194  32.963  28.004  1.00  0.00     0.002 C 
BRANCH   2   3
ATOM      3  C   UNL A   1      34.907  31.492  27.664  1.00  0.00     0.021 C 
BRANCH   3   4
ATOM      4  C   UNL A   1      33.425  31.116  27.622  1.00  0.00     0.116 C 
BRANCH   4   5
ATOM      5  N   UNL A   1      33.255  29.684  27.510  1.00  0.00    -0.356 N 
ATOM      6  O   UNL A   1      33.024  29.570  25.224  1.00  0.00    -0.275 OA
ATOM      7  C   UNL A   1      33.087  29.022  26.316  1.00  0.00     0.220 C 
ATOM      8  H   UNL A   1      33.262  29.150  28.336  1.00  0.00     0.163 HD
BRANCH   7   9
ATOM      9  C   UNL A   1      32.934  27.521  26.485  1.00  0.00     0.108 C 
BRANCH   9  10
ATOM     10  C   UNL A   1      32.201  26.768  25.358  1.00  0.00     0.037 C 
ATOM     11  C   UNL A   1      30.692  26.773  25.427  1.00  0.00    -0.010 C 
ATOM     12  C   UNL A   1      32.627  25.295  25.247  1.00  0.00     0.150 C 
ATOM     13  C   UNL A   1      30.103  25.604  25.713  1.00  0.00     0.102 C 
ATOM     14  S   UNL A   1      31.259  24.327  25.873  1.00  0.00     0.171 S 
ATOM     15  O   UNL A   1      30.951  23.283  24.911  1.00  0.00    -0.224 OA
ATOM     16  O   UNL A   1      31.479  24.037  27.269  1.00  0.00    -0.224 OA
ENDBRANCH   9  10
ENDBRANCH   7   9
ENDBRANCH   4   5
ENDBRANCH   3   4
ENDBRANCH   2   3
ENDBRANCH   1   2
BRANCH   1  17
ATOM     17  C   UNL A   1      33.288  34.502  28.823  1.00  0.00     0.021 C 
BRANCH  17  18
ATOM     18  C   UNL A   1      33.477  35.929  29.328  1.00  0.00     0.116 C 
BRANCH  18  19
ATOM     19  N   UNL A   1      32.533  36.286  30.376  1.00  0.00    -0.352 N 
ATOM     20  C   UNL A   1      32.536  35.919  31.700  1.00  0.00     0.251 C 
ATOM     21  H   UNL A   1      31.791  36.871  30.098  1.00  0.00     0.163 HD
ATOM     22  O   UNL A   1      31.584  36.193  32.426  1.00  0.00    -0.269 OA
BRANCH  20  23
ATOM     23  C   UNL A   1      33.683  35.160  32.242  1.00  0.00     0.039 A 
ATOM     24  C   UNL A   1      33.481  33.853  32.695  1.00  0.00     0.014 A 
ATOM     25  C   UNL A   1      34.958  35.731  32.284  1.00  0.00     0.014 A 
ATOM     26  C   UNL A   1      34.572  33.092  33.124  1.00  0.00     0.010 A 
ATOM     27  C   UNL A   1      36.051  34.950  32.647  1.00  0.00     0.010 A 
ATOM     28  C   UNL A   1      35.871  33.622  33.069  1.00  0.00    -0.014 A 
BRANCH  28  29
ATOM     29  C   UNL A   1      37.061  32.817  33.451  1.00  0.00     0.031 A 
ATOM     30  C   UNL A   1      37.779  33.112  34.738  1.00  0.00     0.074 A 
ATOM     31  C   UNL A   1      37.546  31.889  32.602  1.00  0.00     0.049 A 
ATOM     32  N   UNL A   1      38.907  32.624  35.189  1.00  0.00    -0.248 NA
ATOM     33  C   UNL A   1      37.161  34.109  35.627  1.00  0.00     0.031 C 
ATOM     34  C   UNL A   1      36.962  31.537  31.307  1.00  0.00     0.029 A 
ATOM     35  N   UNL A   1      38.657  31.087  32.693  1.00  0.00    -0.354 N 
ATOM     36  C   UNL A   1      39.147  33.274  36.392  1.00  0.00     0.074 A 
ATOM     37  C   UNL A   1      38.068  34.217  36.587  1.00  0.00     0.031 C 
ATOM     38  C   UNL A   1      37.714  30.585  30.729  1.00  0.00     0.029 A 
ATOM     39  C   UNL A   1      38.855  30.292  31.589  1.00  0.00     0.049 A 
ATOM     40  H   UNL A   1      39.255  31.082  33.474  1.00  0.00     0.167 HD
ATOM     41  C   UNL A   1      40.167  33.088  37.262  1.00  0.00     0.037 A 
ATOM     42  C   UNL A   1      39.856  29.437  31.298  1.00  0.00     0.037 A 
ATOM     43  C   UNL A   1      41.213  32.115  37.089  1.00  0.00     0.049 A 
ATOM     44  C   UNL A   1      40.977  29.253  32.288  1.00  0.00     0.074 A 
ATOM     45  C   UNL A   1      42.245  31.798  37.953  1.00  0.00     0.029 A 
ATOM     46  N   UNL A   1      41.357  31.301  35.976  1.00  0.00    -0.354 N 
ATOM     47  N   UNL A   1      41.154  29.821  33.456  1.00  0.00    -0.248 NA
ATOM     48  C   UNL A   1      42.040  28.305  31.920  1.00  0.00     0.031 C 
ATOM     49  C   UNL A   1      43.042  30.826  37.344  1.00  0.00     0.029 A 
ATOM     50  C   UNL A   1      42.476  30.498  36.123  1.00  0.00     0.049 A 
ATOM     51  H   UNL A   1      40.755  31.295  35.196  1.00  0.00     0.167 HD
ATOM     52  C   UNL A   1      42.316  29.270  33.977  1.00  0.00     0.074 A 
ATOM     53  C   UNL A   1      42.802  28.316  33.004  1.00  0.00     0.031 C 
ATOM     54  C   UNL A   1      42.926  29.529  35.159  1.00  0.00     0.037 A 
BRANCH  41  55
ATOM     55  C   UNL A   1      40.210  33.946  38.492  1.00  0.00     0.064 A 
ATOM     56  C   UNL A   1      39.558  33.570  39.675  1.00  0.00     0.173 A 
ATOM     57  C   UNL A   1      40.982  35.118  38.511  1.00  0.00     0.173 A 
ATOM     58  F   UNL A   1      38.800  32.464  39.706  1.00  0.00    -0.203 F 
ATOM     59  C   UNL A   1      39.665  34.345  40.828  1.00  0.00     0.198 A 
ATOM     60  C   UNL A   1      41.109  35.874  39.672  1.00  0.00     0.198 A 
ATOM     61  F   UNL A   1      41.631  35.518  37.406  1.00  0.00    -0.203 F 
ATOM     62  F   UNL A   1      39.007  33.983  41.938  1.00  0.00    -0.200 F 
ATOM     63  C   UNL A   1      40.448  35.489  40.829  1.00  0.00     0.200 A 
ATOM     64  F   UNL A   1      41.879  36.972  39.675  1.00  0.00    -0.200 F 
ATOM     65  F   UNL A   1      40.565  36.221  41.944  1.00  0.00    -0.200 F 
ENDBRANCH  41  55
BRANCH  42  66
ATOM     66  C   UNL A   1      39.855  28.683  30.016  1.00  0.00     0.064 A 
ATOM     67  C   UNL A   1      39.286  27.403  29.936  1.00  0.00     0.173 A 
ATOM     68  C   UNL A   1      40.461  29.198  28.861  1.00  0.00     0.173 A 
ATOM     69  F   UNL A   1      38.714  26.857  31.018  1.00  0.00    -0.203 F 
ATOM     70  C   UNL A   1      39.356  26.655  28.763  1.00  0.00     0.198 A 
ATOM     71  C   UNL A   1      40.502  28.462  27.679  1.00  0.00     0.198 A 
ATOM     72  F   UNL A   1      41.017  30.419  28.882  1.00  0.00    -0.203 F 
ATOM     73  F   UNL A   1      38.862  25.410  28.735  1.00  0.00    -0.200 F 
ATOM     74  C   UNL A   1      39.962  27.185  27.634  1.00  0.00     0.200 A 
ATOM     75  F   UNL A   1      41.077  28.984  26.587  1.00  0.00    -0.200 F 
ATOM     76  F   UNL A   1      40.037  26.463  26.509  1.00  0.00    -0.200 F 
ENDBRANCH  42  66
BRANCH  54  77
ATOM     77  C   UNL A   1      44.149  28.729  35.500  1.00  0.00     0.064 A 
ATOM     78  C   UNL A   1      45.438  29.171  35.169  1.00  0.00     0.173 A 
ATOM     79  C   UNL A   1      44.028  27.532  36.224  1.00  0.00     0.173 A 
ATOM     80  F   UNL A   1      45.604  30.301  34.467  1.00  0.00    -0.203 F 
ATOM     81  C   UNL A   1      46.561  28.432  35.534  1.00  0.00     0.198 A 
ATOM     82  C   UNL A   1      45.154  26.812  36.612  1.00  0.00     0.198 A 
ATOM     83  F   UNL A   1      42.817  27.071  36.571  1.00  0.00    -0.203 F 
ATOM     84  F   UNL A   1      47.781  28.851  35.172  1.00  0.00    -0.200 F 
ATOM     85  C   UNL A   1      46.419  27.260  36.262  1.00  0.00     0.200 A 
ATOM     86  F   UNL A   1      45.016  25.689  37.329  1.00  0.00    -0.200 F 
ATOM     87  F   UNL A   1      47.502  26.559  36.624  1.00  0.00    -0.200 F 
ENDBRANCH  54  77
ENDBRANCH  28  29
ENDBRANCH  20  23
ENDBRANCH  18  19
ENDBRANCH  17  18
ENDBRANCH   1  17
TORSDOF 14
ENDMDL
