MODEL 1
REMARK VINA RESULT:     -10.6      0.000      0.000
REMARK SMILES CC[C@H](Oc1ccc(C)nc1C[NH3+])C(=O)NCCCCCCNC(=O)c1ccc(-c2c3nc(c(-c4c(F)c(F)c(F)c(F)c4F)c4ccc([nH]4)c(-c4c(F)c(F)c(F)c(F)c4F)c4nc(c(-c5c(F)c(F)c(F)c(F)c5F)c5ccc2[nH]5)C=C4)C=C3)cc1
REMARK SMILES IDX 18 1 17 2 16 3 14 4 15 5 3 7 2 8 1 9 4 10 5 11 6 12 11 13
REMARK SMILES IDX 7 14 10 15 8 16 9 17 12 18 13 19 19 23 20 24 21 25 22 26
REMARK SMILES IDX 23 27 24 28 25 30 26 31 27 32 88 33 28 34 87 35 29 36 30 37
REMARK SMILES IDX 31 38 81 39 32 40 86 41 80 42 82 43 33 44 85 45 79 46 78 47
REMARK SMILES IDX 34 49 66 50 46 51 65 52 47 53 50 54 64 55 83 56 48 57 49 58
REMARK SMILES IDX 63 60 84 61 51 62 35 63 36 64 44 65 37 66 38 67 42 68 45 69
REMARK SMILES IDX 39 70 40 71 43 72 41 73 67 74 68 75 76 76 69 77 70 78 74 79
REMARK SMILES IDX 77 80 71 81 72 82 75 83 73 84 52 85 53 86 61 87 54 88 55 89
REMARK SMILES IDX 59 90 62 91 56 92 57 93 60 94 58 95
REMARK H PARENT 16 6 13 20 13 21 13 22 23 29 82 48 50 59
REMARK Flexibility Score: inf
ROOT
ATOM      1  C   UNL A   1      34.806  31.697  28.207  1.00  0.00     0.021 C 
ENDROOT
BRANCH   1   2
ATOM      2  C   UNL A   1      33.631  31.003  27.525  1.00  0.00     0.116 C 
BRANCH   2   3
ATOM      3  N   UNL A   1      34.069  30.132  26.452  1.00  0.00    -0.353 N 
ATOM      4  C   UNL A   1      33.357  29.229  25.716  1.00  0.00     0.261 C 
ATOM      5  O   UNL A   1      33.959  28.576  24.859  1.00  0.00    -0.271 OA
ATOM      6  H   UNL A   1      35.023  30.202  26.219  1.00  0.00     0.163 HD
BRANCH   4   7
ATOM      7  C   UNL A   1      31.842  29.067  25.913  1.00  0.00     0.261 C 
BRANCH   7   8
ATOM      8  C   UNL A   1      31.560  28.179  27.138  1.00  0.00     0.052 C 
ATOM      9  C   UNL A   1      31.444  26.705  26.783  1.00  0.00     0.008 C 
ENDBRANCH   7   8
BRANCH   7  10
ATOM     10  O   UNL A   1      31.244  28.511  24.743  1.00  0.00    -0.478 OA
BRANCH  10  11
ATOM     11  C   UNL A   1      30.516  29.276  23.879  1.00  0.00     0.147 A 
ATOM     12  C   UNL A   1      29.903  30.489  24.183  1.00  0.00     0.050 A 
ATOM     13  C   UNL A   1      30.352  28.783  22.573  1.00  0.00     0.136 A 
ATOM     14  C   UNL A   1      29.137  31.150  23.221  1.00  0.00     0.027 A 
ATOM     15  N   UNL A   1      29.615  29.434  21.626  1.00  0.00    -0.248 NA
ATOM     16  C   UNL A   1      29.007  30.592  21.960  1.00  0.00     0.038 A 
ATOM     17  C   UNL A   1      28.184  31.252  20.899  1.00  0.00     0.067 C 
BRANCH  13  18
ATOM     18  C   UNL A   1      31.022  27.497  22.116  1.00  0.00     0.320 C 
BRANCH  18  19
ATOM     19  N   UNL A   1      32.485  27.522  22.232  1.00  0.00    -0.352 N 
ATOM     20  H   UNL A   1      32.753  27.340  23.199  1.00  0.00     0.344 HD
ATOM     21  H   UNL A   1      32.833  28.438  21.949  1.00  0.00     0.344 HD
ATOM     22  H   UNL A   1      32.887  26.805  21.628  1.00  0.00     0.344 HD
ENDBRANCH  18  19
ENDBRANCH  13  18
ENDBRANCH  10  11
ENDBRANCH   7  10
ENDBRANCH   4   7
ENDBRANCH   2   3
ENDBRANCH   1   2
BRANCH   1  23
ATOM     23  C   UNL A   1      34.407  32.810  29.180  1.00  0.00     0.002 C 
BRANCH  23  24
ATOM     24  C   UNL A   1      34.272  34.204  28.559  1.00  0.00     0.002 C 
BRANCH  24  25
ATOM     25  C   UNL A   1      32.988  34.955  28.917  1.00  0.00     0.021 C 
BRANCH  25  26
ATOM     26  C   UNL A   1      33.207  36.303  29.594  1.00  0.00     0.116 C 
BRANCH  26  27
ATOM     27  N   UNL A   1      32.402  36.454  30.796  1.00  0.00    -0.352 N 
ATOM     28  C   UNL A   1      32.549  35.846  32.018  1.00  0.00     0.251 C 
ATOM     29  H   UNL A   1      31.646  37.079  30.723  1.00  0.00     0.163 HD
ATOM     30  O   UNL A   1      31.673  35.950  32.873  1.00  0.00    -0.269 OA
BRANCH  28  31
ATOM     31  C   UNL A   1      33.757  35.044  32.295  1.00  0.00     0.039 A 
ATOM     32  C   UNL A   1      35.014  35.633  32.131  1.00  0.00     0.014 A 
ATOM     33  C   UNL A   1      33.652  33.716  32.717  1.00  0.00     0.014 A 
ATOM     34  C   UNL A   1      36.164  34.906  32.447  1.00  0.00     0.010 A 
ATOM     35  C   UNL A   1      34.792  33.022  33.108  1.00  0.00     0.010 A 
ATOM     36  C   UNL A   1      36.061  33.606  32.968  1.00  0.00    -0.014 A 
BRANCH  36  37
ATOM     37  C   UNL A   1      37.265  32.830  33.358  1.00  0.00     0.031 A 
ATOM     38  C   UNL A   1      37.968  33.138  34.650  1.00  0.00     0.074 A 
ATOM     39  C   UNL A   1      37.765  31.901  32.521  1.00  0.00     0.049 A 
ATOM     40  N   UNL A   1      39.082  32.641  35.128  1.00  0.00    -0.248 NA
ATOM     41  C   UNL A   1      37.354  34.163  35.507  1.00  0.00     0.031 C 
ATOM     42  C   UNL A   1      37.196  31.539  31.222  1.00  0.00     0.029 A 
ATOM     43  N   UNL A   1      38.874  31.101  32.633  1.00  0.00    -0.354 N 
ATOM     44  C   UNL A   1      39.306  33.304  36.327  1.00  0.00     0.074 A 
ATOM     45  C   UNL A   1      38.248  34.280  36.475  1.00  0.00     0.031 C 
ATOM     46  C   UNL A   1      37.948  30.576  30.666  1.00  0.00     0.029 A 
ATOM     47  C   UNL A   1      39.076  30.284  31.546  1.00  0.00     0.049 A 
ATOM     48  H   UNL A   1      39.470  31.111  33.416  1.00  0.00     0.167 HD
ATOM     49  C   UNL A   1      40.293  33.102  37.234  1.00  0.00     0.037 A 
ATOM     50  C   UNL A   1      40.065  29.408  31.285  1.00  0.00     0.037 A 
ATOM     51  C   UNL A   1      41.332  32.117  37.089  1.00  0.00     0.049 A 
ATOM     52  C   UNL A   1      41.161  29.215  32.300  1.00  0.00     0.074 A 
ATOM     53  C   UNL A   1      42.345  31.794  37.975  1.00  0.00     0.029 A 
ATOM     54  N   UNL A   1      41.495  31.298  35.980  1.00  0.00    -0.354 N 
ATOM     55  N   UNL A   1      41.328  29.801  33.460  1.00  0.00    -0.248 NA
ATOM     56  C   UNL A   1      42.202  28.232  31.969  1.00  0.00     0.031 C 
ATOM     57  C   UNL A   1      43.153  30.822  37.379  1.00  0.00     0.029 A 
ATOM     58  C   UNL A   1      42.608  30.489  36.150  1.00  0.00     0.049 A 
ATOM     59  H   UNL A   1      40.906  31.292  35.192  1.00  0.00     0.167 HD
ATOM     60  C   UNL A   1      42.470  29.236  34.013  1.00  0.00     0.074 A 
ATOM     61  C   UNL A   1      42.949  28.253  33.064  1.00  0.00     0.031 C 
ATOM     62  C   UNL A   1      43.068  29.506  35.200  1.00  0.00     0.037 A 
BRANCH  49  63
ATOM     63  C   UNL A   1      40.296  33.971  38.460  1.00  0.00     0.064 A 
ATOM     64  C   UNL A   1      39.564  33.630  39.609  1.00  0.00     0.173 A 
ATOM     65  C   UNL A   1      41.061  35.147  38.497  1.00  0.00     0.173 A 
ATOM     66  F   UNL A   1      38.808  32.522  39.624  1.00  0.00    -0.203 F 
ATOM     67  C   UNL A   1      39.567  34.454  40.732  1.00  0.00     0.198 A 
ATOM     68  C   UNL A   1      41.090  35.949  39.635  1.00  0.00     0.198 A 
ATOM     69  F   UNL A   1      41.785  35.517  37.430  1.00  0.00    -0.203 F 
ATOM     70  F   UNL A   1      38.810  34.139  41.793  1.00  0.00    -0.200 F 
ATOM     71  C   UNL A   1      40.334  35.609  40.747  1.00  0.00     0.200 A 
ATOM     72  F   UNL A   1      41.845  37.057  39.653  1.00  0.00    -0.200 F 
ATOM     73  F   UNL A   1      40.340  36.398  41.830  1.00  0.00    -0.200 F 
ENDBRANCH  49  63
BRANCH  50  74
ATOM     74  C   UNL A   1      40.052  28.632  30.017  1.00  0.00     0.064 A 
ATOM     75  C   UNL A   1      39.445  27.370  29.951  1.00  0.00     0.173 A 
ATOM     76  C   UNL A   1      40.644  29.131  28.848  1.00  0.00     0.173 A 
ATOM     77  F   UNL A   1      38.882  26.840  31.048  1.00  0.00    -0.203 F 
ATOM     78  C   UNL A   1      39.448  26.629  28.772  1.00  0.00     0.198 A 
ATOM     79  C   UNL A   1      40.621  28.403  27.661  1.00  0.00     0.198 A 
ATOM     80  F   UNL A   1      41.234  30.336  28.856  1.00  0.00    -0.203 F 
ATOM     81  F   UNL A   1      38.903  25.406  28.749  1.00  0.00    -0.200 F 
ATOM     82  C   UNL A   1      40.031  27.149  27.625  1.00  0.00     0.200 A 
ATOM     83  F   UNL A   1      41.169  28.917  26.551  1.00  0.00    -0.200 F 
ATOM     84  F   UNL A   1      40.029  26.439  26.489  1.00  0.00    -0.200 F 
ENDBRANCH  50  74
BRANCH  62  85
ATOM     85  C   UNL A   1      44.278  28.697  35.566  1.00  0.00     0.064 A 
ATOM     86  C   UNL A   1      45.577  29.113  35.234  1.00  0.00     0.173 A 
ATOM     87  C   UNL A   1      44.138  27.510  36.303  1.00  0.00     0.173 A 
ATOM     88  F   UNL A   1      45.766  30.231  34.519  1.00  0.00    -0.203 F 
ATOM     89  C   UNL A   1      46.687  28.356  35.603  1.00  0.00     0.198 A 
ATOM     90  C   UNL A   1      45.252  26.775  36.700  1.00  0.00     0.198 A 
ATOM     91  F   UNL A   1      42.920  27.071  36.653  1.00  0.00    -0.203 F 
ATOM     92  F   UNL A   1      47.914  28.746  35.232  1.00  0.00    -0.200 F 
ATOM     93  C   UNL A   1      46.524  27.194  36.343  1.00  0.00     0.200 A 
ATOM     94  F   UNL A   1      45.093  25.662  37.429  1.00  0.00    -0.200 F 
ATOM     95  F   UNL A   1      47.594  26.474  36.706  1.00  0.00    -0.200 F 
ENDBRANCH  62  85
ENDBRANCH  36  37
ENDBRANCH  28  31
ENDBRANCH  26  27
ENDBRANCH  25  26
ENDBRANCH  24  25
ENDBRANCH  23  24
ENDBRANCH   1  23
TORSDOF 18
ENDMDL
MODEL 2
REMARK VINA RESULT:     -10.3      1.803      7.697
REMARK SMILES CC[C@H](Oc1ccc(C)nc1C[NH3+])C(=O)NCCCCCCNC(=O)c1ccc(-c2c3nc(c(-c4c(F)c(F)c(F)c(F)c4F)c4ccc([nH]4)c(-c4c(F)c(F)c(F)c(F)c4F)c4nc(c(-c5c(F)c(F)c(F)c(F)c5F)c5ccc2[nH]5)C=C4)C=C3)cc1
REMARK SMILES IDX 18 1 17 2 16 3 14 4 15 5 3 7 2 8 1 9 4 10 5 11 6 12 11 13
REMARK SMILES IDX 7 14 10 15 8 16 9 17 12 18 13 19 19 23 20 24 21 25 22 26
REMARK SMILES IDX 23 27 24 28 25 30 26 31 27 32 88 33 28 34 87 35 29 36 30 37
REMARK SMILES IDX 31 38 81 39 32 40 86 41 80 42 82 43 33 44 85 45 79 46 78 47
REMARK SMILES IDX 34 49 66 50 46 51 65 52 47 53 50 54 64 55 83 56 48 57 49 58
REMARK SMILES IDX 63 60 84 61 51 62 35 63 36 64 44 65 37 66 38 67 42 68 45 69
REMARK SMILES IDX 39 70 40 71 43 72 41 73 67 74 68 75 76 76 69 77 70 78 74 79
REMARK SMILES IDX 77 80 71 81 72 82 75 83 73 84 52 85 53 86 61 87 54 88 55 89
REMARK SMILES IDX 59 90 62 91 56 92 57 93 60 94 58 95
REMARK H PARENT 16 6 13 20 13 21 13 22 23 29 82 48 50 59
REMARK Flexibility Score: inf
ROOT
ATOM      1  C   UNL A   1      32.840  28.913  27.270  1.00  0.00     0.021 C 
ENDROOT
BRANCH   1   2
ATOM      2  C   UNL A   1      33.548  27.788  26.522  1.00  0.00     0.116 C 
BRANCH   2   3
ATOM      3  N   UNL A   1      33.960  28.201  25.193  1.00  0.00    -0.353 N 
ATOM      4  C   UNL A   1      33.807  27.563  23.996  1.00  0.00     0.261 C 
ATOM      5  O   UNL A   1      34.265  28.106  22.987  1.00  0.00    -0.271 OA
ATOM      6  H   UNL A   1      34.417  29.072  25.149  1.00  0.00     0.163 HD
BRANCH   4   7
ATOM      7  C   UNL A   1      33.042  26.234  23.899  1.00  0.00     0.261 C 
BRANCH   7   8
ATOM      8  C   UNL A   1      34.032  25.063  23.763  1.00  0.00     0.052 C 
ATOM      9  C   UNL A   1      34.792  24.782  25.049  1.00  0.00     0.008 C 
ENDBRANCH   7   8
BRANCH   7  10
ATOM     10  O   UNL A   1      32.139  26.258  22.796  1.00  0.00    -0.478 OA
BRANCH  10  11
ATOM     11  C   UNL A   1      30.947  26.918  22.861  1.00  0.00     0.147 A 
ATOM     12  C   UNL A   1      30.685  28.183  22.339  1.00  0.00     0.050 A 
ATOM     13  C   UNL A   1      29.896  26.272  23.535  1.00  0.00     0.136 A 
ATOM     14  C   UNL A   1      29.433  28.773  22.520  1.00  0.00     0.027 A 
ATOM     15  N   UNL A   1      28.666  26.842  23.702  1.00  0.00    -0.248 NA
ATOM     16  C   UNL A   1      28.453  28.080  23.212  1.00  0.00     0.038 A 
ATOM     17  C   UNL A   1      27.100  28.676  23.447  1.00  0.00     0.067 C 
BRANCH  13  18
ATOM     18  C   UNL A   1      30.052  24.868  24.096  1.00  0.00     0.320 C 
BRANCH  18  19
ATOM     19  N   UNL A   1      30.358  23.857  23.077  1.00  0.00    -0.352 N 
ATOM     20  H   UNL A   1      31.094  24.205  22.462  1.00  0.00     0.344 HD
ATOM     21  H   UNL A   1      29.519  23.664  22.529  1.00  0.00     0.344 HD
ATOM     22  H   UNL A   1      30.671  22.999  23.531  1.00  0.00     0.344 HD
ENDBRANCH  18  19
ENDBRANCH  13  18
ENDBRANCH  10  11
ENDBRANCH   7  10
ENDBRANCH   4   7
ENDBRANCH   2   3
ENDBRANCH   1   2
BRANCH   1  23
ATOM     23  C   UNL A   1      32.919  30.279  26.580  1.00  0.00     0.002 C 
BRANCH  23  24
ATOM     24  C   UNL A   1      31.571  30.907  26.215  1.00  0.00     0.002 C 
BRANCH  24  25
ATOM     25  C   UNL A   1      31.369  32.344  26.699  1.00  0.00     0.021 C 
BRANCH  25  26
ATOM     26  C   UNL A   1      32.590  32.970  27.361  1.00  0.00     0.116 C 
BRANCH  26  27
ATOM     27  N   UNL A   1      32.376  34.367  27.705  1.00  0.00    -0.352 N 
ATOM     28  C   UNL A   1      32.991  35.124  28.670  1.00  0.00     0.251 C 
ATOM     29  H   UNL A   1      31.695  34.835  27.171  1.00  0.00     0.163 HD
ATOM     30  O   UNL A   1      32.565  36.242  28.949  1.00  0.00    -0.269 OA
BRANCH  28  31
ATOM     31  C   UNL A   1      34.158  34.580  29.393  1.00  0.00     0.039 A 
ATOM     32  C   UNL A   1      33.971  34.027  30.663  1.00  0.00     0.014 A 
ATOM     33  C   UNL A   1      35.433  34.614  28.821  1.00  0.00     0.014 A 
ATOM     34  C   UNL A   1      35.054  33.455  31.334  1.00  0.00     0.010 A 
ATOM     35  C   UNL A   1      36.492  33.973  29.454  1.00  0.00     0.010 A 
ATOM     36  C   UNL A   1      36.317  33.395  30.721  1.00  0.00    -0.014 A 
BRANCH  36  37
ATOM     37  C   UNL A   1      37.473  32.748  31.392  1.00  0.00     0.031 A 
ATOM     38  C   UNL A   1      38.180  31.601  30.726  1.00  0.00     0.074 A 
ATOM     39  C   UNL A   1      37.841  33.145  32.625  1.00  0.00     0.049 A 
ATOM     40  N   UNL A   1      39.147  30.845  31.181  1.00  0.00    -0.248 NA
ATOM     41  C   UNL A   1      37.718  31.234  29.379  1.00  0.00     0.031 C 
ATOM     42  C   UNL A   1      37.210  34.220  33.391  1.00  0.00     0.029 A 
ATOM     43  N   UNL A   1      38.828  32.679  33.456  1.00  0.00    -0.354 N 
ATOM     44  C   UNL A   1      39.394  29.908  30.187  1.00  0.00     0.074 A 
ATOM     45  C   UNL A   1      38.437  30.152  29.130  1.00  0.00     0.031 C 
ATOM     46  C   UNL A   1      37.836  34.344  34.572  1.00  0.00     0.029 A 
ATOM     47  C   UNL A   1      38.883  33.331  34.665  1.00  0.00     0.049 A 
ATOM     48  H   UNL A   1      39.439  31.948  33.211  1.00  0.00     0.167 HD
ATOM     49  C   UNL A   1      40.348  28.947  30.148  1.00  0.00     0.037 A 
ATOM     50  C   UNL A   1      39.680  33.126  35.731  1.00  0.00     0.037 A 
ATOM     51  C   UNL A   1      41.309  28.722  31.196  1.00  0.00     0.049 A 
ATOM     52  C   UNL A   1      40.720  32.039  35.672  1.00  0.00     0.074 A 
ATOM     53  C   UNL A   1      42.351  27.812  31.229  1.00  0.00     0.029 A 
ATOM     54  N   UNL A   1      41.342  29.413  32.399  1.00  0.00    -0.354 N 
ATOM     55  N   UNL A   1      40.988  31.201  34.700  1.00  0.00    -0.248 NA
ATOM     56  C   UNL A   1      41.573  31.874  36.857  1.00  0.00     0.031 C 
ATOM     57  C   UNL A   1      42.978  27.912  32.475  1.00  0.00     0.029 A 
ATOM     58  C   UNL A   1      42.371  28.929  33.193  1.00  0.00     0.049 A 
ATOM     59  H   UNL A   1      40.727  30.138  32.650  1.00  0.00     0.167 HD
ATOM     60  C   UNL A   1      42.059  30.434  35.140  1.00  0.00     0.074 A 
ATOM     61  C   UNL A   1      42.398  30.914  36.464  1.00  0.00     0.031 C 
ATOM     62  C   UNL A   1      42.704  29.424  34.506  1.00  0.00     0.037 A 
BRANCH  49  63
ATOM     63  C   UNL A   1      40.391  28.062  28.935  1.00  0.00     0.064 A 
ATOM     64  C   UNL A   1      39.684  26.850  28.878  1.00  0.00     0.173 A 
ATOM     65  C   UNL A   1      41.129  28.441  27.803  1.00  0.00     0.173 A 
ATOM     66  F   UNL A   1      38.971  26.434  29.936  1.00  0.00    -0.203 F 
ATOM     67  C   UNL A   1      39.746  26.034  27.751  1.00  0.00     0.198 A 
ATOM     68  C   UNL A   1      41.159  27.640  26.664  1.00  0.00     0.198 A 
ATOM     69  F   UNL A   1      41.817  29.592  27.798  1.00  0.00    -0.203 F 
ATOM     70  F   UNL A   1      39.113  24.852  27.746  1.00  0.00    -0.200 F 
ATOM     71  C   UNL A   1      40.478  26.433  26.642  1.00  0.00     0.200 A 
ATOM     72  F   UNL A   1      41.854  28.035  25.587  1.00  0.00    -0.200 F 
ATOM     73  F   UNL A   1      40.532  25.649  25.557  1.00  0.00    -0.200 F 
ENDBRANCH  49  63
BRANCH  50  74
ATOM     74  C   UNL A   1      39.539  33.983  36.938  1.00  0.00     0.064 A 
ATOM     75  C   UNL A   1      38.762  33.569  38.029  1.00  0.00     0.173 A 
ATOM     76  C   UNL A   1      40.174  35.230  37.027  1.00  0.00     0.173 A 
ATOM     77  F   UNL A   1      38.118  32.393  37.984  1.00  0.00    -0.203 F 
ATOM     78  C   UNL A   1      38.609  34.377  39.153  1.00  0.00     0.198 A 
ATOM     79  C   UNL A   1      40.045  36.025  38.164  1.00  0.00     0.198 A 
ATOM     80  F   UNL A   1      40.933  35.671  36.013  1.00  0.00    -0.203 F 
ATOM     81  F   UNL A   1      37.823  33.978  40.161  1.00  0.00    -0.200 F 
ATOM     82  C   UNL A   1      39.256  35.602  39.223  1.00  0.00     0.200 A 
ATOM     83  F   UNL A   1      40.686  37.199  38.234  1.00  0.00    -0.200 F 
ATOM     84  F   UNL A   1      39.113  36.377  40.306  1.00  0.00    -0.200 F 
ENDBRANCH  50  74
BRANCH  62  85
ATOM     85  C   UNL A   1      43.874  28.799  35.210  1.00  0.00     0.064 A 
ATOM     86  C   UNL A   1      43.729  27.669  36.029  1.00  0.00     0.173 A 
ATOM     87  C   UNL A   1      45.167  29.311  35.021  1.00  0.00     0.173 A 
ATOM     88  F   UNL A   1      42.513  27.149  36.254  1.00  0.00    -0.203 F 
ATOM     89  C   UNL A   1      44.832  27.093  36.655  1.00  0.00     0.198 A 
ATOM     90  C   UNL A   1      46.271  28.712  35.621  1.00  0.00     0.198 A 
ATOM     91  F   UNL A   1      45.363  30.385  34.242  1.00  0.00    -0.203 F 
ATOM     92  F   UNL A   1      44.663  26.046  37.474  1.00  0.00    -0.200 F 
ATOM     93  C   UNL A   1      46.102  27.609  36.444  1.00  0.00     0.200 A 
ATOM     94  F   UNL A   1      47.499  29.201  35.401  1.00  0.00    -0.200 F 
ATOM     95  F   UNL A   1      47.162  27.046  37.038  1.00  0.00    -0.200 F 
ENDBRANCH  62  85
ENDBRANCH  36  37
ENDBRANCH  28  31
ENDBRANCH  26  27
ENDBRANCH  25  26
ENDBRANCH  24  25
ENDBRANCH  23  24
ENDBRANCH   1  23
TORSDOF 18
ENDMDL
MODEL 3
REMARK VINA RESULT:     -10.2      6.169     10.882
REMARK SMILES CC[C@H](Oc1ccc(C)nc1C[NH3+])C(=O)NCCCCCCNC(=O)c1ccc(-c2c3nc(c(-c4c(F)c(F)c(F)c(F)c4F)c4ccc([nH]4)c(-c4c(F)c(F)c(F)c(F)c4F)c4nc(c(-c5c(F)c(F)c(F)c(F)c5F)c5ccc2[nH]5)C=C4)C=C3)cc1
REMARK SMILES IDX 18 1 17 2 16 3 14 4 15 5 3 7 2 8 1 9 4 10 5 11 6 12 11 13
REMARK SMILES IDX 7 14 10 15 8 16 9 17 12 18 13 19 19 23 20 24 21 25 22 26
REMARK SMILES IDX 23 27 24 28 25 30 26 31 27 32 88 33 28 34 87 35 29 36 30 37
REMARK SMILES IDX 31 38 81 39 32 40 86 41 80 42 82 43 33 44 85 45 79 46 78 47
REMARK SMILES IDX 34 49 66 50 46 51 65 52 47 53 50 54 64 55 83 56 48 57 49 58
REMARK SMILES IDX 63 60 84 61 51 62 35 63 36 64 44 65 37 66 38 67 42 68 45 69
REMARK SMILES IDX 39 70 40 71 43 72 41 73 67 74 68 75 76 76 69 77 70 78 74 79
REMARK SMILES IDX 77 80 71 81 72 82 75 83 73 84 52 85 53 86 61 87 54 88 55 89
REMARK SMILES IDX 59 90 62 91 56 92 57 93 60 94 58 95
REMARK H PARENT 16 6 13 20 13 21 13 22 23 29 82 48 50 59
REMARK Flexibility Score: inf
ROOT
ATOM      1  C   UNL A   1      36.119  23.267  24.407  1.00  0.00     0.021 C 
ENDROOT
BRANCH   1   2
ATOM      2  C   UNL A   1      34.638  23.042  24.117  1.00  0.00     0.116 C 
BRANCH   2   3
ATOM      3  N   UNL A   1      34.253  23.591  22.830  1.00  0.00    -0.353 N 
ATOM      4  C   UNL A   1      33.322  24.545  22.533  1.00  0.00     0.261 C 
ATOM      5  O   UNL A   1      33.150  24.838  21.347  1.00  0.00    -0.271 OA
ATOM      6  H   UNL A   1      34.735  23.221  22.056  1.00  0.00     0.163 HD
BRANCH   4   7
ATOM      7  C   UNL A   1      32.548  25.269  23.646  1.00  0.00     0.261 C 
BRANCH   7   8
ATOM      8  C   UNL A   1      31.134  24.675  23.779  1.00  0.00     0.052 C 
ATOM      9  C   UNL A   1      30.745  24.399  25.223  1.00  0.00     0.008 C 
ENDBRANCH   7   8
BRANCH   7  10
ATOM     10  O   UNL A   1      32.481  26.668  23.376  1.00  0.00    -0.478 OA
BRANCH  10  11
ATOM     11  C   UNL A   1      32.791  27.596  24.327  1.00  0.00     0.147 A 
ATOM     12  C   UNL A   1      33.855  27.520  25.223  1.00  0.00     0.050 A 
ATOM     13  C   UNL A   1      31.949  28.717  24.424  1.00  0.00     0.136 A 
ATOM     14  C   UNL A   1      34.034  28.514  26.187  1.00  0.00     0.027 A 
ATOM     15  N   UNL A   1      32.129  29.696  25.357  1.00  0.00    -0.248 NA
ATOM     16  C   UNL A   1      33.150  29.579  26.231  1.00  0.00     0.038 A 
ATOM     17  C   UNL A   1      33.289  30.661  27.256  1.00  0.00     0.067 C 
BRANCH  13  18
ATOM     18  C   UNL A   1      30.791  28.930  23.461  1.00  0.00     0.320 C 
BRANCH  18  19
ATOM     19  N   UNL A   1      31.184  28.882  22.048  1.00  0.00    -0.352 N 
ATOM     20  H   UNL A   1      31.703  29.727  21.809  1.00  0.00     0.344 HD
ATOM     21  H   UNL A   1      30.350  28.818  21.465  1.00  0.00     0.344 HD
ATOM     22  H   UNL A   1      31.774  28.064  21.886  1.00  0.00     0.344 HD
ENDBRANCH  18  19
ENDBRANCH  13  18
ENDBRANCH  10  11
ENDBRANCH   7  10
ENDBRANCH   4   7
ENDBRANCH   2   3
ENDBRANCH   1   2
BRANCH   1  23
ATOM     23  C   UNL A   1      37.012  22.059  24.108  1.00  0.00     0.002 C 
BRANCH  23  24
ATOM     24  C   UNL A   1      36.685  20.791  24.904  1.00  0.00     0.002 C 
BRANCH  24  25
ATOM     25  C   UNL A   1      37.820  19.770  24.996  1.00  0.00     0.021 C 
BRANCH  25  26
ATOM     26  C   UNL A   1      39.048  20.251  25.758  1.00  0.00     0.116 C 
BRANCH  26  27
ATOM     27  N   UNL A   1      40.048  19.205  25.910  1.00  0.00    -0.352 N 
ATOM     28  C   UNL A   1      41.397  19.324  26.127  1.00  0.00     0.251 C 
ATOM     29  H   UNL A   1      39.709  18.284  25.849  1.00  0.00     0.163 HD
ATOM     30  O   UNL A   1      42.128  18.339  26.053  1.00  0.00    -0.269 OA
BRANCH  28  31
ATOM     31  C   UNL A   1      41.976  20.649  26.429  1.00  0.00     0.039 A 
ATOM     32  C   UNL A   1      42.276  21.513  25.373  1.00  0.00     0.014 A 
ATOM     33  C   UNL A   1      42.222  21.038  27.748  1.00  0.00     0.014 A 
ATOM     34  C   UNL A   1      42.767  22.792  25.645  1.00  0.00     0.010 A 
ATOM     35  C   UNL A   1      42.634  22.338  28.021  1.00  0.00     0.010 A 
ATOM     36  C   UNL A   1      42.921  23.225  26.972  1.00  0.00    -0.014 A 
BRANCH  36  37
ATOM     37  C   UNL A   1      43.394  24.596  27.289  1.00  0.00     0.031 A 
ATOM     38  C   UNL A   1      42.426  25.622  27.809  1.00  0.00     0.074 A 
ATOM     39  C   UNL A   1      44.674  24.937  27.044  1.00  0.00     0.049 A 
ATOM     40  N   UNL A   1      42.619  26.893  28.059  1.00  0.00    -0.248 NA
ATOM     41  C   UNL A   1      41.050  25.166  28.052  1.00  0.00     0.031 C 
ATOM     42  C   UNL A   1      45.699  24.043  26.504  1.00  0.00     0.029 A 
ATOM     43  N   UNL A   1      45.327  26.133  27.205  1.00  0.00    -0.354 N 
ATOM     44  C   UNL A   1      41.388  27.387  28.470  1.00  0.00     0.074 A 
ATOM     45  C   UNL A   1      40.443  26.295  28.379  1.00  0.00     0.031 C 
ATOM     46  C   UNL A   1      46.856  24.715  26.396  1.00  0.00     0.029 A 
ATOM     47  C   UNL A   1      46.645  26.098  26.816  1.00  0.00     0.049 A 
ATOM     48  H   UNL A   1      44.893  26.941  27.564  1.00  0.00     0.167 HD
ATOM     49  C   UNL A   1      41.079  28.632  28.906  1.00  0.00     0.037 A 
ATOM     50  C   UNL A   1      47.573  27.073  26.790  1.00  0.00     0.037 A 
ATOM     51  C   UNL A   1      42.028  29.709  29.011  1.00  0.00     0.049 A 
ATOM     52  C   UNL A   1      47.201  28.454  27.262  1.00  0.00     0.074 A 
ATOM     53  C   UNL A   1      41.830  30.990  29.493  1.00  0.00     0.029 A 
ATOM     54  N   UNL A   1      43.358  29.630  28.622  1.00  0.00    -0.354 N 
ATOM     55  N   UNL A   1      46.050  28.894  27.710  1.00  0.00    -0.248 NA
ATOM     56  C   UNL A   1      48.260  29.472  27.229  1.00  0.00     0.031 C 
ATOM     57  C   UNL A   1      43.022  31.704  29.342  1.00  0.00     0.029 A 
ATOM     58  C   UNL A   1      43.984  30.850  28.828  1.00  0.00     0.049 A 
ATOM     59  H   UNL A   1      43.792  28.827  28.254  1.00  0.00     0.167 HD
ATOM     60  C   UNL A   1      46.253  30.226  28.045  1.00  0.00     0.074 A 
ATOM     61  C   UNL A   1      47.642  30.519  27.757  1.00  0.00     0.031 C 
ATOM     62  C   UNL A   1      45.371  31.125  28.546  1.00  0.00     0.037 A 
BRANCH  49  63
ATOM     63  C   UNL A   1      39.652  28.896  29.294  1.00  0.00     0.064 A 
ATOM     64  C   UNL A   1      39.192  28.691  30.605  1.00  0.00     0.173 A 
ATOM     65  C   UNL A   1      38.736  29.385  28.350  1.00  0.00     0.173 A 
ATOM     66  F   UNL A   1      40.023  28.215  31.545  1.00  0.00    -0.203 F 
ATOM     67  C   UNL A   1      37.862  28.926  30.945  1.00  0.00     0.198 A 
ATOM     68  C   UNL A   1      37.415  29.654  28.703  1.00  0.00     0.198 A 
ATOM     69  F   UNL A   1      39.121  29.606  27.085  1.00  0.00    -0.203 F 
ATOM     70  F   UNL A   1      37.434  28.663  32.188  1.00  0.00    -0.200 F 
ATOM     71  C   UNL A   1      36.977  29.414  29.996  1.00  0.00     0.200 A 
ATOM     72  F   UNL A   1      36.565  30.141  27.788  1.00  0.00    -0.200 F 
ATOM     73  F   UNL A   1      35.699  29.645  30.327  1.00  0.00    -0.200 F 
ENDBRANCH  49  63
BRANCH  50  74
ATOM     74  C   UNL A   1      48.951  26.772  26.320  1.00  0.00     0.064 A 
ATOM     75  C   UNL A   1      49.920  26.271  27.202  1.00  0.00     0.173 A 
ATOM     76  C   UNL A   1      49.330  26.978  24.986  1.00  0.00     0.173 A 
ATOM     77  F   UNL A   1      49.613  26.077  28.493  1.00  0.00    -0.203 F 
ATOM     78  C   UNL A   1      51.219  26.008  26.772  1.00  0.00     0.198 A 
ATOM     79  C   UNL A   1      50.620  26.686  24.549  1.00  0.00     0.198 A 
ATOM     80  F   UNL A   1      48.440  27.450  24.100  1.00  0.00    -0.203 F 
ATOM     81  F   UNL A   1      52.137  25.575  27.646  1.00  0.00    -0.200 F 
ATOM     82  C   UNL A   1      51.567  26.209  25.445  1.00  0.00     0.200 A 
ATOM     83  F   UNL A   1      50.947  26.864  23.263  1.00  0.00    -0.200 F 
ATOM     84  F   UNL A   1      52.814  25.950  25.030  1.00  0.00    -0.200 F 
ENDBRANCH  50  74
BRANCH  62  85
ATOM     85  C   UNL A   1      45.886  32.499  28.863  1.00  0.00     0.064 A 
ATOM     86  C   UNL A   1      46.456  32.808  30.108  1.00  0.00     0.173 A 
ATOM     87  C   UNL A   1      45.852  33.509  27.888  1.00  0.00     0.173 A 
ATOM     88  F   UNL A   1      46.500  31.884  31.079  1.00  0.00    -0.203 F 
ATOM     89  C   UNL A   1      46.947  34.085  30.373  1.00  0.00     0.198 A 
ATOM     90  C   UNL A   1      46.376  34.773  28.145  1.00  0.00     0.198 A 
ATOM     91  F   UNL A   1      45.326  33.265  26.679  1.00  0.00    -0.203 F 
ATOM     92  F   UNL A   1      47.440  34.372  31.585  1.00  0.00    -0.200 F 
ATOM     93  C   UNL A   1      46.915  35.062  29.389  1.00  0.00     0.200 A 
ATOM     94  F   UNL A   1      46.359  35.710  27.188  1.00  0.00    -0.200 F 
ATOM     95  F   UNL A   1      47.398  36.286  29.643  1.00  0.00    -0.200 F 
ENDBRANCH  62  85
ENDBRANCH  36  37
ENDBRANCH  28  31
ENDBRANCH  26  27
ENDBRANCH  25  26
ENDBRANCH  24  25
ENDBRANCH  23  24
ENDBRANCH   1  23
TORSDOF 18
ENDMDL
