MODEL 1
REMARK VINA RESULT:     -11.0      0.000      0.000
REMARK SMILES CC(C)(C)OC(=O)NC[C@H]1CC[C@@H](C(=O)NCCCCCCNC(=O)c2ccc(-c3c4nc(c(-c5c(F)c(F)c(F)c(F)c5F)c5ccc([nH]5)c(-c5c(F)c(F)c(F)c(F)c5F)c5nc(c(-c6c(F)c(F)c(F)c(F)c6F)c6ccc3[nH]6)C=C5)C=C4)cc2)CC1
REMARK SMILES IDX 18 1 17 2 16 3 14 4 15 5 13 7 10 8 11 9 90 10 12 11 89 12
REMARK SMILES IDX 9 13 8 14 6 15 7 16 5 18 2 19 1 20 3 21 4 22 19 23 20 24
REMARK SMILES IDX 21 25 22 26 23 27 24 28 25 30 26 31 27 32 88 33 28 34 87 35
REMARK SMILES IDX 29 36 30 37 31 38 81 39 32 40 86 41 80 42 82 43 33 44 85 45
REMARK SMILES IDX 79 46 78 47 34 49 66 50 46 51 65 52 47 53 50 54 64 55 83 56
REMARK SMILES IDX 48 57 49 58 63 60 84 61 51 62 35 63 36 64 44 65 37 66 38 67
REMARK SMILES IDX 42 68 45 69 39 70 40 71 43 72 41 73 67 74 68 75 76 76 69 77
REMARK SMILES IDX 70 78 74 79 77 80 71 81 72 82 75 83 73 84 52 85 53 86 61 87
REMARK SMILES IDX 54 88 55 89 59 90 62 91 56 92 57 93 60 94 58 95
REMARK H PARENT 16 6 8 17 23 29 82 48 50 59
REMARK Flexibility Score: inf
ROOT
ATOM      1  C   UNL A   1      40.321  22.363  26.728  1.00  0.00     0.021 C 
ENDROOT
BRANCH   1   2
ATOM      2  C   UNL A   1      39.031  21.898  26.056  1.00  0.00     0.116 C 
BRANCH   2   3
ATOM      3  N   UNL A   1      37.879  22.701  26.367  1.00  0.00    -0.356 N 
ATOM      4  C   UNL A   1      36.616  22.697  25.873  1.00  0.00     0.223 C 
ATOM      5  O   UNL A   1      35.790  23.358  26.515  1.00  0.00    -0.275 OA
ATOM      6  H   UNL A   1      38.035  23.376  27.066  1.00  0.00     0.163 HD
BRANCH   4   7
ATOM      7  C   UNL A   1      36.154  21.962  24.598  1.00  0.00     0.078 C 
ATOM      8  C   UNL A   1      33.286  22.083  23.646  1.00  0.00     0.008 C 
ATOM      9  C   UNL A   1      34.297  23.203  23.309  1.00  0.00     0.006 C 
ATOM     10  C   UNL A   1      33.732  21.067  24.721  1.00  0.00     0.006 C 
ATOM     11  C   UNL A   1      35.764  22.814  23.394  1.00  0.00     0.014 C 
ATOM     12  C   UNL A   1      35.223  20.771  24.795  1.00  0.00     0.014 C 
BRANCH   8  13
ATOM     13  C   UNL A   1      31.853  22.605  23.973  1.00  0.00     0.123 C 
BRANCH  13  14
ATOM     14  N   UNL A   1      31.555  22.693  25.391  1.00  0.00    -0.321 N 
ATOM     15  C   UNL A   1      31.161  23.786  26.097  1.00  0.00     0.407 C 
ATOM     16  O   UNL A   1      31.021  23.721  27.308  1.00  0.00    -0.225 OA
ATOM     17  H   UNL A   1      31.650  21.859  25.904  1.00  0.00     0.167 HD
BRANCH  15  18
ATOM     18  O   UNL A   1      30.958  24.867  25.319  1.00  0.00    -0.444 OA
BRANCH  18  19
ATOM     19  C   UNL A   1      31.804  26.034  25.451  1.00  0.00     0.106 C 
ATOM     20  C   UNL A   1      31.836  26.639  24.041  1.00  0.00     0.056 C 
ATOM     21  C   UNL A   1      33.223  25.612  25.848  1.00  0.00     0.056 C 
ATOM     22  C   UNL A   1      31.223  27.075  26.416  1.00  0.00     0.056 C 
ENDBRANCH  18  19
ENDBRANCH  15  18
ENDBRANCH  13  14
ENDBRANCH   8  13
ENDBRANCH   4   7
ENDBRANCH   2   3
ENDBRANCH   1   2
BRANCH   1  23
ATOM     23  C   UNL A   1      41.579  21.652  26.226  1.00  0.00     0.002 C 
BRANCH  23  24
ATOM     24  C   UNL A   1      41.877  20.296  26.884  1.00  0.00     0.002 C 
BRANCH  24  25
ATOM     25  C   UNL A   1      42.231  19.155  25.927  1.00  0.00     0.021 C 
BRANCH  25  26
ATOM     26  C   UNL A   1      43.655  18.628  26.039  1.00  0.00     0.116 C 
BRANCH  26  27
ATOM     27  N   UNL A   1      44.316  18.565  24.747  1.00  0.00    -0.352 N 
ATOM     28  C   UNL A   1      44.771  19.577  23.941  1.00  0.00     0.251 C 
ATOM     29  H   UNL A   1      44.459  17.657  24.396  1.00  0.00     0.163 HD
ATOM     30  O   UNL A   1      45.089  19.341  22.780  1.00  0.00    -0.269 OA
BRANCH  28  31
ATOM     31  C   UNL A   1      44.874  20.955  24.465  1.00  0.00     0.039 A 
ATOM     32  C   UNL A   1      45.422  21.155  25.735  1.00  0.00     0.014 A 
ATOM     33  C   UNL A   1      44.404  22.043  23.725  1.00  0.00     0.014 A 
ATOM     34  C   UNL A   1      45.545  22.451  26.239  1.00  0.00     0.010 A 
ATOM     35  C   UNL A   1      44.604  23.339  24.192  1.00  0.00     0.010 A 
ATOM     36  C   UNL A   1      45.168  23.556  25.457  1.00  0.00    -0.014 A 
BRANCH  36  37
ATOM     37  C   UNL A   1      45.348  24.944  25.953  1.00  0.00     0.031 A 
ATOM     38  C   UNL A   1      46.704  25.594  25.910  1.00  0.00     0.074 A 
ATOM     39  C   UNL A   1      44.300  25.599  26.490  1.00  0.00     0.049 A 
ATOM     40  N   UNL A   1      47.072  26.773  26.345  1.00  0.00    -0.248 NA
ATOM     41  C   UNL A   1      47.799  24.805  25.323  1.00  0.00     0.031 C 
ATOM     42  C   UNL A   1      42.946  25.060  26.623  1.00  0.00     0.029 A 
ATOM     43  N   UNL A   1      44.210  26.858  27.027  1.00  0.00    -0.354 N 
ATOM     44  C   UNL A   1      48.434  26.860  26.092  1.00  0.00     0.074 A 
ATOM     45  C   UNL A   1      48.842  25.594  25.525  1.00  0.00     0.031 C 
ATOM     46  C   UNL A   1      42.153  25.993  27.172  1.00  0.00     0.029 A 
ATOM     47  C   UNL A   1      42.951  27.177  27.474  1.00  0.00     0.049 A 
ATOM     48  H   UNL A   1      44.975  27.475  27.085  1.00  0.00     0.167 HD
ATOM     49  C   UNL A   1      49.265  27.912  26.291  1.00  0.00     0.037 A 
ATOM     50  C   UNL A   1      42.495  28.296  28.069  1.00  0.00     0.037 A 
ATOM     51  C   UNL A   1      48.851  29.175  26.843  1.00  0.00     0.049 A 
ATOM     52  C   UNL A   1      43.449  29.437  28.309  1.00  0.00     0.074 A 
ATOM     53  C   UNL A   1      49.604  30.318  27.045  1.00  0.00     0.029 A 
ATOM     54  N   UNL A   1      47.567  29.460  27.288  1.00  0.00    -0.354 N 
ATOM     55  N   UNL A   1      44.721  29.532  28.009  1.00  0.00    -0.248 NA
ATOM     56  C   UNL A   1      42.898  30.631  28.965  1.00  0.00     0.031 C 
ATOM     57  C   UNL A   1      48.794  31.273  27.667  1.00  0.00     0.029 A 
ATOM     58  C   UNL A   1      47.517  30.751  27.789  1.00  0.00     0.049 A 
ATOM     59  H   UNL A   1      46.806  28.837  27.253  1.00  0.00     0.167 HD
ATOM     60  C   UNL A   1      45.115  30.804  28.406  1.00  0.00     0.074 A 
ATOM     61  C   UNL A   1      43.940  31.450  28.956  1.00  0.00     0.031 C 
ATOM     62  C   UNL A   1      46.337  31.384  28.324  1.00  0.00     0.037 A 
BRANCH  49  63
ATOM     63  C   UNL A   1      50.709  27.742  25.910  1.00  0.00     0.064 A 
ATOM     64  C   UNL A   1      51.685  27.388  26.854  1.00  0.00     0.173 A 
ATOM     65  C   UNL A   1      51.117  27.893  24.575  1.00  0.00     0.173 A 
ATOM     66  F   UNL A   1      51.353  27.241  28.146  1.00  0.00    -0.203 F 
ATOM     67  C   UNL A   1      53.018  27.223  26.484  1.00  0.00     0.198 A 
ATOM     68  C   UNL A   1      52.443  27.693  24.202  1.00  0.00     0.198 A 
ATOM     69  F   UNL A   1      50.226  28.224  23.628  1.00  0.00    -0.203 F 
ATOM     70  F   UNL A   1      53.939  26.938  27.414  1.00  0.00    -0.200 F 
ATOM     71  C   UNL A   1      53.394  27.366  25.157  1.00  0.00     0.200 A 
ATOM     72  F   UNL A   1      52.802  27.815  22.917  1.00  0.00    -0.200 F 
ATOM     73  F   UNL A   1      54.674  27.196  24.800  1.00  0.00    -0.200 F 
ENDBRANCH  49  63
BRANCH  50  74
ATOM     74  C   UNL A   1      41.064  28.401  28.460  1.00  0.00     0.064 A 
ATOM     75  C   UNL A   1      40.116  28.941  27.580  1.00  0.00     0.173 A 
ATOM     76  C   UNL A   1      40.616  27.979  29.721  1.00  0.00     0.173 A 
ATOM     77  F   UNL A   1      40.497  29.375  26.370  1.00  0.00    -0.203 F 
ATOM     78  C   UNL A   1      38.782  29.081  27.955  1.00  0.00     0.198 A 
ATOM     79  C   UNL A   1      39.276  28.088  30.082  1.00  0.00     0.198 A 
ATOM     80  F   UNL A   1      41.479  27.447  30.599  1.00  0.00    -0.203 F 
ATOM     81  F   UNL A   1      37.908  29.652  27.114  1.00  0.00    -0.200 F 
ATOM     82  C   UNL A   1      38.362  28.650  29.204  1.00  0.00     0.200 A 
ATOM     83  F   UNL A   1      38.871  27.652  31.282  1.00  0.00    -0.200 F 
ATOM     84  F   UNL A   1      37.078  28.783  29.564  1.00  0.00    -0.200 F 
ENDBRANCH  50  74
BRANCH  62  85
ATOM     85  C   UNL A   1      46.461  32.806  28.795  1.00  0.00     0.064 A 
ATOM     86  C   UNL A   1      46.241  33.894  27.937  1.00  0.00     0.173 A 
ATOM     87  C   UNL A   1      46.764  33.081  30.138  1.00  0.00     0.173 A 
ATOM     88  F   UNL A   1      45.962  33.686  26.641  1.00  0.00    -0.203 F 
ATOM     89  C   UNL A   1      46.351  35.203  28.398  1.00  0.00     0.198 A 
ATOM     90  C   UNL A   1      46.836  34.391  30.604  1.00  0.00     0.198 A 
ATOM     91  F   UNL A   1      46.975  32.080  31.004  1.00  0.00    -0.203 F 
ATOM     92  F   UNL A   1      46.190  36.226  27.548  1.00  0.00    -0.200 F 
ATOM     93  C   UNL A   1      46.638  35.451  29.732  1.00  0.00     0.200 A 
ATOM     94  F   UNL A   1      47.095  34.628  31.898  1.00  0.00    -0.200 F 
ATOM     95  F   UNL A   1      46.732  36.712  30.176  1.00  0.00    -0.200 F 
ENDBRANCH  62  85
ENDBRANCH  36  37
ENDBRANCH  28  31
ENDBRANCH  26  27
ENDBRANCH  25  26
ENDBRANCH  24  25
ENDBRANCH  23  24
ENDBRANCH   1  23
TORSDOF 17
ENDMDL
MODEL 2
REMARK VINA RESULT:     -10.8      6.867     12.527
REMARK SMILES CC(C)(C)OC(=O)NC[C@H]1CC[C@@H](C(=O)NCCCCCCNC(=O)c2ccc(-c3c4nc(c(-c5c(F)c(F)c(F)c(F)c5F)c5ccc([nH]5)c(-c5c(F)c(F)c(F)c(F)c5F)c5nc(c(-c6c(F)c(F)c(F)c(F)c6F)c6ccc3[nH]6)C=C5)C=C4)cc2)CC1
REMARK SMILES IDX 18 1 17 2 16 3 14 4 15 5 13 7 10 8 11 9 90 10 12 11 89 12
REMARK SMILES IDX 9 13 8 14 6 15 7 16 5 18 2 19 1 20 3 21 4 22 19 23 20 24
REMARK SMILES IDX 21 25 22 26 23 27 24 28 25 30 26 31 27 32 88 33 28 34 87 35
REMARK SMILES IDX 29 36 30 37 31 38 81 39 32 40 86 41 80 42 82 43 33 44 85 45
REMARK SMILES IDX 79 46 78 47 34 49 66 50 46 51 65 52 47 53 50 54 64 55 83 56
REMARK SMILES IDX 48 57 49 58 63 60 84 61 51 62 35 63 36 64 44 65 37 66 38 67
REMARK SMILES IDX 42 68 45 69 39 70 40 71 43 72 41 73 67 74 68 75 76 76 69 77
REMARK SMILES IDX 70 78 74 79 77 80 71 81 72 82 75 83 73 84 52 85 53 86 61 87
REMARK SMILES IDX 54 88 55 89 59 90 62 91 56 92 57 93 60 94 58 95
REMARK H PARENT 16 6 8 17 23 29 82 48 50 59
REMARK Flexibility Score: inf
ROOT
ATOM      1  C   UNL A   1      35.549  31.954  27.972  1.00  0.00     0.021 C 
ENDROOT
BRANCH   1   2
ATOM      2  C   UNL A   1      34.646  30.729  27.846  1.00  0.00     0.116 C 
BRANCH   2   3
ATOM      3  N   UNL A   1      33.411  30.972  27.149  1.00  0.00    -0.356 N 
ATOM      4  C   UNL A   1      32.696  30.208  26.286  1.00  0.00     0.223 C 
ATOM      5  O   UNL A   1      31.553  30.612  26.040  1.00  0.00    -0.275 OA
ATOM      6  H   UNL A   1      33.012  31.853  27.332  1.00  0.00     0.163 HD
BRANCH   4   7
ATOM      7  C   UNL A   1      33.198  28.921  25.600  1.00  0.00     0.078 C 
ATOM      8  C   UNL A   1      31.382  26.543  25.163  1.00  0.00     0.008 C 
ATOM      9  C   UNL A   1      31.395  27.740  24.184  1.00  0.00     0.006 C 
ATOM     10  C   UNL A   1      32.114  26.757  26.507  1.00  0.00     0.006 C 
ATOM     11  C   UNL A   1      32.648  28.601  24.213  1.00  0.00     0.014 C 
ATOM     12  C   UNL A   1      33.321  27.682  26.479  1.00  0.00     0.014 C 
BRANCH   8  13
ATOM     13  C   UNL A   1      29.958  25.958  25.422  1.00  0.00     0.123 C 
BRANCH  13  14
ATOM     14  N   UNL A   1      29.885  25.027  26.534  1.00  0.00    -0.321 N 
ATOM     15  C   UNL A   1      30.200  23.704  26.539  1.00  0.00     0.407 C 
ATOM     16  O   UNL A   1      30.013  23.030  27.539  1.00  0.00    -0.225 OA
ATOM     17  H   UNL A   1      29.570  25.400  27.388  1.00  0.00     0.167 HD
BRANCH  15  18
ATOM     18  O   UNL A   1      30.714  23.284  25.368  1.00  0.00    -0.444 OA
BRANCH  18  19
ATOM     19  C   UNL A   1      32.077  22.802  25.298  1.00  0.00     0.106 C 
ATOM     20  C   UNL A   1      31.938  21.274  25.303  1.00  0.00     0.056 C 
ATOM     21  C   UNL A   1      32.854  23.239  26.545  1.00  0.00     0.056 C 
ATOM     22  C   UNL A   1      32.784  23.223  24.003  1.00  0.00     0.056 C 
ENDBRANCH  18  19
ENDBRANCH  15  18
ENDBRANCH  13  14
ENDBRANCH   8  13
ENDBRANCH   4   7
ENDBRANCH   2   3
ENDBRANCH   1   2
BRANCH   1  23
ATOM     23  C   UNL A   1      35.021  33.024  28.929  1.00  0.00     0.002 C 
BRANCH  23  24
ATOM     24  C   UNL A   1      34.559  34.331  28.267  1.00  0.00     0.002 C 
BRANCH  24  25
ATOM     25  C   UNL A   1      33.257  34.927  28.807  1.00  0.00     0.021 C 
BRANCH  25  26
ATOM     26  C   UNL A   1      33.410  36.223  29.592  1.00  0.00     0.116 C 
BRANCH  26  27
ATOM     27  N   UNL A   1      32.484  36.294  30.710  1.00  0.00    -0.352 N 
ATOM     28  C   UNL A   1      32.522  35.660  31.925  1.00  0.00     0.251 C 
ATOM     29  H   UNL A   1      31.713  36.890  30.575  1.00  0.00     0.163 HD
ATOM     30  O   UNL A   1      31.532  35.661  32.650  1.00  0.00    -0.269 OA
BRANCH  28  31
ATOM     31  C   UNL A   1      33.752  34.968  32.364  1.00  0.00     0.039 A 
ATOM     32  C   UNL A   1      33.696  33.599  32.638  1.00  0.00     0.014 A 
ATOM     33  C   UNL A   1      34.949  35.668  32.537  1.00  0.00     0.014 A 
ATOM     34  C   UNL A   1      34.851  32.925  33.036  1.00  0.00     0.010 A 
ATOM     35  C   UNL A   1      36.117  34.981  32.851  1.00  0.00     0.010 A 
ATOM     36  C   UNL A   1      36.079  33.604  33.113  1.00  0.00    -0.014 A 
BRANCH  36  37
ATOM     37  C   UNL A   1      37.330  32.890  33.475  1.00  0.00     0.031 A 
ATOM     38  C   UNL A   1      38.027  33.194  34.773  1.00  0.00     0.074 A 
ATOM     39  C   UNL A   1      37.864  32.006  32.611  1.00  0.00     0.049 A 
ATOM     40  N   UNL A   1      39.154  32.718  35.240  1.00  0.00    -0.248 NA
ATOM     41  C   UNL A   1      37.386  34.184  35.654  1.00  0.00     0.031 C 
ATOM     42  C   UNL A   1      37.302  31.656  31.305  1.00  0.00     0.029 A 
ATOM     43  N   UNL A   1      39.001  31.243  32.698  1.00  0.00    -0.354 N 
ATOM     44  C   UNL A   1      39.357  33.354  36.457  1.00  0.00     0.074 A 
ATOM     45  C   UNL A   1      38.273  34.296  36.629  1.00  0.00     0.031 C 
ATOM     46  C   UNL A   1      38.077  30.723  30.729  1.00  0.00     0.029 A 
ATOM     47  C   UNL A   1      39.214  30.445  31.600  1.00  0.00     0.049 A 
ATOM     48  H   UNL A   1      39.607  31.264  33.474  1.00  0.00     0.167 HD
ATOM     49  C   UNL A   1      40.345  33.153  37.362  1.00  0.00     0.037 A 
ATOM     50  C   UNL A   1      40.219  29.592  31.325  1.00  0.00     0.037 A 
ATOM     51  C   UNL A   1      41.414  32.204  37.191  1.00  0.00     0.049 A 
ATOM     52  C   UNL A   1      41.323  29.412  32.334  1.00  0.00     0.074 A 
ATOM     53  C   UNL A   1      42.439  31.891  38.067  1.00  0.00     0.029 A 
ATOM     54  N   UNL A   1      41.599  31.415  36.064  1.00  0.00    -0.354 N 
ATOM     55  N   UNL A   1      41.472  29.973  33.509  1.00  0.00    -0.248 NA
ATOM     56  C   UNL A   1      42.396  28.472  31.979  1.00  0.00     0.031 C 
ATOM     57  C   UNL A   1      43.278  30.960  37.446  1.00  0.00     0.029 A 
ATOM     58  C   UNL A   1      42.737  30.639  36.211  1.00  0.00     0.049 A 
ATOM     59  H   UNL A   1      41.008  31.409  35.276  1.00  0.00     0.167 HD
ATOM     60  C   UNL A   1      42.632  29.431  34.048  1.00  0.00     0.074 A 
ATOM     61  C   UNL A   1      43.139  28.484  33.076  1.00  0.00     0.031 C 
ATOM     62  C   UNL A   1      43.224  29.693  35.239  1.00  0.00     0.037 A 
BRANCH  49  63
ATOM     63  C   UNL A   1      40.318  33.975  38.620  1.00  0.00     0.064 A 
ATOM     64  C   UNL A   1      41.014  35.189  38.723  1.00  0.00     0.173 A 
ATOM     65  C   UNL A   1      39.552  33.566  39.723  1.00  0.00     0.173 A 
ATOM     66  F   UNL A   1      41.771  35.623  37.703  1.00  0.00    -0.203 F 
ATOM     67  C   UNL A   1      40.970  35.946  39.891  1.00  0.00     0.198 A 
ATOM     68  C   UNL A   1      39.483  34.342  40.877  1.00  0.00     0.198 A 
ATOM     69  F   UNL A   1      38.862  32.416  39.679  1.00  0.00    -0.203 F 
ATOM     70  F   UNL A   1      41.687  37.075  39.983  1.00  0.00    -0.200 F 
ATOM     71  C   UNL A   1      40.198  35.527  40.963  1.00  0.00     0.200 A 
ATOM     72  F   UNL A   1      38.722  33.944  41.905  1.00  0.00    -0.200 F 
ATOM     73  F   UNL A   1      40.148  36.262  42.083  1.00  0.00    -0.200 F 
ENDBRANCH  49  63
BRANCH  50  74
ATOM     74  C   UNL A   1      40.219  28.828  30.049  1.00  0.00     0.064 A 
ATOM     75  C   UNL A   1      40.826  29.349  28.898  1.00  0.00     0.173 A 
ATOM     76  C   UNL A   1      39.603  27.571  29.949  1.00  0.00     0.173 A 
ATOM     77  F   UNL A   1      41.413  30.554  28.937  1.00  0.00    -0.203 F 
ATOM     78  C   UNL A   1      40.793  28.656  27.689  1.00  0.00     0.198 A 
ATOM     79  C   UNL A   1      39.601  26.864  28.748  1.00  0.00     0.198 A 
ATOM     80  F   UNL A   1      39.015  27.021  31.021  1.00  0.00    -0.203 F 
ATOM     81  F   UNL A   1      41.333  29.204  26.591  1.00  0.00    -0.200 F 
ATOM     82  C   UNL A   1      40.185  27.412  27.617  1.00  0.00     0.200 A 
ATOM     83  F   UNL A   1      39.029  25.654  28.688  1.00  0.00    -0.200 F 
ATOM     84  F   UNL A   1      40.155  26.746  26.454  1.00  0.00    -0.200 F 
ENDBRANCH  50  74
BRANCH  62  85
ATOM     85  C   UNL A   1      44.462  28.913  35.583  1.00  0.00     0.064 A 
ATOM     86  C   UNL A   1      44.401  27.686  36.260  1.00  0.00     0.173 A 
ATOM     87  C   UNL A   1      45.726  29.383  35.191  1.00  0.00     0.173 A 
ATOM     88  F   UNL A   1      43.220  27.198  36.670  1.00  0.00    -0.203 F 
ATOM     89  C   UNL A   1      45.560  26.974  36.559  1.00  0.00     0.198 A 
ATOM     90  C   UNL A   1      46.879  28.650  35.458  1.00  0.00     0.198 A 
ATOM     91  F   UNL A   1      45.841  30.545  34.533  1.00  0.00    -0.203 F 
ATOM     92  F   UNL A   1      45.482  25.832  37.255  1.00  0.00    -0.200 F 
ATOM     93  C   UNL A   1      46.796  27.452  36.149  1.00  0.00     0.200 A 
ATOM     94  F   UNL A   1      48.070  29.105  35.044  1.00  0.00    -0.200 F 
ATOM     95  F   UNL A   1      47.909  26.760  36.428  1.00  0.00    -0.200 F 
ENDBRANCH  62  85
ENDBRANCH  36  37
ENDBRANCH  28  31
ENDBRANCH  26  27
ENDBRANCH  25  26
ENDBRANCH  24  25
ENDBRANCH  23  24
ENDBRANCH   1  23
TORSDOF 17
ENDMDL
MODEL 3
REMARK VINA RESULT:     -10.8      1.978      7.709
REMARK SMILES CC(C)(C)OC(=O)NC[C@H]1CC[C@@H](C(=O)NCCCCCCNC(=O)c2ccc(-c3c4nc(c(-c5c(F)c(F)c(F)c(F)c5F)c5ccc([nH]5)c(-c5c(F)c(F)c(F)c(F)c5F)c5nc(c(-c6c(F)c(F)c(F)c(F)c6F)c6ccc3[nH]6)C=C5)C=C4)cc2)CC1
REMARK SMILES IDX 18 1 17 2 16 3 14 4 15 5 13 7 10 8 11 9 90 10 12 11 89 12
REMARK SMILES IDX 9 13 8 14 6 15 7 16 5 18 2 19 1 20 3 21 4 22 19 23 20 24
REMARK SMILES IDX 21 25 22 26 23 27 24 28 25 30 26 31 27 32 88 33 28 34 87 35
REMARK SMILES IDX 29 36 30 37 31 38 81 39 32 40 86 41 80 42 82 43 33 44 85 45
REMARK SMILES IDX 79 46 78 47 34 49 66 50 46 51 65 52 47 53 50 54 64 55 83 56
REMARK SMILES IDX 48 57 49 58 63 60 84 61 51 62 35 63 36 64 44 65 37 66 38 67
REMARK SMILES IDX 42 68 45 69 39 70 40 71 43 72 41 73 67 74 68 75 76 76 69 77
REMARK SMILES IDX 70 78 74 79 77 80 71 81 72 82 75 83 73 84 52 85 53 86 61 87
REMARK SMILES IDX 54 88 55 89 59 90 62 91 56 92 57 93 60 94 58 95
REMARK H PARENT 16 6 8 17 23 29 82 48 50 59
REMARK Flexibility Score: inf
ROOT
ATOM      1  C   UNL A   1      35.503  21.878  26.044  1.00  0.00     0.021 C 
ENDROOT
BRANCH   1   2
ATOM      2  C   UNL A   1      34.236  21.575  26.839  1.00  0.00     0.116 C 
BRANCH   2   3
ATOM      3  N   UNL A   1      33.551  20.378  26.431  1.00  0.00    -0.356 N 
ATOM      4  C   UNL A   1      32.607  20.156  25.483  1.00  0.00     0.223 C 
ATOM      5  O   UNL A   1      32.388  18.967  25.217  1.00  0.00    -0.275 OA
ATOM      6  H   UNL A   1      33.817  19.572  26.931  1.00  0.00     0.163 HD
BRANCH   4   7
ATOM      7  C   UNL A   1      31.802  21.246  24.747  1.00  0.00     0.078 C 
ATOM      8  C   UNL A   1      32.777  24.104  24.580  1.00  0.00     0.008 C 
ATOM      9  C   UNL A   1      33.278  23.020  23.597  1.00  0.00     0.006 C 
ATOM     10  C   UNL A   1      31.995  23.594  25.811  1.00  0.00     0.006 C 
ATOM     11  C   UNL A   1      32.383  21.800  23.450  1.00  0.00     0.014 C 
ATOM     12  C   UNL A   1      31.170  22.331  25.612  1.00  0.00     0.014 C 
BRANCH   8  13
ATOM     13  C   UNL A   1      33.886  25.103  25.034  1.00  0.00     0.123 C 
BRANCH  13  14
ATOM     14  N   UNL A   1      34.012  26.282  24.196  1.00  0.00    -0.321 N 
ATOM     15  C   UNL A   1      33.263  27.416  24.229  1.00  0.00     0.407 C 
ATOM     16  O   UNL A   1      33.441  28.297  23.403  1.00  0.00    -0.225 OA
ATOM     17  H   UNL A   1      34.727  26.255  23.521  1.00  0.00     0.167 HD
BRANCH  15  18
ATOM     18  O   UNL A   1      32.369  27.423  25.236  1.00  0.00    -0.444 OA
BRANCH  18  19
ATOM     19  C   UNL A   1      32.460  28.412  26.289  1.00  0.00     0.106 C 
ATOM     20  C   UNL A   1      31.637  27.816  27.439  1.00  0.00     0.056 C 
ATOM     21  C   UNL A   1      31.809  29.724  25.835  1.00  0.00     0.056 C 
ATOM     22  C   UNL A   1      33.899  28.622  26.775  1.00  0.00     0.056 C 
ENDBRANCH  18  19
ENDBRANCH  15  18
ENDBRANCH  13  14
ENDBRANCH   8  13
ENDBRANCH   4   7
ENDBRANCH   2   3
ENDBRANCH   1   2
BRANCH   1  23
ATOM     23  C   UNL A   1      35.963  20.732  25.141  1.00  0.00     0.002 C 
BRANCH  23  24
ATOM     24  C   UNL A   1      37.405  20.838  24.623  1.00  0.00     0.002 C 
BRANCH  24  25
ATOM     25  C   UNL A   1      38.329  19.671  24.979  1.00  0.00     0.021 C 
BRANCH  25  26
ATOM     26  C   UNL A   1      39.335  19.950  26.087  1.00  0.00     0.116 C 
BRANCH  26  27
ATOM     27  N   UNL A   1      40.453  19.023  26.053  1.00  0.00    -0.352 N 
ATOM     28  C   UNL A   1      41.801  19.268  26.104  1.00  0.00     0.251 C 
ATOM     29  H   UNL A   1      40.205  18.073  25.984  1.00  0.00     0.163 HD
ATOM     30  O   UNL A   1      42.599  18.379  25.826  1.00  0.00    -0.269 OA
BRANCH  28  31
ATOM     31  C   UNL A   1      42.299  20.606  26.487  1.00  0.00     0.039 A 
ATOM     32  C   UNL A   1      42.707  21.489  25.483  1.00  0.00     0.014 A 
ATOM     33  C   UNL A   1      42.394  20.981  27.830  1.00  0.00     0.014 A 
ATOM     34  C   UNL A   1      43.161  22.763  25.825  1.00  0.00     0.010 A 
ATOM     35  C   UNL A   1      42.767  22.279  28.164  1.00  0.00     0.010 A 
ATOM     36  C   UNL A   1      43.163  23.181  27.166  1.00  0.00    -0.014 A 
BRANCH  36  37
ATOM     37  C   UNL A   1      43.587  24.554  27.542  1.00  0.00     0.031 A 
ATOM     38  C   UNL A   1      42.558  25.592  27.900  1.00  0.00     0.074 A 
ATOM     39  C   UNL A   1      44.893  24.878  27.510  1.00  0.00     0.049 A 
ATOM     40  N   UNL A   1      42.726  26.856  28.200  1.00  0.00    -0.248 NA
ATOM     41  C   UNL A   1      41.151  25.160  27.895  1.00  0.00     0.031 C 
ATOM     42  C   UNL A   1      45.980  23.969  27.141  1.00  0.00     0.029 A 
ATOM     43  N   UNL A   1      45.530  26.061  27.788  1.00  0.00    -0.354 N 
ATOM     44  C   UNL A   1      41.452  27.366  28.410  1.00  0.00     0.074 A 
ATOM     45  C   UNL A   1      40.517  26.296  28.142  1.00  0.00     0.031 C 
ATOM     46  C   UNL A   1      47.151  24.618  27.248  1.00  0.00     0.029 A 
ATOM     47  C   UNL A   1      46.895  25.999  27.645  1.00  0.00     0.049 A 
ATOM     48  H   UNL A   1      45.054  26.878  28.064  1.00  0.00     0.167 HD
ATOM     49  C   UNL A   1      41.096  28.609  28.816  1.00  0.00     0.037 A 
ATOM     50  C   UNL A   1      47.832  26.952  27.809  1.00  0.00     0.037 A 
ATOM     51  C   UNL A   1      42.032  29.666  29.095  1.00  0.00     0.049 A 
ATOM     52  C   UNL A   1      47.405  28.334  28.228  1.00  0.00     0.074 A 
ATOM     53  C   UNL A   1      41.777  30.946  29.553  1.00  0.00     0.029 A 
ATOM     54  N   UNL A   1      43.408  29.566  28.936  1.00  0.00    -0.354 N 
ATOM     55  N   UNL A   1      46.203  28.789  28.484  1.00  0.00    -0.248 NA
ATOM     56  C   UNL A   1      48.470  29.334  28.387  1.00  0.00     0.031 C 
ATOM     57  C   UNL A   1      42.989  31.640  29.613  1.00  0.00     0.029 A 
ATOM     58  C   UNL A   1      44.009  30.771  29.260  1.00  0.00     0.049 A 
ATOM     59  H   UNL A   1      43.884  28.758  28.637  1.00  0.00     0.167 HD
ATOM     60  C   UNL A   1      46.368  30.114  28.867  1.00  0.00     0.074 A 
ATOM     61  C   UNL A   1      47.791  30.385  28.824  1.00  0.00     0.031 C 
ATOM     62  C   UNL A   1      45.428  31.024  29.222  1.00  0.00     0.037 A 
BRANCH  49  63
ATOM     63  C   UNL A   1      39.630  28.895  28.982  1.00  0.00     0.064 A 
ATOM     64  C   UNL A   1      38.983  28.739  30.217  1.00  0.00     0.173 A 
ATOM     65  C   UNL A   1      38.870  29.372  27.902  1.00  0.00     0.173 A 
ATOM     66  F   UNL A   1      39.658  28.277  31.280  1.00  0.00    -0.203 F 
ATOM     67  C   UNL A   1      37.626  29.020  30.358  1.00  0.00     0.198 A 
ATOM     68  C   UNL A   1      37.522  29.685  28.055  1.00  0.00     0.198 A 
ATOM     69  F   UNL A   1      39.437  29.546  26.699  1.00  0.00    -0.203 F 
ATOM     70  F   UNL A   1      37.020  28.812  31.535  1.00  0.00    -0.200 F 
ATOM     71  C   UNL A   1      36.899  29.501  29.280  1.00  0.00     0.200 A 
ATOM     72  F   UNL A   1      36.825  30.166  27.017  1.00  0.00    -0.200 F 
ATOM     73  F   UNL A   1      35.596  29.781  29.420  1.00  0.00    -0.200 F 
ENDBRANCH  49  63
BRANCH  50  74
ATOM     74  C   UNL A   1      49.268  26.627  27.597  1.00  0.00     0.064 A 
ATOM     75  C   UNL A   1      49.818  26.602  26.307  1.00  0.00     0.173 A 
ATOM     76  C   UNL A   1      50.117  26.324  28.672  1.00  0.00     0.173 A 
ATOM     77  F   UNL A   1      49.044  26.867  25.245  1.00  0.00    -0.203 F 
ATOM     78  C   UNL A   1      51.152  26.258  26.099  1.00  0.00     0.198 A 
ATOM     79  C   UNL A   1      51.459  26.015  28.466  1.00  0.00     0.198 A 
ATOM     80  F   UNL A   1      49.646  26.343  29.929  1.00  0.00    -0.203 F 
ATOM     81  F   UNL A   1      51.636  26.188  24.851  1.00  0.00    -0.200 F 
ATOM     82  C   UNL A   1      51.973  25.970  27.179  1.00  0.00     0.200 A 
ATOM     83  F   UNL A   1      52.253  25.756  29.514  1.00  0.00    -0.200 F 
ATOM     84  F   UNL A   1      53.256  25.641  26.978  1.00  0.00    -0.200 F 
ENDBRANCH  50  74
BRANCH  62  85
ATOM     85  C   UNL A   1      45.906  32.386  29.639  1.00  0.00     0.064 A 
ATOM     86  C   UNL A   1      46.024  33.443  28.724  1.00  0.00     0.173 A 
ATOM     87  C   UNL A   1      46.211  32.647  30.985  1.00  0.00     0.173 A 
ATOM     88  F   UNL A   1      45.758  33.243  27.424  1.00  0.00    -0.203 F 
ATOM     89  C   UNL A   1      46.458  34.701  29.134  1.00  0.00     0.198 A 
ATOM     90  C   UNL A   1      46.609  33.916  31.398  1.00  0.00     0.198 A 
ATOM     91  F   UNL A   1      46.107  31.676  31.903  1.00  0.00    -0.203 F 
ATOM     92  F   UNL A   1      46.615  35.680  28.234  1.00  0.00    -0.200 F 
ATOM     93  C   UNL A   1      46.741  34.939  30.472  1.00  0.00     0.200 A 
ATOM     94  F   UNL A   1      46.863  34.148  32.693  1.00  0.00    -0.200 F 
ATOM     95  F   UNL A   1      47.148  36.153  30.865  1.00  0.00    -0.200 F 
ENDBRANCH  62  85
ENDBRANCH  36  37
ENDBRANCH  28  31
ENDBRANCH  26  27
ENDBRANCH  25  26
ENDBRANCH  24  25
ENDBRANCH  23  24
ENDBRANCH   1  23
TORSDOF 17
ENDMDL
