MODEL 1
REMARK VINA RESULT:     -11.0      0.000      0.000
REMARK SMILES C[C@H](NC(=O)COc1ccc(C(=O)NCCCCCCNC(=O)c2ccc(-c3c4nc(c(-c5c(F)c(F)c(F)c(F)c5F)c5ccc([nH]5)c(-c5c(F)c(F)c(F)c(F)c5F)c5nc(c(-c6c(F)c(F)c(F)c(F)c6F)c6ccc3[nH]6)C=C5)C=C4)cc2)cc1)C1CC1
REMARK SMILES IDX 16 1 15 2 14 3 12 4 13 5 11 7 8 8 9 9 88 10 10 11 87 12 7 13
REMARK SMILES IDX 6 14 4 15 3 16 5 18 2 19 1 20 89 21 90 22 91 23 17 24 18 25
REMARK SMILES IDX 19 26 20 27 21 28 22 29 23 31 24 32 25 33 86 34 26 35 85 36
REMARK SMILES IDX 27 37 28 38 29 39 79 40 30 41 84 42 78 43 80 44 31 45 83 46
REMARK SMILES IDX 77 47 76 48 32 50 64 51 44 52 63 53 45 54 48 55 62 56 81 57
REMARK SMILES IDX 46 58 47 59 61 61 82 62 49 63 33 64 34 65 42 66 35 67 36 68
REMARK SMILES IDX 40 69 43 70 37 71 38 72 41 73 39 74 65 75 66 76 74 77 67 78
REMARK SMILES IDX 68 79 72 80 75 81 69 82 70 83 73 84 71 85 50 86 51 87 59 88
REMARK SMILES IDX 52 89 53 90 57 91 60 92 54 93 55 94 58 95 56 96
REMARK H PARENT 14 6 3 17 21 30 80 49 48 60
REMARK Flexibility Score: inf
ROOT
ATOM      1  C   UNL A   1      33.562  21.076  25.431  1.00  0.00     0.021 C 
ENDROOT
BRANCH   1   2
ATOM      2  C   UNL A   1      33.654  21.659  26.845  1.00  0.00     0.116 C 
BRANCH   2   3
ATOM      3  N   UNL A   1      32.345  22.111  27.282  1.00  0.00    -0.352 N 
ATOM      4  C   UNL A   1      31.559  23.170  26.906  1.00  0.00     0.251 C 
ATOM      5  O   UNL A   1      30.463  23.299  27.449  1.00  0.00    -0.269 OA
ATOM      6  H   UNL A   1      31.943  21.547  27.982  1.00  0.00     0.163 HD
BRANCH   4   7
ATOM      7  C   UNL A   1      31.959  24.134  25.847  1.00  0.00     0.040 A 
ATOM      8  C   UNL A   1      32.759  26.044  23.936  1.00  0.00     0.120 A 
ATOM      9  C   UNL A   1      33.278  26.085  25.229  1.00  0.00     0.047 A 
ATOM     10  C   UNL A   1      31.870  25.027  23.597  1.00  0.00     0.047 A 
ATOM     11  C   UNL A   1      32.865  25.149  26.185  1.00  0.00     0.017 A 
ATOM     12  C   UNL A   1      31.522  24.048  24.527  1.00  0.00     0.017 A 
BRANCH   8  13
ATOM     13  O   UNL A   1      33.316  26.906  23.031  1.00  0.00    -0.484 OA
BRANCH  13  14
ATOM     14  C   UNL A   1      32.563  28.059  22.694  1.00  0.00     0.329 C 
BRANCH  14  15
ATOM     15  C   UNL A   1      31.888  28.915  23.775  1.00  0.00     0.258 C 
ATOM     16  N   UNL A   1      30.532  28.970  23.883  1.00  0.00    -0.350 N 
ATOM     17  H   UNL A   1      30.200  29.487  24.653  1.00  0.00     0.163 HD
ATOM     18  O   UNL A   1      32.562  29.571  24.575  1.00  0.00    -0.271 OA
BRANCH  16  19
ATOM     19  C   UNL A   1      29.492  28.386  23.043  1.00  0.00     0.082 C 
ATOM     20  C   UNL A   1      29.006  27.051  23.609  1.00  0.00     0.031 C 
BRANCH  19  21
ATOM     21  C   UNL A   1      28.405  29.434  22.944  1.00  0.00     0.011 C 
ATOM     22  C   UNL A   1      28.699  30.913  22.886  1.00  0.00     0.006 C 
ATOM     23  C   UNL A   1      28.132  30.214  21.677  1.00  0.00     0.006 C 
ENDBRANCH  19  21
ENDBRANCH  16  19
ENDBRANCH  14  15
ENDBRANCH  13  14
ENDBRANCH   8  13
ENDBRANCH   4   7
ENDBRANCH   2   3
ENDBRANCH   1   2
BRANCH   1  24
ATOM     24  C   UNL A   1      34.827  21.332  24.603  1.00  0.00     0.002 C 
BRANCH  24  25
ATOM     25  C   UNL A   1      34.940  22.756  24.043  1.00  0.00     0.002 C 
BRANCH  25  26
ATOM     26  C   UNL A   1      36.321  23.398  24.194  1.00  0.00     0.021 C 
BRANCH  26  27
ATOM     27  C   UNL A   1      36.784  23.547  25.639  1.00  0.00     0.116 C 
BRANCH  27  28
ATOM     28  N   UNL A   1      37.818  22.578  25.971  1.00  0.00    -0.352 N 
ATOM     29  C   UNL A   1      39.084  22.792  26.451  1.00  0.00     0.251 C 
ATOM     30  H   UNL A   1      37.572  21.635  25.831  1.00  0.00     0.163 HD
ATOM     31  O   UNL A   1      39.908  21.885  26.451  1.00  0.00    -0.269 OA
BRANCH  29  32
ATOM     32  C   UNL A   1      39.455  24.125  26.966  1.00  0.00     0.039 A 
ATOM     33  C   UNL A   1      39.234  24.417  28.315  1.00  0.00     0.014 A 
ATOM     34  C   UNL A   1      39.998  25.090  26.115  1.00  0.00     0.014 A 
ATOM     35  C   UNL A   1      39.603  25.663  28.821  1.00  0.00     0.010 A 
ATOM     36  C   UNL A   1      40.430  26.306  26.634  1.00  0.00     0.010 A 
ATOM     37  C   UNL A   1      40.227  26.608  27.989  1.00  0.00    -0.014 A 
BRANCH  37  38
ATOM     38  C   UNL A   1      40.663  27.925  28.514  1.00  0.00     0.031 A 
ATOM     39  C   UNL A   1      42.108  28.159  28.850  1.00  0.00     0.074 A 
ATOM     40  C   UNL A   1      39.748  28.884  28.749  1.00  0.00     0.049 A 
ATOM     41  N   UNL A   1      42.675  29.211  29.386  1.00  0.00    -0.248 NA
ATOM     42  C   UNL A   1      43.036  27.052  28.575  1.00  0.00     0.031 C 
ATOM     43  C   UNL A   1      38.311  28.758  28.503  1.00  0.00     0.029 A 
ATOM     44  N   UNL A   1      39.889  30.150  29.257  1.00  0.00    -0.354 N 
ATOM     45  C   UNL A   1      44.017  28.886  29.524  1.00  0.00     0.074 A 
ATOM     46  C   UNL A   1      44.171  27.521  29.069  1.00  0.00     0.031 C 
ATOM     47  C   UNL A   1      37.705  29.909  28.839  1.00  0.00     0.029 A 
ATOM     48  C   UNL A   1      38.704  30.838  29.357  1.00  0.00     0.049 A 
ATOM     49  H   UNL A   1      40.757  30.530  29.523  1.00  0.00     0.167 HD
ATOM     50  C   UNL A   1      45.034  29.664  29.967  1.00  0.00     0.037 A 
ATOM     51  C   UNL A   1      38.456  32.077  29.819  1.00  0.00     0.037 A 
ATOM     52  C   UNL A   1      44.877  31.029  30.397  1.00  0.00     0.049 A 
ATOM     53  C   UNL A   1      39.600  32.919  30.315  1.00  0.00     0.074 A 
ATOM     54  C   UNL A   1      45.851  31.922  30.809  1.00  0.00     0.029 A 
ATOM     55  N   UNL A   1      43.663  31.697  30.473  1.00  0.00    -0.354 N 
ATOM     56  N   UNL A   1      40.876  32.625  30.381  1.00  0.00    -0.248 NA
ATOM     57  C   UNL A   1      39.268  34.267  30.796  1.00  0.00     0.031 C 
ATOM     58  C   UNL A   1      45.220  33.116  31.177  1.00  0.00     0.029 A 
ATOM     59  C   UNL A   1      43.860  32.984  30.946  1.00  0.00     0.049 A 
ATOM     60  H   UNL A   1      42.791  31.313  30.225  1.00  0.00     0.167 HD
ATOM     61  C   UNL A   1      41.503  33.758  30.882  1.00  0.00     0.074 A 
ATOM     62  C   UNL A   1      40.467  34.749  31.092  1.00  0.00     0.031 C 
ATOM     63  C   UNL A   1      42.817  33.960  31.143  1.00  0.00     0.037 A 
BRANCH  50  64
ATOM     64  C   UNL A   1      46.405  29.052  30.009  1.00  0.00     0.064 A 
ATOM     65  C   UNL A   1      46.886  28.403  31.158  1.00  0.00     0.173 A 
ATOM     66  C   UNL A   1      47.242  29.098  28.885  1.00  0.00     0.173 A 
ATOM     67  F   UNL A   1      46.132  28.341  32.264  1.00  0.00    -0.203 F 
ATOM     68  C   UNL A   1      48.167  27.857  31.189  1.00  0.00     0.198 A 
ATOM     69  C   UNL A   1      48.509  28.522  28.909  1.00  0.00     0.198 A 
ATOM     70  F   UNL A   1      46.830  29.701  27.759  1.00  0.00    -0.203 F 
ATOM     71  F   UNL A   1      48.626  27.295  32.316  1.00  0.00    -0.200 F 
ATOM     72  C   UNL A   1      48.974  27.912  30.064  1.00  0.00     0.200 A 
ATOM     73  F   UNL A   1      49.284  28.565  27.816  1.00  0.00    -0.200 F 
ATOM     74  F   UNL A   1      50.207  27.385  30.095  1.00  0.00    -0.200 F 
ENDBRANCH  50  64
BRANCH  51  75
ATOM     75  C   UNL A   1      37.068  32.606  29.802  1.00  0.00     0.064 A 
ATOM     76  C   UNL A   1      36.576  33.289  28.682  1.00  0.00     0.173 A 
ATOM     77  C   UNL A   1      36.204  32.434  30.894  1.00  0.00     0.173 A 
ATOM     78  F   UNL A   1      37.370  33.496  27.622  1.00  0.00    -0.203 F 
ATOM     79  C   UNL A   1      35.277  33.793  28.659  1.00  0.00     0.198 A 
ATOM     80  C   UNL A   1      34.897  32.915  30.860  1.00  0.00     0.198 A 
ATOM     81  F   UNL A   1      36.627  31.783  31.988  1.00  0.00    -0.203 F 
ATOM     82  F   UNL A   1      34.845  34.476  27.590  1.00  0.00    -0.200 F 
ATOM     83  C   UNL A   1      34.437  33.600  29.745  1.00  0.00     0.200 A 
ATOM     84  F   UNL A   1      34.084  32.714  31.905  1.00  0.00    -0.200 F 
ATOM     85  F   UNL A   1      33.186  34.079  29.720  1.00  0.00    -0.200 F 
ENDBRANCH  51  75
BRANCH  63  86
ATOM     86  C   UNL A   1      43.216  35.313  31.654  1.00  0.00     0.064 A 
ATOM     87  C   UNL A   1      43.203  35.618  33.023  1.00  0.00     0.173 A 
ATOM     88  C   UNL A   1      43.655  36.306  30.764  1.00  0.00     0.173 A 
ATOM     89  F   UNL A   1      42.777  34.709  33.912  1.00  0.00    -0.203 F 
ATOM     90  C   UNL A   1      43.591  36.875  33.479  1.00  0.00     0.198 A 
ATOM     91  C   UNL A   1      44.071  37.551  31.226  1.00  0.00     0.198 A 
ATOM     92  F   UNL A   1      43.693  36.063  29.445  1.00  0.00    -0.203 F 
ATOM     93  F   UNL A   1      43.526  37.159  34.787  1.00  0.00    -0.200 F 
ATOM     94  C   UNL A   1      44.032  37.836  32.582  1.00  0.00     0.200 A 
ATOM     95  F   UNL A   1      44.509  38.474  30.360  1.00  0.00    -0.200 F 
ATOM     96  F   UNL A   1      44.413  39.043  33.025  1.00  0.00    -0.200 F 
ENDBRANCH  63  86
ENDBRANCH  37  38
ENDBRANCH  29  32
ENDBRANCH  27  28
ENDBRANCH  26  27
ENDBRANCH  25  26
ENDBRANCH  24  25
ENDBRANCH   1  24
TORSDOF 18
ENDMDL
MODEL 2
REMARK VINA RESULT:     -11.0      4.192      7.222
REMARK SMILES C[C@H](NC(=O)COc1ccc(C(=O)NCCCCCCNC(=O)c2ccc(-c3c4nc(c(-c5c(F)c(F)c(F)c(F)c5F)c5ccc([nH]5)c(-c5c(F)c(F)c(F)c(F)c5F)c5nc(c(-c6c(F)c(F)c(F)c(F)c6F)c6ccc3[nH]6)C=C5)C=C4)cc2)cc1)C1CC1
REMARK SMILES IDX 16 1 15 2 14 3 12 4 13 5 11 7 8 8 9 9 88 10 10 11 87 12 7 13
REMARK SMILES IDX 6 14 4 15 3 16 5 18 2 19 1 20 89 21 90 22 91 23 17 24 18 25
REMARK SMILES IDX 19 26 20 27 21 28 22 29 23 31 24 32 25 33 86 34 26 35 85 36
REMARK SMILES IDX 27 37 28 38 29 39 79 40 30 41 84 42 78 43 80 44 31 45 83 46
REMARK SMILES IDX 77 47 76 48 32 50 64 51 44 52 63 53 45 54 48 55 62 56 81 57
REMARK SMILES IDX 46 58 47 59 61 61 82 62 49 63 33 64 34 65 42 66 35 67 36 68
REMARK SMILES IDX 40 69 43 70 37 71 38 72 41 73 39 74 65 75 66 76 74 77 67 78
REMARK SMILES IDX 68 79 72 80 75 81 69 82 70 83 73 84 71 85 50 86 51 87 59 88
REMARK SMILES IDX 52 89 53 90 57 91 60 92 54 93 55 94 58 95 56 96
REMARK H PARENT 14 6 3 17 21 30 80 49 48 60
REMARK Flexibility Score: inf
ROOT
ATOM      1  C   UNL A   1      44.307  23.103  28.173  1.00  0.00     0.021 C 
ENDROOT
BRANCH   1   2
ATOM      2  C   UNL A   1      45.483  24.059  28.403  1.00  0.00     0.116 C 
BRANCH   2   3
ATOM      3  N   UNL A   1      46.276  24.169  27.192  1.00  0.00    -0.352 N 
ATOM      4  C   UNL A   1      46.337  25.126  26.211  1.00  0.00     0.251 C 
ATOM      5  O   UNL A   1      47.134  24.960  25.289  1.00  0.00    -0.269 OA
ATOM      6  H   UNL A   1      46.889  23.413  27.048  1.00  0.00     0.163 HD
BRANCH   4   7
ATOM      7  C   UNL A   1      45.516  26.366  26.243  1.00  0.00     0.040 A 
ATOM      8  C   UNL A   1      44.034  28.757  26.409  1.00  0.00     0.120 A 
ATOM      9  C   UNL A   1      45.297  28.672  26.993  1.00  0.00     0.047 A 
ATOM     10  C   UNL A   1      43.537  27.657  25.715  1.00  0.00     0.047 A 
ATOM     11  C   UNL A   1      46.025  27.477  26.930  1.00  0.00     0.017 A 
ATOM     12  C   UNL A   1      44.297  26.496  25.583  1.00  0.00     0.017 A 
BRANCH   8  13
ATOM     13  O   UNL A   1      43.454  29.996  26.399  1.00  0.00    -0.484 OA
BRANCH  13  14
ATOM     14  C   UNL A   1      44.162  31.042  27.041  1.00  0.00     0.329 C 
BRANCH  14  15
ATOM     15  C   UNL A   1      44.487  32.352  26.309  1.00  0.00     0.258 C 
ATOM     16  N   UNL A   1      44.333  33.557  26.924  1.00  0.00    -0.350 N 
ATOM     17  H   UNL A   1      44.638  34.331  26.396  1.00  0.00     0.163 HD
ATOM     18  O   UNL A   1      44.900  32.341  25.145  1.00  0.00    -0.271 OA
BRANCH  16  19
ATOM     19  C   UNL A   1      43.790  33.886  28.236  1.00  0.00     0.082 C 
ATOM     20  C   UNL A   1      44.843  33.710  29.332  1.00  0.00     0.031 C 
BRANCH  19  21
ATOM     21  C   UNL A   1      43.265  35.301  28.124  1.00  0.00     0.011 C 
ATOM     22  C   UNL A   1      42.269  35.720  27.070  1.00  0.00     0.006 C 
ATOM     23  C   UNL A   1      41.857  35.686  28.519  1.00  0.00     0.006 C 
ENDBRANCH  19  21
ENDBRANCH  16  19
ENDBRANCH  14  15
ENDBRANCH  13  14
ENDBRANCH   8  13
ENDBRANCH   4   7
ENDBRANCH   2   3
ENDBRANCH   1   2
BRANCH   1  24
ATOM     24  C   UNL A   1      43.178  23.741  27.354  1.00  0.00     0.002 C 
BRANCH  24  25
ATOM     25  C   UNL A   1      42.903  23.051  26.012  1.00  0.00     0.002 C 
BRANCH  25  26
ATOM     26  C   UNL A   1      42.183  21.704  26.117  1.00  0.00     0.021 C 
BRANCH  26  27
ATOM     27  C   UNL A   1      40.883  21.753  26.914  1.00  0.00     0.116 C 
BRANCH  27  28
ATOM     28  N   UNL A   1      39.739  22.016  26.053  1.00  0.00    -0.352 N 
ATOM     29  C   UNL A   1      38.904  23.103  26.030  1.00  0.00     0.251 C 
ATOM     30  H   UNL A   1      39.538  21.314  25.394  1.00  0.00     0.163 HD
ATOM     31  O   UNL A   1      37.848  23.061  25.408  1.00  0.00    -0.269 OA
BRANCH  29  32
ATOM     32  C   UNL A   1      39.277  24.328  26.764  1.00  0.00     0.039 A 
ATOM     33  C   UNL A   1      38.879  24.469  28.096  1.00  0.00     0.014 A 
ATOM     34  C   UNL A   1      40.000  25.343  26.132  1.00  0.00     0.014 A 
ATOM     35  C   UNL A   1      39.246  25.611  28.809  1.00  0.00     0.010 A 
ATOM     36  C   UNL A   1      40.425  26.448  26.863  1.00  0.00     0.010 A 
ATOM     37  C   UNL A   1      40.044  26.597  28.205  1.00  0.00    -0.014 A 
BRANCH  37  38
ATOM     38  C   UNL A   1      40.479  27.800  28.955  1.00  0.00     0.031 A 
ATOM     39  C   UNL A   1      41.873  27.877  29.508  1.00  0.00     0.074 A 
ATOM     40  C   UNL A   1      39.599  28.790  29.193  1.00  0.00     0.049 A 
ATOM     41  N   UNL A   1      42.421  28.807  30.251  1.00  0.00    -0.248 NA
ATOM     42  C   UNL A   1      42.763  26.744  29.212  1.00  0.00     0.031 C 
ATOM     43  C   UNL A   1      38.206  28.807  28.745  1.00  0.00     0.029 A 
ATOM     44  N   UNL A   1      39.742  29.968  29.882  1.00  0.00    -0.354 N 
ATOM     45  C   UNL A   1      43.708  28.364  30.521  1.00  0.00     0.074 A 
ATOM     46  C   UNL A   1      43.843  27.058  29.911  1.00  0.00     0.031 C 
ATOM     47  C   UNL A   1      37.629  29.951  29.150  1.00  0.00     0.029 A 
ATOM     48  C   UNL A   1      38.598  30.728  29.915  1.00  0.00     0.049 A 
ATOM     49  H   UNL A   1      40.585  30.243  30.309  1.00  0.00     0.167 HD
ATOM     50  C   UNL A   1      44.696  28.999  31.195  1.00  0.00     0.037 A 
ATOM     51  C   UNL A   1      38.361  31.915  30.504  1.00  0.00     0.037 A 
ATOM     52  C   UNL A   1      44.562  30.307  31.781  1.00  0.00     0.049 A 
ATOM     53  C   UNL A   1      39.472  32.597  31.255  1.00  0.00     0.074 A 
ATOM     54  C   UNL A   1      45.519  31.063  32.434  1.00  0.00     0.029 A 
ATOM     55  N   UNL A   1      43.391  31.053  31.784  1.00  0.00    -0.354 N 
ATOM     56  N   UNL A   1      40.705  32.199  31.449  1.00  0.00    -0.248 NA
ATOM     57  C   UNL A   1      39.156  33.896  31.865  1.00  0.00     0.031 C 
ATOM     58  C   UNL A   1      44.915  32.248  32.872  1.00  0.00     0.029 A 
ATOM     59  C   UNL A   1      43.596  32.251  32.448  1.00  0.00     0.049 A 
ATOM     60  H   UNL A   1      42.541  30.772  31.374  1.00  0.00     0.167 HD
ATOM     61  C   UNL A   1      41.322  33.208  32.177  1.00  0.00     0.074 A 
ATOM     62  C   UNL A   1      40.328  34.242  32.379  1.00  0.00     0.031 C 
ATOM     63  C   UNL A   1      42.596  33.273  32.635  1.00  0.00     0.037 A 
BRANCH  50  64
ATOM     64  C   UNL A   1      46.009  28.281  31.336  1.00  0.00     0.064 A 
ATOM     65  C   UNL A   1      46.194  27.265  32.287  1.00  0.00     0.173 A 
ATOM     66  C   UNL A   1      47.089  28.600  30.500  1.00  0.00     0.173 A 
ATOM     67  F   UNL A   1      45.197  26.929  33.119  1.00  0.00    -0.203 F 
ATOM     68  C   UNL A   1      47.422  26.622  32.419  1.00  0.00     0.198 A 
ATOM     69  C   UNL A   1      48.305  27.933  30.614  1.00  0.00     0.198 A 
ATOM     70  F   UNL A   1      46.965  29.560  29.570  1.00  0.00    -0.203 F 
ATOM     71  F   UNL A   1      47.592  25.697  33.374  1.00  0.00    -0.200 F 
ATOM     72  C   UNL A   1      48.474  26.952  31.579  1.00  0.00     0.200 A 
ATOM     73  F   UNL A   1      49.318  28.244  29.792  1.00  0.00    -0.200 F 
ATOM     74  F   UNL A   1      49.655  26.331  31.707  1.00  0.00    -0.200 F 
ENDBRANCH  50  64
BRANCH  51  75
ATOM     75  C   UNL A   1      37.023  32.548  30.374  1.00  0.00     0.064 A 
ATOM     76  C   UNL A   1      36.040  32.350  31.352  1.00  0.00     0.173 A 
ATOM     77  C   UNL A   1      36.703  33.369  29.283  1.00  0.00     0.173 A 
ATOM     78  F   UNL A   1      36.292  31.557  32.404  1.00  0.00    -0.203 F 
ATOM     79  C   UNL A   1      34.781  32.935  31.237  1.00  0.00     0.198 A 
ATOM     80  C   UNL A   1      35.454  33.976  29.182  1.00  0.00     0.198 A 
ATOM     81  F   UNL A   1      37.613  33.594  28.323  1.00  0.00    -0.203 F 
ATOM     82  F   UNL A   1      33.846  32.696  32.167  1.00  0.00    -0.200 F 
ATOM     83  C   UNL A   1      34.491  33.753  30.155  1.00  0.00     0.200 A 
ATOM     84  F   UNL A   1      35.182  34.776  28.143  1.00  0.00    -0.200 F 
ATOM     85  F   UNL A   1      33.283  34.321  30.048  1.00  0.00    -0.200 F 
ENDBRANCH  51  75
BRANCH  63  86
ATOM     86  C   UNL A   1      42.999  34.517  33.371  1.00  0.00     0.064 A 
ATOM     87  C   UNL A   1      43.366  35.688  32.693  1.00  0.00     0.173 A 
ATOM     88  C   UNL A   1      42.979  34.548  34.774  1.00  0.00     0.173 A 
ATOM     89  F   UNL A   1      43.416  35.705  31.353  1.00  0.00    -0.203 F 
ATOM     90  C   UNL A   1      43.723  36.837  33.393  1.00  0.00     0.198 A 
ATOM     91  C   UNL A   1      43.306  35.708  35.470  1.00  0.00     0.198 A 
ATOM     92  F   UNL A   1      42.629  33.456  35.470  1.00  0.00    -0.203 F 
ATOM     93  F   UNL A   1      44.115  37.931  32.725  1.00  0.00    -0.200 F 
ATOM     94  C   UNL A   1      43.684  36.849  34.779  1.00  0.00     0.200 A 
ATOM     95  F   UNL A   1      43.257  35.721  36.809  1.00  0.00    -0.200 F 
ATOM     96  F   UNL A   1      44.020  37.959  35.451  1.00  0.00    -0.200 F 
ENDBRANCH  63  86
ENDBRANCH  37  38
ENDBRANCH  29  32
ENDBRANCH  27  28
ENDBRANCH  26  27
ENDBRANCH  25  26
ENDBRANCH  24  25
ENDBRANCH   1  24
TORSDOF 18
ENDMDL
MODEL 3
REMARK VINA RESULT:     -10.9      3.143      8.276
REMARK SMILES C[C@H](NC(=O)COc1ccc(C(=O)NCCCCCCNC(=O)c2ccc(-c3c4nc(c(-c5c(F)c(F)c(F)c(F)c5F)c5ccc([nH]5)c(-c5c(F)c(F)c(F)c(F)c5F)c5nc(c(-c6c(F)c(F)c(F)c(F)c6F)c6ccc3[nH]6)C=C5)C=C4)cc2)cc1)C1CC1
REMARK SMILES IDX 16 1 15 2 14 3 12 4 13 5 11 7 8 8 9 9 88 10 10 11 87 12 7 13
REMARK SMILES IDX 6 14 4 15 3 16 5 18 2 19 1 20 89 21 90 22 91 23 17 24 18 25
REMARK SMILES IDX 19 26 20 27 21 28 22 29 23 31 24 32 25 33 86 34 26 35 85 36
REMARK SMILES IDX 27 37 28 38 29 39 79 40 30 41 84 42 78 43 80 44 31 45 83 46
REMARK SMILES IDX 77 47 76 48 32 50 64 51 44 52 63 53 45 54 48 55 62 56 81 57
REMARK SMILES IDX 46 58 47 59 61 61 82 62 49 63 33 64 34 65 42 66 35 67 36 68
REMARK SMILES IDX 40 69 43 70 37 71 38 72 41 73 39 74 65 75 66 76 74 77 67 78
REMARK SMILES IDX 68 79 72 80 75 81 69 82 70 83 73 84 71 85 50 86 51 87 59 88
REMARK SMILES IDX 52 89 53 90 57 91 60 92 54 93 55 94 58 95 56 96
REMARK H PARENT 14 6 3 17 21 30 80 49 48 60
REMARK Flexibility Score: inf
ROOT
ATOM      1  C   UNL A   1      35.688  21.883  26.072  1.00  0.00     0.021 C 
ENDROOT
BRANCH   1   2
ATOM      2  C   UNL A   1      34.508  21.546  26.990  1.00  0.00     0.116 C 
BRANCH   2   3
ATOM      3  N   UNL A   1      33.749  20.439  26.435  1.00  0.00    -0.352 N 
ATOM      4  C   UNL A   1      32.672  20.389  25.588  1.00  0.00     0.251 C 
ATOM      5  O   UNL A   1      32.239  19.283  25.268  1.00  0.00    -0.269 OA
ATOM      6  H   UNL A   1      34.071  19.554  26.722  1.00  0.00     0.163 HD
BRANCH   4   7
ATOM      7  C   UNL A   1      32.043  21.607  25.012  1.00  0.00     0.040 A 
ATOM      8  C   UNL A   1      30.948  23.916  23.826  1.00  0.00     0.120 A 
ATOM      9  C   UNL A   1      31.804  23.092  23.098  1.00  0.00     0.047 A 
ATOM     10  C   UNL A   1      30.616  23.560  25.130  1.00  0.00     0.047 A 
ATOM     11  C   UNL A   1      32.367  21.956  23.693  1.00  0.00     0.017 A 
ATOM     12  C   UNL A   1      31.113  22.385  25.695  1.00  0.00     0.017 A 
BRANCH   8  13
ATOM     13  O   UNL A   1      30.339  24.924  23.129  1.00  0.00    -0.484 OA
BRANCH  13  14
ATOM     14  C   UNL A   1      30.289  26.196  23.752  1.00  0.00     0.329 C 
BRANCH  14  15
ATOM     15  C   UNL A   1      31.423  27.215  23.575  1.00  0.00     0.258 C 
ATOM     16  N   UNL A   1      32.436  27.304  24.481  1.00  0.00    -0.350 N 
ATOM     17  H   UNL A   1      33.152  27.937  24.240  1.00  0.00     0.163 HD
ATOM     18  O   UNL A   1      31.445  27.976  22.603  1.00  0.00    -0.271 OA
BRANCH  16  19
ATOM     19  C   UNL A   1      32.631  26.614  25.751  1.00  0.00     0.082 C 
ATOM     20  C   UNL A   1      33.820  25.655  25.684  1.00  0.00     0.031 C 
BRANCH  19  21
ATOM     21  C   UNL A   1      32.788  27.701  26.792  1.00  0.00     0.011 C 
ATOM     22  C   UNL A   1      32.267  29.103  26.593  1.00  0.00     0.006 C 
ATOM     23  C   UNL A   1      31.634  28.209  27.627  1.00  0.00     0.006 C 
ENDBRANCH  19  21
ENDBRANCH  16  19
ENDBRANCH  14  15
ENDBRANCH  13  14
ENDBRANCH   8  13
ENDBRANCH   4   7
ENDBRANCH   2   3
ENDBRANCH   1   2
BRANCH   1  24
ATOM     24  C   UNL A   1      35.989  20.768  25.062  1.00  0.00     0.002 C 
BRANCH  24  25
ATOM     25  C   UNL A   1      37.412  20.800  24.490  1.00  0.00     0.002 C 
BRANCH  25  26
ATOM     26  C   UNL A   1      38.285  19.602  24.871  1.00  0.00     0.021 C 
BRANCH  26  27
ATOM     27  C   UNL A   1      39.211  19.857  26.055  1.00  0.00     0.116 C 
BRANCH  27  28
ATOM     28  N   UNL A   1      40.373  18.982  26.022  1.00  0.00    -0.352 N 
ATOM     29  C   UNL A   1      41.704  19.308  26.029  1.00  0.00     0.251 C 
ATOM     30  H   UNL A   1      40.175  18.018  25.990  1.00  0.00     0.163 HD
ATOM     31  O   UNL A   1      42.552  18.465  25.756  1.00  0.00    -0.269 OA
BRANCH  29  32
ATOM     32  C   UNL A   1      42.117  20.686  26.364  1.00  0.00     0.039 A 
ATOM     33  C   UNL A   1      42.270  21.041  27.706  1.00  0.00     0.014 A 
ATOM     34  C   UNL A   1      42.331  21.629  25.355  1.00  0.00     0.014 A 
ATOM     35  C   UNL A   1      42.684  22.332  28.036  1.00  0.00     0.010 A 
ATOM     36  C   UNL A   1      42.811  22.893  25.680  1.00  0.00     0.010 A 
ATOM     37  C   UNL A   1      42.982  23.260  27.023  1.00  0.00    -0.014 A 
BRANCH  37  38
ATOM     38  C   UNL A   1      43.460  24.626  27.349  1.00  0.00     0.031 A 
ATOM     39  C   UNL A   1      42.505  25.643  27.905  1.00  0.00     0.074 A 
ATOM     40  C   UNL A   1      44.734  24.966  27.082  1.00  0.00     0.049 A 
ATOM     41  N   UNL A   1      42.709  26.906  28.185  1.00  0.00    -0.248 NA
ATOM     42  C   UNL A   1      41.128  25.189  28.151  1.00  0.00     0.031 C 
ATOM     43  C   UNL A   1      45.742  24.077  26.502  1.00  0.00     0.029 A 
ATOM     44  N   UNL A   1      45.398  26.155  27.254  1.00  0.00    -0.354 N 
ATOM     45  C   UNL A   1      41.488  27.397  28.624  1.00  0.00     0.074 A 
ATOM     46  C   UNL A   1      40.534  26.313  28.521  1.00  0.00     0.031 C 
ATOM     47  C   UNL A   1      46.902  24.745  26.388  1.00  0.00     0.029 A 
ATOM     48  C   UNL A   1      46.710  26.115  26.851  1.00  0.00     0.049 A 
ATOM     49  H   UNL A   1      44.974  26.959  27.631  1.00  0.00     0.167 HD
ATOM     50  C   UNL A   1      41.193  28.633  29.095  1.00  0.00     0.037 A 
ATOM     51  C   UNL A   1      47.648  27.080  26.851  1.00  0.00     0.037 A 
ATOM     52  C   UNL A   1      42.152  29.700  29.215  1.00  0.00     0.049 A 
ATOM     53  C   UNL A   1      47.295  28.448  27.370  1.00  0.00     0.074 A 
ATOM     54  C   UNL A   1      41.970  30.970  29.733  1.00  0.00     0.029 A 
ATOM     55  N   UNL A   1      43.477  29.619  28.809  1.00  0.00    -0.354 N 
ATOM     56  N   UNL A   1      46.154  28.883  27.844  1.00  0.00    -0.248 NA
ATOM     57  C   UNL A   1      48.365  29.455  27.357  1.00  0.00     0.031 C 
ATOM     58  C   UNL A   1      43.173  31.673  29.598  1.00  0.00     0.029 A 
ATOM     59  C   UNL A   1      44.118  30.825  29.043  1.00  0.00     0.049 A 
ATOM     60  H   UNL A   1      43.898  28.822  28.413  1.00  0.00     0.167 HD
ATOM     61  C   UNL A   1      46.372  30.204  28.213  1.00  0.00     0.074 A 
ATOM     62  C   UNL A   1      47.760  30.494  27.917  1.00  0.00     0.031 C 
ATOM     63  C   UNL A   1      45.503  31.095  28.748  1.00  0.00     0.037 A 
BRANCH  50  64
ATOM     64  C   UNL A   1      39.774  28.894  29.511  1.00  0.00     0.064 A 
ATOM     65  C   UNL A   1      39.336  28.653  30.823  1.00  0.00     0.173 A 
ATOM     66  C   UNL A   1      38.844  29.405  28.594  1.00  0.00     0.173 A 
ATOM     67  F   UNL A   1      40.181  28.154  31.736  1.00  0.00    -0.203 F 
ATOM     68  C   UNL A   1      38.012  28.882  31.190  1.00  0.00     0.198 A 
ATOM     69  C   UNL A   1      37.530  29.663  28.973  1.00  0.00     0.198 A 
ATOM     70  F   UNL A   1      39.211  29.658  27.328  1.00  0.00    -0.203 F 
ATOM     71  F   UNL A   1      37.603  28.589  32.433  1.00  0.00    -0.200 F 
ATOM     72  C   UNL A   1      37.112  29.391  30.267  1.00  0.00     0.200 A 
ATOM     73  F   UNL A   1      36.663  30.167  28.083  1.00  0.00    -0.200 F 
ATOM     74  F   UNL A   1      35.838  29.611  30.623  1.00  0.00    -0.200 F 
ENDBRANCH  50  64
BRANCH  51  75
ATOM     75  C   UNL A   1      49.022  26.774  26.374  1.00  0.00     0.064 A 
ATOM     76  C   UNL A   1      49.392  27.027  25.047  1.00  0.00     0.173 A 
ATOM     77  C   UNL A   1      49.992  26.234  27.232  1.00  0.00     0.173 A 
ATOM     78  F   UNL A   1      48.493  27.524  24.185  1.00  0.00    -0.203 F 
ATOM     79  C   UNL A   1      50.676  26.738  24.590  1.00  0.00     0.198 A 
ATOM     80  C   UNL A   1      51.283  25.971  26.781  1.00  0.00     0.198 A 
ATOM     81  F   UNL A   1      49.688  25.979  28.513  1.00  0.00    -0.203 F 
ATOM     82  F   UNL A   1      50.991  26.954  23.305  1.00  0.00    -0.200 F 
ATOM     83  C   UNL A   1      51.622  26.217  25.459  1.00  0.00     0.200 A 
ATOM     84  F   UNL A   1      52.199  25.480  27.626  1.00  0.00    -0.200 F 
ATOM     85  F   UNL A   1      52.859  25.946  25.020  1.00  0.00    -0.200 F 
ENDBRANCH  51  75
BRANCH  63  86
ATOM     86  C   UNL A   1      46.034  32.458  29.081  1.00  0.00     0.064 A 
ATOM     87  C   UNL A   1      46.622  32.736  30.323  1.00  0.00     0.173 A 
ATOM     88  C   UNL A   1      45.988  33.488  28.129  1.00  0.00     0.173 A 
ATOM     89  F   UNL A   1      46.676  31.790  31.272  1.00  0.00    -0.203 F 
ATOM     90  C   UNL A   1      47.123  34.004  30.609  1.00  0.00     0.198 A 
ATOM     91  C   UNL A   1      46.517  34.745  28.407  1.00  0.00     0.198 A 
ATOM     92  F   UNL A   1      45.441  33.272  26.923  1.00  0.00    -0.203 F 
ATOM     93  F   UNL A   1      47.639  34.260  31.819  1.00  0.00    -0.200 F 
ATOM     94  C   UNL A   1      47.078  35.003  29.649  1.00  0.00     0.200 A 
ATOM     95  F   UNL A   1      46.485  35.706  27.474  1.00  0.00    -0.200 F 
ATOM     96  F   UNL A   1      47.569  36.220  29.923  1.00  0.00    -0.200 F 
ENDBRANCH  63  86
ENDBRANCH  37  38
ENDBRANCH  29  32
ENDBRANCH  27  28
ENDBRANCH  26  27
ENDBRANCH  25  26
ENDBRANCH  24  25
ENDBRANCH   1  24
TORSDOF 18
ENDMDL
