MODEL 1
REMARK VINA RESULT:     -12.7      0.000      0.000
REMARK SMILES O=C(NCCCCCCNC(=O)c1c(C2CC2)nn(-c2ccc(Cl)c(F)c2)c1Cl)c1ccc(-c2c3nc(c(-c4c(F)c(F)c(F)c(F)c4F)c4ccc([nH]4)c(-c4c(F)c(F)c(F)c(F)c4F)c4nc(c(-c5c(F)c(F)c(F)c(F)c5F)c5ccc2[nH]5)C=C4)C=C3)cc1
REMARK SMILES IDX 6 1 5 2 4 3 3 4 1 5 2 6 30 8 31 9 92 10 32 11 91 12 33 13
REMARK SMILES IDX 34 14 35 15 85 16 36 17 90 18 84 19 86 20 37 21 89 22 83 23
REMARK SMILES IDX 82 24 38 26 70 27 50 28 69 29 51 30 54 31 68 32 87 33 52 34
REMARK SMILES IDX 53 35 67 37 88 38 55 39 39 40 40 41 48 42 41 43 42 44 46 45
REMARK SMILES IDX 49 46 43 47 44 48 47 49 45 50 71 51 72 52 80 53 73 54 74 55
REMARK SMILES IDX 78 56 81 57 75 58 76 59 79 60 77 61 56 62 57 63 65 64 58 65
REMARK SMILES IDX 59 66 63 67 66 68 60 69 61 70 64 71 62 72 7 73 8 74 9 75
REMARK SMILES IDX 10 76 11 77 12 79 13 80 14 81 28 82 18 83 19 84 29 85 15 86
REMARK SMILES IDX 16 87 17 88 20 89 21 90 27 91 22 92 25 93 23 94 26 95 24 96
REMARK H PARENT 3 7 86 25 54 36 10 78
REMARK Flexibility Score: inf
ROOT
ATOM      1  C   UNL A   1      33.861  28.346  26.840  1.00  0.00     0.002 C 
ENDROOT
BRANCH   1   2
ATOM      2  C   UNL A   1      33.229  29.643  27.362  1.00  0.00     0.021 C 
BRANCH   2   3
ATOM      3  C   UNL A   1      34.118  30.884  27.297  1.00  0.00     0.116 C 
BRANCH   3   4
ATOM      4  N   UNL A   1      34.181  31.646  28.527  1.00  0.00    -0.352 N 
ATOM      5  O   UNL A   1      34.789  32.556  30.447  1.00  0.00    -0.269 OA
ATOM      6  C   UNL A   1      35.093  31.781  29.537  1.00  0.00     0.251 C 
ATOM      7  H   UNL A   1      33.378  32.198  28.669  1.00  0.00     0.163 HD
BRANCH   6   8
ATOM      8  C   UNL A   1      36.389  31.050  29.631  1.00  0.00     0.039 A 
ATOM      9  C   UNL A   1      37.653  31.610  29.453  1.00  0.00     0.014 A 
ATOM     10  C   UNL A   1      36.314  29.691  29.992  1.00  0.00     0.014 A 
ATOM     11  C   UNL A   1      38.807  30.826  29.581  1.00  0.00     0.010 A 
ATOM     12  C   UNL A   1      37.464  28.912  30.146  1.00  0.00     0.010 A 
ATOM     13  C   UNL A   1      38.724  29.469  29.919  1.00  0.00    -0.014 A 
BRANCH  13  14
ATOM     14  C   UNL A   1      39.973  28.706  30.080  1.00  0.00     0.031 A 
ATOM     15  C   UNL A   1      40.556  28.563  31.449  1.00  0.00     0.074 A 
ATOM     16  C   UNL A   1      40.550  27.951  29.121  1.00  0.00     0.049 A 
ATOM     17  N   UNL A   1      41.774  28.794  31.839  1.00  0.00    -0.248 NA
ATOM     18  C   UNL A   1      39.681  28.025  32.502  1.00  0.00     0.031 C 
ATOM     19  C   UNL A   1      40.006  27.600  27.811  1.00  0.00     0.029 A 
ATOM     20  N   UNL A   1      41.725  27.240  29.183  1.00  0.00    -0.354 N 
ATOM     21  C   UNL A   1      41.857  28.330  33.147  1.00  0.00     0.074 A 
ATOM     22  C   UNL A   1      40.533  27.890  33.519  1.00  0.00     0.031 C 
ATOM     23  C   UNL A   1      40.741  26.596  27.287  1.00  0.00     0.029 A 
ATOM     24  C   UNL A   1      41.874  26.325  28.160  1.00  0.00     0.049 A 
ATOM     25  H   UNL A   1      42.397  27.371  29.890  1.00  0.00     0.167 HD
ATOM     26  C   UNL A   1      43.021  28.208  33.839  1.00  0.00     0.037 A 
ATOM     27  C   UNL A   1      42.824  25.372  28.030  1.00  0.00     0.037 A 
ATOM     28  C   UNL A   1      44.147  28.847  33.229  1.00  0.00     0.049 A 
ATOM     29  C   UNL A   1      43.988  25.683  28.890  1.00  0.00     0.074 A 
ATOM     30  C   UNL A   1      44.541  30.146  32.991  1.00  0.00     0.029 A 
ATOM     31  N   UNL A   1      45.044  28.047  32.574  1.00  0.00    -0.354 N 
ATOM     32  N   UNL A   1      44.857  26.627  28.661  1.00  0.00    -0.248 NA
ATOM     33  C   UNL A   1      44.134  24.998  30.170  1.00  0.00     0.031 C 
ATOM     34  C   UNL A   1      45.477  30.086  31.919  1.00  0.00     0.029 A 
ATOM     35  C   UNL A   1      45.553  28.754  31.515  1.00  0.00     0.049 A 
ATOM     36  H   UNL A   1      45.283  27.125  32.821  1.00  0.00     0.167 HD
ATOM     37  C   UNL A   1      45.412  26.897  29.898  1.00  0.00     0.074 A 
ATOM     38  C   UNL A   1      45.076  25.758  30.731  1.00  0.00     0.031 C 
ATOM     39  C   UNL A   1      45.799  28.161  30.222  1.00  0.00     0.037 A 
BRANCH  26  40
ATOM     40  C   UNL A   1      43.203  27.287  35.004  1.00  0.00     0.064 A 
ATOM     41  C   UNL A   1      43.524  27.791  36.275  1.00  0.00     0.173 A 
ATOM     42  C   UNL A   1      43.299  25.893  34.833  1.00  0.00     0.173 A 
ATOM     43  F   UNL A   1      43.515  29.113  36.504  1.00  0.00    -0.203 F 
ATOM     44  C   UNL A   1      43.909  26.945  37.317  1.00  0.00     0.198 A 
ATOM     45  C   UNL A   1      43.651  25.047  35.884  1.00  0.00     0.198 A 
ATOM     46  F   UNL A   1      43.128  25.337  33.624  1.00  0.00    -0.203 F 
ATOM     47  F   UNL A   1      44.262  27.463  38.502  1.00  0.00    -0.200 F 
ATOM     48  C   UNL A   1      43.965  25.575  37.123  1.00  0.00     0.200 A 
ATOM     49  F   UNL A   1      43.734  23.727  35.675  1.00  0.00    -0.200 F 
ATOM     50  F   UNL A   1      44.355  24.766  38.117  1.00  0.00    -0.200 F 
ENDBRANCH  26  40
BRANCH  27  51
ATOM     51  C   UNL A   1      42.762  24.123  27.242  1.00  0.00     0.064 A 
ATOM     52  C   UNL A   1      43.280  24.053  25.940  1.00  0.00     0.173 A 
ATOM     53  C   UNL A   1      42.368  22.908  27.832  1.00  0.00     0.173 A 
ATOM     54  F   UNL A   1      43.735  25.156  25.330  1.00  0.00    -0.203 F 
ATOM     55  C   UNL A   1      43.382  22.837  25.260  1.00  0.00     0.198 A 
ATOM     56  C   UNL A   1      42.453  21.698  27.146  1.00  0.00     0.198 A 
ATOM     57  F   UNL A   1      41.961  22.868  29.110  1.00  0.00    -0.203 F 
ATOM     58  F   UNL A   1      43.919  22.802  24.034  1.00  0.00    -0.200 F 
ATOM     59  C   UNL A   1      42.964  21.662  25.863  1.00  0.00     0.200 A 
ATOM     60  F   UNL A   1      42.078  20.563  27.754  1.00  0.00    -0.200 F 
ATOM     61  F   UNL A   1      43.088  20.492  25.221  1.00  0.00    -0.200 F 
ENDBRANCH  27  51
BRANCH  39  62
ATOM     62  C   UNL A   1      46.131  29.075  29.088  1.00  0.00     0.064 A 
ATOM     63  C   UNL A   1      45.161  29.809  28.389  1.00  0.00     0.173 A 
ATOM     64  C   UNL A   1      47.477  29.281  28.759  1.00  0.00     0.173 A 
ATOM     65  F   UNL A   1      43.864  29.717  28.718  1.00  0.00    -0.203 F 
ATOM     66  C   UNL A   1      45.525  30.680  27.366  1.00  0.00     0.198 A 
ATOM     67  C   UNL A   1      47.840  30.174  27.755  1.00  0.00     0.198 A 
ATOM     68  F   UNL A   1      48.443  28.642  29.439  1.00  0.00    -0.203 F 
ATOM     69  F   UNL A   1      44.584  31.364  26.699  1.00  0.00    -0.200 F 
ATOM     70  C   UNL A   1      46.864  30.865  27.053  1.00  0.00     0.200 A 
ATOM     71  F   UNL A   1      49.136  30.383  27.482  1.00  0.00    -0.200 F 
ATOM     72  F   UNL A   1      47.215  31.727  26.088  1.00  0.00    -0.200 F 
ENDBRANCH  39  62
ENDBRANCH  13  14
ENDBRANCH   6   8
ENDBRANCH   3   4
ENDBRANCH   2   3
ENDBRANCH   1   2
BRANCH   1  73
ATOM     73  C   UNL A   1      32.906  27.309  26.236  1.00  0.00     0.002 C 
BRANCH  73  74
ATOM     74  C   UNL A   1      33.467  25.896  26.040  1.00  0.00     0.021 C 
BRANCH  74  75
ATOM     75  C   UNL A   1      32.577  24.934  25.258  1.00  0.00     0.116 C 
BRANCH  75  76
ATOM     76  N   UNL A   1      32.833  24.965  23.828  1.00  0.00    -0.352 N 
ATOM     77  C   UNL A   1      33.380  23.986  23.031  1.00  0.00     0.256 C 
ATOM     78  H   UNL A   1      32.581  25.797  23.367  1.00  0.00     0.163 HD
ATOM     79  O   UNL A   1      33.461  24.177  21.819  1.00  0.00    -0.269 OA
BRANCH  77  80
ATOM     80  C   UNL A   1      33.820  22.761  23.652  1.00  0.00     0.100 A 
ATOM     81  C   UNL A   1      34.853  22.504  24.583  1.00  0.00     0.080 A 
ATOM     82  C   UNL A   1      33.291  21.509  23.406  1.00  0.00     0.145 A 
ATOM     83  N   UNL A   1      34.851  21.232  25.000  1.00  0.00    -0.170 NA
ATOM     84  N   UNL A   1      33.888  20.616  24.270  1.00  0.00    -0.221 N 
ATOM     85  Cl  UNL A   1      31.991  21.086  22.378  1.00  0.00    -0.061 Cl
BRANCH  81  86
ATOM     86  C   UNL A   1      35.882  23.442  25.203  1.00  0.00     0.041 C 
ATOM     87  C   UNL A   1      37.181  22.960  25.802  1.00  0.00     0.011 C 
ATOM     88  C   UNL A   1      37.196  23.683  24.498  1.00  0.00     0.011 C 
ENDBRANCH  81  86
BRANCH  84  89
ATOM     89  C   UNL A   1      33.595  19.251  24.549  1.00  0.00     0.069 A 
ATOM     90  C   UNL A   1      32.814  18.955  25.683  1.00  0.00     0.030 A 
ATOM     91  C   UNL A   1      34.043  18.211  23.733  1.00  0.00     0.069 A 
ATOM     92  C   UNL A   1      32.434  17.637  25.956  1.00  0.00     0.026 A 
ATOM     93  C   UNL A   1      33.678  16.897  24.030  1.00  0.00     0.143 A 
ATOM     94  C   UNL A   1      32.865  16.607  25.123  1.00  0.00     0.076 A 
ATOM     95  F   UNL A   1      34.133  15.915  23.239  1.00  0.00    -0.205 F 
ATOM     96  Cl  UNL A   1      32.385  14.990  25.461  1.00  0.00    -0.081 Cl
ENDBRANCH  84  89
ENDBRANCH  77  80
ENDBRANCH  75  76
ENDBRANCH  74  75
ENDBRANCH  73  74
ENDBRANCH   1  73
TORSDOF 15
ENDMDL
MODEL 2
REMARK VINA RESULT:     -12.6      3.475      8.580
REMARK SMILES O=C(NCCCCCCNC(=O)c1c(C2CC2)nn(-c2ccc(Cl)c(F)c2)c1Cl)c1ccc(-c2c3nc(c(-c4c(F)c(F)c(F)c(F)c4F)c4ccc([nH]4)c(-c4c(F)c(F)c(F)c(F)c4F)c4nc(c(-c5c(F)c(F)c(F)c(F)c5F)c5ccc2[nH]5)C=C4)C=C3)cc1
REMARK SMILES IDX 6 1 5 2 4 3 3 4 1 5 2 6 30 8 31 9 92 10 32 11 91 12 33 13
REMARK SMILES IDX 34 14 35 15 85 16 36 17 90 18 84 19 86 20 37 21 89 22 83 23
REMARK SMILES IDX 82 24 38 26 70 27 50 28 69 29 51 30 54 31 68 32 87 33 52 34
REMARK SMILES IDX 53 35 67 37 88 38 55 39 39 40 40 41 48 42 41 43 42 44 46 45
REMARK SMILES IDX 49 46 43 47 44 48 47 49 45 50 71 51 72 52 80 53 73 54 74 55
REMARK SMILES IDX 78 56 81 57 75 58 76 59 79 60 77 61 56 62 57 63 65 64 58 65
REMARK SMILES IDX 59 66 63 67 66 68 60 69 61 70 64 71 62 72 7 73 8 74 9 75
REMARK SMILES IDX 10 76 11 77 12 79 13 80 14 81 28 82 18 83 19 84 29 85 15 86
REMARK SMILES IDX 16 87 17 88 20 89 21 90 27 91 22 92 25 93 23 94 26 95 24 96
REMARK H PARENT 3 7 86 25 54 36 10 78
REMARK Flexibility Score: inf
ROOT
ATOM      1  C   UNL A   1      36.759  22.091  25.752  1.00  0.00     0.002 C 
ENDROOT
BRANCH   1   2
ATOM      2  C   UNL A   1      38.162  21.647  25.317  1.00  0.00     0.021 C 
BRANCH   2   3
ATOM      3  C   UNL A   1      39.274  21.875  26.339  1.00  0.00     0.116 C 
BRANCH   3   4
ATOM      4  N   UNL A   1      40.611  21.898  25.782  1.00  0.00    -0.352 N 
ATOM      5  O   UNL A   1      42.660  22.455  25.167  1.00  0.00    -0.269 OA
ATOM      6  C   UNL A   1      41.632  22.808  25.750  1.00  0.00     0.251 C 
ATOM      7  H   UNL A   1      40.839  21.061  25.316  1.00  0.00     0.163 HD
BRANCH   6   8
ATOM      8  C   UNL A   1      41.581  24.181  26.331  1.00  0.00     0.039 A 
ATOM      9  C   UNL A   1      40.820  25.242  25.843  1.00  0.00     0.014 A 
ATOM     10  C   UNL A   1      42.324  24.387  27.508  1.00  0.00     0.014 A 
ATOM     11  C   UNL A   1      40.839  26.489  26.481  1.00  0.00     0.010 A 
ATOM     12  C   UNL A   1      42.324  25.622  28.163  1.00  0.00     0.010 A 
ATOM     13  C   UNL A   1      41.598  26.694  27.641  1.00  0.00    -0.014 A 
BRANCH  13  14
ATOM     14  C   UNL A   1      41.547  28.014  28.291  1.00  0.00     0.031 A 
ATOM     15  C   UNL A   1      42.662  28.979  28.044  1.00  0.00     0.074 A 
ATOM     16  C   UNL A   1      40.480  28.515  28.950  1.00  0.00     0.049 A 
ATOM     17  N   UNL A   1      43.365  29.645  28.912  1.00  0.00    -0.248 NA
ATOM     18  C   UNL A   1      42.984  29.293  26.644  1.00  0.00     0.031 C 
ATOM     19  C   UNL A   1      39.132  27.956  29.025  1.00  0.00     0.029 A 
ATOM     20  N   UNL A   1      40.367  29.717  29.607  1.00  0.00    -0.354 N 
ATOM     21  C   UNL A   1      44.136  30.541  28.179  1.00  0.00     0.074 A 
ATOM     22  C   UNL A   1      43.885  30.266  26.784  1.00  0.00     0.031 C 
ATOM     23  C   UNL A   1      38.295  28.896  29.510  1.00  0.00     0.029 A 
ATOM     24  C   UNL A   1      39.065  30.070  29.897  1.00  0.00     0.049 A 
ATOM     25  H   UNL A   1      41.142  30.273  29.849  1.00  0.00     0.167 HD
ATOM     26  C   UNL A   1      44.858  31.551  28.733  1.00  0.00     0.037 A 
ATOM     27  C   UNL A   1      38.612  31.248  30.382  1.00  0.00     0.037 A 
ATOM     28  C   UNL A   1      44.995  31.476  30.155  1.00  0.00     0.049 A 
ATOM     29  C   UNL A   1      39.718  32.008  31.007  1.00  0.00     0.074 A 
ATOM     30  C   UNL A   1      45.652  30.656  31.046  1.00  0.00     0.029 A 
ATOM     31  N   UNL A   1      44.210  32.309  30.906  1.00  0.00    -0.354 N 
ATOM     32  N   UNL A   1      40.276  31.715  32.148  1.00  0.00    -0.248 NA
ATOM     33  C   UNL A   1      40.352  33.090  30.261  1.00  0.00     0.031 C 
ATOM     34  C   UNL A   1      44.979  30.806  32.293  1.00  0.00     0.029 A 
ATOM     35  C   UNL A   1      43.902  31.664  32.077  1.00  0.00     0.049 A 
ATOM     36  H   UNL A   1      43.916  33.213  30.651  1.00  0.00     0.167 HD
ATOM     37  C   UNL A   1      41.522  32.311  32.089  1.00  0.00     0.074 A 
ATOM     38  C   UNL A   1      41.437  33.280  31.012  1.00  0.00     0.031 C 
ATOM     39  C   UNL A   1      42.596  31.731  32.690  1.00  0.00     0.037 A 
BRANCH  26  40
ATOM     40  C   UNL A   1      45.272  32.780  27.987  1.00  0.00     0.064 A 
ATOM     41  C   UNL A   1      44.338  33.781  27.676  1.00  0.00     0.173 A 
ATOM     42  C   UNL A   1      46.532  32.876  27.365  1.00  0.00     0.173 A 
ATOM     43  F   UNL A   1      43.096  33.731  28.180  1.00  0.00    -0.203 F 
ATOM     44  C   UNL A   1      44.651  34.823  26.801  1.00  0.00     0.198 A 
ATOM     45  C   UNL A   1      46.854  33.935  26.517  1.00  0.00     0.198 A 
ATOM     46  F   UNL A   1      47.443  31.901  27.509  1.00  0.00    -0.203 F 
ATOM     47  F   UNL A   1      43.718  35.731  26.482  1.00  0.00    -0.200 F 
ATOM     48  C   UNL A   1      45.910  34.903  26.229  1.00  0.00     0.200 A 
ATOM     49  F   UNL A   1      48.064  33.983  25.944  1.00  0.00    -0.200 F 
ATOM     50  F   UNL A   1      46.203  35.891  25.372  1.00  0.00    -0.200 F 
ENDBRANCH  26  40
BRANCH  27  51
ATOM     51  C   UNL A   1      37.253  31.818  30.272  1.00  0.00     0.064 A 
ATOM     52  C   UNL A   1      36.344  31.758  31.339  1.00  0.00     0.173 A 
ATOM     53  C   UNL A   1      36.886  32.617  29.173  1.00  0.00     0.173 A 
ATOM     54  F   UNL A   1      36.646  31.069  32.448  1.00  0.00    -0.203 F 
ATOM     55  C   UNL A   1      35.129  32.445  31.302  1.00  0.00     0.198 A 
ATOM     56  C   UNL A   1      35.665  33.288  29.129  1.00  0.00     0.198 A 
ATOM     57  F   UNL A   1      37.738  32.817  28.156  1.00  0.00    -0.203 F 
ATOM     58  F   UNL A   1      34.304  32.398  32.356  1.00  0.00    -0.200 F 
ATOM     59  C   UNL A   1      34.789  33.206  30.195  1.00  0.00     0.200 A 
ATOM     60  F   UNL A   1      35.363  34.048  28.067  1.00  0.00    -0.200 F 
ATOM     61  F   UNL A   1      33.635  33.887  30.171  1.00  0.00    -0.200 F 
ENDBRANCH  27  51
BRANCH  39  62
ATOM     62  C   UNL A   1      42.313  30.806  33.828  1.00  0.00     0.064 A 
ATOM     63  C   UNL A   1      41.928  29.469  33.650  1.00  0.00     0.173 A 
ATOM     64  C   UNL A   1      42.523  31.262  35.136  1.00  0.00     0.173 A 
ATOM     65  F   UNL A   1      41.794  28.954  32.418  1.00  0.00    -0.203 F 
ATOM     66  C   UNL A   1      41.715  28.635  34.744  1.00  0.00     0.198 A 
ATOM     67  C   UNL A   1      42.339  30.418  36.227  1.00  0.00     0.198 A 
ATOM     68  F   UNL A   1      42.946  32.519  35.352  1.00  0.00    -0.203 F 
ATOM     69  F   UNL A   1      41.334  27.363  34.555  1.00  0.00    -0.200 F 
ATOM     70  C   UNL A   1      41.924  29.109  36.031  1.00  0.00     0.200 A 
ATOM     71  F   UNL A   1      42.581  30.864  37.467  1.00  0.00    -0.200 F 
ATOM     72  F   UNL A   1      41.749  28.297  37.082  1.00  0.00    -0.200 F 
ENDBRANCH  39  62
ENDBRANCH  13  14
ENDBRANCH   6   8
ENDBRANCH   3   4
ENDBRANCH   2   3
ENDBRANCH   1   2
BRANCH   1  73
ATOM     73  C   UNL A   1      36.075  23.156  24.889  1.00  0.00     0.002 C 
BRANCH  73  74
ATOM     74  C   UNL A   1      35.596  24.419  25.613  1.00  0.00     0.021 C 
BRANCH  74  75
ATOM     75  C   UNL A   1      34.365  25.097  25.018  1.00  0.00     0.116 C 
BRANCH  75  76
ATOM     76  N   UNL A   1      33.274  25.222  25.969  1.00  0.00    -0.352 N 
ATOM     77  C   UNL A   1      32.313  24.297  26.302  1.00  0.00     0.256 C 
ATOM     78  H   UNL A   1      33.214  26.085  26.438  1.00  0.00     0.163 HD
ATOM     79  O   UNL A   1      31.500  24.568  27.184  1.00  0.00    -0.269 OA
BRANCH  77  80
ATOM     80  C   UNL A   1      32.312  23.029  25.614  1.00  0.00     0.100 A 
ATOM     81  C   UNL A   1      31.800  22.653  24.350  1.00  0.00     0.080 A 
ATOM     82  C   UNL A   1      32.822  21.849  26.117  1.00  0.00     0.145 A 
ATOM     83  N   UNL A   1      32.116  21.392  24.032  1.00  0.00    -0.170 NA
ATOM     84  N   UNL A   1      32.745  20.893  25.126  1.00  0.00    -0.221 N 
ATOM     85  Cl  UNL A   1      33.608  21.581  27.613  1.00  0.00    -0.061 Cl
BRANCH  81  86
ATOM     86  C   UNL A   1      31.030  23.463  23.314  1.00  0.00     0.041 C 
ATOM     87  C   UNL A   1      30.486  24.845  23.585  1.00  0.00     0.011 C 
ATOM     88  C   UNL A   1      31.668  24.682  22.690  1.00  0.00     0.011 C 
ENDBRANCH  81  86
BRANCH  84  89
ATOM     89  C   UNL A   1      33.276  19.574  25.060  1.00  0.00     0.069 A 
ATOM     90  C   UNL A   1      34.608  19.412  24.634  1.00  0.00     0.030 A 
ATOM     91  C   UNL A   1      32.526  18.451  25.414  1.00  0.00     0.069 A 
ATOM     92  C   UNL A   1      35.200  18.145  24.627  1.00  0.00     0.026 A 
ATOM     93  C   UNL A   1      33.120  17.188  25.378  1.00  0.00     0.143 A 
ATOM     94  C   UNL A   1      34.453  17.031  25.005  1.00  0.00     0.076 A 
ATOM     95  F   UNL A   1      32.375  16.124  25.709  1.00  0.00    -0.205 F 
ATOM     96  Cl  UNL A   1      35.190  15.477  25.002  1.00  0.00    -0.081 Cl
ENDBRANCH  84  89
ENDBRANCH  77  80
ENDBRANCH  75  76
ENDBRANCH  74  75
ENDBRANCH  73  74
ENDBRANCH   1  73
TORSDOF 15
ENDMDL
MODEL 3
REMARK VINA RESULT:     -12.6      4.141      9.411
REMARK SMILES O=C(NCCCCCCNC(=O)c1c(C2CC2)nn(-c2ccc(Cl)c(F)c2)c1Cl)c1ccc(-c2c3nc(c(-c4c(F)c(F)c(F)c(F)c4F)c4ccc([nH]4)c(-c4c(F)c(F)c(F)c(F)c4F)c4nc(c(-c5c(F)c(F)c(F)c(F)c5F)c5ccc2[nH]5)C=C4)C=C3)cc1
REMARK SMILES IDX 6 1 5 2 4 3 3 4 1 5 2 6 30 8 31 9 92 10 32 11 91 12 33 13
REMARK SMILES IDX 34 14 35 15 85 16 36 17 90 18 84 19 86 20 37 21 89 22 83 23
REMARK SMILES IDX 82 24 38 26 70 27 50 28 69 29 51 30 54 31 68 32 87 33 52 34
REMARK SMILES IDX 53 35 67 37 88 38 55 39 39 40 40 41 48 42 41 43 42 44 46 45
REMARK SMILES IDX 49 46 43 47 44 48 47 49 45 50 71 51 72 52 80 53 73 54 74 55
REMARK SMILES IDX 78 56 81 57 75 58 76 59 79 60 77 61 56 62 57 63 65 64 58 65
REMARK SMILES IDX 59 66 63 67 66 68 60 69 61 70 64 71 62 72 7 73 8 74 9 75
REMARK SMILES IDX 10 76 11 77 12 79 13 80 14 81 28 82 18 83 19 84 29 85 15 86
REMARK SMILES IDX 16 87 17 88 20 89 21 90 27 91 22 92 25 93 23 94 26 95 24 96
REMARK H PARENT 3 7 86 25 54 36 10 78
REMARK Flexibility Score: inf
ROOT
ATOM      1  C   UNL A   1      39.505  22.877  27.169  1.00  0.00     0.002 C 
ENDROOT
BRANCH   1   2
ATOM      2  C   UNL A   1      39.916  21.590  26.441  1.00  0.00     0.021 C 
BRANCH   2   3
ATOM      3  C   UNL A   1      41.379  21.181  26.598  1.00  0.00     0.116 C 
BRANCH   3   4
ATOM      4  N   UNL A   1      42.262  21.689  25.568  1.00  0.00    -0.352 N 
ATOM      5  O   UNL A   1      43.563  22.949  24.301  1.00  0.00    -0.269 OA
ATOM      6  C   UNL A   1      42.840  22.899  25.299  1.00  0.00     0.251 C 
ATOM      7  H   UNL A   1      42.503  21.002  24.906  1.00  0.00     0.163 HD
BRANCH   6   8
ATOM      8  C   UNL A   1      42.639  24.146  26.092  1.00  0.00     0.039 A 
ATOM      9  C   UNL A   1      43.147  24.389  27.367  1.00  0.00     0.014 A 
ATOM     10  C   UNL A   1      41.922  25.178  25.459  1.00  0.00     0.014 A 
ATOM     11  C   UNL A   1      42.906  25.609  28.013  1.00  0.00     0.010 A 
ATOM     12  C   UNL A   1      41.701  26.406  26.090  1.00  0.00     0.010 A 
ATOM     13  C   UNL A   1      42.173  26.624  27.386  1.00  0.00    -0.014 A 
BRANCH  13  14
ATOM     14  C   UNL A   1      41.986  27.900  28.098  1.00  0.00     0.031 A 
ATOM     15  C   UNL A   1      43.029  28.962  27.955  1.00  0.00     0.074 A 
ATOM     16  C   UNL A   1      40.853  28.280  28.726  1.00  0.00     0.049 A 
ATOM     17  N   UNL A   1      43.635  29.633  28.889  1.00  0.00    -0.248 NA
ATOM     18  C   UNL A   1      43.389  29.374  26.590  1.00  0.00     0.031 C 
ATOM     19  C   UNL A   1      39.552  27.613  28.705  1.00  0.00     0.029 A 
ATOM     20  N   UNL A   1      40.612  29.432  29.436  1.00  0.00    -0.354 N 
ATOM     21  C   UNL A   1      44.364  30.625  28.241  1.00  0.00     0.074 A 
ATOM     22  C   UNL A   1      44.201  30.406  26.824  1.00  0.00     0.031 C 
ATOM     23  C   UNL A   1      38.620  28.457  29.194  1.00  0.00     0.029 A 
ATOM     24  C   UNL A   1      39.274  29.666  29.677  1.00  0.00     0.049 A 
ATOM     25  H   UNL A   1      41.328  30.033  29.743  1.00  0.00     0.167 HD
ATOM     26  C   UNL A   1      44.975  31.658  28.880  1.00  0.00     0.037 A 
ATOM     27  C   UNL A   1      38.705  30.777  30.197  1.00  0.00     0.037 A 
ATOM     28  C   UNL A   1      45.053  31.518  30.302  1.00  0.00     0.049 A 
ATOM     29  C   UNL A   1      39.715  31.586  30.913  1.00  0.00     0.074 A 
ATOM     30  C   UNL A   1      45.732  30.705  31.183  1.00  0.00     0.029 A 
ATOM     31  N   UNL A   1      44.168  32.245  31.053  1.00  0.00    -0.354 N 
ATOM     32  N   UNL A   1      40.243  31.278  32.065  1.00  0.00    -0.248 NA
ATOM     33  C   UNL A   1      40.294  32.754  30.255  1.00  0.00     0.031 C 
ATOM     34  C   UNL A   1      44.992  30.735  32.400  1.00  0.00     0.029 A 
ATOM     35  C   UNL A   1      43.861  31.516  32.173  1.00  0.00     0.049 A 
ATOM     36  H   UNL A   1      43.815  33.136  30.828  1.00  0.00     0.167 HD
ATOM     37  C   UNL A   1      41.438  31.972  32.098  1.00  0.00     0.074 A 
ATOM     38  C   UNL A   1      41.324  32.988  31.068  1.00  0.00     0.031 C 
ATOM     39  C   UNL A   1      42.527  31.447  32.722  1.00  0.00     0.037 A 
BRANCH  26  40
ATOM     40  C   UNL A   1      45.322  32.954  28.218  1.00  0.00     0.064 A 
ATOM     41  C   UNL A   1      44.325  33.894  27.912  1.00  0.00     0.173 A 
ATOM     42  C   UNL A   1      46.597  33.180  27.664  1.00  0.00     0.173 A 
ATOM     43  F   UNL A   1      43.070  33.720  28.352  1.00  0.00    -0.203 F 
ATOM     44  C   UNL A   1      44.593  35.003  27.107  1.00  0.00     0.198 A 
ATOM     45  C   UNL A   1      46.870  34.305  26.887  1.00  0.00     0.198 A 
ATOM     46  F   UNL A   1      47.576  32.273  27.803  1.00  0.00    -0.203 F 
ATOM     47  F   UNL A   1      43.605  35.852  26.789  1.00  0.00    -0.200 F 
ATOM     48  C   UNL A   1      45.866  35.211  26.601  1.00  0.00     0.200 A 
ATOM     49  F   UNL A   1      48.097  34.478  26.377  1.00  0.00    -0.200 F 
ATOM     50  F   UNL A   1      46.116  36.263  25.811  1.00  0.00    -0.200 F 
ENDBRANCH  26  40
BRANCH  27  51
ATOM     51  C   UNL A   1      37.311  31.244  30.046  1.00  0.00     0.064 A 
ATOM     52  C   UNL A   1      36.545  31.633  31.155  1.00  0.00     0.173 A 
ATOM     53  C   UNL A   1      36.764  31.507  28.777  1.00  0.00     0.173 A 
ATOM     54  F   UNL A   1      37.022  31.473  32.398  1.00  0.00    -0.203 F 
ATOM     55  C   UNL A   1      35.296  32.237  31.003  1.00  0.00     0.198 A 
ATOM     56  C   UNL A   1      35.509  32.093  28.626  1.00  0.00     0.198 A 
ATOM     57  F   UNL A   1      37.471  31.265  27.663  1.00  0.00    -0.203 F 
ATOM     58  F   UNL A   1      34.611  32.634  32.084  1.00  0.00    -0.200 F 
ATOM     59  C   UNL A   1      34.777  32.463  29.739  1.00  0.00     0.200 A 
ATOM     60  F   UNL A   1      35.034  32.338  27.397  1.00  0.00    -0.200 F 
ATOM     61  F   UNL A   1      33.590  33.068  29.592  1.00  0.00    -0.200 F 
ENDBRANCH  27  51
BRANCH  39  62
ATOM     62  C   UNL A   1      42.267  30.443  33.798  1.00  0.00     0.064 A 
ATOM     63  C   UNL A   1      41.968  29.099  33.533  1.00  0.00     0.173 A 
ATOM     64  C   UNL A   1      42.413  30.834  35.135  1.00  0.00     0.173 A 
ATOM     65  F   UNL A   1      41.900  28.649  32.271  1.00  0.00    -0.203 F 
ATOM     66  C   UNL A   1      41.775  28.192  34.571  1.00  0.00     0.198 A 
ATOM     67  C   UNL A   1      42.248  29.920  36.170  1.00  0.00     0.198 A 
ATOM     68  F   UNL A   1      42.753  32.099  35.435  1.00  0.00    -0.203 F 
ATOM     69  F   UNL A   1      41.476  26.913  34.300  1.00  0.00    -0.200 F 
ATOM     70  C   UNL A   1      41.919  28.602  35.888  1.00  0.00     0.200 A 
ATOM     71  F   UNL A   1      42.428  30.307  37.441  1.00  0.00    -0.200 F 
ATOM     72  F   UNL A   1      41.762  27.722  36.887  1.00  0.00    -0.200 F 
ENDBRANCH  39  62
ENDBRANCH  13  14
ENDBRANCH   6   8
ENDBRANCH   3   4
ENDBRANCH   2   3
ENDBRANCH   1   2
BRANCH   1  73
ATOM     73  C   UNL A   1      38.579  23.833  26.408  1.00  0.00     0.002 C 
BRANCH  73  74
ATOM     74  C   UNL A   1      37.401  23.195  25.662  1.00  0.00     0.021 C 
BRANCH  74  75
ATOM     75  C   UNL A   1      36.267  24.142  25.283  1.00  0.00     0.116 C 
BRANCH  75  76
ATOM     76  N   UNL A   1      35.601  23.759  24.049  1.00  0.00    -0.352 N 
ATOM     77  C   UNL A   1      34.361  24.136  23.588  1.00  0.00     0.256 C 
ATOM     78  H   UNL A   1      36.104  23.148  23.464  1.00  0.00     0.163 HD
ATOM     79  O   UNL A   1      33.992  23.752  22.480  1.00  0.00    -0.269 OA
BRANCH  77  80
ATOM     80  C   UNL A   1      33.549  24.989  24.421  1.00  0.00     0.100 A 
ATOM     81  C   UNL A   1      32.750  24.704  25.553  1.00  0.00     0.080 A 
ATOM     82  C   UNL A   1      33.363  26.344  24.231  1.00  0.00     0.145 A 
ATOM     83  N   UNL A   1      32.249  25.812  26.110  1.00  0.00    -0.170 NA
ATOM     84  N   UNL A   1      32.625  26.827  25.291  1.00  0.00    -0.221 N 
ATOM     85  Cl  UNL A   1      34.052  27.356  23.036  1.00  0.00    -0.061 Cl
BRANCH  81  86
ATOM     86  C   UNL A   1      32.443  23.377  26.238  1.00  0.00     0.041 C 
ATOM     87  C   UNL A   1      31.107  23.063  26.866  1.00  0.00     0.011 C 
ATOM     88  C   UNL A   1      31.492  22.400  25.587  1.00  0.00     0.011 C 
ENDBRANCH  81  86
BRANCH  84  89
ATOM     89  C   UNL A   1      32.300  28.160  25.671  1.00  0.00     0.069 A 
ATOM     90  C   UNL A   1      32.935  28.705  26.803  1.00  0.00     0.030 A 
ATOM     91  C   UNL A   1      31.391  28.939  24.952  1.00  0.00     0.069 A 
ATOM     92  C   UNL A   1      32.709  30.035  27.171  1.00  0.00     0.026 A 
ATOM     93  C   UNL A   1      31.154  30.257  25.343  1.00  0.00     0.143 A 
ATOM     94  C   UNL A   1      31.818  30.813  26.434  1.00  0.00     0.076 A 
ATOM     95  F   UNL A   1      30.266  30.979  24.645  1.00  0.00    -0.205 F 
ATOM     96  Cl  UNL A   1      31.552  32.451  26.887  1.00  0.00    -0.081 Cl
ENDBRANCH  84  89
ENDBRANCH  77  80
ENDBRANCH  75  76
ENDBRANCH  74  75
ENDBRANCH  73  74
ENDBRANCH   1  73
TORSDOF 15
ENDMDL
