MODEL 1
REMARK VINA RESULT:     -17.7      0.000      0.000
REMARK SMILES CC1=C(C)C[C@@H](C(=O)NCCCCCCNC(=O)c2ccc(-c3c4nc(c(-c5c(F)c(F)c(F)c(F)c5F)c5ccc([nH]5)c(-c5c(F)c(F)c(F)c(F)c5F)c5nc(c(-c6c(F)c(F)c(F)c(F)c6F)c6ccc3[nH]6)C=C5)C=C4)cc2)[C@@H](C(=O)N2CCN(c3cccc(C(F)(F)F)c3)CC2)C1
REMARK SMILES IDX 12 1 11 2 10 3 9 4 7 5 8 6 6 8 1 9 2 10 3 11 101 12 4 13
REMARK SMILES IDX 5 14 82 15 83 16 84 17 85 18 86 19 100 20 87 21 99 22 88 23
REMARK SMILES IDX 89 24 90 25 98 26 91 27 93 28 92 29 94 30 95 31 96 32 97 33
REMARK SMILES IDX 13 34 14 35 15 36 16 37 17 38 18 40 19 41 20 42 81 43 21 44
REMARK SMILES IDX 80 45 22 46 23 47 24 48 74 49 25 50 79 51 73 52 75 53 26 54
REMARK SMILES IDX 78 55 72 56 71 57 27 59 59 60 39 61 58 62 40 63 43 64 57 65
REMARK SMILES IDX 76 66 41 67 42 68 56 70 77 71 44 72 28 73 29 74 37 75 30 76
REMARK SMILES IDX 31 77 35 78 38 79 32 80 33 81 36 82 34 83 60 84 61 85 69 86
REMARK SMILES IDX 62 87 63 88 67 89 70 90 64 91 65 92 68 93 66 94 45 95 46 96
REMARK SMILES IDX 54 97 47 98 48 99 52 100 55 101 49 102 50 103 53 104 51 105
REMARK H PARENT 9 7 16 39 75 58 43 69
REMARK Flexibility Score: inf
ROOT
ATOM      1  C   UNL A   1      39.836  23.862  27.863  1.00  0.00     0.002 C 
ENDROOT
BRANCH   1   2
ATOM      2  C   UNL A   1      38.538  23.368  26.217  1.00  0.00     0.021 C 
BRANCH   2   3
ATOM      3  C   UNL A   1      36.865  23.933  25.850  1.00  0.00     0.116 C 
BRANCH   3   4
ATOM      4  N   UNL A   1      36.192  23.781  24.572  1.00  0.00    -0.356 N 
ATOM      5  C   UNL A   1      35.404  22.750  24.143  1.00  0.00     0.224 C 
ATOM      6  O   UNL A   1      35.234  22.584  22.935  1.00  0.00    -0.275 OA
ATOM      7  H   UNL A   1      36.321  24.517  23.931  1.00  0.00     0.163 HD
BRANCH   5   8
ATOM      8  C   UNL A   1      34.698  21.908  25.156  1.00  0.00     0.095 C 
ATOM      9  C   UNL A   1      34.421  17.685  23.836  1.00  0.00     0.039 C 
ATOM     10  C   UNL A   1      34.497  18.995  24.587  1.00  0.00    -0.074 C 
ATOM     11  C   UNL A   1      35.680  19.518  24.987  1.00  0.00    -0.074 C 
ATOM     12  C   UNL A   1      33.199  19.834  24.627  1.00  0.00     0.045 C 
ATOM     13  C   UNL A   1      37.042  18.957  24.620  1.00  0.00     0.039 C 
ATOM     14  C   UNL A   1      35.729  20.871  25.651  1.00  0.00     0.045 C 
ATOM     15  C   UNL A   1      33.317  21.411  24.729  1.00  0.00     0.095 C 
BRANCH  15  16
ATOM     16  C   UNL A   1      32.417  22.375  23.770  1.00  0.00     0.226 C 
ATOM     17  O   UNL A   1      32.479  22.122  22.553  1.00  0.00    -0.275 OA
ATOM     18  N   UNL A   1      31.818  23.612  24.119  1.00  0.00    -0.339 N 
ATOM     19  C   UNL A   1      30.699  23.962  25.397  1.00  0.00     0.141 C 
ATOM     20  C   UNL A   1      32.616  24.862  23.440  1.00  0.00     0.141 C 
ATOM     21  C   UNL A   1      31.257  25.298  26.815  1.00  0.00     0.138 C 
ATOM     22  C   UNL A   1      33.452  26.089  24.474  1.00  0.00     0.138 C 
ATOM     23  N   UNL A   1      32.646  26.607  26.069  1.00  0.00    -0.368 N 
BRANCH  23  24
ATOM     24  C   UNL A   1      32.379  28.429  25.717  1.00  0.00     0.037 A 
ATOM     25  C   UNL A   1      33.784  29.162  24.671  1.00  0.00     0.026 A 
ATOM     26  C   UNL A   1      30.814  28.172  24.951  1.00  0.00     0.039 A 
ATOM     27  C   UNL A   1      33.660  29.031  22.842  1.00  0.00     0.003 A 
ATOM     28  C   UNL A   1      30.628  28.201  23.232  1.00  0.00     0.058 A 
ATOM     29  C   UNL A   1      32.035  28.492  22.165  1.00  0.00     0.013 A 
BRANCH  28  30
ATOM     30  C   UNL A   1      29.232  28.843  23.022  1.00  0.00     0.416 C 
ATOM     31  F   UNL A   1      29.019  29.175  21.705  1.00  0.00    -0.166 F 
ATOM     32  F   UNL A   1      28.165  28.100  23.399  1.00  0.00    -0.166 F 
ATOM     33  F   UNL A   1      29.111  30.046  23.665  1.00  0.00    -0.166 F 
ENDBRANCH  28  30
ENDBRANCH  23  24
ENDBRANCH  15  16
ENDBRANCH   5   8
ENDBRANCH   3   4
ENDBRANCH   2   3
ENDBRANCH   1   2
BRANCH   1  34
ATOM     34  C   UNL A   1      41.580  22.850  27.638  1.00  0.00     0.002 C 
BRANCH  34  35
ATOM     35  C   UNL A   1      41.810  22.232  25.794  1.00  0.00     0.021 C 
BRANCH  35  36
ATOM     36  C   UNL A   1      43.691  22.254  25.219  1.00  0.00     0.116 C 
BRANCH  36  37
ATOM     37  N   UNL A   1      44.736  24.066  25.342  1.00  0.00    -0.352 N 
ATOM     38  C   UNL A   1      44.662  25.557  25.128  1.00  0.00     0.251 C 
ATOM     39  H   UNL A   1      45.640  23.862  25.673  1.00  0.00     0.163 HD
ATOM     40  O   UNL A   1      45.645  26.116  24.638  1.00  0.00    -0.269 OA
BRANCH  38  41
ATOM     41  C   UNL A   1      43.544  26.442  25.630  1.00  0.00     0.039 A 
ATOM     42  C   UNL A   1      42.223  26.045  25.905  1.00  0.00     0.014 A 
ATOM     43  C   UNL A   1      43.991  27.640  26.141  1.00  0.00     0.014 A 
ATOM     44  C   UNL A   1      41.470  26.728  26.898  1.00  0.00     0.010 A 
ATOM     45  C   UNL A   1      43.353  28.147  27.262  1.00  0.00     0.010 A 
ATOM     46  C   UNL A   1      42.067  27.743  27.664  1.00  0.00    -0.014 A 
BRANCH  46  47
ATOM     47  C   UNL A   1      41.462  28.469  28.843  1.00  0.00     0.031 A 
ATOM     48  C   UNL A   1      42.109  28.266  30.213  1.00  0.00     0.074 A 
ATOM     49  C   UNL A   1      40.278  29.126  28.804  1.00  0.00     0.049 A 
ATOM     50  N   UNL A   1      41.629  28.493  31.412  1.00  0.00    -0.248 NA
ATOM     51  C   UNL A   1      43.409  27.567  30.238  1.00  0.00     0.031 C 
ATOM     52  C   UNL A   1      39.418  29.317  27.634  1.00  0.00     0.029 A 
ATOM     53  N   UNL A   1      39.571  29.746  29.818  1.00  0.00    -0.354 N 
ATOM     54  C   UNL A   1      42.509  27.851  32.276  1.00  0.00     0.074 A 
ATOM     55  C   UNL A   1      43.402  27.069  31.462  1.00  0.00     0.031 C 
ATOM     56  C   UNL A   1      38.340  30.047  27.984  1.00  0.00     0.029 A 
ATOM     57  C   UNL A   1      38.410  30.364  29.409  1.00  0.00     0.049 A 
ATOM     58  H   UNL A   1      39.873  29.746  30.755  1.00  0.00     0.167 HD
ATOM     59  C   UNL A   1      42.664  27.979  33.615  1.00  0.00     0.037 A 
ATOM     60  C   UNL A   1      37.527  31.119  30.099  1.00  0.00     0.037 A 
ATOM     61  C   UNL A   1      41.899  28.899  34.403  1.00  0.00     0.049 A 
ATOM     62  C   UNL A   1      37.757  31.366  31.575  1.00  0.00     0.074 A 
ATOM     63  C   UNL A   1      42.078  29.268  35.721  1.00  0.00     0.029 A 
ATOM     64  N   UNL A   1      40.820  29.620  33.919  1.00  0.00    -0.354 N 
ATOM     65  N   UNL A   1      38.692  30.889  32.362  1.00  0.00    -0.248 NA
ATOM     66  C   UNL A   1      36.818  32.275  32.255  1.00  0.00     0.031 C 
ATOM     67  C   UNL A   1      41.069  30.178  36.053  1.00  0.00     0.029 A 
ATOM     68  C   UNL A   1      40.301  30.415  34.923  1.00  0.00     0.049 A 
ATOM     69  H   UNL A   1      40.475  29.573  32.998  1.00  0.00     0.167 HD
ATOM     70  C   UNL A   1      38.482  31.470  33.608  1.00  0.00     0.074 A 
ATOM     71  C   UNL A   1      37.338  32.345  33.473  1.00  0.00     0.031 C 
ATOM     72  C   UNL A   1      39.175  31.298  34.762  1.00  0.00     0.037 A 
BRANCH  59  73
ATOM     73  C   UNL A   1      43.751  27.171  34.278  1.00  0.00     0.064 A 
ATOM     74  C   UNL A   1      45.083  27.622  34.345  1.00  0.00     0.173 A 
ATOM     75  C   UNL A   1      43.465  25.918  34.839  1.00  0.00     0.173 A 
ATOM     76  F   UNL A   1      45.421  28.816  33.830  1.00  0.00    -0.203 F 
ATOM     77  C   UNL A   1      46.092  26.820  34.867  1.00  0.00     0.198 A 
ATOM     78  C   UNL A   1      44.470  25.141  35.412  1.00  0.00     0.198 A 
ATOM     79  F   UNL A   1      42.213  25.440  34.826  1.00  0.00    -0.203 F 
ATOM     80  F   UNL A   1      47.367  27.234  34.817  1.00  0.00    -0.200 F 
ATOM     81  C   UNL A   1      45.785  25.583  35.407  1.00  0.00     0.200 A 
ATOM     82  F   UNL A   1      44.168  23.955  35.957  1.00  0.00    -0.200 F 
ATOM     83  F   UNL A   1      46.756  24.811  35.913  1.00  0.00    -0.200 F 
ENDBRANCH  59  73
BRANCH  60  84
ATOM     84  C   UNL A   1      36.410  31.818  29.394  1.00  0.00     0.064 A 
ATOM     85  C   UNL A   1      35.322  31.080  28.897  1.00  0.00     0.173 A 
ATOM     86  C   UNL A   1      36.398  33.204  29.182  1.00  0.00     0.173 A 
ATOM     87  F   UNL A   1      35.299  29.748  29.040  1.00  0.00    -0.203 F 
ATOM     88  C   UNL A   1      34.276  31.696  28.209  1.00  0.00     0.198 A 
ATOM     89  C   UNL A   1      35.337  33.823  28.515  1.00  0.00     0.198 A 
ATOM     90  F   UNL A   1      37.411  33.960  29.626  1.00  0.00    -0.203 F 
ATOM     91  F   UNL A   1      33.276  30.956  27.711  1.00  0.00    -0.200 F 
ATOM     92  C   UNL A   1      34.281  33.069  28.026  1.00  0.00     0.200 A 
ATOM     93  F   UNL A   1      35.339  35.152  28.344  1.00  0.00    -0.200 F 
ATOM     94  F   UNL A   1      33.271  33.663  27.374  1.00  0.00    -0.200 F 
ENDBRANCH  60  84
BRANCH  72  95
ATOM     95  C   UNL A   1      38.754  32.092  35.962  1.00  0.00     0.064 A 
ATOM     96  C   UNL A   1      38.016  31.513  37.005  1.00  0.00     0.173 A 
ATOM     97  C   UNL A   1      39.167  33.425  36.108  1.00  0.00     0.173 A 
ATOM     98  F   UNL A   1      37.596  30.243  36.910  1.00  0.00    -0.203 F 
ATOM     99  C   UNL A   1      37.686  32.250  38.139  1.00  0.00     0.198 A 
ATOM    100  C   UNL A   1      38.864  34.147  37.258  1.00  0.00     0.198 A 
ATOM    101  F   UNL A   1      39.889  34.020  35.146  1.00  0.00    -0.203 F 
ATOM    102  F   UNL A   1      36.944  31.690  39.104  1.00  0.00    -0.200 F 
ATOM    103  C   UNL A   1      38.118  33.562  38.269  1.00  0.00     0.200 A 
ATOM    104  F   UNL A   1      39.302  35.407  37.391  1.00  0.00    -0.200 F 
ATOM    105  F   UNL A   1      37.812  34.264  39.369  1.00  0.00    -0.200 F 
ENDBRANCH  72  95
ENDBRANCH  46  47
ENDBRANCH  38  41
ENDBRANCH  36  37
ENDBRANCH  35  36
ENDBRANCH  34  35
ENDBRANCH   1  34
TORSDOF 16
ENDMDL
MODEL 2
REMARK VINA RESULT:     -17.0      4.734      7.669
REMARK SMILES CC1=C(C)C[C@@H](C(=O)NCCCCCCNC(=O)c2ccc(-c3c4nc(c(-c5c(F)c(F)c(F)c(F)c5F)c5ccc([nH]5)c(-c5c(F)c(F)c(F)c(F)c5F)c5nc(c(-c6c(F)c(F)c(F)c(F)c6F)c6ccc3[nH]6)C=C5)C=C4)cc2)[C@@H](C(=O)N2CCN(c3cccc(C(F)(F)F)c3)CC2)C1
REMARK SMILES IDX 12 1 11 2 10 3 9 4 7 5 8 6 6 8 1 9 2 10 3 11 101 12 4 13
REMARK SMILES IDX 5 14 82 15 83 16 84 17 85 18 86 19 100 20 87 21 99 22 88 23
REMARK SMILES IDX 89 24 90 25 98 26 91 27 93 28 92 29 94 30 95 31 96 32 97 33
REMARK SMILES IDX 13 34 14 35 15 36 16 37 17 38 18 40 19 41 20 42 81 43 21 44
REMARK SMILES IDX 80 45 22 46 23 47 24 48 74 49 25 50 79 51 73 52 75 53 26 54
REMARK SMILES IDX 78 55 72 56 71 57 27 59 59 60 39 61 58 62 40 63 43 64 57 65
REMARK SMILES IDX 76 66 41 67 42 68 56 70 77 71 44 72 28 73 29 74 37 75 30 76
REMARK SMILES IDX 31 77 35 78 38 79 32 80 33 81 36 82 34 83 60 84 61 85 69 86
REMARK SMILES IDX 62 87 63 88 67 89 70 90 64 91 65 92 68 93 66 94 45 95 46 96
REMARK SMILES IDX 54 97 47 98 48 99 52 100 55 101 49 102 50 103 53 104 51 105
REMARK H PARENT 9 7 16 39 75 58 43 69
REMARK Flexibility Score: inf
ROOT
ATOM      1  C   UNL A   1      39.546  23.611  26.891  1.00  0.00     0.002 C 
ENDROOT
BRANCH   1   2
ATOM      2  C   UNL A   1      37.684  22.993  26.003  1.00  0.00     0.021 C 
BRANCH   2   3
ATOM      3  C   UNL A   1      36.297  23.982  25.410  1.00  0.00     0.116 C 
BRANCH   3   4
ATOM      4  N   UNL A   1      35.576  23.755  24.171  1.00  0.00    -0.356 N 
ATOM      5  C   UNL A   1      34.683  22.764  23.875  1.00  0.00     0.224 C 
ATOM      6  O   UNL A   1      34.463  22.481  22.697  1.00  0.00    -0.275 OA
ATOM      7  H   UNL A   1      35.756  24.399  23.448  1.00  0.00     0.163 HD
BRANCH   5   8
ATOM      8  C   UNL A   1      33.930  22.111  24.990  1.00  0.00     0.095 C 
ATOM      9  C   UNL A   1      33.049  17.864  24.077  1.00  0.00     0.039 C 
ATOM     10  C   UNL A   1      33.330  19.213  24.700  1.00  0.00    -0.074 C 
ATOM     11  C   UNL A   1      34.590  19.608  25.001  1.00  0.00    -0.074 C 
ATOM     12  C   UNL A   1      32.154  20.215  24.716  1.00  0.00     0.045 C 
ATOM     13  C   UNL A   1      35.848  18.843  24.630  1.00  0.00     0.039 C 
ATOM     14  C   UNL A   1      34.846  20.994  25.535  1.00  0.00     0.045 C 
ATOM     15  C   UNL A   1      32.476  21.766  24.669  1.00  0.00     0.095 C 
BRANCH  15  16
ATOM     16  C   UNL A   1      31.657  22.754  23.663  1.00  0.00     0.226 C 
ATOM     17  O   UNL A   1      31.371  22.267  22.554  1.00  0.00    -0.275 OA
ATOM     18  N   UNL A   1      31.490  24.157  23.788  1.00  0.00    -0.339 N 
ATOM     19  C   UNL A   1      30.822  25.064  25.107  1.00  0.00     0.141 C 
ATOM     20  C   UNL A   1      32.403  24.955  22.697  1.00  0.00     0.141 C 
ATOM     21  C   UNL A   1      32.012  26.415  26.036  1.00  0.00     0.138 C 
ATOM     22  C   UNL A   1      33.738  26.048  23.241  1.00  0.00     0.138 C 
ATOM     23  N   UNL A   1      33.480  27.079  24.768  1.00  0.00    -0.368 N 
BRANCH  23  24
ATOM     24  C   UNL A   1      33.613  28.795  24.025  1.00  0.00     0.037 A 
ATOM     25  C   UNL A   1      32.606  28.953  22.423  1.00  0.00     0.026 A 
ATOM     26  C   UNL A   1      33.010  29.596  25.473  1.00  0.00     0.039 A 
ATOM     27  C   UNL A   1      30.830  29.404  22.558  1.00  0.00     0.003 A 
ATOM     28  C   UNL A   1      31.385  30.180  25.578  1.00  0.00     0.058 A 
ATOM     29  C   UNL A   1      30.252  29.982  24.207  1.00  0.00     0.013 A 
BRANCH  28  30
ATOM     30  C   UNL A   1      31.513  31.476  26.420  1.00  0.00     0.416 C 
ATOM     31  F   UNL A   1      30.716  31.434  27.540  1.00  0.00    -0.166 F 
ATOM     32  F   UNL A   1      32.754  31.792  26.855  1.00  0.00    -0.166 F 
ATOM     33  F   UNL A   1      31.045  32.577  25.753  1.00  0.00    -0.166 F 
ENDBRANCH  28  30
ENDBRANCH  23  24
ENDBRANCH  15  16
ENDBRANCH   5   8
ENDBRANCH   3   4
ENDBRANCH   2   3
ENDBRANCH   1   2
BRANCH   1  34
ATOM     34  C   UNL A   1      40.997  22.309  26.325  1.00  0.00     0.002 C 
BRANCH  34  35
ATOM     35  C   UNL A   1      41.726  21.345  27.865  1.00  0.00     0.021 C 
BRANCH  35  36
ATOM     36  C   UNL A   1      42.053  19.444  27.479  1.00  0.00     0.116 C 
BRANCH  36  37
ATOM     37  N   UNL A   1      43.569  18.965  26.113  1.00  0.00    -0.352 N 
ATOM     38  C   UNL A   1      44.314  19.412  24.882  1.00  0.00     0.251 C 
ATOM     39  H   UNL A   1      43.946  18.097  26.386  1.00  0.00     0.163 HD
ATOM     40  O   UNL A   1      44.588  18.559  24.034  1.00  0.00    -0.269 OA
BRANCH  38  41
ATOM     41  C   UNL A   1      44.905  20.790  24.688  1.00  0.00     0.039 A 
ATOM     42  C   UNL A   1      44.526  21.732  23.714  1.00  0.00     0.014 A 
ATOM     43  C   UNL A   1      45.637  21.221  25.771  1.00  0.00     0.014 A 
ATOM     44  C   UNL A   1      44.665  23.120  23.980  1.00  0.00     0.010 A 
ATOM     45  C   UNL A   1      45.551  22.559  26.123  1.00  0.00     0.010 A 
ATOM     46  C   UNL A   1      45.099  23.558  25.241  1.00  0.00    -0.014 A 
BRANCH  46  47
ATOM     47  C   UNL A   1      45.169  24.984  25.736  1.00  0.00     0.031 A 
ATOM     48  C   UNL A   1      46.521  25.695  25.674  1.00  0.00     0.074 A 
ATOM     49  C   UNL A   1      44.169  25.605  26.407  1.00  0.00     0.049 A 
ATOM     50  N   UNL A   1      46.938  26.766  26.305  1.00  0.00    -0.248 NA
ATOM     51  C   UNL A   1      47.595  25.016  24.922  1.00  0.00     0.031 C 
ATOM     52  C   UNL A   1      42.844  25.060  26.709  1.00  0.00     0.029 A 
ATOM     53  N   UNL A   1      44.134  26.858  26.991  1.00  0.00    -0.354 N 
ATOM     54  C   UNL A   1      48.316  26.779  26.113  1.00  0.00     0.074 A 
ATOM     55  C   UNL A   1      48.667  25.523  25.505  1.00  0.00     0.031 C 
ATOM     56  C   UNL A   1      42.117  25.986  27.366  1.00  0.00     0.029 A 
ATOM     57  C   UNL A   1      42.923  27.190  27.557  1.00  0.00     0.049 A 
ATOM     58  H   UNL A   1      44.910  27.464  27.001  1.00  0.00     0.167 HD
ATOM     59  C   UNL A   1      49.211  27.778  26.298  1.00  0.00     0.037 A 
ATOM     60  C   UNL A   1      42.509  28.340  28.135  1.00  0.00     0.037 A 
ATOM     61  C   UNL A   1      48.835  29.092  26.726  1.00  0.00     0.049 A 
ATOM     62  C   UNL A   1      43.470  29.505  28.239  1.00  0.00     0.074 A 
ATOM     63  C   UNL A   1      49.600  30.241  26.772  1.00  0.00     0.029 A 
ATOM     64  N   UNL A   1      47.562  29.431  27.154  1.00  0.00    -0.354 N 
ATOM     65  N   UNL A   1      44.736  29.571  27.902  1.00  0.00    -0.248 NA
ATOM     66  C   UNL A   1      42.938  30.763  28.788  1.00  0.00     0.031 C 
ATOM     67  C   UNL A   1      48.800  31.269  27.281  1.00  0.00     0.029 A 
ATOM     68  C   UNL A   1      47.524  30.769  27.496  1.00  0.00     0.049 A 
ATOM     69  H   UNL A   1      46.799  28.811  27.207  1.00  0.00     0.167 HD
ATOM     70  C   UNL A   1      45.136  30.880  28.153  1.00  0.00     0.074 A 
ATOM     71  C   UNL A   1      43.976  31.579  28.662  1.00  0.00     0.031 C 
ATOM     72  C   UNL A   1      46.353  31.453  27.978  1.00  0.00     0.037 A 
BRANCH  59  73
ATOM     73  C   UNL A   1      50.653  27.502  25.954  1.00  0.00     0.064 A 
ATOM     74  C   UNL A   1      51.591  27.108  26.927  1.00  0.00     0.173 A 
ATOM     75  C   UNL A   1      51.113  27.653  24.638  1.00  0.00     0.173 A 
ATOM     76  F   UNL A   1      51.213  26.942  28.206  1.00  0.00    -0.203 F 
ATOM     77  C   UNL A   1      52.938  26.959  26.614  1.00  0.00     0.198 A 
ATOM     78  C   UNL A   1      52.454  27.448  24.317  1.00  0.00     0.198 A 
ATOM     79  F   UNL A   1      50.266  28.008  23.661  1.00  0.00    -0.203 F 
ATOM     80  F   UNL A   1      53.824  26.689  27.584  1.00  0.00    -0.200 F 
ATOM     81  C   UNL A   1      53.369  27.123  25.308  1.00  0.00     0.200 A 
ATOM     82  F   UNL A   1      52.865  27.581  23.049  1.00  0.00    -0.200 F 
ATOM     83  F   UNL A   1      54.665  26.975  25.005  1.00  0.00    -0.200 F 
ENDBRANCH  59  73
BRANCH  60  84
ATOM     84  C   UNL A   1      41.082  28.515  28.543  1.00  0.00     0.064 A 
ATOM     85  C   UNL A   1      40.678  28.179  29.847  1.00  0.00     0.173 A 
ATOM     86  C   UNL A   1      40.097  28.993  27.667  1.00  0.00     0.173 A 
ATOM     87  F   UNL A   1      41.571  27.684  30.715  1.00  0.00    -0.203 F 
ATOM     88  C   UNL A   1      39.349  28.303  30.253  1.00  0.00     0.198 A 
ATOM     89  C   UNL A   1      38.771  29.140  28.083  1.00  0.00     0.198 A 
ATOM     90  F   UNL A   1      40.419  29.322  26.409  1.00  0.00    -0.203 F 
ATOM     91  F   UNL A   1      38.991  27.933  31.490  1.00  0.00    -0.200 F 
ATOM     92  C   UNL A   1      38.398  28.792  29.373  1.00  0.00     0.200 A 
ATOM     93  F   UNL A   1      37.852  29.620  27.234  1.00  0.00    -0.200 F 
ATOM     94  F   UNL A   1      37.123  28.920  29.766  1.00  0.00    -0.200 F 
ENDBRANCH  60  84
BRANCH  72  95
ATOM     95  C   UNL A   1      46.496  32.912  28.293  1.00  0.00     0.064 A 
ATOM     96  C   UNL A   1      46.916  33.354  29.556  1.00  0.00     0.173 A 
ATOM     97  C   UNL A   1      46.292  33.875  27.293  1.00  0.00     0.173 A 
ATOM     98  F   UNL A   1      47.121  32.472  30.545  1.00  0.00    -0.203 F 
ATOM     99  C   UNL A   1      47.102  34.709  29.812  1.00  0.00     0.198 A 
ATOM    100  C   UNL A   1      46.511  35.226  27.543  1.00  0.00     0.198 A 
ATOM    101  F   UNL A   1      45.906  33.502  26.063  1.00  0.00    -0.203 F 
ATOM    102  F   UNL A   1      47.462  35.113  31.038  1.00  0.00    -0.200 F 
ATOM    103  C   UNL A   1      46.909  35.643  28.804  1.00  0.00     0.200 A 
ATOM    104  F   UNL A   1      46.346  36.122  26.561  1.00  0.00    -0.200 F 
ATOM    105  F   UNL A   1      47.104  36.945  29.049  1.00  0.00    -0.200 F 
ENDBRANCH  72  95
ENDBRANCH  46  47
ENDBRANCH  38  41
ENDBRANCH  36  37
ENDBRANCH  35  36
ENDBRANCH  34  35
ENDBRANCH   1  34
TORSDOF 16
ENDMDL
MODEL 3
REMARK VINA RESULT:     -16.9      1.358      2.051
REMARK SMILES CC1=C(C)C[C@@H](C(=O)NCCCCCCNC(=O)c2ccc(-c3c4nc(c(-c5c(F)c(F)c(F)c(F)c5F)c5ccc([nH]5)c(-c5c(F)c(F)c(F)c(F)c5F)c5nc(c(-c6c(F)c(F)c(F)c(F)c6F)c6ccc3[nH]6)C=C5)C=C4)cc2)[C@@H](C(=O)N2CCN(c3cccc(C(F)(F)F)c3)CC2)C1
REMARK SMILES IDX 12 1 11 2 10 3 9 4 7 5 8 6 6 8 1 9 2 10 3 11 101 12 4 13
REMARK SMILES IDX 5 14 82 15 83 16 84 17 85 18 86 19 100 20 87 21 99 22 88 23
REMARK SMILES IDX 89 24 90 25 98 26 91 27 93 28 92 29 94 30 95 31 96 32 97 33
REMARK SMILES IDX 13 34 14 35 15 36 16 37 17 38 18 40 19 41 20 42 81 43 21 44
REMARK SMILES IDX 80 45 22 46 23 47 24 48 74 49 25 50 79 51 73 52 75 53 26 54
REMARK SMILES IDX 78 55 72 56 71 57 27 59 59 60 39 61 58 62 40 63 43 64 57 65
REMARK SMILES IDX 76 66 41 67 42 68 56 70 77 71 44 72 28 73 29 74 37 75 30 76
REMARK SMILES IDX 31 77 35 78 38 79 32 80 33 81 36 82 34 83 60 84 61 85 69 86
REMARK SMILES IDX 62 87 63 88 67 89 70 90 64 91 65 92 68 93 66 94 45 95 46 96
REMARK SMILES IDX 54 97 47 98 48 99 52 100 55 101 49 102 50 103 53 104 51 105
REMARK H PARENT 9 7 16 39 75 58 43 69
REMARK Flexibility Score: inf
ROOT
ATOM      1  C   UNL A   1      38.602  24.765  27.717  1.00  0.00     0.002 C 
ENDROOT
BRANCH   1   2
ATOM      2  C   UNL A   1      36.718  24.364  26.755  1.00  0.00     0.021 C 
BRANCH   2   3
ATOM      3  C   UNL A   1      35.861  22.799  26.490  1.00  0.00     0.116 C 
BRANCH   3   4
ATOM      4  N   UNL A   1      36.252  21.783  25.528  1.00  0.00    -0.356 N 
ATOM      5  C   UNL A   1      35.571  20.660  25.153  1.00  0.00     0.224 C 
ATOM      6  O   UNL A   1      36.186  19.724  24.641  1.00  0.00    -0.275 OA
ATOM      7  H   UNL A   1      37.124  21.921  25.091  1.00  0.00     0.163 HD
BRANCH   5   8
ATOM      8  C   UNL A   1      34.082  20.635  25.293  1.00  0.00     0.095 C 
ATOM      9  C   UNL A   1      32.228  17.879  22.358  1.00  0.00     0.039 C 
ATOM     10  C   UNL A   1      32.591  18.756  23.535  1.00  0.00    -0.074 C 
ATOM     11  C   UNL A   1      33.284  18.273  24.594  1.00  0.00    -0.074 C 
ATOM     12  C   UNL A   1      32.380  20.275  23.344  1.00  0.00     0.045 C 
ATOM     13  C   UNL A   1      33.892  16.884  24.670  1.00  0.00     0.039 C 
ATOM     14  C   UNL A   1      33.710  19.196  25.708  1.00  0.00     0.045 C 
ATOM     15  C   UNL A   1      33.317  21.278  24.136  1.00  0.00     0.095 C 
BRANCH  15  16
ATOM     16  C   UNL A   1      33.998  22.552  23.380  1.00  0.00     0.226 C 
ATOM     17  O   UNL A   1      35.203  22.421  23.096  1.00  0.00    -0.275 OA
ATOM     18  N   UNL A   1      33.472  23.865  23.270  1.00  0.00    -0.339 N 
ATOM     19  C   UNL A   1      31.951  24.381  22.615  1.00  0.00     0.141 C 
ATOM     20  C   UNL A   1      34.277  24.901  24.238  1.00  0.00     0.141 C 
ATOM     21  C   UNL A   1      30.661  25.348  23.843  1.00  0.00     0.138 C 
ATOM     22  C   UNL A   1      33.430  25.726  25.607  1.00  0.00     0.138 C 
ATOM     23  N   UNL A   1      31.672  26.281  25.363  1.00  0.00    -0.368 N 
BRANCH  23  24
ATOM     24  C   UNL A   1      31.884  28.131  25.584  1.00  0.00     0.037 A 
ATOM     25  C   UNL A   1      33.552  28.738  24.912  1.00  0.00     0.026 A 
ATOM     26  C   UNL A   1      30.425  28.524  24.678  1.00  0.00     0.039 A 
ATOM     27  C   UNL A   1      33.661  29.174  23.130  1.00  0.00     0.003 A 
ATOM     28  C   UNL A   1      30.496  29.093  23.046  1.00  0.00     0.058 A 
ATOM     29  C   UNL A   1      32.068  29.298  22.216  1.00  0.00     0.013 A 
BRANCH  28  30
ATOM     30  C   UNL A   1      29.329  30.111  22.960  1.00  0.00     0.416 C 
ATOM     31  F   UNL A   1      28.109  29.499  23.130  1.00  0.00    -0.166 F 
ATOM     32  F   UNL A   1      29.360  31.138  23.840  1.00  0.00    -0.166 F 
ATOM     33  F   UNL A   1      29.220  30.672  21.715  1.00  0.00    -0.166 F 
ENDBRANCH  28  30
ENDBRANCH  23  24
ENDBRANCH  15  16
ENDBRANCH   5   8
ENDBRANCH   3   4
ENDBRANCH   2   3
ENDBRANCH   1   2
BRANCH   1  34
ATOM     34  C   UNL A   1      40.088  23.972  26.585  1.00  0.00     0.002 C 
BRANCH  34  35
ATOM     35  C   UNL A   1      39.983  22.017  26.543  1.00  0.00     0.021 C 
BRANCH  35  36
ATOM     36  C   UNL A   1      41.750  21.170  26.372  1.00  0.00     0.116 C 
BRANCH  36  37
ATOM     37  N   UNL A   1      43.310  22.305  25.552  1.00  0.00    -0.352 N 
ATOM     38  C   UNL A   1      43.882  23.690  25.389  1.00  0.00     0.251 C 
ATOM     39  H   UNL A   1      43.912  21.681  25.085  1.00  0.00     0.163 HD
ATOM     40  O   UNL A   1      44.358  23.989  24.292  1.00  0.00    -0.269 OA
BRANCH  38  41
ATOM     41  C   UNL A   1      44.076  24.678  26.518  1.00  0.00     0.039 A 
ATOM     42  C   UNL A   1      44.414  26.037  26.389  1.00  0.00     0.014 A 
ATOM     43  C   UNL A   1      43.558  24.238  27.715  1.00  0.00     0.014 A 
ATOM     44  C   UNL A   1      43.982  26.969  27.370  1.00  0.00     0.010 A 
ATOM     45  C   UNL A   1      42.940  25.168  28.536  1.00  0.00     0.010 A 
ATOM     46  C   UNL A   1      43.150  26.554  28.422  1.00  0.00    -0.014 A 
BRANCH  46  47
ATOM     47  C   UNL A   1      42.491  27.431  29.462  1.00  0.00     0.031 A 
ATOM     48  C   UNL A   1      43.103  27.457  30.862  1.00  0.00     0.074 A 
ATOM     49  C   UNL A   1      41.291  28.036  29.295  1.00  0.00     0.049 A 
ATOM     50  N   UNL A   1      42.582  27.847  32.002  1.00  0.00    -0.248 NA
ATOM     51  C   UNL A   1      44.421  26.811  31.025  1.00  0.00     0.031 C 
ATOM     52  C   UNL A   1      40.460  28.021  28.089  1.00  0.00     0.029 A 
ATOM     53  N   UNL A   1      40.538  28.779  30.186  1.00  0.00    -0.354 N 
ATOM     54  C   UNL A   1      43.455  27.370  32.975  1.00  0.00     0.074 A 
ATOM     55  C   UNL A   1      44.392  26.504  32.310  1.00  0.00     0.031 C 
ATOM     56  C   UNL A   1      39.353  28.760  28.298  1.00  0.00     0.029 A 
ATOM     57  C   UNL A   1      39.372  29.290  29.659  1.00  0.00     0.049 A 
ATOM     58  H   UNL A   1      40.812  28.929  31.119  1.00  0.00     0.167 HD
ATOM     59  C   UNL A   1      43.567  27.704  34.282  1.00  0.00     0.037 A 
ATOM     60  C   UNL A   1      38.449  30.112  30.205  1.00  0.00     0.037 A 
ATOM     61  C   UNL A   1      42.753  28.707  34.902  1.00  0.00     0.049 A 
ATOM     62  C   UNL A   1      38.629  30.586  31.632  1.00  0.00     0.074 A 
ATOM     63  C   UNL A   1      42.884  29.276  36.154  1.00  0.00     0.029 A 
ATOM     64  N   UNL A   1      41.670  29.312  34.288  1.00  0.00    -0.354 N 
ATOM     65  N   UNL A   1      39.553  30.263  32.505  1.00  0.00    -0.248 NA
ATOM     66  C   UNL A   1      37.646  31.556  32.143  1.00  0.00     0.031 C 
ATOM     67  C   UNL A   1      41.841  30.193  36.318  1.00  0.00     0.029 A 
ATOM     68  C   UNL A   1      41.100  30.232  35.147  1.00  0.00     0.049 A 
ATOM     69  H   UNL A   1      41.353  29.116  33.377  1.00  0.00     0.167 HD
ATOM     70  C   UNL A   1      39.291  31.018  33.644  1.00  0.00     0.074 A 
ATOM     71  C   UNL A   1      38.127  31.825  33.350  1.00  0.00     0.031 C 
ATOM     72  C   UNL A   1      39.955  31.044  34.826  1.00  0.00     0.037 A 
BRANCH  59  73
ATOM     73  C   UNL A   1      44.656  27.040  35.086  1.00  0.00     0.064 A 
ATOM     74  C   UNL A   1      44.432  25.856  35.814  1.00  0.00     0.173 A 
ATOM     75  C   UNL A   1      45.938  27.604  35.150  1.00  0.00     0.173 A 
ATOM     76  F   UNL A   1      43.226  25.264  35.790  1.00  0.00    -0.203 F 
ATOM     77  C   UNL A   1      45.417  25.314  36.633  1.00  0.00     0.198 A 
ATOM     78  C   UNL A   1      46.939  27.027  35.929  1.00  0.00     0.198 A 
ATOM     79  F   UNL A   1      46.222  28.721  34.465  1.00  0.00    -0.203 F 
ATOM     80  F   UNL A   1      45.137  24.247  37.396  1.00  0.00    -0.200 F 
ATOM     81  C   UNL A   1      46.672  25.895  36.686  1.00  0.00     0.200 A 
ATOM     82  F   UNL A   1      48.162  27.575  35.959  1.00  0.00    -0.200 F 
ATOM     83  F   UNL A   1      47.622  25.371  37.472  1.00  0.00    -0.200 F 
ENDBRANCH  59  73
BRANCH  60  84
ATOM     84  C   UNL A   1      37.334  30.661  29.376  1.00  0.00     0.064 A 
ATOM     85  C   UNL A   1      36.219  29.858  29.077  1.00  0.00     0.173 A 
ATOM     86  C   UNL A   1      37.348  31.961  28.852  1.00  0.00     0.173 A 
ATOM     87  F   UNL A   1      36.169  28.595  29.522  1.00  0.00    -0.203 F 
ATOM     88  C   UNL A   1      35.174  30.328  28.281  1.00  0.00     0.198 A 
ATOM     89  C   UNL A   1      36.289  32.440  28.076  1.00  0.00     0.198 A 
ATOM     90  F   UNL A   1      38.388  32.772  29.096  1.00  0.00    -0.203 F 
ATOM     91  F   UNL A   1      34.147  29.521  27.981  1.00  0.00    -0.200 F 
ATOM     92  C   UNL A   1      35.206  31.622  27.789  1.00  0.00     0.200 A 
ATOM     93  F   UNL A   1      36.317  33.694  27.605  1.00  0.00    -0.200 F 
ATOM     94  F   UNL A   1      34.197  32.078  27.033  1.00  0.00    -0.200 F 
ENDBRANCH  60  84
BRANCH  72  95
ATOM     95  C   UNL A   1      39.477  31.996  35.882  1.00  0.00     0.064 A 
ATOM     96  C   UNL A   1      38.479  31.637  36.799  1.00  0.00     0.173 A 
ATOM     97  C   UNL A   1      40.086  33.252  36.030  1.00  0.00     0.173 A 
ATOM     98  F   UNL A   1      37.864  30.449  36.696  1.00  0.00    -0.203 F 
ATOM     99  C   UNL A   1      38.090  32.512  37.809  1.00  0.00     0.198 A 
ATOM    100  C   UNL A   1      39.718  34.109  37.062  1.00  0.00     0.198 A 
ATOM    101  F   UNL A   1      41.058  33.636  35.189  1.00  0.00    -0.203 F 
ATOM    102  F   UNL A   1      37.104  32.165  38.648  1.00  0.00    -0.200 F 
ATOM    103  C   UNL A   1      38.716  33.742  37.946  1.00  0.00     0.200 A 
ATOM    104  F   UNL A   1      40.341  35.287  37.205  1.00  0.00    -0.200 F 
ATOM    105  F   UNL A   1      38.351  34.576  38.929  1.00  0.00    -0.200 F 
ENDBRANCH  72  95
ENDBRANCH  46  47
ENDBRANCH  38  41
ENDBRANCH  36  37
ENDBRANCH  35  36
ENDBRANCH  34  35
ENDBRANCH   1  34
TORSDOF 16
ENDMDL
