MODEL 1
REMARK VINA RESULT:     -11.6      0.000      0.000
REMARK SMILES Cc1oc(CNC(=O)c2ccnn2C)cc1C(=O)NCCCCCCNC(=O)c1ccc(-c2c3nc(c(-c4c(F)c(F)c(F)c(F)c4F)c4ccc([nH]4)c(-c4c(F)c(F)c(F)c(F)c4F)c4nc(c(-c5c(F)c(F)c(F)c(F)c5F)c5ccc2[nH]5)C=C4)C=C3)cc1
REMARK SMILES IDX 22 1 21 2 20 3 19 4 17 5 18 6 16 8 1 9 2 10 3 11 4 12 15 13
REMARK SMILES IDX 5 14 6 15 7 16 8 18 9 19 10 20 13 21 11 22 12 23 14 24 23 25
REMARK SMILES IDX 24 26 25 27 26 28 27 29 28 31 29 32 30 33 91 34 31 35 90 36
REMARK SMILES IDX 32 37 33 38 34 39 84 40 35 41 89 42 83 43 85 44 36 45 88 46
REMARK SMILES IDX 82 47 81 48 37 50 69 51 49 52 68 53 50 54 53 55 67 56 86 57
REMARK SMILES IDX 51 58 52 59 66 61 87 62 54 63 38 64 39 65 47 66 40 67 41 68
REMARK SMILES IDX 45 69 48 70 42 71 43 72 46 73 44 74 70 75 71 76 79 77 72 78
REMARK SMILES IDX 73 79 77 80 80 81 74 82 75 83 78 84 76 85 55 86 56 87 64 88
REMARK SMILES IDX 57 89 58 90 62 91 65 92 59 93 60 94 63 95 61 96
REMARK H PARENT 19 7 6 17 26 30 85 49 53 60
REMARK Flexibility Score: inf
ROOT
ATOM      1  C   UNL A   1      34.646  32.518  27.962  1.00  0.00     0.002 C 
ENDROOT
BRANCH   1   2
ATOM      2  C   UNL A   1      34.786  31.098  28.529  1.00  0.00     0.021 C 
BRANCH   2   3
ATOM      3  C   UNL A   1      34.586  29.983  27.498  1.00  0.00     0.116 C 
BRANCH   3   4
ATOM      4  N   UNL A   1      33.561  29.058  27.934  1.00  0.00    -0.352 N 
ATOM      5  C   UNL A   1      32.392  28.635  27.364  1.00  0.00     0.254 C 
ATOM      6  O   UNL A   1      31.823  27.692  27.918  1.00  0.00    -0.269 OA
ATOM      7  H   UNL A   1      33.741  28.654  28.813  1.00  0.00     0.163 HD
BRANCH   5   8
ATOM      8  C   UNL A   1      31.851  29.194  26.134  1.00  0.00     0.081 A 
ATOM      9  C   UNL A   1      31.298  31.768  26.507  1.00  0.00     0.088 C 
ATOM     10  C   UNL A   1      31.422  30.473  25.807  1.00  0.00     0.113 A 
ATOM     11  O   UNL A   1      30.914  30.495  24.541  1.00  0.00    -0.464 OA
ATOM     12  C   UNL A   1      30.921  29.221  24.065  1.00  0.00     0.124 A 
ATOM     13  C   UNL A   1      31.498  28.391  24.995  1.00  0.00     0.061 A 
BRANCH  12  14
ATOM     14  C   UNL A   1      30.302  29.003  22.735  1.00  0.00     0.191 C 
BRANCH  14  15
ATOM     15  N   UNL A   1      28.932  28.564  22.930  1.00  0.00    -0.343 N 
ATOM     16  C   UNL A   1      27.781  29.269  22.720  1.00  0.00     0.269 C 
ATOM     17  H   UNL A   1      28.818  27.641  23.253  1.00  0.00     0.164 HD
ATOM     18  O   UNL A   1      26.725  28.831  23.175  1.00  0.00    -0.268 OA
BRANCH  16  19
ATOM     19  C   UNL A   1      27.859  30.490  21.973  1.00  0.00     0.125 A 
ATOM     20  C   UNL A   1      27.909  30.665  20.602  1.00  0.00     0.055 A 
ATOM     21  N   UNL A   1      27.984  31.752  22.498  1.00  0.00    -0.263 N 
ATOM     22  C   UNL A   1      27.962  32.056  20.411  1.00  0.00     0.136 A 
ATOM     23  N   UNL A   1      27.977  32.725  21.566  1.00  0.00    -0.181 NA
ATOM     24  C   UNL A   1      28.126  32.118  23.887  1.00  0.00     0.174 C 
ENDBRANCH  16  19
ENDBRANCH  14  15
ENDBRANCH  12  14
ENDBRANCH   5   8
ENDBRANCH   3   4
ENDBRANCH   2   3
ENDBRANCH   1   2
BRANCH   1  25
ATOM     25  C   UNL A   1      34.498  33.631  29.004  1.00  0.00     0.002 C 
BRANCH  25  26
ATOM     26  C   UNL A   1      33.239  34.500  28.882  1.00  0.00     0.021 C 
BRANCH  26  27
ATOM     27  C   UNL A   1      33.359  35.922  29.431  1.00  0.00     0.116 C 
BRANCH  27  28
ATOM     28  N   UNL A   1      32.499  36.155  30.575  1.00  0.00    -0.352 N 
ATOM     29  C   UNL A   1      32.623  35.683  31.858  1.00  0.00     0.251 C 
ATOM     30  H   UNL A   1      31.717  36.731  30.409  1.00  0.00     0.163 HD
ATOM     31  O   UNL A   1      31.726  35.869  32.675  1.00  0.00    -0.269 OA
BRANCH  29  32
ATOM     32  C   UNL A   1      33.830  34.929  32.263  1.00  0.00     0.039 A 
ATOM     33  C   UNL A   1      35.084  35.516  32.062  1.00  0.00     0.014 A 
ATOM     34  C   UNL A   1      33.736  33.633  32.780  1.00  0.00     0.014 A 
ATOM     35  C   UNL A   1      36.244  34.823  32.418  1.00  0.00     0.010 A 
ATOM     36  C   UNL A   1      34.894  32.947  33.152  1.00  0.00     0.010 A 
ATOM     37  C   UNL A   1      36.155  33.538  32.972  1.00  0.00    -0.014 A 
BRANCH  37  38
ATOM     38  C   UNL A   1      37.377  32.795  33.361  1.00  0.00     0.031 A 
ATOM     39  C   UNL A   1      38.040  33.064  34.679  1.00  0.00     0.074 A 
ATOM     40  C   UNL A   1      37.914  31.904  32.507  1.00  0.00     0.049 A 
ATOM     41  N   UNL A   1      39.152  32.567  35.160  1.00  0.00    -0.248 NA
ATOM     42  C   UNL A   1      37.373  34.027  35.567  1.00  0.00     0.031 C 
ATOM     43  C   UNL A   1      37.374  31.565  31.190  1.00  0.00     0.029 A 
ATOM     44  N   UNL A   1      39.039  31.130  32.620  1.00  0.00    -0.354 N 
ATOM     45  C   UNL A   1      39.332  33.174  36.394  1.00  0.00     0.074 A 
ATOM     46  C   UNL A   1      38.214  34.074  36.592  1.00  0.00     0.031 C 
ATOM     47  C   UNL A   1      38.171  30.648  30.617  1.00  0.00     0.029 A 
ATOM     48  C   UNL A   1      39.281  30.348  31.519  1.00  0.00     0.049 A 
ATOM     49  H   UNL A   1      39.620  31.134  33.416  1.00  0.00     0.167 HD
ATOM     50  C   UNL A   1      40.340  33.000  37.280  1.00  0.00     0.037 A 
ATOM     51  C   UNL A   1      40.286  29.491  31.265  1.00  0.00     0.037 A 
ATOM     52  C   UNL A   1      41.438  32.086  37.110  1.00  0.00     0.049 A 
ATOM     53  C   UNL A   1      41.368  29.281  32.285  1.00  0.00     0.074 A 
ATOM     54  C   UNL A   1      42.485  31.822  37.975  1.00  0.00     0.029 A 
ATOM     55  N   UNL A   1      41.624  31.282  35.998  1.00  0.00    -0.354 N 
ATOM     56  N   UNL A   1      41.520  29.852  33.453  1.00  0.00    -0.248 NA
ATOM     57  C   UNL A   1      42.418  28.309  31.947  1.00  0.00     0.031 C 
ATOM     58  C   UNL A   1      43.313  30.861  37.380  1.00  0.00     0.029 A 
ATOM     59  C   UNL A   1      42.772  30.522  36.151  1.00  0.00     0.049 A 
ATOM     60  H   UNL A   1      41.029  31.255  35.213  1.00  0.00     0.167 HD
ATOM     61  C   UNL A   1      42.675  29.307  33.994  1.00  0.00     0.074 A 
ATOM     62  C   UNL A   1      43.185  28.355  33.029  1.00  0.00     0.031 C 
ATOM     63  C   UNL A   1      43.261  29.577  35.185  1.00  0.00     0.037 A 
BRANCH  50  64
ATOM     64  C   UNL A   1      40.306  33.832  38.521  1.00  0.00     0.064 A 
ATOM     65  C   UNL A   1      39.596  33.418  39.655  1.00  0.00     0.173 A 
ATOM     66  C   UNL A   1      41.011  35.042  38.581  1.00  0.00     0.173 A 
ATOM     67  F   UNL A   1      38.898  32.274  39.634  1.00  0.00    -0.203 F 
ATOM     68  C   UNL A   1      39.587  34.194  40.810  1.00  0.00     0.198 A 
ATOM     69  C   UNL A   1      41.007  35.812  39.740  1.00  0.00     0.198 A 
ATOM     70  F   UNL A   1      41.700  35.477  37.516  1.00  0.00    -0.203 F 
ATOM     71  F   UNL A   1      38.887  33.794  41.881  1.00  0.00    -0.200 F 
ATOM     72  C   UNL A   1      40.293  35.389  40.853  1.00  0.00     0.200 A 
ATOM     73  F   UNL A   1      41.687  36.966  39.780  1.00  0.00    -0.200 F 
ATOM     74  F   UNL A   1      40.281  36.136  41.966  1.00  0.00    -0.200 F 
ENDBRANCH  50  64
BRANCH  51  75
ATOM     75  C   UNL A   1      40.309  28.756  29.981  1.00  0.00     0.064 A 
ATOM     76  C   UNL A   1      39.643  27.531  29.848  1.00  0.00     0.173 A 
ATOM     77  C   UNL A   1      40.981  29.270  28.867  1.00  0.00     0.173 A 
ATOM     78  F   UNL A   1      39.003  26.998  30.899  1.00  0.00    -0.203 F 
ATOM     79  C   UNL A   1      39.653  26.841  28.639  1.00  0.00     0.198 A 
ATOM     80  C   UNL A   1      40.983  28.583  27.655  1.00  0.00     0.198 A 
ATOM     81  F   UNL A   1      41.632  30.438  28.955  1.00  0.00    -0.203 F 
ATOM     82  F   UNL A   1      39.024  25.663  28.536  1.00  0.00    -0.200 F 
ATOM     83  C   UNL A   1      40.321  27.369  27.542  1.00  0.00     0.200 A 
ATOM     84  F   UNL A   1      41.627  29.096  26.597  1.00  0.00    -0.200 F 
ATOM     85  F   UNL A   1      40.329  26.706  26.378  1.00  0.00    -0.200 F 
ENDBRANCH  51  75
BRANCH  63  86
ATOM     86  C   UNL A   1      44.510  28.824  35.513  1.00  0.00     0.064 A 
ATOM     87  C   UNL A   1      44.458  27.601  36.193  1.00  0.00     0.173 A 
ATOM     88  C   UNL A   1      45.762  29.313  35.116  1.00  0.00     0.173 A 
ATOM     89  F   UNL A   1      43.280  27.106  36.603  1.00  0.00    -0.203 F 
ATOM     90  C   UNL A   1      45.622  26.890  36.470  1.00  0.00     0.198 A 
ATOM     91  C   UNL A   1      46.924  28.597  35.389  1.00  0.00     0.198 A 
ATOM     92  F   UNL A   1      45.856  30.484  34.470  1.00  0.00    -0.203 F 
ATOM     93  F   UNL A   1      45.555  25.728  37.136  1.00  0.00    -0.200 F 
ATOM     94  C   UNL A   1      46.853  27.387  36.065  1.00  0.00     0.200 A 
ATOM     95  F   UNL A   1      48.113  29.078  35.003  1.00  0.00    -0.200 F 
ATOM     96  F   UNL A   1      47.974  26.702  36.335  1.00  0.00    -0.200 F 
ENDBRANCH  63  86
ENDBRANCH  37  38
ENDBRANCH  29  32
ENDBRANCH  27  28
ENDBRANCH  26  27
ENDBRANCH  25  26
ENDBRANCH   1  25
TORSDOF 16
ENDMDL
MODEL 2
REMARK VINA RESULT:     -11.6      1.605      7.637
REMARK SMILES Cc1oc(CNC(=O)c2ccnn2C)cc1C(=O)NCCCCCCNC(=O)c1ccc(-c2c3nc(c(-c4c(F)c(F)c(F)c(F)c4F)c4ccc([nH]4)c(-c4c(F)c(F)c(F)c(F)c4F)c4nc(c(-c5c(F)c(F)c(F)c(F)c5F)c5ccc2[nH]5)C=C4)C=C3)cc1
REMARK SMILES IDX 22 1 21 2 20 3 19 4 17 5 18 6 16 8 1 9 2 10 3 11 4 12 15 13
REMARK SMILES IDX 5 14 6 15 7 16 8 18 9 19 10 20 13 21 11 22 12 23 14 24 23 25
REMARK SMILES IDX 24 26 25 27 26 28 27 29 28 31 29 32 30 33 91 34 31 35 90 36
REMARK SMILES IDX 32 37 33 38 34 39 84 40 35 41 89 42 83 43 85 44 36 45 88 46
REMARK SMILES IDX 82 47 81 48 37 50 69 51 49 52 68 53 50 54 53 55 67 56 86 57
REMARK SMILES IDX 51 58 52 59 66 61 87 62 54 63 38 64 39 65 47 66 40 67 41 68
REMARK SMILES IDX 45 69 48 70 42 71 43 72 46 73 44 74 70 75 71 76 79 77 72 78
REMARK SMILES IDX 73 79 77 80 80 81 74 82 75 83 78 84 76 85 55 86 56 87 64 88
REMARK SMILES IDX 57 89 58 90 62 91 65 92 59 93 60 94 63 95 61 96
REMARK H PARENT 19 7 6 17 26 30 85 49 53 60
REMARK Flexibility Score: inf
ROOT
ATOM      1  C   UNL A   1      32.811  30.175  26.150  1.00  0.00     0.002 C 
ENDROOT
BRANCH   1   2
ATOM      2  C   UNL A   1      32.983  28.947  27.053  1.00  0.00     0.021 C 
BRANCH   2   3
ATOM      3  C   UNL A   1      33.841  27.831  26.448  1.00  0.00     0.116 C 
BRANCH   3   4
ATOM      4  N   UNL A   1      33.140  26.564  26.490  1.00  0.00    -0.352 N 
ATOM      5  C   UNL A   1      32.351  25.912  25.583  1.00  0.00     0.254 C 
ATOM      6  O   UNL A   1      32.046  24.750  25.859  1.00  0.00    -0.269 OA
ATOM      7  H   UNL A   1      33.254  26.077  27.337  1.00  0.00     0.163 HD
BRANCH   5   8
ATOM      8  C   UNL A   1      31.932  26.497  24.318  1.00  0.00     0.081 A 
ATOM      9  C   UNL A   1      33.442  25.523  22.357  1.00  0.00     0.088 C 
ATOM     10  C   UNL A   1      32.385  26.316  23.018  1.00  0.00     0.113 A 
ATOM     11  O   UNL A   1      31.728  27.154  22.165  1.00  0.00    -0.464 OA
ATOM     12  C   UNL A   1      30.912  27.950  22.906  1.00  0.00     0.124 A 
ATOM     13  C   UNL A   1      30.989  27.578  24.226  1.00  0.00     0.061 A 
BRANCH  12  14
ATOM     14  C   UNL A   1      30.183  29.018  22.179  1.00  0.00     0.191 C 
BRANCH  14  15
ATOM     15  N   UNL A   1      28.760  28.840  22.402  1.00  0.00    -0.343 N 
ATOM     16  C   UNL A   1      27.847  29.766  22.821  1.00  0.00     0.269 C 
ATOM     17  H   UNL A   1      28.407  27.937  22.229  1.00  0.00     0.164 HD
ATOM     18  O   UNL A   1      26.740  29.382  23.198  1.00  0.00    -0.268 OA
BRANCH  16  19
ATOM     19  C   UNL A   1      28.224  31.149  22.798  1.00  0.00     0.125 A 
ATOM     20  C   UNL A   1      28.611  31.959  23.850  1.00  0.00     0.055 A 
ATOM     21  N   UNL A   1      28.192  31.978  21.705  1.00  0.00    -0.263 N 
ATOM     22  C   UNL A   1      28.880  33.210  23.272  1.00  0.00     0.136 A 
ATOM     23  N   UNL A   1      28.655  33.218  21.957  1.00  0.00    -0.181 NA
ATOM     24  C   UNL A   1      27.722  31.666  20.376  1.00  0.00     0.174 C 
ENDBRANCH  16  19
ENDBRANCH  14  15
ENDBRANCH  12  14
ENDBRANCH   5   8
ENDBRANCH   3   4
ENDBRANCH   2   3
ENDBRANCH   1   2
BRANCH   1  25
ATOM     25  C   UNL A   1      31.408  30.789  26.132  1.00  0.00     0.002 C 
BRANCH  25  26
ATOM     26  C   UNL A   1      31.323  32.278  26.489  1.00  0.00     0.021 C 
BRANCH  26  27
ATOM     27  C   UNL A   1      32.576  32.880  27.128  1.00  0.00     0.116 C 
BRANCH  27  28
ATOM     28  N   UNL A   1      32.357  34.222  27.633  1.00  0.00    -0.352 N 
ATOM     29  C   UNL A   1      33.013  34.882  28.641  1.00  0.00     0.251 C 
ATOM     30  H   UNL A   1      31.638  34.730  27.191  1.00  0.00     0.163 HD
ATOM     31  O   UNL A   1      32.608  35.973  29.033  1.00  0.00    -0.269 OA
BRANCH  29  32
ATOM     32  C   UNL A   1      34.203  34.276  29.281  1.00  0.00     0.039 A 
ATOM     33  C   UNL A   1      34.018  33.482  30.417  1.00  0.00     0.014 A 
ATOM     34  C   UNL A   1      35.492  34.534  28.805  1.00  0.00     0.014 A 
ATOM     35  C   UNL A   1      35.122  32.910  31.054  1.00  0.00     0.010 A 
ATOM     36  C   UNL A   1      36.594  33.947  29.431  1.00  0.00     0.010 A 
ATOM     37  C   UNL A   1      36.415  33.132  30.560  1.00  0.00    -0.014 A 
BRANCH  37  38
ATOM     38  C   UNL A   1      37.594  32.525  31.222  1.00  0.00     0.031 A 
ATOM     39  C   UNL A   1      38.367  31.435  30.541  1.00  0.00     0.074 A 
ATOM     40  C   UNL A   1      37.945  32.929  32.457  1.00  0.00     0.049 A 
ATOM     41  N   UNL A   1      39.379  30.736  30.991  1.00  0.00    -0.248 NA
ATOM     42  C   UNL A   1      37.939  31.075  29.181  1.00  0.00     0.031 C 
ATOM     43  C   UNL A   1      37.266  33.967  33.231  1.00  0.00     0.029 A 
ATOM     44  N   UNL A   1      38.958  32.503  33.277  1.00  0.00    -0.354 N 
ATOM     45  C   UNL A   1      39.692  29.836  29.982  1.00  0.00     0.074 A 
ATOM     46  C   UNL A   1      38.767  30.079  28.894  1.00  0.00     0.031 C 
ATOM     47  C   UNL A   1      37.883  34.099  34.418  1.00  0.00     0.029 A 
ATOM     48  C   UNL A   1      38.989  33.146  34.489  1.00  0.00     0.049 A 
ATOM     49  H   UNL A   1      39.602  31.803  33.022  1.00  0.00     0.167 HD
ATOM     50  C   UNL A   1      40.662  28.892  29.966  1.00  0.00     0.037 A 
ATOM     51  C   UNL A   1      39.813  32.980  35.539  1.00  0.00     0.037 A 
ATOM     52  C   UNL A   1      41.607  28.663  31.027  1.00  0.00     0.049 A 
ATOM     53  C   UNL A   1      40.909  31.957  35.478  1.00  0.00     0.074 A 
ATOM     54  C   UNL A   1      42.644  27.748  31.078  1.00  0.00     0.029 A 
ATOM     55  N   UNL A   1      41.630  29.363  32.222  1.00  0.00    -0.354 N 
ATOM     56  N   UNL A   1      41.203  31.122  34.514  1.00  0.00    -0.248 NA
ATOM     57  C   UNL A   1      41.785  31.854  36.655  1.00  0.00     0.031 C 
ATOM     58  C   UNL A   1      43.292  27.889  32.313  1.00  0.00     0.029 A 
ATOM     59  C   UNL A   1      42.662  28.899  33.021  1.00  0.00     0.049 A 
ATOM     60  H   UNL A   1      41.004  30.084  32.467  1.00  0.00     0.167 HD
ATOM     61  C   UNL A   1      42.299  30.398  34.960  1.00  0.00     0.074 A 
ATOM     62  C   UNL A   1      42.623  30.895  36.281  1.00  0.00     0.031 C 
ATOM     63  C   UNL A   1      42.974  29.408  34.329  1.00  0.00     0.037 A 
BRANCH  50  64
ATOM     64  C   UNL A   1      40.740  28.019  28.756  1.00  0.00     0.064 A 
ATOM     65  C   UNL A   1      40.010  26.826  28.671  1.00  0.00     0.173 A 
ATOM     66  C   UNL A   1      41.534  28.393  27.663  1.00  0.00     0.173 A 
ATOM     67  F   UNL A   1      39.249  26.426  29.701  1.00  0.00    -0.203 F 
ATOM     68  C   UNL A   1      40.079  26.031  27.532  1.00  0.00     0.198 A 
ATOM     69  C   UNL A   1      41.594  27.599  26.522  1.00  0.00     0.198 A 
ATOM     70  F   UNL A   1      42.253  29.525  27.706  1.00  0.00    -0.203 F 
ATOM     71  F   UNL A   1      39.389  24.883  27.474  1.00  0.00    -0.200 F 
ATOM     72  C   UNL A   1      40.868  26.418  26.458  1.00  0.00     0.200 A 
ATOM     73  F   UNL A   1      42.358  27.973  25.486  1.00  0.00    -0.200 F 
ATOM     74  F   UNL A   1      40.935  25.649  25.362  1.00  0.00    -0.200 F 
ENDBRANCH  50  64
BRANCH  51  75
ATOM     75  C   UNL A   1      39.632  33.820  36.744  1.00  0.00     0.064 A 
ATOM     76  C   UNL A   1      40.237  35.080  36.835  1.00  0.00     0.173 A 
ATOM     77  C   UNL A   1      38.844  33.385  37.816  1.00  0.00     0.173 A 
ATOM     78  F   UNL A   1      41.014  35.523  35.835  1.00  0.00    -0.203 F 
ATOM     79  C   UNL A   1      40.061  35.877  37.962  1.00  0.00     0.198 A 
ATOM     80  C   UNL A   1      38.662  34.187  38.940  1.00  0.00     0.198 A 
ATOM     81  F   UNL A   1      38.251  32.184  37.769  1.00  0.00    -0.203 F 
ATOM     82  F   UNL A   1      40.661  37.073  38.035  1.00  0.00    -0.200 F 
ATOM     83  C   UNL A   1      39.271  35.431  39.013  1.00  0.00     0.200 A 
ATOM     84  F   UNL A   1      37.897  33.755  39.952  1.00  0.00    -0.200 F 
ATOM     85  F   UNL A   1      39.101  36.199  40.097  1.00  0.00    -0.200 F 
ENDBRANCH  51  75
BRANCH  63  86
ATOM     86  C   UNL A   1      44.134  28.806  35.054  1.00  0.00     0.064 A 
ATOM     87  C   UNL A   1      45.409  29.380  34.977  1.00  0.00     0.173 A 
ATOM     88  C   UNL A   1      43.961  27.670  35.857  1.00  0.00     0.173 A 
ATOM     89  F   UNL A   1      45.619  30.458  34.208  1.00  0.00    -0.203 F 
ATOM     90  C   UNL A   1      46.479  28.832  35.679  1.00  0.00     0.198 A 
ATOM     91  C   UNL A   1      45.032  27.128  36.562  1.00  0.00     0.198 A 
ATOM     92  F   UNL A   1      42.758  27.087  35.952  1.00  0.00    -0.203 F 
ATOM     93  F   UNL A   1      47.697  29.384  35.581  1.00  0.00    -0.200 F 
ATOM     94  C   UNL A   1      46.289  27.710  36.473  1.00  0.00     0.200 A 
ATOM     95  F   UNL A   1      44.850  26.042  37.325  1.00  0.00    -0.200 F 
ATOM     96  F   UNL A   1      47.321  27.182  37.146  1.00  0.00    -0.200 F 
ENDBRANCH  63  86
ENDBRANCH  37  38
ENDBRANCH  29  32
ENDBRANCH  27  28
ENDBRANCH  26  27
ENDBRANCH  25  26
ENDBRANCH   1  25
TORSDOF 16
ENDMDL
MODEL 3
REMARK VINA RESULT:     -11.4      3.617      9.236
REMARK SMILES Cc1oc(CNC(=O)c2ccnn2C)cc1C(=O)NCCCCCCNC(=O)c1ccc(-c2c3nc(c(-c4c(F)c(F)c(F)c(F)c4F)c4ccc([nH]4)c(-c4c(F)c(F)c(F)c(F)c4F)c4nc(c(-c5c(F)c(F)c(F)c(F)c5F)c5ccc2[nH]5)C=C4)C=C3)cc1
REMARK SMILES IDX 22 1 21 2 20 3 19 4 17 5 18 6 16 8 1 9 2 10 3 11 4 12 15 13
REMARK SMILES IDX 5 14 6 15 7 16 8 18 9 19 10 20 13 21 11 22 12 23 14 24 23 25
REMARK SMILES IDX 24 26 25 27 26 28 27 29 28 31 29 32 30 33 91 34 31 35 90 36
REMARK SMILES IDX 32 37 33 38 34 39 84 40 35 41 89 42 83 43 85 44 36 45 88 46
REMARK SMILES IDX 82 47 81 48 37 50 69 51 49 52 68 53 50 54 53 55 67 56 86 57
REMARK SMILES IDX 51 58 52 59 66 61 87 62 54 63 38 64 39 65 47 66 40 67 41 68
REMARK SMILES IDX 45 69 48 70 42 71 43 72 46 73 44 74 70 75 71 76 79 77 72 78
REMARK SMILES IDX 73 79 77 80 80 81 74 82 75 83 78 84 76 85 55 86 56 87 64 88
REMARK SMILES IDX 57 89 58 90 62 91 65 92 59 93 60 94 63 95 61 96
REMARK H PARENT 19 7 6 17 26 30 85 49 53 60
REMARK Flexibility Score: inf
ROOT
ATOM      1  C   UNL A   1      33.086  26.563  22.206  1.00  0.00     0.002 C 
ENDROOT
BRANCH   1   2
ATOM      2  C   UNL A   1      31.594  26.452  22.552  1.00  0.00     0.021 C 
BRANCH   2   3
ATOM      3  C   UNL A   1      31.188  25.114  23.177  1.00  0.00     0.116 C 
BRANCH   3   4
ATOM      4  N   UNL A   1      30.389  25.324  24.367  1.00  0.00    -0.352 N 
ATOM      5  C   UNL A   1      30.627  25.097  25.694  1.00  0.00     0.254 C 
ATOM      6  O   UNL A   1      29.801  25.557  26.485  1.00  0.00    -0.269 OA
ATOM      7  H   UNL A   1      29.500  25.705  24.184  1.00  0.00     0.163 HD
BRANCH   5   8
ATOM      8  C   UNL A   1      31.814  24.416  26.191  1.00  0.00     0.081 A 
ATOM      9  C   UNL A   1      33.949  25.938  25.748  1.00  0.00     0.088 C 
ATOM     10  C   UNL A   1      33.153  24.783  26.210  1.00  0.00     0.113 A 
ATOM     11  O   UNL A   1      33.916  23.768  26.711  1.00  0.00    -0.464 OA
ATOM     12  C   UNL A   1      33.101  22.704  26.936  1.00  0.00     0.124 A 
ATOM     13  C   UNL A   1      31.804  23.054  26.649  1.00  0.00     0.061 A 
BRANCH  12  14
ATOM     14  C   UNL A   1      33.753  21.447  27.380  1.00  0.00     0.191 C 
BRANCH  14  15
ATOM     15  N   UNL A   1      33.464  20.409  26.408  1.00  0.00    -0.343 N 
ATOM     16  C   UNL A   1      33.991  20.251  25.158  1.00  0.00     0.269 C 
ATOM     17  H   UNL A   1      32.804  19.732  26.685  1.00  0.00     0.164 HD
ATOM     18  O   UNL A   1      33.449  19.468  24.379  1.00  0.00    -0.268 OA
BRANCH  16  19
ATOM     19  C   UNL A   1      35.159  21.008  24.813  1.00  0.00     0.125 A 
ATOM     20  C   UNL A   1      36.455  20.856  25.268  1.00  0.00     0.055 A 
ATOM     21  N   UNL A   1      35.194  22.113  24.000  1.00  0.00    -0.263 N 
ATOM     22  C   UNL A   1      37.198  21.844  24.600  1.00  0.00     0.136 A 
ATOM     23  N   UNL A   1      36.437  22.595  23.801  1.00  0.00    -0.181 NA
ATOM     24  C   UNL A   1      34.078  22.784  23.376  1.00  0.00     0.174 C 
ENDBRANCH  16  19
ENDBRANCH  14  15
ENDBRANCH  12  14
ENDBRANCH   5   8
ENDBRANCH   3   4
ENDBRANCH   2   3
ENDBRANCH   1   2
BRANCH   1  25
ATOM     25  C   UNL A   1      33.762  27.874  22.621  1.00  0.00     0.002 C 
BRANCH  25  26
ATOM     26  C   UNL A   1      32.905  28.835  23.455  1.00  0.00     0.021 C 
BRANCH  26  27
ATOM     27  C   UNL A   1      33.520  29.297  24.776  1.00  0.00     0.116 C 
BRANCH  27  28
ATOM     28  N   UNL A   1      32.753  30.351  25.413  1.00  0.00    -0.352 N 
ATOM     29  C   UNL A   1      32.968  30.966  26.621  1.00  0.00     0.251 C 
ATOM     30  H   UNL A   1      31.970  30.671  24.907  1.00  0.00     0.163 HD
ATOM     31  O   UNL A   1      32.139  31.750  27.072  1.00  0.00    -0.269 OA
BRANCH  29  32
ATOM     32  C   UNL A   1      34.191  30.673  27.401  1.00  0.00     0.039 A 
ATOM     33  C   UNL A   1      35.113  31.703  27.610  1.00  0.00     0.014 A 
ATOM     34  C   UNL A   1      34.459  29.384  27.872  1.00  0.00     0.014 A 
ATOM     35  C   UNL A   1      36.286  31.455  28.327  1.00  0.00     0.010 A 
ATOM     36  C   UNL A   1      35.623  29.139  28.605  1.00  0.00     0.010 A 
ATOM     37  C   UNL A   1      36.544  30.174  28.836  1.00  0.00    -0.014 A 
BRANCH  37  38
ATOM     38  C   UNL A   1      37.780  29.899  29.605  1.00  0.00     0.031 A 
ATOM     39  C   UNL A   1      38.828  28.981  29.051  1.00  0.00     0.074 A 
ATOM     40  C   UNL A   1      37.942  30.447  30.824  1.00  0.00     0.049 A 
ATOM     41  N   UNL A   1      39.939  28.565  29.606  1.00  0.00    -0.248 NA
ATOM     42  C   UNL A   1      38.591  28.451  27.700  1.00  0.00     0.031 C 
ATOM     43  C   UNL A   1      36.990  31.342  31.481  1.00  0.00     0.029 A 
ATOM     44  N   UNL A   1      38.964  30.319  31.728  1.00  0.00    -0.354 N 
ATOM     45  C   UNL A   1      40.520  27.705  28.686  1.00  0.00     0.074 A 
ATOM     46  C   UNL A   1      39.643  27.660  27.533  1.00  0.00     0.031 C 
ATOM     47  C   UNL A   1      37.475  31.685  32.686  1.00  0.00     0.029 A 
ATOM     48  C   UNL A   1      38.762  31.022  32.888  1.00  0.00     0.049 A 
ATOM     49  H   UNL A   1      39.768  29.774  31.561  1.00  0.00     0.167 HD
ATOM     50  C   UNL A   1      41.679  27.014  28.793  1.00  0.00     0.037 A 
ATOM     51  C   UNL A   1      39.526  31.117  33.992  1.00  0.00     0.037 A 
ATOM     52  C   UNL A   1      42.574  27.075  29.917  1.00  0.00     0.049 A 
ATOM     53  C   UNL A   1      40.829  30.375  34.067  1.00  0.00     0.074 A 
ATOM     54  C   UNL A   1      43.787  26.433  30.094  1.00  0.00     0.029 A 
ATOM     55  N   UNL A   1      42.352  27.832  31.057  1.00  0.00    -0.354 N 
ATOM     56  N   UNL A   1      41.374  29.576  33.185  1.00  0.00    -0.248 NA
ATOM     57  C   UNL A   1      41.620  30.550  35.294  1.00  0.00     0.031 C 
ATOM     58  C   UNL A   1      44.296  26.794  31.348  1.00  0.00     0.029 A 
ATOM     59  C   UNL A   1      43.404  27.670  31.944  1.00  0.00     0.049 A 
ATOM     60  H   UNL A   1      41.562  28.400  31.214  1.00  0.00     0.167 HD
ATOM     61  C   UNL A   1      42.572  29.156  33.743  1.00  0.00     0.074 A 
ATOM     62  C   UNL A   1      42.680  29.792  35.039  1.00  0.00     0.031 C 
ATOM     63  C   UNL A   1      43.498  28.314  33.225  1.00  0.00     0.037 A 
BRANCH  50  64
ATOM     64  C   UNL A   1      42.040  26.113  27.657  1.00  0.00     0.064 A 
ATOM     65  C   UNL A   1      42.954  26.513  26.674  1.00  0.00     0.173 A 
ATOM     66  C   UNL A   1      41.486  24.829  27.568  1.00  0.00     0.173 A 
ATOM     67  F   UNL A   1      43.496  27.739  26.715  1.00  0.00    -0.203 F 
ATOM     68  C   UNL A   1      43.296  25.658  25.630  1.00  0.00     0.198 A 
ATOM     69  C   UNL A   1      41.836  23.973  26.528  1.00  0.00     0.198 A 
ATOM     70  F   UNL A   1      40.604  24.408  28.486  1.00  0.00    -0.203 F 
ATOM     71  F   UNL A   1      44.156  26.063  24.687  1.00  0.00    -0.200 F 
ATOM     72  C   UNL A   1      42.739  24.388  25.559  1.00  0.00     0.200 A 
ATOM     73  F   UNL A   1      41.297  22.748  26.459  1.00  0.00    -0.200 F 
ATOM     74  F   UNL A   1      43.067  23.567  24.553  1.00  0.00    -0.200 F 
ENDBRANCH  50  64
BRANCH  51  75
ATOM     75  C   UNL A   1      39.073  31.962  35.119  1.00  0.00     0.064 A 
ATOM     76  C   UNL A   1      38.409  31.396  36.215  1.00  0.00     0.173 A 
ATOM     77  C   UNL A   1      39.309  33.341  35.127  1.00  0.00     0.173 A 
ATOM     78  F   UNL A   1      38.149  30.081  36.235  1.00  0.00    -0.203 F 
ATOM     79  C   UNL A   1      37.992  32.187  37.282  1.00  0.00     0.198 A 
ATOM     80  C   UNL A   1      38.899  34.129  36.199  1.00  0.00     0.198 A 
ATOM     81  F   UNL A   1      39.940  33.920  34.095  1.00  0.00    -0.203 F 
ATOM     82  F   UNL A   1      37.344  31.628  38.313  1.00  0.00    -0.200 F 
ATOM     83  C   UNL A   1      38.239  33.553  37.275  1.00  0.00     0.200 A 
ATOM     84  F   UNL A   1      39.141  35.448  36.190  1.00  0.00    -0.200 F 
ATOM     85  F   UNL A   1      37.839  34.312  38.302  1.00  0.00    -0.200 F 
ENDBRANCH  51  75
BRANCH  63  86
ATOM     86  C   UNL A   1      44.711  28.044  34.056  1.00  0.00     0.064 A 
ATOM     87  C   UNL A   1      44.740  26.977  34.963  1.00  0.00     0.173 A 
ATOM     88  C   UNL A   1      45.859  28.834  33.919  1.00  0.00     0.173 A 
ATOM     89  F   UNL A   1      43.657  26.205  35.133  1.00  0.00    -0.203 F 
ATOM     90  C   UNL A   1      45.884  26.711  35.711  1.00  0.00     0.198 A 
ATOM     91  C   UNL A   1      47.003  28.563  34.665  1.00  0.00     0.198 A 
ATOM     92  F   UNL A   1      45.870  29.870  33.067  1.00  0.00    -0.203 F 
ATOM     93  F   UNL A   1      45.889  25.696  36.586  1.00  0.00    -0.200 F 
ATOM     94  C   UNL A   1      47.013  27.502  35.560  1.00  0.00     0.200 A 
ATOM     95  F   UNL A   1      48.093  29.328  34.523  1.00  0.00    -0.200 F 
ATOM     96  F   UNL A   1      48.113  27.247  36.284  1.00  0.00    -0.200 F 
ENDBRANCH  63  86
ENDBRANCH  37  38
ENDBRANCH  29  32
ENDBRANCH  27  28
ENDBRANCH  26  27
ENDBRANCH  25  26
ENDBRANCH   1  25
TORSDOF 16
ENDMDL
