MODEL 1
REMARK VINA RESULT:     -12.6      0.000      0.000
REMARK SMILES C[C@@H](C(=O)NCCCCCCNC(=O)c1ccc(-c2c3nc(c(-c4c(F)c(F)c(F)c(F)c4F)c4ccc([nH]4)c(-c4c(F)c(F)c(F)c(F)c4F)c4nc(c(-c5c(F)c(F)c(F)c(F)c5F)c5ccc2[nH]5)C=C4)C=C3)cc1)c1ccc(C[C@H]2CCC[C@@H]2O)cc1F
REMARK SMILES IDX 7 1 6 2 5 3 3 4 4 5 2 7 1 8 78 9 79 10 90 11 80 12 89 13
REMARK SMILES IDX 91 14 81 15 82 16 83 17 84 18 87 19 85 20 86 21 88 22 8 24
REMARK SMILES IDX 9 25 10 26 11 27 12 28 13 29 14 31 15 32 16 33 77 34 17 35
REMARK SMILES IDX 76 36 18 37 19 38 20 39 70 40 21 41 75 42 69 43 71 44 22 45
REMARK SMILES IDX 74 46 68 47 67 48 23 50 55 51 35 52 54 53 36 54 39 55 53 56
REMARK SMILES IDX 72 57 37 58 38 59 52 61 73 62 40 63 24 64 25 65 33 66 26 67
REMARK SMILES IDX 27 68 31 69 34 70 28 71 29 72 32 73 30 74 56 75 57 76 65 77
REMARK SMILES IDX 58 78 59 79 63 80 66 81 60 82 61 83 64 84 62 85 41 86 42 87
REMARK SMILES IDX 50 88 43 89 44 90 48 91 51 92 45 93 46 94 49 95 47 96
REMARK H PARENT 5 6 88 23 12 30 71 49 39 60
REMARK Flexibility Score: inf
ROOT
ATOM      1  C   UNL A   1      32.896  28.318  26.642  1.00  0.00     0.021 C 
ENDROOT
BRANCH   1   2
ATOM      2  C   UNL A   1      31.635  27.624  26.121  1.00  0.00     0.116 C 
BRANCH   2   3
ATOM      3  N   UNL A   1      31.404  26.389  26.833  1.00  0.00    -0.356 N 
ATOM      4  C   UNL A   1      31.391  25.099  26.399  1.00  0.00     0.227 C 
ATOM      5  O   UNL A   1      31.081  24.263  27.250  1.00  0.00    -0.274 OA
ATOM      6  H   UNL A   1      31.226  26.499  27.795  1.00  0.00     0.163 HD
BRANCH   4   7
ATOM      7  C   UNL A   1      31.812  24.755  24.956  1.00  0.00     0.108 C 
ATOM      8  C   UNL A   1      30.665  24.773  23.946  1.00  0.00     0.023 C 
BRANCH   7   9
ATOM      9  C   UNL A   1      32.529  23.419  24.805  1.00  0.00    -0.000 A 
ATOM     10  C   UNL A   1      31.892  22.263  24.335  1.00  0.00     0.008 A 
ATOM     11  C   UNL A   1      33.902  23.346  25.063  1.00  0.00     0.127 A 
ATOM     12  C   UNL A   1      32.583  21.056  24.234  1.00  0.00     0.004 A 
ATOM     13  C   UNL A   1      34.604  22.149  24.950  1.00  0.00     0.043 A 
ATOM     14  F   UNL A   1      34.571  24.450  25.427  1.00  0.00    -0.207 F 
ATOM     15  C   UNL A   1      33.935  20.977  24.585  1.00  0.00    -0.045 A 
BRANCH  15  16
ATOM     16  C   UNL A   1      34.634  19.641  24.626  1.00  0.00     0.041 C 
BRANCH  16  17
ATOM     17  C   UNL A   1      33.712  18.419  24.466  1.00  0.00     0.022 C 
ATOM     18  C   UNL A   1      34.171  17.357  23.452  1.00  0.00     0.007 C 
ATOM     19  C   UNL A   1      33.436  17.624  25.746  1.00  0.00     0.117 C 
ATOM     20  C   UNL A   1      33.749  16.003  24.034  1.00  0.00     0.003 C 
ATOM     21  C   UNL A   1      32.845  16.328  25.213  1.00  0.00     0.032 C 
BRANCH  19  22
ATOM     22  O   UNL A   1      32.528  18.309  26.588  1.00  0.00    -0.393 OA
ATOM     23  H   UNL A   1      32.203  19.103  26.134  1.00  0.00     0.210 HD
ENDBRANCH  19  22
ENDBRANCH  16  17
ENDBRANCH  15  16
ENDBRANCH   7   9
ENDBRANCH   4   7
ENDBRANCH   2   3
ENDBRANCH   1   2
BRANCH   1  24
ATOM     24  C   UNL A   1      32.709  29.806  26.966  1.00  0.00     0.002 C 
BRANCH  24  25
ATOM     25  C   UNL A   1      31.599  30.508  26.178  1.00  0.00     0.002 C 
BRANCH  25  26
ATOM     26  C   UNL A   1      31.426  31.992  26.503  1.00  0.00     0.021 C 
BRANCH  26  27
ATOM     27  C   UNL A   1      32.599  32.610  27.252  1.00  0.00     0.116 C 
BRANCH  27  28
ATOM     28  N   UNL A   1      32.381  34.018  27.542  1.00  0.00    -0.352 N 
ATOM     29  C   UNL A   1      32.972  34.801  28.501  1.00  0.00     0.251 C 
ATOM     30  H   UNL A   1      31.718  34.471  26.973  1.00  0.00     0.163 HD
ATOM     31  O   UNL A   1      32.528  35.919  28.751  1.00  0.00    -0.269 OA
BRANCH  29  32
ATOM     32  C   UNL A   1      34.135  34.284  29.250  1.00  0.00     0.039 A 
ATOM     33  C   UNL A   1      33.918  33.592  30.443  1.00  0.00     0.014 A 
ATOM     34  C   UNL A   1      35.434  34.475  28.772  1.00  0.00     0.014 A 
ATOM     35  C   UNL A   1      35.002  33.039  31.125  1.00  0.00     0.010 A 
ATOM     36  C   UNL A   1      36.504  33.856  29.409  1.00  0.00     0.010 A 
ATOM     37  C   UNL A   1      36.301  33.136  30.597  1.00  0.00    -0.014 A 
BRANCH  37  38
ATOM     38  C   UNL A   1      37.455  32.492  31.272  1.00  0.00     0.031 A 
ATOM     39  C   UNL A   1      38.182  31.356  30.606  1.00  0.00     0.074 A 
ATOM     40  C   UNL A   1      37.810  32.889  32.509  1.00  0.00     0.049 A 
ATOM     41  N   UNL A   1      39.170  30.626  31.058  1.00  0.00    -0.248 NA
ATOM     42  C   UNL A   1      37.723  30.973  29.261  1.00  0.00     0.031 C 
ATOM     43  C   UNL A   1      37.153  33.948  33.278  1.00  0.00     0.029 A 
ATOM     44  N   UNL A   1      38.805  32.444  33.343  1.00  0.00    -0.354 N 
ATOM     45  C   UNL A   1      39.440  29.696  30.065  1.00  0.00     0.074 A 
ATOM     46  C   UNL A   1      38.477  29.914  29.008  1.00  0.00     0.031 C 
ATOM     47  C   UNL A   1      37.777  34.086  34.459  1.00  0.00     0.029 A 
ATOM     48  C   UNL A   1      38.848  33.100  34.550  1.00  0.00     0.049 A 
ATOM     49  H   UNL A   1      39.430  31.723  33.099  1.00  0.00     0.167 HD
ATOM     50  C   UNL A   1      40.419  28.761  30.026  1.00  0.00     0.037 A 
ATOM     51  C   UNL A   1      39.653  32.916  35.615  1.00  0.00     0.037 A 
ATOM     52  C   UNL A   1      41.388  28.561  31.072  1.00  0.00     0.049 A 
ATOM     53  C   UNL A   1      40.719  31.854  35.552  1.00  0.00     0.074 A 
ATOM     54  C   UNL A   1      42.453  27.679  31.103  1.00  0.00     0.029 A 
ATOM     55  N   UNL A   1      41.406  29.252  32.274  1.00  0.00    -0.354 N 
ATOM     56  N   UNL A   1      41.011  31.029  34.576  1.00  0.00    -0.248 NA
ATOM     57  C   UNL A   1      41.574  31.704  36.737  1.00  0.00     0.031 C 
ATOM     58  C   UNL A   1      43.080  27.793  32.348  1.00  0.00     0.029 A 
ATOM     59  C   UNL A   1      42.448  28.795  33.066  1.00  0.00     0.049 A 
ATOM     60  H   UNL A   1      40.773  29.962  32.528  1.00  0.00     0.167 HD
ATOM     61  C   UNL A   1      42.100  30.289  35.015  1.00  0.00     0.074 A 
ATOM     62  C   UNL A   1      42.427  30.773  36.339  1.00  0.00     0.031 C 
ATOM     63  C   UNL A   1      42.770  29.296  34.378  1.00  0.00     0.037 A 
BRANCH  50  64
ATOM     64  C   UNL A   1      40.496  27.878  28.813  1.00  0.00     0.064 A 
ATOM     65  C   UNL A   1      39.779  26.674  28.731  1.00  0.00     0.173 A 
ATOM     66  C   UNL A   1      41.254  28.265  27.697  1.00  0.00     0.173 A 
ATOM     67  F   UNL A   1      39.047  26.251  29.772  1.00  0.00    -0.203 F 
ATOM     68  C   UNL A   1      39.839  25.880  27.589  1.00  0.00     0.198 A 
ATOM     69  C   UNL A   1      41.284  27.485  26.544  1.00  0.00     0.198 A 
ATOM     70  F   UNL A   1      41.955  29.409  27.718  1.00  0.00    -0.203 F 
ATOM     71  F   UNL A   1      39.184  24.712  27.552  1.00  0.00    -0.200 F 
ATOM     72  C   UNL A   1      40.583  26.290  26.493  1.00  0.00     0.200 A 
ATOM     73  F   UNL A   1      41.992  27.892  25.480  1.00  0.00    -0.200 F 
ATOM     74  F   UNL A   1      40.629  25.532  25.389  1.00  0.00    -0.200 F 
ENDBRANCH  50  64
BRANCH  51  75
ATOM     75  C   UNL A   1      39.493  33.761  36.828  1.00  0.00     0.064 A 
ATOM     76  C   UNL A   1      38.729  33.322  37.919  1.00  0.00     0.173 A 
ATOM     77  C   UNL A   1      40.077  35.034  36.915  1.00  0.00     0.173 A 
ATOM     78  F   UNL A   1      38.134  32.120  37.879  1.00  0.00    -0.203 F 
ATOM     79  C   UNL A   1      38.531  34.133  39.035  1.00  0.00     0.198 A 
ATOM     80  C   UNL A   1      39.907  35.830  38.045  1.00  0.00     0.198 A 
ATOM     81  F   UNL A   1      40.822  35.501  35.902  1.00  0.00    -0.203 F 
ATOM     82  F   UNL A   1      37.747  33.710  40.036  1.00  0.00    -0.200 F 
ATOM     83  C   UNL A   1      39.124  35.384  39.098  1.00  0.00     0.200 A 
ATOM     84  F   UNL A   1      40.495  37.032  38.110  1.00  0.00    -0.200 F 
ATOM     85  F   UNL A   1      38.932  36.165  40.171  1.00  0.00    -0.200 F 
ENDBRANCH  51  75
BRANCH  63  86
ATOM     86  C   UNL A   1      43.956  28.701  35.082  1.00  0.00     0.064 A 
ATOM     87  C   UNL A   1      45.238  29.260  34.974  1.00  0.00     0.173 A 
ATOM     88  C   UNL A   1      43.797  27.578  35.910  1.00  0.00     0.173 A 
ATOM     89  F   UNL A   1      45.448  30.325  34.186  1.00  0.00    -0.203 F 
ATOM     90  C   UNL A   1      46.321  28.698  35.646  1.00  0.00     0.198 A 
ATOM     91  C   UNL A   1      44.874  27.042  36.608  1.00  0.00     0.198 A 
ATOM     92  F   UNL A   1      42.590  27.009  36.054  1.00  0.00    -0.203 F 
ATOM     93  F   UNL A   1      47.547  29.217  35.487  1.00  0.00    -0.200 F 
ATOM     94  C   UNL A   1      46.137  27.596  36.468  1.00  0.00     0.200 A 
ATOM     95  F   UNL A   1      44.691  25.988  37.414  1.00  0.00    -0.200 F 
ATOM     96  F   UNL A   1      47.179  27.064  37.122  1.00  0.00    -0.200 F 
ENDBRANCH  63  86
ENDBRANCH  37  38
ENDBRANCH  29  32
ENDBRANCH  27  28
ENDBRANCH  26  27
ENDBRANCH  25  26
ENDBRANCH  24  25
ENDBRANCH   1  24
TORSDOF 17
ENDMDL
MODEL 2
REMARK VINA RESULT:     -12.5      4.831      8.130
REMARK SMILES C[C@@H](C(=O)NCCCCCCNC(=O)c1ccc(-c2c3nc(c(-c4c(F)c(F)c(F)c(F)c4F)c4ccc([nH]4)c(-c4c(F)c(F)c(F)c(F)c4F)c4nc(c(-c5c(F)c(F)c(F)c(F)c5F)c5ccc2[nH]5)C=C4)C=C3)cc1)c1ccc(C[C@H]2CCC[C@@H]2O)cc1F
REMARK SMILES IDX 7 1 6 2 5 3 3 4 4 5 2 7 1 8 78 9 79 10 90 11 80 12 89 13
REMARK SMILES IDX 91 14 81 15 82 16 83 17 84 18 87 19 85 20 86 21 88 22 8 24
REMARK SMILES IDX 9 25 10 26 11 27 12 28 13 29 14 31 15 32 16 33 77 34 17 35
REMARK SMILES IDX 76 36 18 37 19 38 20 39 70 40 21 41 75 42 69 43 71 44 22 45
REMARK SMILES IDX 74 46 68 47 67 48 23 50 55 51 35 52 54 53 36 54 39 55 53 56
REMARK SMILES IDX 72 57 37 58 38 59 52 61 73 62 40 63 24 64 25 65 33 66 26 67
REMARK SMILES IDX 27 68 31 69 34 70 28 71 29 72 32 73 30 74 56 75 57 76 65 77
REMARK SMILES IDX 58 78 59 79 63 80 66 81 60 82 61 83 64 84 62 85 41 86 42 87
REMARK SMILES IDX 50 88 43 89 44 90 48 91 51 92 45 93 46 94 49 95 47 96
REMARK H PARENT 5 6 88 23 12 30 71 49 39 60
REMARK Flexibility Score: inf
ROOT
ATOM      1  C   UNL A   1      34.911  24.694  25.056  1.00  0.00     0.021 C 
ENDROOT
BRANCH   1   2
ATOM      2  C   UNL A   1      33.909  25.818  24.782  1.00  0.00     0.116 C 
BRANCH   2   3
ATOM      3  N   UNL A   1      33.974  26.230  23.399  1.00  0.00    -0.356 N 
ATOM      4  C   UNL A   1      33.136  25.985  22.355  1.00  0.00     0.227 C 
ATOM      5  O   UNL A   1      33.516  26.419  21.266  1.00  0.00    -0.274 OA
ATOM      6  H   UNL A   1      34.758  26.781  23.174  1.00  0.00     0.163 HD
BRANCH   4   7
ATOM      7  C   UNL A   1      31.786  25.277  22.586  1.00  0.00     0.108 C 
ATOM      8  C   UNL A   1      30.803  26.066  23.450  1.00  0.00     0.023 C 
BRANCH   7   9
ATOM      9  C   UNL A   1      31.896  23.880  23.185  1.00  0.00    -0.000 A 
ATOM     10  C   UNL A   1      31.207  23.493  24.342  1.00  0.00     0.008 A 
ATOM     11  C   UNL A   1      32.647  22.907  22.518  1.00  0.00     0.127 A 
ATOM     12  C   UNL A   1      31.355  22.208  24.866  1.00  0.00     0.004 A 
ATOM     13  C   UNL A   1      32.789  21.619  23.026  1.00  0.00     0.043 A 
ATOM     14  F   UNL A   1      33.250  23.209  21.358  1.00  0.00    -0.207 F 
ATOM     15  C   UNL A   1      32.185  21.273  24.239  1.00  0.00    -0.045 A 
BRANCH  15  16
ATOM     16  C   UNL A   1      32.467  19.944  24.894  1.00  0.00     0.041 C 
BRANCH  16  17
ATOM     17  C   UNL A   1      33.337  18.982  24.066  1.00  0.00     0.022 C 
ATOM     18  C   UNL A   1      34.599  18.445  24.763  1.00  0.00     0.007 C 
ATOM     19  C   UNL A   1      32.630  17.726  23.547  1.00  0.00     0.117 C 
ATOM     20  C   UNL A   1      34.779  17.006  24.269  1.00  0.00     0.003 C 
ATOM     21  C   UNL A   1      33.791  16.840  23.124  1.00  0.00     0.032 C 
BRANCH  19  22
ATOM     22  O   UNL A   1      31.778  18.031  22.459  1.00  0.00    -0.393 OA
ATOM     23  H   UNL A   1      31.040  17.402  22.441  1.00  0.00     0.210 HD
ENDBRANCH  19  22
ENDBRANCH  16  17
ENDBRANCH  15  16
ENDBRANCH   7   9
ENDBRANCH   4   7
ENDBRANCH   2   3
ENDBRANCH   1   2
BRANCH   1  24
ATOM     24  C   UNL A   1      34.452  23.685  26.117  1.00  0.00     0.002 C 
BRANCH  24  25
ATOM     25  C   UNL A   1      35.318  22.428  26.235  1.00  0.00     0.002 C 
BRANCH  25  26
ATOM     26  C   UNL A   1      35.834  21.882  24.903  1.00  0.00     0.021 C 
BRANCH  26  27
ATOM     27  C   UNL A   1      37.339  22.018  24.712  1.00  0.00     0.116 C 
BRANCH  27  28
ATOM     28  N   UNL A   1      38.072  20.951  25.374  1.00  0.00    -0.352 N 
ATOM     29  C   UNL A   1      39.209  21.032  26.137  1.00  0.00     0.251 C 
ATOM     30  H   UNL A   1      37.703  20.046  25.257  1.00  0.00     0.163 HD
ATOM     31  O   UNL A   1      39.820  20.014  26.453  1.00  0.00    -0.269 OA
BRANCH  29  32
ATOM     32  C   UNL A   1      39.710  22.355  26.560  1.00  0.00     0.039 A 
ATOM     33  C   UNL A   1      40.826  22.421  27.396  1.00  0.00     0.014 A 
ATOM     34  C   UNL A   1      39.084  23.527  26.126  1.00  0.00     0.014 A 
ATOM     35  C   UNL A   1      41.351  23.665  27.748  1.00  0.00     0.010 A 
ATOM     36  C   UNL A   1      39.655  24.763  26.411  1.00  0.00     0.010 A 
ATOM     37  C   UNL A   1      40.791  24.846  27.231  1.00  0.00    -0.014 A 
BRANCH  37  38
ATOM     38  C   UNL A   1      41.381  26.173  27.536  1.00  0.00     0.031 A 
ATOM     39  C   UNL A   1      42.792  26.486  27.121  1.00  0.00     0.074 A 
ATOM     40  C   UNL A   1      40.667  27.073  28.240  1.00  0.00     0.049 A 
ATOM     41  N   UNL A   1      43.504  27.561  27.350  1.00  0.00    -0.248 NA
ATOM     42  C   UNL A   1      43.509  25.444  26.369  1.00  0.00     0.031 C 
ATOM     43  C   UNL A   1      39.306  26.870  28.737  1.00  0.00     0.029 A 
ATOM     44  N   UNL A   1      40.990  28.338  28.666  1.00  0.00    -0.354 N 
ATOM     45  C   UNL A   1      44.748  27.320  26.784  1.00  0.00     0.074 A 
ATOM     46  C   UNL A   1      44.716  25.975  26.250  1.00  0.00     0.031 C 
ATOM     47  C   UNL A   1      38.902  27.977  29.380  1.00  0.00     0.029 A 
ATOM     48  C   UNL A   1      39.988  28.952  29.378  1.00  0.00     0.049 A 
ATOM     49  H   UNL A   1      41.857  28.765  28.478  1.00  0.00     0.167 HD
ATOM     50  C   UNL A   1      45.812  28.153  26.694  1.00  0.00     0.037 A 
ATOM     51  C   UNL A   1      39.954  30.160  29.973  1.00  0.00     0.037 A 
ATOM     52  C   UNL A   1      45.831  29.497  27.210  1.00  0.00     0.049 A 
ATOM     53  C   UNL A   1      41.160  31.058  29.876  1.00  0.00     0.074 A 
ATOM     54  C   UNL A   1      46.840  30.439  27.121  1.00  0.00     0.029 A 
ATOM     55  N   UNL A   1      44.793  30.087  27.915  1.00  0.00    -0.354 N 
ATOM     56  N   UNL A   1      42.305  30.845  29.274  1.00  0.00    -0.248 NA
ATOM     57  C   UNL A   1      41.065  32.367  30.535  1.00  0.00     0.031 C 
ATOM     58  C   UNL A   1      46.437  31.580  27.823  1.00  0.00     0.029 A 
ATOM     59  C   UNL A   1      45.150  31.373  28.292  1.00  0.00     0.049 A 
ATOM     60  H   UNL A   1      43.932  29.658  28.119  1.00  0.00     0.167 HD
ATOM     61  C   UNL A   1      43.050  32.003  29.452  1.00  0.00     0.074 A 
ATOM     62  C   UNL A   1      42.222  32.921  30.204  1.00  0.00     0.031 C 
ATOM     63  C   UNL A   1      44.309  32.281  29.029  1.00  0.00     0.037 A 
BRANCH  50  64
ATOM     64  C   UNL A   1      47.048  27.639  26.014  1.00  0.00     0.064 A 
ATOM     65  C   UNL A   1      47.210  27.716  24.622  1.00  0.00     0.173 A 
ATOM     66  C   UNL A   1      48.107  27.110  26.767  1.00  0.00     0.173 A 
ATOM     67  F   UNL A   1      46.225  28.203  23.852  1.00  0.00    -0.203 F 
ATOM     68  C   UNL A   1      48.375  27.260  24.009  1.00  0.00     0.198 A 
ATOM     69  C   UNL A   1      49.284  26.687  26.154  1.00  0.00     0.198 A 
ATOM     70  F   UNL A   1      48.009  27.017  28.102  1.00  0.00    -0.203 F 
ATOM     71  F   UNL A   1      48.487  27.301  22.674  1.00  0.00    -0.200 F 
ATOM     72  C   UNL A   1      49.414  26.755  24.775  1.00  0.00     0.200 A 
ATOM     73  F   UNL A   1      50.293  26.213  26.899  1.00  0.00    -0.200 F 
ATOM     74  F   UNL A   1      50.539  26.330  24.185  1.00  0.00    -0.200 F 
ENDBRANCH  50  64
BRANCH  51  75
ATOM     75  C   UNL A   1      38.736  30.601  30.704  1.00  0.00     0.064 A 
ATOM     76  C   UNL A   1      37.664  31.199  30.027  1.00  0.00     0.173 A 
ATOM     77  C   UNL A   1      38.627  30.457  32.096  1.00  0.00     0.173 A 
ATOM     78  F   UNL A   1      37.727  31.376  28.699  1.00  0.00    -0.203 F 
ATOM     79  C   UNL A   1      36.545  31.664  30.715  1.00  0.00     0.198 A 
ATOM     80  C   UNL A   1      37.493  30.891  32.779  1.00  0.00     0.198 A 
ATOM     81  F   UNL A   1      39.621  29.886  32.792  1.00  0.00    -0.203 F 
ATOM     82  F   UNL A   1      35.562  32.285  30.049  1.00  0.00    -0.200 F 
ATOM     83  C   UNL A   1      36.459  31.505  32.090  1.00  0.00     0.200 A 
ATOM     84  F   UNL A   1      37.406  30.720  34.105  1.00  0.00    -0.200 F 
ATOM     85  F   UNL A   1      35.382  31.953  32.752  1.00  0.00    -0.200 F 
ENDBRANCH  51  75
BRANCH  63  86
ATOM     86  C   UNL A   1      44.850  33.651  29.326  1.00  0.00     0.064 A 
ATOM     87  C   UNL A   1      45.612  33.913  30.474  1.00  0.00     0.173 A 
ATOM     88  C   UNL A   1      44.639  34.705  28.424  1.00  0.00     0.173 A 
ATOM     89  F   UNL A   1      45.832  32.944  31.376  1.00  0.00    -0.203 F 
ATOM     90  C   UNL A   1      46.115  35.188  30.723  1.00  0.00     0.198 A 
ATOM     91  C   UNL A   1      45.174  35.968  28.657  1.00  0.00     0.198 A 
ATOM     92  F   UNL A   1      43.925  34.506  27.305  1.00  0.00    -0.203 F 
ATOM     93  F   UNL A   1      46.794  35.429  31.853  1.00  0.00    -0.200 F 
ATOM     94  C   UNL A   1      45.904  36.211  29.811  1.00  0.00     0.200 A 
ATOM     95  F   UNL A   1      44.983  36.950  27.767  1.00  0.00    -0.200 F 
ATOM     96  F   UNL A   1      46.398  37.434  30.047  1.00  0.00    -0.200 F 
ENDBRANCH  63  86
ENDBRANCH  37  38
ENDBRANCH  29  32
ENDBRANCH  27  28
ENDBRANCH  26  27
ENDBRANCH  25  26
ENDBRANCH  24  25
ENDBRANCH   1  24
TORSDOF 17
ENDMDL
MODEL 3
REMARK VINA RESULT:     -12.4      4.768      9.672
REMARK SMILES C[C@@H](C(=O)NCCCCCCNC(=O)c1ccc(-c2c3nc(c(-c4c(F)c(F)c(F)c(F)c4F)c4ccc([nH]4)c(-c4c(F)c(F)c(F)c(F)c4F)c4nc(c(-c5c(F)c(F)c(F)c(F)c5F)c5ccc2[nH]5)C=C4)C=C3)cc1)c1ccc(C[C@H]2CCC[C@@H]2O)cc1F
REMARK SMILES IDX 7 1 6 2 5 3 3 4 4 5 2 7 1 8 78 9 79 10 90 11 80 12 89 13
REMARK SMILES IDX 91 14 81 15 82 16 83 17 84 18 87 19 85 20 86 21 88 22 8 24
REMARK SMILES IDX 9 25 10 26 11 27 12 28 13 29 14 31 15 32 16 33 77 34 17 35
REMARK SMILES IDX 76 36 18 37 19 38 20 39 70 40 21 41 75 42 69 43 71 44 22 45
REMARK SMILES IDX 74 46 68 47 67 48 23 50 55 51 35 52 54 53 36 54 39 55 53 56
REMARK SMILES IDX 72 57 37 58 38 59 52 61 73 62 40 63 24 64 25 65 33 66 26 67
REMARK SMILES IDX 27 68 31 69 34 70 28 71 29 72 32 73 30 74 56 75 57 76 65 77
REMARK SMILES IDX 58 78 59 79 63 80 66 81 60 82 61 83 64 84 62 85 41 86 42 87
REMARK SMILES IDX 50 88 43 89 44 90 48 91 51 92 45 93 46 94 49 95 47 96
REMARK H PARENT 5 6 88 23 12 30 71 49 39 60
REMARK Flexibility Score: inf
ROOT
ATOM      1  C   UNL A   1      34.123  26.296  25.656  1.00  0.00     0.021 C 
ENDROOT
BRANCH   1   2
ATOM      2  C   UNL A   1      33.030  26.859  24.745  1.00  0.00     0.116 C 
BRANCH   2   3
ATOM      3  N   UNL A   1      33.469  26.865  23.368  1.00  0.00    -0.356 N 
ATOM      4  C   UNL A   1      33.004  26.190  22.281  1.00  0.00     0.227 C 
ATOM      5  O   UNL A   1      33.652  26.353  21.246  1.00  0.00    -0.274 OA
ATOM      6  H   UNL A   1      34.235  27.456  23.186  1.00  0.00     0.163 HD
BRANCH   4   7
ATOM      7  C   UNL A   1      31.712  25.354  22.375  1.00  0.00     0.108 C 
ATOM      8  C   UNL A   1      30.559  26.058  23.090  1.00  0.00     0.023 C 
BRANCH   7   9
ATOM      9  C   UNL A   1      31.885  23.988  23.028  1.00  0.00    -0.000 A 
ATOM     10  C   UNL A   1      31.226  23.622  24.210  1.00  0.00     0.008 A 
ATOM     11  C   UNL A   1      32.666  23.018  22.392  1.00  0.00     0.127 A 
ATOM     12  C   UNL A   1      31.432  22.367  24.784  1.00  0.00     0.004 A 
ATOM     13  C   UNL A   1      32.866  21.759  22.950  1.00  0.00     0.043 A 
ATOM     14  F   UNL A   1      33.242  23.296  21.212  1.00  0.00    -0.207 F 
ATOM     15  C   UNL A   1      32.290  21.440  24.184  1.00  0.00    -0.045 A 
BRANCH  15  16
ATOM     16  C   UNL A   1      32.633  20.152  24.889  1.00  0.00     0.041 C 
BRANCH  16  17
ATOM     17  C   UNL A   1      33.401  19.127  24.035  1.00  0.00     0.022 C 
ATOM     18  C   UNL A   1      34.707  18.587  24.643  1.00  0.00     0.007 C 
ATOM     19  C   UNL A   1      32.619  17.870  23.643  1.00  0.00     0.117 C 
ATOM     20  C   UNL A   1      34.805  17.121  24.206  1.00  0.00     0.003 C 
ATOM     21  C   UNL A   1      33.715  16.931  23.163  1.00  0.00     0.032 C 
BRANCH  19  22
ATOM     22  O   UNL A   1      31.680  18.149  22.621  1.00  0.00    -0.393 OA
ATOM     23  H   UNL A   1      31.399  17.318  22.206  1.00  0.00     0.210 HD
ENDBRANCH  19  22
ENDBRANCH  16  17
ENDBRANCH  15  16
ENDBRANCH   7   9
ENDBRANCH   4   7
ENDBRANCH   2   3
ENDBRANCH   1   2
BRANCH   1  24
ATOM     24  C   UNL A   1      34.262  24.768  25.603  1.00  0.00     0.002 C 
BRANCH  24  25
ATOM     25  C   UNL A   1      35.375  24.248  24.690  1.00  0.00     0.002 C 
BRANCH  25  26
ATOM     26  C   UNL A   1      35.674  22.755  24.836  1.00  0.00     0.021 C 
BRANCH  26  27
ATOM     27  C   UNL A   1      36.308  22.370  26.166  1.00  0.00     0.116 C 
BRANCH  27  28
ATOM     28  N   UNL A   1      37.314  21.332  26.011  1.00  0.00    -0.352 N 
ATOM     29  C   UNL A   1      38.680  21.444  26.055  1.00  0.00     0.251 C 
ATOM     30  H   UNL A   1      36.967  20.425  25.853  1.00  0.00     0.163 HD
ATOM     31  O   UNL A   1      39.393  20.508  25.700  1.00  0.00    -0.269 OA
BRANCH  29  32
ATOM     32  C   UNL A   1      39.294  22.708  26.510  1.00  0.00     0.039 A 
ATOM     33  C   UNL A   1      40.262  22.667  27.515  1.00  0.00     0.014 A 
ATOM     34  C   UNL A   1      38.920  23.928  25.940  1.00  0.00     0.014 A 
ATOM     35  C   UNL A   1      40.899  23.845  27.906  1.00  0.00     0.010 A 
ATOM     36  C   UNL A   1      39.611  25.088  26.274  1.00  0.00     0.010 A 
ATOM     37  C   UNL A   1      40.604  25.060  27.265  1.00  0.00    -0.014 A 
BRANCH  37  38
ATOM     38  C   UNL A   1      41.324  26.310  27.619  1.00  0.00     0.031 A 
ATOM     39  C   UNL A   1      40.610  27.410  28.355  1.00  0.00     0.074 A 
ATOM     40  C   UNL A   1      42.601  26.478  27.224  1.00  0.00     0.049 A 
ATOM     41  N   UNL A   1      41.046  28.596  28.698  1.00  0.00    -0.248 NA
ATOM     42  C   UNL A   1      39.212  27.154  28.738  1.00  0.00     0.031 C 
ATOM     43  C   UNL A   1      43.386  25.503  26.465  1.00  0.00     0.029 A 
ATOM     44  N   UNL A   1      43.462  27.533  27.398  1.00  0.00    -0.354 N 
ATOM     45  C   UNL A   1      39.978  29.227  29.321  1.00  0.00     0.074 A 
ATOM     46  C   UNL A   1      38.855  28.317  29.260  1.00  0.00     0.031 C 
ATOM     47  C   UNL A   1      44.618  25.994  26.259  1.00  0.00     0.029 A 
ATOM     48  C   UNL A   1      44.699  27.334  26.833  1.00  0.00     0.049 A 
ATOM     49  H   UNL A   1      43.217  28.353  27.883  1.00  0.00     0.167 HD
ATOM     50  C   UNL A   1      39.945  30.444  29.913  1.00  0.00     0.037 A 
ATOM     51  C   UNL A   1      45.772  28.146  26.773  1.00  0.00     0.037 A 
ATOM     52  C   UNL A   1      41.071  31.338  29.987  1.00  0.00     0.049 A 
ATOM     53  C   UNL A   1      45.698  29.504  27.421  1.00  0.00     0.074 A 
ATOM     54  C   UNL A   1      41.154  32.569  30.613  1.00  0.00     0.029 A 
ATOM     55  N   UNL A   1      42.310  31.097  29.412  1.00  0.00    -0.354 N 
ATOM     56  N   UNL A   1      44.705  30.060  28.071  1.00  0.00    -0.248 NA
ATOM     57  C   UNL A   1      46.900  30.345  27.333  1.00  0.00     0.031 C 
ATOM     58  C   UNL A   1      42.424  33.100  30.367  1.00  0.00     0.029 A 
ATOM     59  C   UNL A   1      43.156  32.171  29.645  1.00  0.00     0.049 A 
ATOM     60  H   UNL A   1      42.553  30.285  28.912  1.00  0.00     0.167 HD
ATOM     61  C   UNL A   1      45.172  31.296  28.498  1.00  0.00     0.074 A 
ATOM     62  C   UNL A   1      46.543  31.402  28.047  1.00  0.00     0.031 C 
ATOM     63  C   UNL A   1      44.523  32.256  29.201  1.00  0.00     0.037 A 
BRANCH  50  64
ATOM     64  C   UNL A   1      38.648  30.888  30.529  1.00  0.00     0.064 A 
ATOM     65  C   UNL A   1      38.419  30.796  31.910  1.00  0.00     0.173 A 
ATOM     66  C   UNL A   1      37.643  31.461  29.735  1.00  0.00     0.173 A 
ATOM     67  F   UNL A   1      39.342  30.246  32.714  1.00  0.00    -0.203 F 
ATOM     68  C   UNL A   1      37.223  31.236  32.470  1.00  0.00     0.198 A 
ATOM     69  C   UNL A   1      36.462  31.933  30.304  1.00  0.00     0.198 A 
ATOM     70  F   UNL A   1      37.811  31.580  28.410  1.00  0.00    -0.203 F 
ATOM     71  F   UNL A   1      37.008  31.094  33.785  1.00  0.00    -0.200 F 
ATOM     72  C   UNL A   1      36.249  31.813  31.669  1.00  0.00     0.200 A 
ATOM     73  F   UNL A   1      35.529  32.504  29.528  1.00  0.00    -0.200 F 
ATOM     74  F   UNL A   1      35.104  32.250  32.210  1.00  0.00    -0.200 F 
ENDBRANCH  50  64
BRANCH  51  75
ATOM     75  C   UNL A   1      47.012  27.699  26.085  1.00  0.00     0.064 A 
ATOM     76  C   UNL A   1      47.122  27.749  24.688  1.00  0.00     0.173 A 
ATOM     77  C   UNL A   1      48.104  27.189  26.804  1.00  0.00     0.173 A 
ATOM     78  F   UNL A   1      46.099  28.211  23.953  1.00  0.00    -0.203 F 
ATOM     79  C   UNL A   1      48.260  27.279  24.036  1.00  0.00     0.198 A 
ATOM     80  C   UNL A   1      49.255  26.751  26.153  1.00  0.00     0.198 A 
ATOM     81  F   UNL A   1      48.054  27.124  28.143  1.00  0.00    -0.203 F 
ATOM     82  F   UNL A   1      48.312  27.284  22.697  1.00  0.00    -0.200 F 
ATOM     83  C   UNL A   1      49.327  26.785  24.770  1.00  0.00     0.200 A 
ATOM     84  F   UNL A   1      50.291  26.290  26.867  1.00  0.00    -0.200 F 
ATOM     85  F   UNL A   1      50.422  26.332  24.142  1.00  0.00    -0.200 F 
ENDBRANCH  51  75
BRANCH  63  86
ATOM     86  C   UNL A   1      45.302  33.487  29.571  1.00  0.00     0.064 A 
ATOM     87  C   UNL A   1      45.315  34.628  28.756  1.00  0.00     0.173 A 
ATOM     88  C   UNL A   1      46.011  33.538  30.782  1.00  0.00     0.173 A 
ATOM     89  F   UNL A   1      44.666  34.628  27.582  1.00  0.00    -0.203 F 
ATOM     90  C   UNL A   1      46.034  35.762  29.125  1.00  0.00     0.198 A 
ATOM     91  C   UNL A   1      46.698  34.685  31.165  1.00  0.00     0.198 A 
ATOM     92  F   UNL A   1      46.025  32.477  31.603  1.00  0.00    -0.203 F 
ATOM     93  F   UNL A   1      46.076  36.822  28.305  1.00  0.00    -0.200 F 
ATOM     94  C   UNL A   1      46.717  35.794  30.332  1.00  0.00     0.200 A 
ATOM     95  F   UNL A   1      47.343  34.719  32.339  1.00  0.00    -0.200 F 
ATOM     96  F   UNL A   1      47.399  36.890  30.690  1.00  0.00    -0.200 F 
ENDBRANCH  63  86
ENDBRANCH  37  38
ENDBRANCH  29  32
ENDBRANCH  27  28
ENDBRANCH  26  27
ENDBRANCH  25  26
ENDBRANCH  24  25
ENDBRANCH   1  24
TORSDOF 17
ENDMDL
