MODEL 1
REMARK VINA RESULT:     -11.2      0.000      0.000
REMARK SMILES Cc1nc(CNC(=O)[C@H]2CCO[C@H]2C)sc1C(=O)NCCCCCCNC(=O)c1ccc(-c2c3nc(c(-c4c(F)c(F)c(F)c(F)c4F)c4ccc([nH]4)c(-c4c(F)c(F)c(F)c(F)c4F)c4nc(c(-c5c(F)c(F)c(F)c(F)c5F)c5ccc2[nH]5)C=C4)C=C3)cc1
REMARK SMILES IDX 22 1 21 2 20 3 19 4 17 5 18 6 16 8 1 9 2 10 3 11 4 12 15 13
REMARK SMILES IDX 5 14 6 15 7 16 8 18 9 19 10 20 13 21 11 22 12 23 14 24 23 25
REMARK SMILES IDX 24 26 25 27 26 28 27 29 28 31 29 32 30 33 91 34 31 35 90 36
REMARK SMILES IDX 32 37 33 38 34 39 84 40 35 41 89 42 83 43 85 44 36 45 88 46
REMARK SMILES IDX 82 47 81 48 37 50 69 51 49 52 68 53 50 54 53 55 67 56 86 57
REMARK SMILES IDX 51 58 52 59 66 61 87 62 54 63 38 64 39 65 47 66 40 67 41 68
REMARK SMILES IDX 45 69 48 70 42 71 43 72 46 73 44 74 70 75 71 76 79 77 72 78
REMARK SMILES IDX 73 79 77 80 80 81 74 82 75 83 78 84 76 85 55 86 56 87 64 88
REMARK SMILES IDX 57 89 58 90 62 91 65 92 59 93 60 94 63 95 61 96
REMARK H PARENT 19 7 6 17 26 30 85 49 53 60
REMARK Flexibility Score: inf
ROOT
ATOM      1  C   UNL A   1      34.308  32.172  28.756  1.00  0.00     0.002 C 
ENDROOT
BRANCH   1   2
ATOM      2  C   UNL A   1      33.645  31.670  27.469  1.00  0.00     0.021 C 
BRANCH   2   3
ATOM      3  C   UNL A   1      33.949  30.202  27.157  1.00  0.00     0.116 C 
BRANCH   3   4
ATOM      4  N   UNL A   1      32.916  29.359  27.706  1.00  0.00    -0.351 N 
ATOM      5  C   UNL A   1      32.172  28.320  27.215  1.00  0.00     0.263 C 
ATOM      6  O   UNL A   1      31.363  27.880  28.043  1.00  0.00    -0.268 OA
ATOM      7  H   UNL A   1      32.699  29.578  28.640  1.00  0.00     0.163 HD
BRANCH   5   8
ATOM      8  C   UNL A   1      32.314  27.739  25.884  1.00  0.00     0.115 A 
ATOM      9  C   UNL A   1      30.785  28.884  24.075  1.00  0.00     0.068 C 
ATOM     10  C   UNL A   1      31.796  27.935  24.605  1.00  0.00     0.061 A 
ATOM     11  N   UNL A   1      32.260  27.046  23.641  1.00  0.00    -0.244 NA
ATOM     12  C   UNL A   1      33.021  26.121  24.170  1.00  0.00     0.113 A 
ATOM     13  S   UNL A   1      33.366  26.341  25.819  1.00  0.00    -0.111 S 
BRANCH  12  14
ATOM     14  C   UNL A   1      33.550  24.936  23.418  1.00  0.00     0.183 C 
BRANCH  14  15
ATOM     15  N   UNL A   1      34.607  24.316  24.204  1.00  0.00    -0.349 N 
ATOM     16  C   UNL A   1      34.651  23.083  24.781  1.00  0.00     0.226 C 
ATOM     17  H   UNL A   1      35.410  24.870  24.337  1.00  0.00     0.163 HD
ATOM     18  O   UNL A   1      35.625  22.801  25.477  1.00  0.00    -0.275 OA
BRANCH  16  19
ATOM     19  C   UNL A   1      33.530  22.100  24.519  1.00  0.00     0.109 C 
ATOM     20  C   UNL A   1      33.900  20.656  24.800  1.00  0.00     0.044 C 
ATOM     21  C   UNL A   1      32.292  22.271  25.392  1.00  0.00     0.127 C 
ATOM     22  C   UNL A   1      32.540  19.999  24.881  1.00  0.00     0.161 C 
ATOM     23  O   UNL A   1      31.615  20.994  25.345  1.00  0.00    -0.378 OA
ATOM     24  C   UNL A   1      32.550  22.584  26.864  1.00  0.00     0.039 C 
ENDBRANCH  16  19
ENDBRANCH  14  15
ENDBRANCH  12  14
ENDBRANCH   5   8
ENDBRANCH   3   4
ENDBRANCH   2   3
ENDBRANCH   1   2
BRANCH   1  25
ATOM     25  C   UNL A   1      34.466  33.695  28.837  1.00  0.00     0.002 C 
BRANCH  25  26
ATOM     26  C   UNL A   1      33.154  34.485  28.864  1.00  0.00     0.021 C 
BRANCH  26  27
ATOM     27  C   UNL A   1      33.301  35.944  29.286  1.00  0.00     0.116 C 
BRANCH  27  28
ATOM     28  N   UNL A   1      32.561  36.227  30.505  1.00  0.00    -0.352 N 
ATOM     29  C   UNL A   1      32.708  35.692  31.761  1.00  0.00     0.251 C 
ATOM     30  H   UNL A   1      31.848  36.900  30.417  1.00  0.00     0.163 HD
ATOM     31  O   UNL A   1      31.837  35.857  32.607  1.00  0.00    -0.269 OA
BRANCH  29  32
ATOM     32  C   UNL A   1      33.919  34.911  32.092  1.00  0.00     0.039 A 
ATOM     33  C   UNL A   1      35.171  35.519  31.971  1.00  0.00     0.014 A 
ATOM     34  C   UNL A   1      33.821  33.573  32.484  1.00  0.00     0.014 A 
ATOM     35  C   UNL A   1      36.324  34.800  32.291  1.00  0.00     0.010 A 
ATOM     36  C   UNL A   1      34.965  32.877  32.865  1.00  0.00     0.010 A 
ATOM     37  C   UNL A   1      36.228  33.481  32.765  1.00  0.00    -0.014 A 
BRANCH  37  38
ATOM     38  C   UNL A   1      37.437  32.712  33.154  1.00  0.00     0.031 A 
ATOM     39  C   UNL A   1      38.140  33.017  34.448  1.00  0.00     0.074 A 
ATOM     40  C   UNL A   1      37.938  31.788  32.311  1.00  0.00     0.049 A 
ATOM     41  N   UNL A   1      39.251  32.515  34.924  1.00  0.00    -0.248 NA
ATOM     42  C   UNL A   1      37.526  34.041  35.308  1.00  0.00     0.031 C 
ATOM     43  C   UNL A   1      37.371  31.436  31.009  1.00  0.00     0.029 A 
ATOM     44  N   UNL A   1      39.046  30.986  32.419  1.00  0.00    -0.354 N 
ATOM     45  C   UNL A   1      39.476  33.172  36.127  1.00  0.00     0.074 A 
ATOM     46  C   UNL A   1      38.415  34.143  36.285  1.00  0.00     0.031 C 
ATOM     47  C   UNL A   1      38.124  30.478  30.446  1.00  0.00     0.029 A 
ATOM     48  C   UNL A   1      39.246  30.176  31.328  1.00  0.00     0.049 A 
ATOM     49  H   UNL A   1      39.642  30.991  33.204  1.00  0.00     0.167 HD
ATOM     50  C   UNL A   1      40.468  32.969  37.027  1.00  0.00     0.037 A 
ATOM     51  C   UNL A   1      40.231  29.294  31.068  1.00  0.00     0.037 A 
ATOM     52  C   UNL A   1      41.505  31.983  36.879  1.00  0.00     0.049 A 
ATOM     53  C   UNL A   1      41.319  29.087  32.086  1.00  0.00     0.074 A 
ATOM     54  C   UNL A   1      42.519  31.656  37.763  1.00  0.00     0.029 A 
ATOM     55  N   UNL A   1      41.660  31.160  35.773  1.00  0.00    -0.354 N 
ATOM     56  N   UNL A   1      41.484  29.667  33.251  1.00  0.00    -0.248 NA
ATOM     57  C   UNL A   1      42.354  28.097  31.757  1.00  0.00     0.031 C 
ATOM     58  C   UNL A   1      43.312  30.668  37.174  1.00  0.00     0.029 A 
ATOM     59  C   UNL A   1      42.764  30.341  35.943  1.00  0.00     0.049 A 
ATOM     60  H   UNL A   1      41.071  31.159  34.983  1.00  0.00     0.167 HD
ATOM     61  C   UNL A   1      42.619  29.093  33.805  1.00  0.00     0.074 A 
ATOM     62  C   UNL A   1      43.095  28.108  32.856  1.00  0.00     0.031 C 
ATOM     63  C   UNL A   1      43.215  29.356  34.994  1.00  0.00     0.037 A 
BRANCH  50  64
ATOM     64  C   UNL A   1      40.479  33.828  38.258  1.00  0.00     0.064 A 
ATOM     65  C   UNL A   1      41.229  35.011  38.323  1.00  0.00     0.173 A 
ATOM     66  C   UNL A   1      39.689  33.490  39.369  1.00  0.00     0.173 A 
ATOM     67  F   UNL A   1      42.009  35.374  37.293  1.00  0.00    -0.203 F 
ATOM     68  C   UNL A   1      41.210  35.812  39.463  1.00  0.00     0.198 A 
ATOM     69  C   UNL A   1      39.649  34.309  40.495  1.00  0.00     0.198 A 
ATOM     70  F   UNL A   1      38.947  32.374  39.357  1.00  0.00    -0.203 F 
ATOM     71  F   UNL A   1      41.969  36.915  39.517  1.00  0.00    -0.200 F 
ATOM     72  C   UNL A   1      40.414  35.465  40.544  1.00  0.00     0.200 A 
ATOM     73  F   UNL A   1      38.869  33.980  41.533  1.00  0.00    -0.200 F 
ATOM     74  F   UNL A   1      40.388  36.241  41.635  1.00  0.00    -0.200 F 
ENDBRANCH  50  64
BRANCH  51  75
ATOM     75  C   UNL A   1      40.223  28.524  29.797  1.00  0.00     0.064 A 
ATOM     76  C   UNL A   1      39.570  27.287  29.710  1.00  0.00     0.173 A 
ATOM     77  C   UNL A   1      40.875  28.999  28.649  1.00  0.00     0.173 A 
ATOM     78  F   UNL A   1      38.948  26.781  30.786  1.00  0.00    -0.203 F 
ATOM     79  C   UNL A   1      39.590  26.542  28.532  1.00  0.00     0.198 A 
ATOM     80  C   UNL A   1      40.870  28.268  27.463  1.00  0.00     0.198 A 
ATOM     81  F   UNL A   1      41.509  30.181  28.678  1.00  0.00    -0.203 F 
ATOM     82  F   UNL A   1      38.999  25.341  28.492  1.00  0.00    -0.200 F 
ATOM     83  C   UNL A   1      40.235  27.036  27.408  1.00  0.00     0.200 A 
ATOM     84  F   UNL A   1      41.481  28.755  26.375  1.00  0.00    -0.200 F 
ATOM     85  F   UNL A   1      40.253  26.321  26.276  1.00  0.00    -0.200 F 
ENDBRANCH  51  75
BRANCH  63  86
ATOM     86  C   UNL A   1      44.422  28.541  35.355  1.00  0.00     0.064 A 
ATOM     87  C   UNL A   1      44.312  27.325  36.041  1.00  0.00     0.173 A 
ATOM     88  C   UNL A   1      45.703  28.967  34.970  1.00  0.00     0.173 A 
ATOM     89  F   UNL A   1      43.110  26.883  36.443  1.00  0.00    -0.203 F 
ATOM     90  C   UNL A   1      45.443  26.574  36.351  1.00  0.00     0.198 A 
ATOM     91  C   UNL A   1      46.828  28.199  35.256  1.00  0.00     0.198 A 
ATOM     92  F   UNL A   1      45.861  30.121  34.304  1.00  0.00    -0.203 F 
ATOM     93  F   UNL A   1      45.318  25.436  37.049  1.00  0.00    -0.200 F 
ATOM     94  C   UNL A   1      46.698  27.008  35.953  1.00  0.00     0.200 A 
ATOM     95  F   UNL A   1      48.039  28.614  34.857  1.00  0.00    -0.200 F 
ATOM     96  F   UNL A   1      47.784  26.280  36.246  1.00  0.00    -0.200 F 
ENDBRANCH  63  86
ENDBRANCH  37  38
ENDBRANCH  29  32
ENDBRANCH  27  28
ENDBRANCH  26  27
ENDBRANCH  25  26
ENDBRANCH   1  25
TORSDOF 16
ENDMDL
MODEL 2
REMARK VINA RESULT:     -11.0      6.171     10.924
REMARK SMILES Cc1nc(CNC(=O)[C@H]2CCO[C@H]2C)sc1C(=O)NCCCCCCNC(=O)c1ccc(-c2c3nc(c(-c4c(F)c(F)c(F)c(F)c4F)c4ccc([nH]4)c(-c4c(F)c(F)c(F)c(F)c4F)c4nc(c(-c5c(F)c(F)c(F)c(F)c5F)c5ccc2[nH]5)C=C4)C=C3)cc1
REMARK SMILES IDX 22 1 21 2 20 3 19 4 17 5 18 6 16 8 1 9 2 10 3 11 4 12 15 13
REMARK SMILES IDX 5 14 6 15 7 16 8 18 9 19 10 20 13 21 11 22 12 23 14 24 23 25
REMARK SMILES IDX 24 26 25 27 26 28 27 29 28 31 29 32 30 33 91 34 31 35 90 36
REMARK SMILES IDX 32 37 33 38 34 39 84 40 35 41 89 42 83 43 85 44 36 45 88 46
REMARK SMILES IDX 82 47 81 48 37 50 69 51 49 52 68 53 50 54 53 55 67 56 86 57
REMARK SMILES IDX 51 58 52 59 66 61 87 62 54 63 38 64 39 65 47 66 40 67 41 68
REMARK SMILES IDX 45 69 48 70 42 71 43 72 46 73 44 74 70 75 71 76 79 77 72 78
REMARK SMILES IDX 73 79 77 80 80 81 74 82 75 83 78 84 76 85 55 86 56 87 64 88
REMARK SMILES IDX 57 89 58 90 62 91 65 92 59 93 60 94 63 95 61 96
REMARK H PARENT 19 7 6 17 26 30 85 49 53 60
REMARK Flexibility Score: inf
ROOT
ATOM      1  C   UNL A   1      37.730  21.859  25.039  1.00  0.00     0.002 C 
ENDROOT
BRANCH   1   2
ATOM      2  C   UNL A   1      36.678  22.952  24.823  1.00  0.00     0.021 C 
BRANCH   2   3
ATOM      3  C   UNL A   1      35.948  23.361  26.106  1.00  0.00     0.116 C 
BRANCH   3   4
ATOM      4  N   UNL A   1      35.195  22.245  26.620  1.00  0.00    -0.351 N 
ATOM      5  C   UNL A   1      33.880  21.869  26.552  1.00  0.00     0.263 C 
ATOM      6  O   UNL A   1      33.652  20.819  27.166  1.00  0.00    -0.268 OA
ATOM      7  H   UNL A   1      35.749  21.613  27.133  1.00  0.00     0.163 HD
BRANCH   5   8
ATOM      8  C   UNL A   1      32.841  22.578  25.814  1.00  0.00     0.115 A 
ATOM      9  C   UNL A   1      32.935  22.166  23.218  1.00  0.00     0.068 C 
ATOM     10  C   UNL A   1      32.416  22.718  24.494  1.00  0.00     0.061 A 
ATOM     11  N   UNL A   1      31.340  23.580  24.311  1.00  0.00    -0.244 NA
ATOM     12  C   UNL A   1      31.010  24.178  25.428  1.00  0.00     0.113 A 
ATOM     13  S   UNL A   1      31.852  23.635  26.801  1.00  0.00    -0.111 S 
BRANCH  12  14
ATOM     14  C   UNL A   1      29.990  25.272  25.527  1.00  0.00     0.183 C 
BRANCH  14  15
ATOM     15  N   UNL A   1      30.360  26.160  26.620  1.00  0.00    -0.349 N 
ATOM     16  C   UNL A   1      31.142  27.275  26.606  1.00  0.00     0.226 C 
ATOM     17  H   UNL A   1      29.988  25.920  27.499  1.00  0.00     0.163 HD
ATOM     18  O   UNL A   1      31.388  27.827  27.678  1.00  0.00    -0.275 OA
BRANCH  16  19
ATOM     19  C   UNL A   1      31.647  27.813  25.284  1.00  0.00     0.109 C 
ATOM     20  C   UNL A   1      32.183  29.230  25.360  1.00  0.00     0.044 C 
ATOM     21  C   UNL A   1      32.836  27.070  24.686  1.00  0.00     0.127 C 
ATOM     22  C   UNL A   1      32.980  29.328  24.078  1.00  0.00     0.161 C 
ATOM     23  O   UNL A   1      33.444  28.005  23.765  1.00  0.00    -0.378 OA
ATOM     24  C   UNL A   1      33.923  26.646  25.671  1.00  0.00     0.039 C 
ENDBRANCH  16  19
ENDBRANCH  14  15
ENDBRANCH  12  14
ENDBRANCH   5   8
ENDBRANCH   3   4
ENDBRANCH   2   3
ENDBRANCH   1   2
BRANCH   1  25
ATOM     25  C   UNL A   1      38.823  22.220  26.052  1.00  0.00     0.002 C 
BRANCH  25  26
ATOM     26  C   UNL A   1      39.687  21.045  26.523  1.00  0.00     0.021 C 
BRANCH  26  27
ATOM     27  C   UNL A   1      39.666  19.833  25.597  1.00  0.00     0.116 C 
BRANCH  27  28
ATOM     28  N   UNL A   1      40.711  18.881  25.936  1.00  0.00    -0.352 N 
ATOM     29  C   UNL A   1      42.040  19.100  26.199  1.00  0.00     0.251 C 
ATOM     30  H   UNL A   1      40.423  17.940  25.984  1.00  0.00     0.163 HD
ATOM     31  O   UNL A   1      42.828  18.160  26.217  1.00  0.00    -0.269 OA
BRANCH  29  32
ATOM     32  C   UNL A   1      42.526  20.472  26.455  1.00  0.00     0.039 A 
ATOM     33  C   UNL A   1      42.946  21.254  25.376  1.00  0.00     0.014 A 
ATOM     34  C   UNL A   1      42.602  20.972  27.758  1.00  0.00     0.014 A 
ATOM     35  C   UNL A   1      43.396  22.557  25.598  1.00  0.00     0.010 A 
ATOM     36  C   UNL A   1      42.989  22.292  27.973  1.00  0.00     0.010 A 
ATOM     37  C   UNL A   1      43.397  23.094  26.896  1.00  0.00    -0.014 A 
BRANCH  37  38
ATOM     38  C   UNL A   1      43.829  24.492  27.151  1.00  0.00     0.031 A 
ATOM     39  C   UNL A   1      42.838  25.509  27.644  1.00  0.00     0.074 A 
ATOM     40  C   UNL A   1      45.095  24.858  26.874  1.00  0.00     0.049 A 
ATOM     41  N   UNL A   1      43.000  26.792  27.848  1.00  0.00    -0.248 NA
ATOM     42  C   UNL A   1      41.475  25.025  27.921  1.00  0.00     0.031 C 
ATOM     43  C   UNL A   1      46.135  23.973  26.350  1.00  0.00     0.029 A 
ATOM     44  N   UNL A   1      45.719  26.075  26.983  1.00  0.00    -0.354 N 
ATOM     45  C   UNL A   1      41.761  27.269  28.258  1.00  0.00     0.074 A 
ATOM     46  C   UNL A   1      40.845  26.149  28.228  1.00  0.00     0.031 C 
ATOM     47  C   UNL A   1      47.272  24.671  26.197  1.00  0.00     0.029 A 
ATOM     48  C   UNL A   1      47.031  26.059  26.577  1.00  0.00     0.049 A 
ATOM     49  H   UNL A   1      45.269  26.884  27.319  1.00  0.00     0.167 HD
ATOM     50  C   UNL A   1      41.425  28.523  28.644  1.00  0.00     0.037 A 
ATOM     51  C   UNL A   1      47.935  27.056  26.511  1.00  0.00     0.037 A 
ATOM     52  C   UNL A   1      42.346  29.626  28.700  1.00  0.00     0.049 A 
ATOM     53  C   UNL A   1      47.534  28.439  26.948  1.00  0.00     0.074 A 
ATOM     54  C   UNL A   1      42.119  30.920  29.136  1.00  0.00     0.029 A 
ATOM     55  N   UNL A   1      43.675  29.565  28.307  1.00  0.00    -0.354 N 
ATOM     56  N   UNL A   1      46.377  28.863  27.398  1.00  0.00    -0.248 NA
ATOM     57  C   UNL A   1      48.567  29.482  26.876  1.00  0.00     0.031 C 
ATOM     58  C   UNL A   1      43.297  31.652  28.967  1.00  0.00     0.029 A 
ATOM     59  C   UNL A   1      44.275  30.803  28.473  1.00  0.00     0.049 A 
ATOM     60  H   UNL A   1      44.126  28.760  27.962  1.00  0.00     0.167 HD
ATOM     61  C   UNL A   1      46.551  30.208  27.690  1.00  0.00     0.074 A 
ATOM     62  C   UNL A   1      47.930  30.528  27.380  1.00  0.00     0.031 C 
ATOM     63  C   UNL A   1      45.652  31.100  28.173  1.00  0.00     0.037 A 
BRANCH  50  64
ATOM     64  C   UNL A   1      39.999  28.770  29.043  1.00  0.00     0.064 A 
ATOM     65  C   UNL A   1      39.029  29.155  28.105  1.00  0.00     0.173 A 
ATOM     66  C   UNL A   1      39.585  28.572  30.369  1.00  0.00     0.173 A 
ATOM     67  F   UNL A   1      39.374  29.369  26.826  1.00  0.00    -0.203 F 
ATOM     68  C   UNL A   1      37.704  29.357  28.484  1.00  0.00     0.198 A 
ATOM     69  C   UNL A   1      38.254  28.745  30.739  1.00  0.00     0.198 A 
ATOM     70  F   UNL A   1      40.470  28.197  31.305  1.00  0.00    -0.203 F 
ATOM     71  F   UNL A   1      36.805  29.767  27.579  1.00  0.00    -0.200 F 
ATOM     72  C   UNL A   1      37.316  29.143  29.798  1.00  0.00     0.200 A 
ATOM     73  F   UNL A   1      37.878  28.525  32.005  1.00  0.00    -0.200 F 
ATOM     74  F   UNL A   1      36.039  29.327  30.159  1.00  0.00    -0.200 F 
ENDBRANCH  50  64
BRANCH  51  75
ATOM     75  C   UNL A   1      49.314  26.780  26.032  1.00  0.00     0.064 A 
ATOM     76  C   UNL A   1      49.665  26.993  24.692  1.00  0.00     0.173 A 
ATOM     77  C   UNL A   1      50.303  26.287  26.896  1.00  0.00     0.173 A 
ATOM     78  F   UNL A   1      48.748  27.445  23.823  1.00  0.00    -0.203 F 
ATOM     79  C   UNL A   1      50.947  26.702  24.228  1.00  0.00     0.198 A 
ATOM     80  C   UNL A   1      51.593  26.024  26.437  1.00  0.00     0.198 A 
ATOM     81  F   UNL A   1      50.020  26.072  28.189  1.00  0.00    -0.203 F 
ATOM     82  F   UNL A   1      51.241  26.868  22.932  1.00  0.00    -0.200 F 
ATOM     83  C   UNL A   1      51.910  26.222  25.102  1.00  0.00     0.200 A 
ATOM     84  F   UNL A   1      52.526  25.575  27.288  1.00  0.00    -0.200 F 
ATOM     85  F   UNL A   1      53.142  25.943  24.656  1.00  0.00    -0.200 F 
ENDBRANCH  51  75
BRANCH  63  86
ATOM     86  C   UNL A   1      46.137  32.495  28.433  1.00  0.00     0.064 A 
ATOM     87  C   UNL A   1      46.681  32.867  29.670  1.00  0.00     0.173 A 
ATOM     88  C   UNL A   1      46.095  33.460  27.415  1.00  0.00     0.173 A 
ATOM     89  F   UNL A   1      46.730  31.984  30.679  1.00  0.00    -0.203 F 
ATOM     90  C   UNL A   1      47.143  34.163  29.888  1.00  0.00     0.198 A 
ATOM     91  C   UNL A   1      46.584  34.746  27.628  1.00  0.00     0.198 A 
ATOM     92  F   UNL A   1      45.590  33.153  26.211  1.00  0.00    -0.203 F 
ATOM     93  F   UNL A   1      47.616  34.510  31.093  1.00  0.00    -0.200 F 
ATOM     94  C   UNL A   1      47.101  35.098  28.865  1.00  0.00     0.200 A 
ATOM     95  F   UNL A   1      46.555  35.645  26.633  1.00  0.00    -0.200 F 
ATOM     96  F   UNL A   1      47.553  36.342  29.074  1.00  0.00    -0.200 F 
ENDBRANCH  63  86
ENDBRANCH  37  38
ENDBRANCH  29  32
ENDBRANCH  27  28
ENDBRANCH  26  27
ENDBRANCH  25  26
ENDBRANCH   1  25
TORSDOF 16
ENDMDL
MODEL 3
REMARK VINA RESULT:     -11.0      2.675      8.302
REMARK SMILES Cc1nc(CNC(=O)[C@H]2CCO[C@H]2C)sc1C(=O)NCCCCCCNC(=O)c1ccc(-c2c3nc(c(-c4c(F)c(F)c(F)c(F)c4F)c4ccc([nH]4)c(-c4c(F)c(F)c(F)c(F)c4F)c4nc(c(-c5c(F)c(F)c(F)c(F)c5F)c5ccc2[nH]5)C=C4)C=C3)cc1
REMARK SMILES IDX 22 1 21 2 20 3 19 4 17 5 18 6 16 8 1 9 2 10 3 11 4 12 15 13
REMARK SMILES IDX 5 14 6 15 7 16 8 18 9 19 10 20 13 21 11 22 12 23 14 24 23 25
REMARK SMILES IDX 24 26 25 27 26 28 27 29 28 31 29 32 30 33 91 34 31 35 90 36
REMARK SMILES IDX 32 37 33 38 34 39 84 40 35 41 89 42 83 43 85 44 36 45 88 46
REMARK SMILES IDX 82 47 81 48 37 50 69 51 49 52 68 53 50 54 53 55 67 56 86 57
REMARK SMILES IDX 51 58 52 59 66 61 87 62 54 63 38 64 39 65 47 66 40 67 41 68
REMARK SMILES IDX 45 69 48 70 42 71 43 72 46 73 44 74 70 75 71 76 79 77 72 78
REMARK SMILES IDX 73 79 77 80 80 81 74 82 75 83 78 84 76 85 55 86 56 87 64 88
REMARK SMILES IDX 57 89 58 90 62 91 65 92 59 93 60 94 63 95 61 96
REMARK H PARENT 19 7 6 17 26 30 85 49 53 60
REMARK Flexibility Score: inf
ROOT
ATOM      1  C   UNL A   1      32.703  26.805  22.228  1.00  0.00     0.002 C 
ENDROOT
BRANCH   1   2
ATOM      2  C   UNL A   1      31.204  26.840  22.545  1.00  0.00     0.021 C 
BRANCH   2   3
ATOM      3  C   UNL A   1      30.702  25.586  23.265  1.00  0.00     0.116 C 
BRANCH   3   4
ATOM      4  N   UNL A   1      30.558  25.853  24.675  1.00  0.00    -0.351 N 
ATOM      5  C   UNL A   1      31.118  25.326  25.807  1.00  0.00     0.263 C 
ATOM      6  O   UNL A   1      30.688  25.853  26.841  1.00  0.00    -0.268 OA
ATOM      7  H   UNL A   1      29.916  26.575  24.864  1.00  0.00     0.163 HD
BRANCH   5   8
ATOM      8  C   UNL A   1      32.142  24.286  25.834  1.00  0.00     0.115 A 
ATOM      9  C   UNL A   1      34.579  25.209  25.474  1.00  0.00     0.068 C 
ATOM     10  C   UNL A   1      33.528  24.190  25.720  1.00  0.00     0.061 A 
ATOM     11  N   UNL A   1      34.034  22.897  25.787  1.00  0.00    -0.244 NA
ATOM     12  C   UNL A   1      33.074  22.008  25.838  1.00  0.00     0.113 A 
ATOM     13  S   UNL A   1      31.509  22.659  25.971  1.00  0.00    -0.111 S 
BRANCH  12  14
ATOM     14  C   UNL A   1      33.294  20.527  25.767  1.00  0.00     0.183 C 
BRANCH  14  15
ATOM     15  N   UNL A   1      32.642  20.013  24.572  1.00  0.00    -0.349 N 
ATOM     16  C   UNL A   1      32.566  18.735  24.105  1.00  0.00     0.226 C 
ATOM     17  H   UNL A   1      32.186  20.688  24.019  1.00  0.00     0.163 HD
ATOM     18  O   UNL A   1      32.027  18.544  23.016  1.00  0.00    -0.275 OA
BRANCH  16  19
ATOM     19  C   UNL A   1      33.109  17.602  24.951  1.00  0.00     0.109 C 
ATOM     20  C   UNL A   1      32.158  16.428  25.089  1.00  0.00     0.044 C 
ATOM     21  C   UNL A   1      34.358  16.919  24.405  1.00  0.00     0.127 C 
ATOM     22  C   UNL A   1      33.086  15.335  25.572  1.00  0.00     0.161 C 
ATOM     23  O   UNL A   1      34.390  15.621  25.044  1.00  0.00    -0.378 OA
ATOM     24  C   UNL A   1      34.381  16.673  22.899  1.00  0.00     0.039 C 
ENDBRANCH  16  19
ENDBRANCH  14  15
ENDBRANCH  12  14
ENDBRANCH   5   8
ENDBRANCH   3   4
ENDBRANCH   2   3
ENDBRANCH   1   2
BRANCH   1  25
ATOM     25  C   UNL A   1      33.562  27.709  23.120  1.00  0.00     0.002 C 
BRANCH  25  26
ATOM     26  C   UNL A   1      32.786  28.758  23.923  1.00  0.00     0.021 C 
BRANCH  26  27
ATOM     27  C   UNL A   1      33.486  29.227  25.196  1.00  0.00     0.116 C 
BRANCH  27  28
ATOM     28  N   UNL A   1      32.929  30.478  25.684  1.00  0.00    -0.352 N 
ATOM     29  C   UNL A   1      33.254  31.200  26.805  1.00  0.00     0.251 C 
ATOM     30  H   UNL A   1      32.212  30.863  25.129  1.00  0.00     0.163 HD
ATOM     31  O   UNL A   1      32.514  32.095  27.197  1.00  0.00    -0.269 OA
BRANCH  29  32
ATOM     32  C   UNL A   1      34.497  30.896  27.543  1.00  0.00     0.039 A 
ATOM     33  C   UNL A   1      35.458  31.899  27.694  1.00  0.00     0.014 A 
ATOM     34  C   UNL A   1      34.732  29.615  28.052  1.00  0.00     0.014 A 
ATOM     35  C   UNL A   1      36.634  31.633  28.398  1.00  0.00     0.010 A 
ATOM     36  C   UNL A   1      35.874  29.369  28.810  1.00  0.00     0.010 A 
ATOM     37  C   UNL A   1      36.839  30.373  28.984  1.00  0.00    -0.014 A 
BRANCH  37  38
ATOM     38  C   UNL A   1      38.060  30.081  29.776  1.00  0.00     0.031 A 
ATOM     39  C   UNL A   1      39.113  29.160  29.225  1.00  0.00     0.074 A 
ATOM     40  C   UNL A   1      38.188  30.593  31.015  1.00  0.00     0.049 A 
ATOM     41  N   UNL A   1      40.207  28.719  29.794  1.00  0.00    -0.248 NA
ATOM     42  C   UNL A   1      38.894  28.644  27.864  1.00  0.00     0.031 C 
ATOM     43  C   UNL A   1      37.214  31.463  31.674  1.00  0.00     0.029 A 
ATOM     44  N   UNL A   1      39.184  30.445  31.946  1.00  0.00    -0.354 N 
ATOM     45  C   UNL A   1      40.794  27.864  28.870  1.00  0.00     0.074 A 
ATOM     46  C   UNL A   1      39.913  27.809  27.723  1.00  0.00     0.031 C 
ATOM     47  C   UNL A   1      37.667  31.785  32.896  1.00  0.00     0.029 A 
ATOM     48  C   UNL A   1      38.944  31.114  33.121  1.00  0.00     0.049 A 
ATOM     49  H   UNL A   1      39.996  29.908  31.788  1.00  0.00     0.167 HD
ATOM     50  C   UNL A   1      41.972  27.202  28.962  1.00  0.00     0.037 A 
ATOM     51  C   UNL A   1      39.669  31.173  34.254  1.00  0.00     0.037 A 
ATOM     52  C   UNL A   1      42.859  27.284  30.092  1.00  0.00     0.049 A 
ATOM     53  C   UNL A   1      40.975  30.429  34.329  1.00  0.00     0.074 A 
ATOM     54  C   UNL A   1      44.104  26.701  30.257  1.00  0.00     0.029 A 
ATOM     55  N   UNL A   1      42.595  27.994  31.254  1.00  0.00    -0.354 N 
ATOM     56  N   UNL A   1      41.553  29.678  33.422  1.00  0.00    -0.248 NA
ATOM     57  C   UNL A   1      41.734  30.547  35.582  1.00  0.00     0.031 C 
ATOM     58  C   UNL A   1      44.573  27.024  31.533  1.00  0.00     0.029 A 
ATOM     59  C   UNL A   1      43.644  27.850  32.147  1.00  0.00     0.049 A 
ATOM     60  H   UNL A   1      41.781  28.525  31.418  1.00  0.00     0.167 HD
ATOM     61  C   UNL A   1      42.753  29.261  33.981  1.00  0.00     0.074 A 
ATOM     62  C   UNL A   1      42.828  29.854  35.300  1.00  0.00     0.031 C 
ATOM     63  C   UNL A   1      43.708  28.459  33.450  1.00  0.00     0.037 A 
BRANCH  50  64
ATOM     64  C   UNL A   1      42.377  26.334  27.806  1.00  0.00     0.064 A 
ATOM     65  C   UNL A   1      41.891  25.025  27.665  1.00  0.00     0.173 A 
ATOM     66  C   UNL A   1      43.220  26.833  26.801  1.00  0.00     0.173 A 
ATOM     67  F   UNL A   1      41.091  24.497  28.603  1.00  0.00    -0.203 F 
ATOM     68  C   UNL A   1      42.254  24.240  26.574  1.00  0.00     0.198 A 
ATOM     69  C   UNL A   1      43.557  26.055  25.697  1.00  0.00     0.198 A 
ATOM     70  F   UNL A   1      43.707  28.080  26.884  1.00  0.00    -0.203 F 
ATOM     71  F   UNL A   1      41.813  22.978  26.483  1.00  0.00    -0.200 F 
ATOM     72  C   UNL A   1      43.079  24.757  25.587  1.00  0.00     0.200 A 
ATOM     73  F   UNL A   1      44.343  26.561  24.737  1.00  0.00    -0.200 F 
ATOM     74  F   UNL A   1      43.419  24.004  24.533  1.00  0.00    -0.200 F 
ENDBRANCH  50  64
BRANCH  51  75
ATOM     75  C   UNL A   1      39.189  31.982  35.405  1.00  0.00     0.064 A 
ATOM     76  C   UNL A   1      38.408  31.403  36.414  1.00  0.00     0.173 A 
ATOM     77  C   UNL A   1      39.487  33.348  35.514  1.00  0.00     0.173 A 
ATOM     78  F   UNL A   1      38.080  30.103  36.345  1.00  0.00    -0.203 F 
ATOM     79  C   UNL A   1      37.923  32.163  37.477  1.00  0.00     0.198 A 
ATOM     80  C   UNL A   1      39.026  34.102  36.592  1.00  0.00     0.198 A 
ATOM     81  F   UNL A   1      40.236  33.949  34.577  1.00  0.00    -0.203 F 
ATOM     82  F   UNL A   1      37.139  31.594  38.401  1.00  0.00    -0.200 F 
ATOM     83  C   UNL A   1      38.237  33.511  37.567  1.00  0.00     0.200 A 
ATOM     84  F   UNL A   1      39.344  35.400  36.684  1.00  0.00    -0.200 F 
ATOM     85  F   UNL A   1      37.772  34.241  38.589  1.00  0.00    -0.200 F 
ENDBRANCH  51  75
BRANCH  63  86
ATOM     86  C   UNL A   1      44.934  28.208  34.278  1.00  0.00     0.064 A 
ATOM     87  C   UNL A   1      45.019  27.122  35.159  1.00  0.00     0.173 A 
ATOM     88  C   UNL A   1      46.054  29.045  34.154  1.00  0.00     0.173 A 
ATOM     89  F   UNL A   1      43.969  26.302  35.323  1.00  0.00    -0.203 F 
ATOM     90  C   UNL A   1      46.172  26.895  35.906  1.00  0.00     0.198 A 
ATOM     91  C   UNL A   1      47.215  28.798  34.880  1.00  0.00     0.198 A 
ATOM     92  F   UNL A   1      46.026  30.094  33.319  1.00  0.00    -0.203 F 
ATOM     93  F   UNL A   1      46.214  25.877  36.777  1.00  0.00    -0.200 F 
ATOM     94  C   UNL A   1      47.271  27.728  35.761  1.00  0.00     0.200 A 
ATOM     95  F   UNL A   1      48.282  29.596  34.728  1.00  0.00    -0.200 F 
ATOM     96  F   UNL A   1      48.383  27.504  36.474  1.00  0.00    -0.200 F 
ENDBRANCH  63  86
ENDBRANCH  37  38
ENDBRANCH  29  32
ENDBRANCH  27  28
ENDBRANCH  26  27
ENDBRANCH  25  26
ENDBRANCH   1  25
TORSDOF 16
ENDMDL
