MODEL 1
REMARK VINA RESULT:     -13.6      0.000      0.000
REMARK SMILES Cc1ccc(Oc2cc(C(=O)NCCCCCCNC(=O)c3ccc(-c4c5nc(c(-c6c(F)c(F)c(F)c(F)c6F)c6ccc([nH]6)c(-c6c(F)c(F)c(F)c(F)c6F)c6nc(c(-c7c(F)c(F)c(F)c(F)c7F)c7ccc4[nH]7)C=C6)C=C5)cc3)nc3ccccc23)cc1
REMARK SMILES IDX 15 1 14 2 13 3 12 4 10 5 11 6 9 8 7 9 8 10 91 11 86 12 90 13
REMARK SMILES IDX 85 14 87 15 89 16 88 17 6 18 5 19 1 20 2 21 3 22 93 23 4 24
REMARK SMILES IDX 92 25 16 26 17 27 18 28 19 29 20 30 21 32 22 33 23 34 84 35
REMARK SMILES IDX 24 36 83 37 25 38 26 39 27 40 77 41 28 42 82 43 76 44 78 45
REMARK SMILES IDX 29 46 81 47 75 48 74 49 30 51 62 52 42 53 61 54 43 55 46 56
REMARK SMILES IDX 60 57 79 58 44 59 45 60 59 62 80 63 47 64 31 65 32 66 40 67
REMARK SMILES IDX 33 68 34 69 38 70 41 71 35 72 36 73 39 74 37 75 63 76 64 77
REMARK SMILES IDX 72 78 65 79 66 80 70 81 73 82 67 83 68 84 71 85 69 86 48 87
REMARK SMILES IDX 49 88 57 89 50 90 51 91 55 92 58 93 52 94 53 95 56 96 54 97
REMARK H PARENT 12 7 19 31 78 50 46 61
REMARK Flexibility Score: inf
ROOT
ATOM      1  C   UNL A   1      33.073  29.083  25.771  1.00  0.00     0.002 C 
ENDROOT
BRANCH   1   2
ATOM      2  C   UNL A   1      32.604  27.727  26.314  1.00  0.00     0.021 C 
BRANCH   2   3
ATOM      3  C   UNL A   1      31.528  27.019  25.490  1.00  0.00     0.116 C 
BRANCH   3   4
ATOM      4  N   UNL A   1      30.835  25.990  26.244  1.00  0.00    -0.351 N 
ATOM      5  C   UNL A   1      31.121  24.658  26.461  1.00  0.00     0.270 C 
ATOM      6  O   UNL A   1      30.397  24.050  27.252  1.00  0.00    -0.268 OA
ATOM      7  H   UNL A   1      30.009  26.300  26.681  1.00  0.00     0.163 HD
BRANCH   5   8
ATOM      8  C   UNL A   1      32.251  23.924  25.794  1.00  0.00     0.132 A 
ATOM      9  C   UNL A   1      33.012  22.220  24.317  1.00  0.00     0.139 A 
ATOM     10  C   UNL A   1      31.954  22.885  24.930  1.00  0.00     0.082 A 
ATOM     11  C   UNL A   1      34.347  22.637  24.520  1.00  0.00     0.043 A 
ATOM     12  C   UNL A   1      34.537  23.679  25.445  1.00  0.00     0.075 A 
ATOM     13  C   UNL A   1      35.480  22.074  23.883  1.00  0.00     0.014 A 
ATOM     14  N   UNL A   1      33.522  24.304  26.057  1.00  0.00    -0.242 NA
ATOM     15  C   UNL A   1      35.830  24.079  25.752  1.00  0.00     0.029 A 
ATOM     16  C   UNL A   1      36.770  22.492  24.208  1.00  0.00     0.001 A 
ATOM     17  C   UNL A   1      36.946  23.490  25.155  1.00  0.00     0.002 A 
BRANCH   9  18
ATOM     18  O   UNL A   1      32.666  21.182  23.479  1.00  0.00    -0.457 OA
BRANCH  18  19
ATOM     19  C   UNL A   1      32.671  19.895  23.981  1.00  0.00     0.127 A 
ATOM     20  C   UNL A   1      32.934  15.752  25.139  1.00  0.00     0.044 C 
ATOM     21  C   UNL A   1      32.817  17.195  24.745  1.00  0.00    -0.051 A 
ATOM     22  C   UNL A   1      32.605  17.543  23.406  1.00  0.00     0.007 A 
ATOM     23  C   UNL A   1      32.902  18.209  25.705  1.00  0.00     0.007 A 
ATOM     24  C   UNL A   1      32.535  18.885  23.027  1.00  0.00     0.047 A 
ATOM     25  C   UNL A   1      32.815  19.553  25.328  1.00  0.00     0.047 A 
ENDBRANCH  18  19
ENDBRANCH   9  18
ENDBRANCH   5   8
ENDBRANCH   3   4
ENDBRANCH   2   3
ENDBRANCH   1   2
BRANCH   1  26
ATOM     26  C   UNL A   1      32.366  30.334  26.318  1.00  0.00     0.002 C 
BRANCH  26  27
ATOM     27  C   UNL A   1      33.176  31.226  27.263  1.00  0.00     0.021 C 
BRANCH  27  28
ATOM     28  C   UNL A   1      34.308  30.512  27.991  1.00  0.00     0.116 C 
BRANCH  28  29
ATOM     29  N   UNL A   1      35.126  31.383  28.832  1.00  0.00    -0.352 N 
ATOM     30  C   UNL A   1      36.380  31.124  29.358  1.00  0.00     0.251 C 
ATOM     31  H   UNL A   1      34.738  32.261  29.051  1.00  0.00     0.163 HD
ATOM     32  O   UNL A   1      36.967  31.948  30.049  1.00  0.00    -0.269 OA
BRANCH  30  33
ATOM     33  C   UNL A   1      37.050  29.865  28.963  1.00  0.00     0.039 A 
ATOM     34  C   UNL A   1      37.374  28.956  29.972  1.00  0.00     0.014 A 
ATOM     35  C   UNL A   1      37.597  29.746  27.688  1.00  0.00     0.014 A 
ATOM     36  C   UNL A   1      38.445  28.087  29.776  1.00  0.00     0.010 A 
ATOM     37  C   UNL A   1      38.713  28.946  27.522  1.00  0.00     0.010 A 
ATOM     38  C   UNL A   1      39.180  28.175  28.592  1.00  0.00    -0.014 A 
BRANCH  38  39
ATOM     39  C   UNL A   1      40.517  27.602  28.460  1.00  0.00     0.031 A 
ATOM     40  C   UNL A   1      40.702  26.172  28.142  1.00  0.00     0.074 A 
ATOM     41  C   UNL A   1      41.614  28.376  28.621  1.00  0.00     0.049 A 
ATOM     42  N   UNL A   1      41.677  25.459  28.602  1.00  0.00    -0.248 NA
ATOM     43  C   UNL A   1      39.784  25.427  27.292  1.00  0.00     0.031 C 
ATOM     44  C   UNL A   1      42.994  28.010  28.311  1.00  0.00     0.029 A 
ATOM     45  N   UNL A   1      41.719  29.613  29.273  1.00  0.00    -0.354 N 
ATOM     46  C   UNL A   1      41.678  24.271  27.912  1.00  0.00     0.074 A 
ATOM     47  C   UNL A   1      40.439  24.269  27.162  1.00  0.00     0.031 C 
ATOM     48  C   UNL A   1      43.824  28.814  28.991  1.00  0.00     0.029 A 
ATOM     49  C   UNL A   1      43.011  29.653  29.851  1.00  0.00     0.049 A 
ATOM     50  H   UNL A   1      41.032  30.316  29.320  1.00  0.00     0.167 HD
ATOM     51  C   UNL A   1      42.789  23.477  27.921  1.00  0.00     0.037 A 
ATOM     52  C   UNL A   1      43.206  29.835  31.189  1.00  0.00     0.037 A 
ATOM     53  C   UNL A   1      43.877  24.073  28.690  1.00  0.00     0.049 A 
ATOM     54  C   UNL A   1      43.949  28.710  31.863  1.00  0.00     0.074 A 
ATOM     55  C   UNL A   1      44.978  24.818  28.300  1.00  0.00     0.029 A 
ATOM     56  N   UNL A   1      43.777  24.212  30.070  1.00  0.00    -0.354 N 
ATOM     57  N   UNL A   1      44.117  27.537  31.323  1.00  0.00    -0.248 NA
ATOM     58  C   UNL A   1      44.493  28.788  33.215  1.00  0.00     0.031 C 
ATOM     59  C   UNL A   1      45.539  25.416  29.449  1.00  0.00     0.029 A 
ATOM     60  C   UNL A   1      44.778  25.040  30.543  1.00  0.00     0.049 A 
ATOM     61  H   UNL A   1      43.092  23.781  30.631  1.00  0.00     0.167 HD
ATOM     62  C   UNL A   1      44.703  26.698  32.234  1.00  0.00     0.074 A 
ATOM     63  C   UNL A   1      44.955  27.537  33.389  1.00  0.00     0.031 C 
ATOM     64  C   UNL A   1      44.899  25.374  31.954  1.00  0.00     0.037 A 
BRANCH  51  65
ATOM     65  C   UNL A   1      42.982  22.335  26.950  1.00  0.00     0.064 A 
ATOM     66  C   UNL A   1      42.286  21.114  27.101  1.00  0.00     0.173 A 
ATOM     67  C   UNL A   1      43.885  22.371  25.874  1.00  0.00     0.173 A 
ATOM     68  F   UNL A   1      41.305  20.970  27.998  1.00  0.00    -0.203 F 
ATOM     69  C   UNL A   1      42.580  19.986  26.333  1.00  0.00     0.198 A 
ATOM     70  C   UNL A   1      44.218  21.228  25.139  1.00  0.00     0.198 A 
ATOM     71  F   UNL A   1      44.449  23.525  25.488  1.00  0.00    -0.203 F 
ATOM     72  F   UNL A   1      41.901  18.848  26.538  1.00  0.00    -0.200 F 
ATOM     73  C   UNL A   1      43.576  20.030  25.382  1.00  0.00     0.200 A 
ATOM     74  F   UNL A   1      45.174  21.295  24.202  1.00  0.00    -0.200 F 
ATOM     75  F   UNL A   1      43.902  18.931  24.689  1.00  0.00    -0.200 F 
ENDBRANCH  51  65
BRANCH  52  76
ATOM     76  C   UNL A   1      42.121  30.628  31.820  1.00  0.00     0.064 A 
ATOM     77  C   UNL A   1      41.082  29.921  32.455  1.00  0.00     0.173 A 
ATOM     78  C   UNL A   1      42.329  31.961  32.187  1.00  0.00     0.173 A 
ATOM     79  F   UNL A   1      40.840  28.643  32.122  1.00  0.00    -0.203 F 
ATOM     80  C   UNL A   1      40.400  30.471  33.535  1.00  0.00     0.198 A 
ATOM     81  C   UNL A   1      41.624  32.516  33.255  1.00  0.00     0.198 A 
ATOM     82  F   UNL A   1      43.299  32.682  31.610  1.00  0.00    -0.203 F 
ATOM     83  F   UNL A   1      39.526  29.722  34.223  1.00  0.00    -0.200 F 
ATOM     84  C   UNL A   1      40.699  31.755  33.957  1.00  0.00     0.200 A 
ATOM     85  F   UNL A   1      41.918  33.756  33.673  1.00  0.00    -0.200 F 
ATOM     86  F   UNL A   1      40.133  32.241  35.071  1.00  0.00    -0.200 F 
ENDBRANCH  52  76
BRANCH  64  87
ATOM     87  C   UNL A   1      45.334  24.315  32.935  1.00  0.00     0.064 A 
ATOM     88  C   UNL A   1      46.598  24.283  33.548  1.00  0.00     0.173 A 
ATOM     89  C   UNL A   1      44.417  23.335  33.385  1.00  0.00     0.173 A 
ATOM     90  F   UNL A   1      47.510  25.237  33.319  1.00  0.00    -0.203 F 
ATOM     91  C   UNL A   1      46.949  23.292  34.470  1.00  0.00     0.198 A 
ATOM     92  C   UNL A   1      44.751  22.382  34.348  1.00  0.00     0.198 A 
ATOM     93  F   UNL A   1      43.160  23.285  32.920  1.00  0.00    -0.203 F 
ATOM     94  F   UNL A   1      48.187  23.272  34.984  1.00  0.00    -0.200 F 
ATOM     95  C   UNL A   1      46.026  22.346  34.873  1.00  0.00     0.200 A 
ATOM     96  F   UNL A   1      43.825  21.511  34.772  1.00  0.00    -0.200 F 
ATOM     97  F   UNL A   1      46.356  21.419  35.782  1.00  0.00    -0.200 F 
ENDBRANCH  64  87
ENDBRANCH  38  39
ENDBRANCH  30  33
ENDBRANCH  28  29
ENDBRANCH  27  28
ENDBRANCH  26  27
ENDBRANCH   1  26
TORSDOF 15
ENDMDL
MODEL 2
REMARK VINA RESULT:     -13.6      3.820     10.326
REMARK SMILES Cc1ccc(Oc2cc(C(=O)NCCCCCCNC(=O)c3ccc(-c4c5nc(c(-c6c(F)c(F)c(F)c(F)c6F)c6ccc([nH]6)c(-c6c(F)c(F)c(F)c(F)c6F)c6nc(c(-c7c(F)c(F)c(F)c(F)c7F)c7ccc4[nH]7)C=C6)C=C5)cc3)nc3ccccc23)cc1
REMARK SMILES IDX 15 1 14 2 13 3 12 4 10 5 11 6 9 8 7 9 8 10 91 11 86 12 90 13
REMARK SMILES IDX 85 14 87 15 89 16 88 17 6 18 5 19 1 20 2 21 3 22 93 23 4 24
REMARK SMILES IDX 92 25 16 26 17 27 18 28 19 29 20 30 21 32 22 33 23 34 84 35
REMARK SMILES IDX 24 36 83 37 25 38 26 39 27 40 77 41 28 42 82 43 76 44 78 45
REMARK SMILES IDX 29 46 81 47 75 48 74 49 30 51 62 52 42 53 61 54 43 55 46 56
REMARK SMILES IDX 60 57 79 58 44 59 45 60 59 62 80 63 47 64 31 65 32 66 40 67
REMARK SMILES IDX 33 68 34 69 38 70 41 71 35 72 36 73 39 74 37 75 63 76 64 77
REMARK SMILES IDX 72 78 65 79 66 80 70 81 73 82 67 83 68 84 71 85 69 86 48 87
REMARK SMILES IDX 49 88 57 89 50 90 51 91 55 92 58 93 52 94 53 95 56 96 54 97
REMARK H PARENT 12 7 19 31 78 50 46 61
REMARK Flexibility Score: inf
ROOT
ATOM      1  C   UNL A   1      35.863  20.705  25.150  1.00  0.00     0.002 C 
ENDROOT
BRANCH   1   2
ATOM      2  C   UNL A   1      34.858  21.409  26.071  1.00  0.00     0.021 C 
BRANCH   2   3
ATOM      3  C   UNL A   1      33.383  21.128  25.784  1.00  0.00     0.116 C 
BRANCH   3   4
ATOM      4  N   UNL A   1      32.494  21.827  26.692  1.00  0.00    -0.351 N 
ATOM      5  C   UNL A   1      31.985  23.109  26.677  1.00  0.00     0.270 C 
ATOM      6  O   UNL A   1      31.147  23.391  27.536  1.00  0.00    -0.268 OA
ATOM      7  H   UNL A   1      32.198  21.287  27.460  1.00  0.00     0.163 HD
BRANCH   5   8
ATOM      8  C   UNL A   1      32.391  24.161  25.682  1.00  0.00     0.132 A 
ATOM      9  C   UNL A   1      33.423  26.250  25.200  1.00  0.00     0.139 A 
ATOM     10  C   UNL A   1      33.048  25.291  26.136  1.00  0.00     0.082 A 
ATOM     11  C   UNL A   1      33.197  26.046  23.820  1.00  0.00     0.043 A 
ATOM     12  C   UNL A   1      32.491  24.881  23.473  1.00  0.00     0.075 A 
ATOM     13  C   UNL A   1      33.609  26.928  22.790  1.00  0.00     0.014 A 
ATOM     14  N   UNL A   1      32.106  23.967  24.374  1.00  0.00    -0.242 NA
ATOM     15  C   UNL A   1      32.164  24.664  22.142  1.00  0.00     0.029 A 
ATOM     16  C   UNL A   1      33.269  26.688  21.460  1.00  0.00     0.001 A 
ATOM     17  C   UNL A   1      32.533  25.558  21.135  1.00  0.00     0.002 A 
BRANCH   9  18
ATOM     18  O   UNL A   1      34.059  27.365  25.703  1.00  0.00    -0.457 OA
BRANCH  18  19
ATOM     19  C   UNL A   1      33.309  28.499  25.953  1.00  0.00     0.127 A 
ATOM     20  C   UNL A   1      31.402  32.266  26.813  1.00  0.00     0.044 C 
ATOM     21  C   UNL A   1      32.047  30.942  26.528  1.00  0.00    -0.051 A 
ATOM     22  C   UNL A   1      33.175  30.540  27.251  1.00  0.00     0.007 A 
ATOM     23  C   UNL A   1      31.525  30.087  25.551  1.00  0.00     0.007 A 
ATOM     24  C   UNL A   1      33.803  29.327  26.963  1.00  0.00     0.047 A 
ATOM     25  C   UNL A   1      32.144  28.865  25.274  1.00  0.00     0.047 A 
ENDBRANCH  18  19
ENDBRANCH   9  18
ENDBRANCH   5   8
ENDBRANCH   3   4
ENDBRANCH   2   3
ENDBRANCH   1   2
BRANCH   1  26
ATOM     26  C   UNL A   1      37.053  21.542  24.650  1.00  0.00     0.002 C 
BRANCH  26  27
ATOM     27  C   UNL A   1      38.349  21.449  25.459  1.00  0.00     0.021 C 
BRANCH  27  28
ATOM     28  C   UNL A   1      38.800  22.762  26.086  1.00  0.00     0.116 C 
BRANCH  28  29
ATOM     29  N   UNL A   1      40.246  22.882  26.259  1.00  0.00    -0.352 N 
ATOM     30  C   UNL A   1      40.978  24.026  26.520  1.00  0.00     0.251 C 
ATOM     31  H   UNL A   1      40.761  22.047  26.180  1.00  0.00     0.163 HD
ATOM     32  O   UNL A   1      42.197  23.990  26.651  1.00  0.00    -0.269 OA
BRANCH  30  33
ATOM     33  C   UNL A   1      40.237  25.284  26.759  1.00  0.00     0.039 A 
ATOM     34  C   UNL A   1      40.778  26.466  26.248  1.00  0.00     0.014 A 
ATOM     35  C   UNL A   1      39.219  25.314  27.709  1.00  0.00     0.014 A 
ATOM     36  C   UNL A   1      40.479  27.671  26.878  1.00  0.00     0.010 A 
ATOM     37  C   UNL A   1      38.987  26.495  28.390  1.00  0.00     0.010 A 
ATOM     38  C   UNL A   1      39.677  27.657  28.021  1.00  0.00    -0.014 A 
BRANCH  38  39
ATOM     39  C   UNL A   1      39.630  28.777  28.956  1.00  0.00     0.031 A 
ATOM     40  C   UNL A   1      38.598  29.825  28.832  1.00  0.00     0.074 A 
ATOM     41  C   UNL A   1      40.532  28.873  29.959  1.00  0.00     0.049 A 
ATOM     42  N   UNL A   1      38.805  31.069  29.118  1.00  0.00    -0.248 NA
ATOM     43  C   UNL A   1      37.249  29.553  28.355  1.00  0.00     0.031 C 
ATOM     44  C   UNL A   1      40.486  29.799  31.089  1.00  0.00     0.029 A 
ATOM     45  N   UNL A   1      41.786  28.254  30.065  1.00  0.00    -0.354 N 
ATOM     46  C   UNL A   1      37.583  31.697  29.131  1.00  0.00     0.074 A 
ATOM     47  C   UNL A   1      36.656  30.731  28.578  1.00  0.00     0.031 C 
ATOM     48  C   UNL A   1      41.717  29.915  31.608  1.00  0.00     0.029 A 
ATOM     49  C   UNL A   1      42.621  29.157  30.764  1.00  0.00     0.049 A 
ATOM     50  H   UNL A   1      42.036  27.366  29.722  1.00  0.00     0.167 HD
ATOM     51  C   UNL A   1      37.445  32.909  29.744  1.00  0.00     0.037 A 
ATOM     52  C   UNL A   1      43.789  29.626  30.237  1.00  0.00     0.037 A 
ATOM     53  C   UNL A   1      38.693  33.357  30.351  1.00  0.00     0.049 A 
ATOM     54  C   UNL A   1      43.844  31.126  30.099  1.00  0.00     0.074 A 
ATOM     55  C   UNL A   1      39.166  33.272  31.651  1.00  0.00     0.029 A 
ATOM     56  N   UNL A   1      39.781  33.710  29.559  1.00  0.00    -0.354 N 
ATOM     57  N   UNL A   1      42.793  31.892  30.162  1.00  0.00    -0.248 NA
ATOM     58  C   UNL A   1      45.064  31.873  29.804  1.00  0.00     0.031 C 
ATOM     59  C   UNL A   1      40.547  33.566  31.641  1.00  0.00     0.029 A 
ATOM     60  C   UNL A   1      40.920  33.827  30.334  1.00  0.00     0.049 A 
ATOM     61  H   UNL A   1      39.745  33.856  28.586  1.00  0.00     0.167 HD
ATOM     62  C   UNL A   1      43.150  33.180  29.860  1.00  0.00     0.074 A 
ATOM     63  C   UNL A   1      44.587  33.124  29.681  1.00  0.00     0.031 C 
ATOM     64  C   UNL A   1      42.212  34.168  29.757  1.00  0.00     0.037 A 
BRANCH  51  65
ATOM     65  C   UNL A   1      36.095  33.505  30.074  1.00  0.00     0.064 A 
ATOM     66  C   UNL A   1      35.273  34.068  29.072  1.00  0.00     0.173 A 
ATOM     67  C   UNL A   1      35.581  33.595  31.379  1.00  0.00     0.173 A 
ATOM     68  F   UNL A   1      35.567  33.949  27.772  1.00  0.00    -0.203 F 
ATOM     69  C   UNL A   1      34.114  34.786  29.370  1.00  0.00     0.198 A 
ATOM     70  C   UNL A   1      34.449  34.358  31.684  1.00  0.00     0.198 A 
ATOM     71  F   UNL A   1      36.148  32.921  32.390  1.00  0.00    -0.203 F 
ATOM     72  F   UNL A   1      33.387  35.317  28.376  1.00  0.00    -0.200 F 
ATOM     73  C   UNL A   1      33.726  34.969  30.680  1.00  0.00     0.200 A 
ATOM     74  F   UNL A   1      34.072  34.506  32.962  1.00  0.00    -0.200 F 
ATOM     75  F   UNL A   1      32.649  35.711  30.971  1.00  0.00    -0.200 F 
ENDBRANCH  51  65
BRANCH  52  76
ATOM     76  C   UNL A   1      44.414  28.667  29.293  1.00  0.00     0.064 A 
ATOM     77  C   UNL A   1      44.986  27.500  29.834  1.00  0.00     0.173 A 
ATOM     78  C   UNL A   1      44.060  28.659  27.941  1.00  0.00     0.173 A 
ATOM     79  F   UNL A   1      45.354  27.469  31.125  1.00  0.00    -0.203 F 
ATOM     80  C   UNL A   1      45.035  26.320  29.097  1.00  0.00     0.198 A 
ATOM     81  C   UNL A   1      44.135  27.480  27.200  1.00  0.00     0.198 A 
ATOM     82  F   UNL A   1      43.518  29.745  27.373  1.00  0.00    -0.203 F 
ATOM     83  F   UNL A   1      45.437  25.184  29.684  1.00  0.00    -0.200 F 
ATOM     84  C   UNL A   1      44.574  26.304  27.792  1.00  0.00     0.200 A 
ATOM     85  F   UNL A   1      43.679  27.458  25.938  1.00  0.00    -0.200 F 
ATOM     86  F   UNL A   1      44.505  25.145  27.122  1.00  0.00    -0.200 F 
ENDBRANCH  52  76
BRANCH  64  87
ATOM     87  C   UNL A   1      42.447  35.562  29.230  1.00  0.00     0.064 A 
ATOM     88  C   UNL A   1      41.848  36.075  28.067  1.00  0.00     0.173 A 
ATOM     89  C   UNL A   1      43.221  36.487  29.972  1.00  0.00     0.173 A 
ATOM     90  F   UNL A   1      40.979  35.348  27.351  1.00  0.00    -0.203 F 
ATOM     91  C   UNL A   1      42.079  37.383  27.630  1.00  0.00     0.198 A 
ATOM     92  C   UNL A   1      43.403  37.808  29.563  1.00  0.00     0.198 A 
ATOM     93  F   UNL A   1      43.806  36.143  31.129  1.00  0.00    -0.203 F 
ATOM     94  F   UNL A   1      41.528  37.805  26.483  1.00  0.00    -0.200 F 
ATOM     95  C   UNL A   1      42.851  38.249  28.379  1.00  0.00     0.200 A 
ATOM     96  F   UNL A   1      44.104  38.653  30.333  1.00  0.00    -0.200 F 
ATOM     97  F   UNL A   1      43.042  39.512  27.973  1.00  0.00    -0.200 F 
ENDBRANCH  64  87
ENDBRANCH  38  39
ENDBRANCH  30  33
ENDBRANCH  28  29
ENDBRANCH  27  28
ENDBRANCH  26  27
ENDBRANCH   1  26
TORSDOF 15
ENDMDL
MODEL 3
REMARK VINA RESULT:     -13.5      1.860      2.796
REMARK SMILES Cc1ccc(Oc2cc(C(=O)NCCCCCCNC(=O)c3ccc(-c4c5nc(c(-c6c(F)c(F)c(F)c(F)c6F)c6ccc([nH]6)c(-c6c(F)c(F)c(F)c(F)c6F)c6nc(c(-c7c(F)c(F)c(F)c(F)c7F)c7ccc4[nH]7)C=C6)C=C5)cc3)nc3ccccc23)cc1
REMARK SMILES IDX 15 1 14 2 13 3 12 4 10 5 11 6 9 8 7 9 8 10 91 11 86 12 90 13
REMARK SMILES IDX 85 14 87 15 89 16 88 17 6 18 5 19 1 20 2 21 3 22 93 23 4 24
REMARK SMILES IDX 92 25 16 26 17 27 18 28 19 29 20 30 21 32 22 33 23 34 84 35
REMARK SMILES IDX 24 36 83 37 25 38 26 39 27 40 77 41 28 42 82 43 76 44 78 45
REMARK SMILES IDX 29 46 81 47 75 48 74 49 30 51 62 52 42 53 61 54 43 55 46 56
REMARK SMILES IDX 60 57 79 58 44 59 45 60 59 62 80 63 47 64 31 65 32 66 40 67
REMARK SMILES IDX 33 68 34 69 38 70 41 71 35 72 36 73 39 74 37 75 63 76 64 77
REMARK SMILES IDX 72 78 65 79 66 80 70 81 73 82 67 83 68 84 71 85 69 86 48 87
REMARK SMILES IDX 49 88 57 89 50 90 51 91 55 92 58 93 52 94 53 95 56 96 54 97
REMARK H PARENT 12 7 19 31 78 50 46 61
REMARK Flexibility Score: inf
ROOT
ATOM      1  C   UNL A   1      33.071  28.724  25.255  1.00  0.00     0.002 C 
ENDROOT
BRANCH   1   2
ATOM      2  C   UNL A   1      33.509  28.663  23.786  1.00  0.00     0.021 C 
BRANCH   2   3
ATOM      3  C   UNL A   1      32.398  28.387  22.772  1.00  0.00     0.116 C 
BRANCH   3   4
ATOM      4  N   UNL A   1      32.837  27.541  21.678  1.00  0.00    -0.351 N 
ATOM      5  C   UNL A   1      32.938  26.170  21.558  1.00  0.00     0.270 C 
ATOM      6  O   UNL A   1      33.241  25.725  20.449  1.00  0.00    -0.268 OA
ATOM      7  H   UNL A   1      33.112  28.036  20.873  1.00  0.00     0.163 HD
BRANCH   5   8
ATOM      8  C   UNL A   1      32.702  25.210  22.691  1.00  0.00     0.132 A 
ATOM      9  C   UNL A   1      33.267  23.205  23.842  1.00  0.00     0.139 A 
ATOM     10  C   UNL A   1      33.495  24.080  22.784  1.00  0.00     0.082 A 
ATOM     11  C   UNL A   1      32.297  23.496  24.828  1.00  0.00     0.043 A 
ATOM     12  C   UNL A   1      31.525  24.651  24.617  1.00  0.00     0.075 A 
ATOM     13  C   UNL A   1      32.046  22.708  25.979  1.00  0.00     0.014 A 
ATOM     14  N   UNL A   1      31.725  25.482  23.585  1.00  0.00    -0.242 NA
ATOM     15  C   UNL A   1      30.500  24.948  25.504  1.00  0.00     0.029 A 
ATOM     16  C   UNL A   1      31.011  23.025  26.856  1.00  0.00     0.001 A 
ATOM     17  C   UNL A   1      30.227  24.143  26.612  1.00  0.00     0.002 A 
BRANCH   9  18
ATOM     18  O   UNL A   1      34.070  22.086  23.881  1.00  0.00    -0.457 OA
BRANCH  18  19
ATOM     19  C   UNL A   1      35.300  22.175  24.504  1.00  0.00     0.127 A 
ATOM     20  C   UNL A   1      39.270  22.060  26.179  1.00  0.00     0.044 C 
ATOM     21  C   UNL A   1      37.878  22.105  25.620  1.00  0.00    -0.051 A 
ATOM     22  C   UNL A   1      37.194  20.917  25.341  1.00  0.00     0.007 A 
ATOM     23  C   UNL A   1      37.239  23.327  25.386  1.00  0.00     0.007 A 
ATOM     24  C   UNL A   1      35.914  20.953  24.784  1.00  0.00     0.047 A 
ATOM     25  C   UNL A   1      35.951  23.364  24.845  1.00  0.00     0.047 A 
ENDBRANCH  18  19
ENDBRANCH   9  18
ENDBRANCH   5   8
ENDBRANCH   3   4
ENDBRANCH   2   3
ENDBRANCH   1   2
BRANCH   1  26
ATOM     26  C   UNL A   1      31.964  29.732  25.609  1.00  0.00     0.002 C 
BRANCH  26  27
ATOM     27  C   UNL A   1      32.225  30.649  26.808  1.00  0.00     0.021 C 
BRANCH  27  28
ATOM     28  C   UNL A   1      33.414  30.241  27.669  1.00  0.00     0.116 C 
BRANCH  28  29
ATOM     29  N   UNL A   1      34.056  31.350  28.371  1.00  0.00    -0.352 N 
ATOM     30  C   UNL A   1      35.309  31.371  28.960  1.00  0.00     0.251 C 
ATOM     31  H   UNL A   1      33.535  32.182  28.433  1.00  0.00     0.163 HD
ATOM     32  O   UNL A   1      35.737  32.375  29.517  1.00  0.00    -0.269 OA
BRANCH  30  33
ATOM     33  C   UNL A   1      36.173  30.182  28.793  1.00  0.00     0.039 A 
ATOM     34  C   UNL A   1      36.667  29.569  29.947  1.00  0.00     0.014 A 
ATOM     35  C   UNL A   1      36.706  29.887  27.541  1.00  0.00     0.014 A 
ATOM     36  C   UNL A   1      37.864  28.861  29.874  1.00  0.00     0.010 A 
ATOM     37  C   UNL A   1      37.937  29.259  27.480  1.00  0.00     0.010 A 
ATOM     38  C   UNL A   1      38.550  28.815  28.658  1.00  0.00    -0.014 A 
BRANCH  38  39
ATOM     39  C   UNL A   1      39.961  28.450  28.571  1.00  0.00     0.031 A 
ATOM     40  C   UNL A   1      40.369  27.088  28.175  1.00  0.00     0.074 A 
ATOM     41  C   UNL A   1      40.924  29.359  28.848  1.00  0.00     0.049 A 
ATOM     42  N   UNL A   1      41.413  26.490  28.647  1.00  0.00    -0.248 NA
ATOM     43  C   UNL A   1      39.615  26.282  27.225  1.00  0.00     0.031 C 
ATOM     44  C   UNL A   1      42.356  29.216  28.600  1.00  0.00     0.029 A 
ATOM     45  N   UNL A   1      40.813  30.549  29.583  1.00  0.00    -0.354 N 
ATOM     46  C   UNL A   1      41.624  25.367  27.884  1.00  0.00     0.074 A 
ATOM     47  C   UNL A   1      40.438  25.241  27.062  1.00  0.00     0.031 C 
ATOM     48  C   UNL A   1      43.023  30.080  29.379  1.00  0.00     0.029 A 
ATOM     49  C   UNL A   1      42.053  30.730  30.240  1.00  0.00     0.049 A 
ATOM     50  H   UNL A   1      40.029  31.141  29.632  1.00  0.00     0.167 HD
ATOM     51  C   UNL A   1      42.836  24.740  27.911  1.00  0.00     0.037 A 
ATOM     52  C   UNL A   1      42.150  30.842  31.596  1.00  0.00     0.037 A 
ATOM     53  C   UNL A   1      43.784  25.428  28.781  1.00  0.00     0.049 A 
ATOM     54  C   UNL A   1      43.015  29.789  32.241  1.00  0.00     0.074 A 
ATOM     55  C   UNL A   1      44.784  26.349  28.507  1.00  0.00     0.029 A 
ATOM     56  N   UNL A   1      43.595  25.452  30.159  1.00  0.00    -0.354 N 
ATOM     57  N   UNL A   1      43.380  28.693  31.639  1.00  0.00    -0.248 NA
ATOM     58  C   UNL A   1      43.472  29.846  33.626  1.00  0.00     0.031 C 
ATOM     59  C   UNL A   1      45.191  26.936  29.725  1.00  0.00     0.029 A 
ATOM     60  C   UNL A   1      44.439  26.378  30.743  1.00  0.00     0.049 A 
ATOM     61  H   UNL A   1      42.952  24.889  30.648  1.00  0.00     0.167 HD
ATOM     62  C   UNL A   1      44.036  27.883  32.529  1.00  0.00     0.074 A 
ATOM     63  C   UNL A   1      44.102  28.664  33.748  1.00  0.00     0.031 C 
ATOM     64  C   UNL A   1      44.437  26.624  32.178  1.00  0.00     0.037 A 
BRANCH  51  65
ATOM     65  C   UNL A   1      43.244  23.710  26.883  1.00  0.00     0.064 A 
ATOM     66  C   UNL A   1      42.900  22.347  27.029  1.00  0.00     0.173 A 
ATOM     67  C   UNL A   1      44.023  24.004  25.750  1.00  0.00     0.173 A 
ATOM     68  F   UNL A   1      42.060  21.932  27.984  1.00  0.00    -0.203 F 
ATOM     69  C   UNL A   1      43.416  21.352  26.197  1.00  0.00     0.198 A 
ATOM     70  C   UNL A   1      44.583  23.004  24.949  1.00  0.00     0.198 A 
ATOM     71  F   UNL A   1      44.239  25.274  25.376  1.00  0.00    -0.203 F 
ATOM     72  F   UNL A   1      43.071  20.072  26.401  1.00  0.00    -0.200 F 
ATOM     73  C   UNL A   1      44.293  21.675  25.185  1.00  0.00     0.200 A 
ATOM     74  F   UNL A   1      45.416  23.339  23.953  1.00  0.00    -0.200 F 
ATOM     75  F   UNL A   1      44.838  20.715  24.427  1.00  0.00    -0.200 F 
ENDBRANCH  51  65
BRANCH  52  76
ATOM     76  C   UNL A   1      40.931  31.425  32.208  1.00  0.00     0.064 A 
ATOM     77  C   UNL A   1      40.009  30.537  32.795  1.00  0.00     0.173 A 
ATOM     78  C   UNL A   1      40.901  32.764  32.610  1.00  0.00     0.173 A 
ATOM     79  F   UNL A   1      39.994  29.246  32.428  1.00  0.00    -0.203 F 
ATOM     80  C   UNL A   1      39.213  30.936  33.864  1.00  0.00     0.198 A 
ATOM     81  C   UNL A   1      40.083  33.164  33.667  1.00  0.00     0.198 A 
ATOM     82  F   UNL A   1      41.752  33.652  32.080  1.00  0.00    -0.203 F 
ATOM     83  F   UNL A   1      38.460  30.034  34.508  1.00  0.00    -0.200 F 
ATOM     84  C   UNL A   1      39.280  32.241  34.323  1.00  0.00     0.200 A 
ATOM     85  F   UNL A   1      40.153  34.424  34.120  1.00  0.00    -0.200 F 
ATOM     86  F   UNL A   1      38.610  32.596  35.428  1.00  0.00    -0.200 F 
ENDBRANCH  52  76
BRANCH  64  87
ATOM     87  C   UNL A   1      44.971  25.570  33.115  1.00  0.00     0.064 A 
ATOM     88  C   UNL A   1      46.320  25.180  33.172  1.00  0.00     0.173 A 
ATOM     89  C   UNL A   1      44.129  24.986  34.091  1.00  0.00     0.173 A 
ATOM     90  F   UNL A   1      47.248  25.761  32.400  1.00  0.00    -0.203 F 
ATOM     91  C   UNL A   1      46.773  24.213  34.075  1.00  0.00     0.198 A 
ATOM     92  C   UNL A   1      44.596  24.064  35.028  1.00  0.00     0.198 A 
ATOM     93  F   UNL A   1      42.830  25.309  34.181  1.00  0.00    -0.203 F 
ATOM     94  F   UNL A   1      48.059  23.835  34.051  1.00  0.00    -0.200 F 
ATOM     95  C   UNL A   1      45.914  23.660  35.004  1.00  0.00     0.200 A 
ATOM     96  F   UNL A   1      43.763  23.583  35.961  1.00  0.00    -0.200 F 
ATOM     97  F   UNL A   1      46.360  22.758  35.889  1.00  0.00    -0.200 F 
ENDBRANCH  64  87
ENDBRANCH  38  39
ENDBRANCH  30  33
ENDBRANCH  28  29
ENDBRANCH  27  28
ENDBRANCH  26  27
ENDBRANCH   1  26
TORSDOF 15
ENDMDL
