MODEL 1
REMARK VINA RESULT:     -11.1      0.000      0.000
REMARK SMILES Cc1cc(C)n([C@@H](C(=O)NCCCCCCNC(=O)c2ccc(-c3c4nc(c(-c5c(F)c(F)c(F)c(F)c5F)c5ccc([nH]5)c(-c5c(F)c(F)c(F)c(F)c5F)c5nc(c(-c6c(F)c(F)c(F)c(F)c6F)c6ccc3[nH]6)C=C5)C=C4)cc2)C(C)C)n1
REMARK SMILES IDX 14 1 13 2 12 3 11 4 10 5 8 6 9 7 7 9 6 10 1 11 2 12 3 13
REMARK SMILES IDX 86 14 4 15 5 16 83 17 84 18 85 19 15 20 16 21 17 22 18 23
REMARK SMILES IDX 19 25 20 26 21 27 82 28 22 29 81 30 23 31 24 32 25 33 75 34
REMARK SMILES IDX 26 35 80 36 74 37 76 38 27 39 79 40 73 41 72 42 28 44 60 45
REMARK SMILES IDX 40 46 59 47 41 48 44 49 58 50 77 51 42 52 43 53 57 55 78 56
REMARK SMILES IDX 45 57 29 58 30 59 38 60 31 61 32 62 36 63 39 64 33 65 34 66
REMARK SMILES IDX 37 67 35 68 61 69 62 70 70 71 63 72 64 73 68 74 71 75 65 76
REMARK SMILES IDX 66 77 69 78 67 79 46 80 47 81 55 82 48 83 49 84 53 85 56 86
REMARK SMILES IDX 50 87 51 88 54 89 52 90
REMARK H PARENT 10 8 17 24 76 43 44 54
REMARK Flexibility Score: inf
ROOT
ATOM      1  C   UNL A   1      40.501  21.284  26.738  1.00  0.00     0.002 C 
ENDROOT
BRANCH   1   2
ATOM      2  C   UNL A   1      39.257  21.869  26.057  1.00  0.00     0.002 C 
BRANCH   2   3
ATOM      3  C   UNL A   1      38.840  23.278  26.503  1.00  0.00     0.021 C 
BRANCH   3   4
ATOM      4  C   UNL A   1      37.439  23.697  26.055  1.00  0.00     0.116 C 
BRANCH   4   5
ATOM      5  N   UNL A   1      37.253  23.482  24.631  1.00  0.00    -0.354 N 
ATOM      6  C   UNL A   1      36.100  23.262  23.928  1.00  0.00     0.245 C 
ATOM      7  O   UNL A   1      36.219  22.953  22.739  1.00  0.00    -0.273 OA
ATOM      8  H   UNL A   1      38.077  23.496  24.092  1.00  0.00     0.163 HD
BRANCH   6   9
ATOM      9  C   UNL A   1      34.736  23.428  24.604  1.00  0.00     0.199 C 
BRANCH   9  10
ATOM     10  N   UNL A   1      34.270  22.135  25.112  1.00  0.00    -0.257 N 
ATOM     11  C   UNL A   1      33.107  18.887  24.259  1.00  0.00     0.069 C 
ATOM     12  C   UNL A   1      33.545  20.138  24.921  1.00  0.00     0.060 A 
ATOM     13  C   UNL A   1      33.502  20.450  26.294  1.00  0.00     0.048 A 
ATOM     14  N   UNL A   1      34.035  21.153  24.205  1.00  0.00    -0.177 NA
ATOM     15  C   UNL A   1      33.978  21.740  26.399  1.00  0.00     0.037 A 
ATOM     16  C   UNL A   1      34.142  22.579  27.612  1.00  0.00     0.066 C 
ENDBRANCH   9  10
BRANCH   9  17
ATOM     17  C   UNL A   1      33.689  24.154  23.710  1.00  0.00     0.017 C 
ATOM     18  C   UNL A   1      32.274  24.059  24.299  1.00  0.00     0.010 C 
ATOM     19  C   UNL A   1      34.027  25.643  23.530  1.00  0.00     0.010 C 
ENDBRANCH   9  17
ENDBRANCH   6   9
ENDBRANCH   4   5
ENDBRANCH   3   4
ENDBRANCH   2   3
ENDBRANCH   1   2
BRANCH   1  20
ATOM     20  C   UNL A   1      41.053  19.978  26.152  1.00  0.00     0.021 C 
BRANCH  20  21
ATOM     21  C   UNL A   1      42.441  19.594  26.650  1.00  0.00     0.116 C 
BRANCH  21  22
ATOM     22  N   UNL A   1      43.416  19.489  25.564  1.00  0.00    -0.352 N 
ATOM     23  C   UNL A   1      44.014  20.497  24.844  1.00  0.00     0.251 C 
ATOM     24  H   UNL A   1      43.679  18.574  25.316  1.00  0.00     0.163 HD
ATOM     25  O   UNL A   1      44.545  20.264  23.756  1.00  0.00    -0.269 OA
BRANCH  23  26
ATOM     26  C   UNL A   1      44.004  21.869  25.376  1.00  0.00     0.039 A 
ATOM     27  C   UNL A   1      43.070  22.806  24.926  1.00  0.00     0.014 A 
ATOM     28  C   UNL A   1      44.923  22.203  26.365  1.00  0.00     0.014 A 
ATOM     29  C   UNL A   1      43.007  24.057  25.543  1.00  0.00     0.010 A 
ATOM     30  C   UNL A   1      44.773  23.384  27.057  1.00  0.00     0.010 A 
ATOM     31  C   UNL A   1      43.849  24.340  26.628  1.00  0.00    -0.014 A 
BRANCH  31  32
ATOM     32  C   UNL A   1      43.720  25.600  27.370  1.00  0.00     0.031 A 
ATOM     33  C   UNL A   1      44.672  26.705  27.029  1.00  0.00     0.074 A 
ATOM     34  C   UNL A   1      42.637  25.879  28.129  1.00  0.00     0.049 A 
ATOM     35  N   UNL A   1      45.385  27.430  27.833  1.00  0.00    -0.248 NA
ATOM     36  C   UNL A   1      44.855  27.046  25.609  1.00  0.00     0.031 C 
ATOM     37  C   UNL A   1      41.440  25.054  28.333  1.00  0.00     0.029 A 
ATOM     38  N   UNL A   1      42.313  27.043  28.761  1.00  0.00    -0.354 N 
ATOM     39  C   UNL A   1      45.998  28.408  27.048  1.00  0.00     0.074 A 
ATOM     40  C   UNL A   1      45.707  28.070  25.678  1.00  0.00     0.031 C 
ATOM     41  C   UNL A   1      40.439  25.825  28.803  1.00  0.00     0.029 A 
ATOM     42  C   UNL A   1      40.974  27.140  29.103  1.00  0.00     0.049 A 
ATOM     43  H   UNL A   1      42.970  27.750  28.956  1.00  0.00     0.167 HD
ATOM     44  C   UNL A   1      46.562  29.527  27.586  1.00  0.00     0.037 A 
ATOM     45  C   UNL A   1      40.323  28.230  29.567  1.00  0.00     0.037 A 
ATOM     46  C   UNL A   1      46.834  29.372  28.989  1.00  0.00     0.049 A 
ATOM     47  C   UNL A   1      41.334  29.161  30.115  1.00  0.00     0.074 A 
ATOM     48  C   UNL A   1      47.605  28.509  29.743  1.00  0.00     0.029 A 
ATOM     49  N   UNL A   1      46.027  30.016  29.891  1.00  0.00    -0.354 N 
ATOM     50  N   UNL A   1      42.038  28.931  31.187  1.00  0.00    -0.248 NA
ATOM     51  C   UNL A   1      41.838  30.214  29.249  1.00  0.00     0.031 C 
ATOM     52  C   UNL A   1      46.872  28.319  30.952  1.00  0.00     0.029 A 
ATOM     53  C   UNL A   1      45.720  29.101  30.863  1.00  0.00     0.049 A 
ATOM     54  H   UNL A   1      45.727  30.952  29.849  1.00  0.00     0.167 HD
ATOM     55  C   UNL A   1      43.274  29.497  30.922  1.00  0.00     0.074 A 
ATOM     56  C   UNL A   1      43.050  30.380  29.784  1.00  0.00     0.031 C 
ATOM     57  C   UNL A   1      44.415  28.982  31.466  1.00  0.00     0.037 A 
BRANCH  44  58
ATOM     58  C   UNL A   1      46.599  30.880  26.917  1.00  0.00     0.064 A 
ATOM     59  C   UNL A   1      47.806  31.612  26.879  1.00  0.00     0.173 A 
ATOM     60  C   UNL A   1      45.438  31.610  26.584  1.00  0.00     0.173 A 
ATOM     61  F   UNL A   1      48.969  31.027  27.205  1.00  0.00    -0.203 F 
ATOM     62  C   UNL A   1      47.834  32.981  26.598  1.00  0.00     0.198 A 
ATOM     63  C   UNL A   1      45.477  32.964  26.250  1.00  0.00     0.198 A 
ATOM     64  F   UNL A   1      44.216  31.070  26.677  1.00  0.00    -0.203 F 
ATOM     65  F   UNL A   1      48.988  33.658  26.697  1.00  0.00    -0.200 F 
ATOM     66  C   UNL A   1      46.670  33.657  26.289  1.00  0.00     0.200 A 
ATOM     67  F   UNL A   1      44.335  33.608  25.973  1.00  0.00    -0.200 F 
ATOM     68  F   UNL A   1      46.685  34.980  26.078  1.00  0.00    -0.200 F 
ENDBRANCH  44  58
BRANCH  45  69
ATOM     69  C   UNL A   1      38.907  28.599  29.369  1.00  0.00     0.064 A 
ATOM     70  C   UNL A   1      38.034  28.749  30.455  1.00  0.00     0.173 A 
ATOM     71  C   UNL A   1      38.440  29.051  28.118  1.00  0.00     0.173 A 
ATOM     72  F   UNL A   1      38.422  28.385  31.686  1.00  0.00    -0.203 F 
ATOM     73  C   UNL A   1      36.773  29.333  30.305  1.00  0.00     0.198 A 
ATOM     74  C   UNL A   1      37.177  29.623  27.966  1.00  0.00     0.198 A 
ATOM     75  F   UNL A   1      39.235  29.028  27.038  1.00  0.00    -0.203 F 
ATOM     76  F   UNL A   1      35.989  29.513  31.376  1.00  0.00    -0.200 F 
ATOM     77  C   UNL A   1      36.349  29.776  29.061  1.00  0.00     0.200 A 
ATOM     78  F   UNL A   1      36.795  30.078  26.764  1.00  0.00    -0.200 F 
ATOM     79  F   UNL A   1      35.163  30.384  28.928  1.00  0.00    -0.200 F 
ENDBRANCH  45  69
BRANCH  57  80
ATOM     80  C   UNL A   1      44.274  27.995  32.590  1.00  0.00     0.064 A 
ATOM     81  C   UNL A   1      44.153  26.608  32.402  1.00  0.00     0.173 A 
ATOM     82  C   UNL A   1      44.412  28.457  33.905  1.00  0.00     0.173 A 
ATOM     83  F   UNL A   1      44.128  26.079  31.174  1.00  0.00    -0.203 F 
ATOM     84  C   UNL A   1      44.115  25.731  33.484  1.00  0.00     0.198 A 
ATOM     85  C   UNL A   1      44.411  27.575  34.984  1.00  0.00     0.198 A 
ATOM     86  F   UNL A   1      44.595  29.766  34.144  1.00  0.00    -0.203 F 
ATOM     87  F   UNL A   1      43.981  24.413  33.275  1.00  0.00    -0.200 F 
ATOM     88  C   UNL A   1      44.250  26.215  34.773  1.00  0.00     0.200 A 
ATOM     89  F   UNL A   1      44.594  28.043  36.226  1.00  0.00    -0.200 F 
ATOM     90  F   UNL A   1      44.253  25.369  35.813  1.00  0.00    -0.200 F 
ENDBRANCH  57  80
ENDBRANCH  31  32
ENDBRANCH  23  26
ENDBRANCH  21  22
ENDBRANCH  20  21
ENDBRANCH   1  20
TORSDOF 15
ENDMDL
MODEL 2
REMARK VINA RESULT:     -10.8      0.773      2.136
REMARK SMILES Cc1cc(C)n([C@@H](C(=O)NCCCCCCNC(=O)c2ccc(-c3c4nc(c(-c5c(F)c(F)c(F)c(F)c5F)c5ccc([nH]5)c(-c5c(F)c(F)c(F)c(F)c5F)c5nc(c(-c6c(F)c(F)c(F)c(F)c6F)c6ccc3[nH]6)C=C5)C=C4)cc2)C(C)C)n1
REMARK SMILES IDX 14 1 13 2 12 3 11 4 10 5 8 6 9 7 7 9 6 10 1 11 2 12 3 13
REMARK SMILES IDX 86 14 4 15 5 16 83 17 84 18 85 19 15 20 16 21 17 22 18 23
REMARK SMILES IDX 19 25 20 26 21 27 82 28 22 29 81 30 23 31 24 32 25 33 75 34
REMARK SMILES IDX 26 35 80 36 74 37 76 38 27 39 79 40 73 41 72 42 28 44 60 45
REMARK SMILES IDX 40 46 59 47 41 48 44 49 58 50 77 51 42 52 43 53 57 55 78 56
REMARK SMILES IDX 45 57 29 58 30 59 38 60 31 61 32 62 36 63 39 64 33 65 34 66
REMARK SMILES IDX 37 67 35 68 61 69 62 70 70 71 63 72 64 73 68 74 71 75 65 76
REMARK SMILES IDX 66 77 69 78 67 79 46 80 47 81 55 82 48 83 49 84 53 85 56 86
REMARK SMILES IDX 50 87 51 88 54 89 52 90
REMARK H PARENT 10 8 17 24 76 43 44 54
REMARK Flexibility Score: inf
ROOT
ATOM      1  C   UNL A   1      40.313  21.370  26.868  1.00  0.00     0.002 C 
ENDROOT
BRANCH   1   2
ATOM      2  C   UNL A   1      39.422  22.204  25.937  1.00  0.00     0.002 C 
BRANCH   2   3
ATOM      3  C   UNL A   1      38.735  23.422  26.569  1.00  0.00     0.021 C 
BRANCH   3   4
ATOM      4  C   UNL A   1      37.397  23.799  25.929  1.00  0.00     0.116 C 
BRANCH   4   5
ATOM      5  N   UNL A   1      37.414  23.567  24.496  1.00  0.00    -0.354 N 
ATOM      6  C   UNL A   1      36.409  23.135  23.673  1.00  0.00     0.245 C 
ATOM      7  O   UNL A   1      36.714  22.870  22.508  1.00  0.00    -0.273 OA
ATOM      8  H   UNL A   1      38.273  23.748  24.051  1.00  0.00     0.163 HD
BRANCH   6   9
ATOM      9  C   UNL A   1      34.973  23.026  24.195  1.00  0.00     0.199 C 
BRANCH   9  10
ATOM     10  N   UNL A   1      34.367  24.358  24.272  1.00  0.00    -0.257 N 
ATOM     11  C   UNL A   1      33.887  27.260  26.266  1.00  0.00     0.069 C 
ATOM     12  C   UNL A   1      33.901  26.211  25.219  1.00  0.00     0.060 A 
ATOM     13  C   UNL A   1      33.185  26.191  24.007  1.00  0.00     0.048 A 
ATOM     14  N   UNL A   1      34.639  25.109  25.370  1.00  0.00    -0.177 NA
ATOM     15  C   UNL A   1      33.502  24.990  23.406  1.00  0.00     0.037 A 
ATOM     16  C   UNL A   1      33.025  24.438  22.114  1.00  0.00     0.066 C 
ENDBRANCH   9  10
BRANCH   9  17
ATOM     17  C   UNL A   1      34.860  22.219  25.521  1.00  0.00     0.017 C 
ATOM     18  C   UNL A   1      33.396  21.982  25.920  1.00  0.00     0.010 C 
ATOM     19  C   UNL A   1      35.550  20.849  25.417  1.00  0.00     0.010 C 
ENDBRANCH   9  17
ENDBRANCH   6   9
ENDBRANCH   4   5
ENDBRANCH   3   4
ENDBRANCH   2   3
ENDBRANCH   1   2
BRANCH   1  20
ATOM     20  C   UNL A   1      40.981  20.134  26.252  1.00  0.00     0.021 C 
BRANCH  20  21
ATOM     21  C   UNL A   1      42.350  19.797  26.830  1.00  0.00     0.116 C 
BRANCH  21  22
ATOM     22  N   UNL A   1      43.375  19.658  25.796  1.00  0.00    -0.352 N 
ATOM     23  C   UNL A   1      44.024  20.644  25.089  1.00  0.00     0.251 C 
ATOM     24  H   UNL A   1      43.636  18.735  25.577  1.00  0.00     0.163 HD
ATOM     25  O   UNL A   1      44.604  20.384  24.033  1.00  0.00    -0.269 OA
BRANCH  23  26
ATOM     26  C   UNL A   1      44.008  22.025  25.595  1.00  0.00     0.039 A 
ATOM     27  C   UNL A   1      43.099  22.963  25.097  1.00  0.00     0.014 A 
ATOM     28  C   UNL A   1      44.896  22.370  26.609  1.00  0.00     0.014 A 
ATOM     29  C   UNL A   1      43.027  24.225  25.688  1.00  0.00     0.010 A 
ATOM     30  C   UNL A   1      44.734  23.565  27.274  1.00  0.00     0.010 A 
ATOM     31  C   UNL A   1      43.834  24.521  26.796  1.00  0.00    -0.014 A 
BRANCH  31  32
ATOM     32  C   UNL A   1      43.692  25.795  27.510  1.00  0.00     0.031 A 
ATOM     33  C   UNL A   1      44.630  26.903  27.143  1.00  0.00     0.074 A 
ATOM     34  C   UNL A   1      42.606  26.077  28.265  1.00  0.00     0.049 A 
ATOM     35  N   UNL A   1      45.336  27.654  27.930  1.00  0.00    -0.248 NA
ATOM     36  C   UNL A   1      44.806  27.214  25.716  1.00  0.00     0.031 C 
ATOM     37  C   UNL A   1      41.420  25.244  28.489  1.00  0.00     0.029 A 
ATOM     38  N   UNL A   1      42.271  27.252  28.872  1.00  0.00    -0.354 N 
ATOM     39  C   UNL A   1      45.936  28.621  27.122  1.00  0.00     0.074 A 
ATOM     40  C   UNL A   1      45.647  28.249  25.761  1.00  0.00     0.031 C 
ATOM     41  C   UNL A   1      40.410  26.013  28.945  1.00  0.00     0.029 A 
ATOM     42  C   UNL A   1      40.930  27.341  29.214  1.00  0.00     0.049 A 
ATOM     43  H   UNL A   1      42.919  27.971  29.051  1.00  0.00     0.167 HD
ATOM     44  C   UNL A   1      46.488  29.758  27.635  1.00  0.00     0.037 A 
ATOM     45  C   UNL A   1      40.268  28.433  29.656  1.00  0.00     0.037 A 
ATOM     46  C   UNL A   1      46.764  29.637  29.040  1.00  0.00     0.049 A 
ATOM     47  C   UNL A   1      41.269  29.387  30.181  1.00  0.00     0.074 A 
ATOM     48  C   UNL A   1      47.547  28.801  29.811  1.00  0.00     0.029 A 
ATOM     49  N   UNL A   1      45.951  30.292  29.930  1.00  0.00    -0.354 N 
ATOM     50  N   UNL A   1      41.977  29.189  31.257  1.00  0.00    -0.248 NA
ATOM     51  C   UNL A   1      41.759  30.427  29.292  1.00  0.00     0.031 C 
ATOM     52  C   UNL A   1      46.818  28.628  31.026  1.00  0.00     0.029 A 
ATOM     53  C   UNL A   1      45.657  29.395  30.922  1.00  0.00     0.049 A 
ATOM     54  H   UNL A   1      45.641  31.223  29.867  1.00  0.00     0.167 HD
ATOM     55  C   UNL A   1      43.207  29.764  30.977  1.00  0.00     0.074 A 
ATOM     56  C   UNL A   1      42.970  30.619  29.820  1.00  0.00     0.031 C 
ATOM     57  C   UNL A   1      44.354  29.274  31.530  1.00  0.00     0.037 A 
BRANCH  44  58
ATOM     58  C   UNL A   1      46.508  31.097  26.935  1.00  0.00     0.064 A 
ATOM     59  C   UNL A   1      47.713  31.830  26.858  1.00  0.00     0.173 A 
ATOM     60  C   UNL A   1      45.339  31.816  26.610  1.00  0.00     0.173 A 
ATOM     61  F   UNL A   1      48.883  31.255  27.173  1.00  0.00    -0.203 F 
ATOM     62  C   UNL A   1      47.731  33.193  26.547  1.00  0.00     0.198 A 
ATOM     63  C   UNL A   1      45.368  33.163  26.247  1.00  0.00     0.198 A 
ATOM     64  F   UNL A   1      44.120  31.276  26.739  1.00  0.00    -0.203 F 
ATOM     65  F   UNL A   1      48.885  33.874  26.608  1.00  0.00    -0.200 F 
ATOM     66  C   UNL A   1      46.559  33.860  26.246  1.00  0.00     0.200 A 
ATOM     67  F   UNL A   1      44.219  33.799  25.978  1.00  0.00    -0.200 F 
ATOM     68  F   UNL A   1      46.567  35.177  26.007  1.00  0.00    -0.200 F 
ENDBRANCH  44  58
BRANCH  45  69
ATOM     69  C   UNL A   1      38.847  28.781  29.452  1.00  0.00     0.064 A 
ATOM     70  C   UNL A   1      37.987  28.996  30.538  1.00  0.00     0.173 A 
ATOM     71  C   UNL A   1      38.362  29.149  28.181  1.00  0.00     0.173 A 
ATOM     72  F   UNL A   1      38.392  28.713  31.784  1.00  0.00    -0.203 F 
ATOM     73  C   UNL A   1      36.721  29.562  30.366  1.00  0.00     0.198 A 
ATOM     74  C   UNL A   1      37.094  29.704  28.008  1.00  0.00     0.198 A 
ATOM     75  F   UNL A   1      39.144  29.062  27.095  1.00  0.00    -0.203 F 
ATOM     76  F   UNL A   1      35.949  29.807  31.433  1.00  0.00    -0.200 F 
ATOM     77  C   UNL A   1      36.279  29.922  29.102  1.00  0.00     0.200 A 
ATOM     78  F   UNL A   1      36.694  30.079  26.785  1.00  0.00    -0.200 F 
ATOM     79  F   UNL A   1      35.087  30.515  28.945  1.00  0.00    -0.200 F 
ENDBRANCH  45  69
BRANCH  57  80
ATOM     80  C   UNL A   1      44.227  28.311  32.676  1.00  0.00     0.064 A 
ATOM     81  C   UNL A   1      44.027  28.704  34.010  1.00  0.00     0.173 A 
ATOM     82  C   UNL A   1      44.162  26.941  32.392  1.00  0.00     0.173 A 
ATOM     83  F   UNL A   1      43.965  29.997  34.345  1.00  0.00    -0.203 F 
ATOM     84  C   UNL A   1      43.829  27.765  35.019  1.00  0.00     0.198 A 
ATOM     85  C   UNL A   1      43.926  26.005  33.397  1.00  0.00     0.198 A 
ATOM     86  F   UNL A   1      44.282  26.509  31.125  1.00  0.00    -0.203 F 
ATOM     87  F   UNL A   1      43.658  28.167  36.287  1.00  0.00    -0.200 F 
ATOM     88  C   UNL A   1      43.772  26.417  34.711  1.00  0.00     0.200 A 
ATOM     89  F   UNL A   1      43.820  24.706  33.085  1.00  0.00    -0.200 F 
ATOM     90  F   UNL A   1      43.541  25.515  35.675  1.00  0.00    -0.200 F 
ENDBRANCH  57  80
ENDBRANCH  31  32
ENDBRANCH  23  26
ENDBRANCH  21  22
ENDBRANCH  20  21
ENDBRANCH   1  20
TORSDOF 15
ENDMDL
MODEL 3
REMARK VINA RESULT:     -10.8      2.595      4.026
REMARK SMILES Cc1cc(C)n([C@@H](C(=O)NCCCCCCNC(=O)c2ccc(-c3c4nc(c(-c5c(F)c(F)c(F)c(F)c5F)c5ccc([nH]5)c(-c5c(F)c(F)c(F)c(F)c5F)c5nc(c(-c6c(F)c(F)c(F)c(F)c6F)c6ccc3[nH]6)C=C5)C=C4)cc2)C(C)C)n1
REMARK SMILES IDX 14 1 13 2 12 3 11 4 10 5 8 6 9 7 7 9 6 10 1 11 2 12 3 13
REMARK SMILES IDX 86 14 4 15 5 16 83 17 84 18 85 19 15 20 16 21 17 22 18 23
REMARK SMILES IDX 19 25 20 26 21 27 82 28 22 29 81 30 23 31 24 32 25 33 75 34
REMARK SMILES IDX 26 35 80 36 74 37 76 38 27 39 79 40 73 41 72 42 28 44 60 45
REMARK SMILES IDX 40 46 59 47 41 48 44 49 58 50 77 51 42 52 43 53 57 55 78 56
REMARK SMILES IDX 45 57 29 58 30 59 38 60 31 61 32 62 36 63 39 64 33 65 34 66
REMARK SMILES IDX 37 67 35 68 61 69 62 70 70 71 63 72 64 73 68 74 71 75 65 76
REMARK SMILES IDX 66 77 69 78 67 79 46 80 47 81 55 82 48 83 49 84 53 85 56 86
REMARK SMILES IDX 50 87 51 88 54 89 52 90
REMARK H PARENT 10 8 17 24 76 43 44 54
REMARK Flexibility Score: inf
ROOT
ATOM      1  C   UNL A   1      35.321  22.156  24.342  1.00  0.00     0.002 C 
ENDROOT
BRANCH   1   2
ATOM      2  C   UNL A   1      35.060  20.814  25.039  1.00  0.00     0.002 C 
BRANCH   2   3
ATOM      3  C   UNL A   1      33.881  20.778  26.021  1.00  0.00     0.021 C 
BRANCH   3   4
ATOM      4  C   UNL A   1      33.824  21.961  26.989  1.00  0.00     0.116 C 
BRANCH   4   5
ATOM      5  N   UNL A   1      32.457  22.266  27.371  1.00  0.00    -0.354 N 
ATOM      6  C   UNL A   1      31.591  23.185  26.844  1.00  0.00     0.245 C 
ATOM      7  O   UNL A   1      30.528  23.362  27.443  1.00  0.00    -0.273 OA
ATOM      8  H   UNL A   1      32.100  21.733  28.118  1.00  0.00     0.163 HD
BRANCH   6   9
ATOM      9  C   UNL A   1      31.940  23.923  25.548  1.00  0.00     0.199 C 
BRANCH   9  10
ATOM     10  N   UNL A   1      32.332  25.303  25.849  1.00  0.00    -0.257 N 
ATOM     11  C   UNL A   1      31.528  28.262  27.644  1.00  0.00     0.069 C 
ATOM     12  C   UNL A   1      32.114  27.206  26.785  1.00  0.00     0.060 A 
ATOM     13  C   UNL A   1      33.199  27.321  25.894  1.00  0.00     0.048 A 
ATOM     14  N   UNL A   1      31.602  25.974  26.776  1.00  0.00    -0.177 NA
ATOM     15  C   UNL A   1      33.328  26.081  25.303  1.00  0.00     0.037 A 
ATOM     16  C   UNL A   1      34.302  25.633  24.276  1.00  0.00     0.066 C 
ENDBRANCH   9  10
BRANCH   9  17
ATOM     17  C   UNL A   1      30.829  23.820  24.462  1.00  0.00     0.017 C 
ATOM     18  C   UNL A   1      30.269  25.200  24.089  1.00  0.00     0.010 C 
ATOM     19  C   UNL A   1      31.348  23.156  23.176  1.00  0.00     0.010 C 
ENDBRANCH   9  17
ENDBRANCH   6   9
ENDBRANCH   4   5
ENDBRANCH   3   4
ENDBRANCH   2   3
ENDBRANCH   1   2
BRANCH   1  20
ATOM     20  C   UNL A   1      36.782  22.620  24.275  1.00  0.00     0.021 C 
BRANCH  20  21
ATOM     21  C   UNL A   1      37.371  23.059  25.610  1.00  0.00     0.116 C 
BRANCH  21  22
ATOM     22  N   UNL A   1      38.328  22.090  26.145  1.00  0.00    -0.352 N 
ATOM     23  C   UNL A   1      39.570  22.317  26.689  1.00  0.00     0.251 C 
ATOM     24  H   UNL A   1      38.043  21.149  26.111  1.00  0.00     0.163 HD
ATOM     25  O   UNL A   1      40.393  21.404  26.785  1.00  0.00    -0.269 OA
BRANCH  23  26
ATOM     26  C   UNL A   1      39.922  23.671  27.144  1.00  0.00     0.039 A 
ATOM     27  C   UNL A   1      39.030  24.736  26.991  1.00  0.00     0.014 A 
ATOM     28  C   UNL A   1      41.152  23.863  27.765  1.00  0.00     0.014 A 
ATOM     29  C   UNL A   1      39.345  25.976  27.548  1.00  0.00     0.010 A 
ATOM     30  C   UNL A   1      41.402  25.045  28.425  1.00  0.00     0.010 A 
ATOM     31  C   UNL A   1      40.527  26.127  28.287  1.00  0.00    -0.014 A 
BRANCH  31  32
ATOM     32  C   UNL A   1      40.823  27.384  28.984  1.00  0.00     0.031 A 
ATOM     33  C   UNL A   1      41.922  28.239  28.433  1.00  0.00     0.074 A 
ATOM     34  C   UNL A   1      39.986  27.906  29.908  1.00  0.00     0.049 A 
ATOM     35  N   UNL A   1      42.914  28.782  29.068  1.00  0.00    -0.248 NA
ATOM     36  C   UNL A   1      41.918  28.525  26.990  1.00  0.00     0.031 C 
ATOM     37  C   UNL A   1      38.690  27.380  30.354  1.00  0.00     0.029 A 
ATOM     38  N   UNL A   1      40.054  29.115  30.535  1.00  0.00    -0.354 N 
ATOM     39  C   UNL A   1      43.580  29.590  28.145  1.00  0.00     0.074 A 
ATOM     40  C   UNL A   1      42.978  29.325  26.864  1.00  0.00     0.031 C 
ATOM     41  C   UNL A   1      37.991  28.363  30.959  1.00  0.00     0.029 A 
ATOM     42  C   UNL A   1      38.855  29.519  31.102  1.00  0.00     0.049 A 
ATOM     43  H   UNL A   1      40.878  29.653  30.582  1.00  0.00     0.167 HD
ATOM     44  C   UNL A   1      44.470  30.550  28.527  1.00  0.00     0.037 A 
ATOM     45  C   UNL A   1      38.563  30.731  31.625  1.00  0.00     0.037 A 
ATOM     46  C   UNL A   1      44.949  30.340  29.865  1.00  0.00     0.049 A 
ATOM     47  C   UNL A   1      39.840  31.405  31.946  1.00  0.00     0.074 A 
ATOM     48  C   UNL A   1      45.628  29.325  30.510  1.00  0.00     0.029 A 
ATOM     49  N   UNL A   1      44.485  31.155  30.866  1.00  0.00    -0.354 N 
ATOM     50  N   UNL A   1      40.656  31.022  32.887  1.00  0.00    -0.248 NA
ATOM     51  C   UNL A   1      40.405  32.312  30.960  1.00  0.00     0.031 C 
ATOM     52  C   UNL A   1      45.102  29.312  31.836  1.00  0.00     0.029 A 
ATOM     53  C   UNL A   1      44.160  30.338  31.916  1.00  0.00     0.049 A 
ATOM     54  H   UNL A   1      44.403  32.135  30.835  1.00  0.00     0.167 HD
ATOM     55  C   UNL A   1      41.919  31.287  32.385  1.00  0.00     0.074 A 
ATOM     56  C   UNL A   1      41.699  32.196  31.266  1.00  0.00     0.031 C 
ATOM     57  C   UNL A   1      42.992  30.525  32.743  1.00  0.00     0.037 A 
BRANCH  44  58
ATOM     58  C   UNL A   1      44.691  31.857  27.802  1.00  0.00     0.064 A 
ATOM     59  C   UNL A   1      45.864  32.047  27.038  1.00  0.00     0.173 A 
ATOM     60  C   UNL A   1      43.951  33.026  28.075  1.00  0.00     0.173 A 
ATOM     61  F   UNL A   1      46.661  31.009  26.743  1.00  0.00    -0.203 F 
ATOM     62  C   UNL A   1      46.292  33.317  26.640  1.00  0.00     0.198 A 
ATOM     63  C   UNL A   1      44.353  34.286  27.629  1.00  0.00     0.198 A 
ATOM     64  F   UNL A   1      42.875  33.009  28.872  1.00  0.00    -0.203 F 
ATOM     65  F   UNL A   1      47.475  33.459  26.026  1.00  0.00    -0.200 F 
ATOM     66  C   UNL A   1      45.539  34.436  26.940  1.00  0.00     0.200 A 
ATOM     67  F   UNL A   1      43.620  35.363  27.947  1.00  0.00    -0.200 F 
ATOM     68  F   UNL A   1      45.976  35.659  26.614  1.00  0.00    -0.200 F 
ENDBRANCH  44  58
BRANCH  45  69
ATOM     69  C   UNL A   1      37.255  31.416  31.662  1.00  0.00     0.064 A 
ATOM     70  C   UNL A   1      36.663  31.791  32.876  1.00  0.00     0.173 A 
ATOM     71  C   UNL A   1      36.671  31.936  30.488  1.00  0.00     0.173 A 
ATOM     72  F   UNL A   1      37.187  31.375  34.037  1.00  0.00    -0.203 F 
ATOM     73  C   UNL A   1      35.561  32.650  32.917  1.00  0.00     0.198 A 
ATOM     74  C   UNL A   1      35.564  32.783  30.529  1.00  0.00     0.198 A 
ATOM     75  F   UNL A   1      37.219  31.703  29.286  1.00  0.00    -0.203 F 
ATOM     76  F   UNL A   1      35.057  33.033  34.097  1.00  0.00    -0.200 F 
ATOM     77  C   UNL A   1      35.017  33.151  31.743  1.00  0.00     0.200 A 
ATOM     78  F   UNL A   1      35.072  33.287  29.388  1.00  0.00    -0.200 F 
ATOM     79  F   UNL A   1      33.996  34.016  31.786  1.00  0.00    -0.200 F 
ENDBRANCH  45  69
BRANCH  57  80
ATOM     80  C   UNL A   1      42.838  29.599  33.916  1.00  0.00     0.064 A 
ATOM     81  C   UNL A   1      42.306  28.302  33.824  1.00  0.00     0.173 A 
ATOM     82  C   UNL A   1      43.379  29.987  35.149  1.00  0.00     0.173 A 
ATOM     83  F   UNL A   1      41.870  27.817  32.657  1.00  0.00    -0.203 F 
ATOM     84  C   UNL A   1      42.267  27.455  34.930  1.00  0.00     0.198 A 
ATOM     85  C   UNL A   1      43.374  29.125  36.243  1.00  0.00     0.198 A 
ATOM     86  F   UNL A   1      43.959  31.191  35.280  1.00  0.00    -0.203 F 
ATOM     87  F   UNL A   1      41.737  26.228  34.817  1.00  0.00    -0.200 F 
ATOM     88  C   UNL A   1      42.807  27.865  36.136  1.00  0.00     0.200 A 
ATOM     89  F   UNL A   1      43.944  29.508  37.393  1.00  0.00    -0.200 F 
ATOM     90  F   UNL A   1      42.807  27.037  37.190  1.00  0.00    -0.200 F 
ENDBRANCH  57  80
ENDBRANCH  31  32
ENDBRANCH  23  26
ENDBRANCH  21  22
ENDBRANCH  20  21
ENDBRANCH   1  20
TORSDOF 15
ENDMDL
