MODEL 1
REMARK VINA RESULT:     -11.1      0.000      0.000
REMARK SMILES COc1ccc(C[N@@H+](CC(=O)NCCCCCCNC(=O)c2ccc(-c3c4nc(c(-c5c(F)c(F)c(F)c(F)c5F)c5ccc([nH]5)c(-c5c(F)c(F)c(F)c(F)c5F)c5nc(c(-c6c(F)c(F)c(F)c(F)c6F)c6ccc3[nH]6)C=C5)C=C4)cc2)C(C)(C)C)cc1C#N
REMARK SMILES IDX 14 1 13 2 12 3 10 4 11 5 9 7 8 8 7 10 6 11 3 12 4 13 90 14
REMARK SMILES IDX 5 15 89 16 2 17 1 18 91 19 92 20 85 21 86 22 87 23 88 24
REMARK SMILES IDX 15 25 16 26 17 27 18 28 19 29 20 30 21 32 22 33 23 34 84 35
REMARK SMILES IDX 24 36 83 37 25 38 26 39 27 40 77 41 28 42 82 43 76 44 78 45
REMARK SMILES IDX 29 46 81 47 75 48 74 49 30 51 62 52 42 53 61 54 43 55 46 56
REMARK SMILES IDX 60 57 79 58 44 59 45 60 59 62 80 63 47 64 31 65 32 66 40 67
REMARK SMILES IDX 33 68 34 69 38 70 41 71 35 72 36 73 39 74 37 75 63 76 64 77
REMARK SMILES IDX 72 78 65 79 66 80 70 81 73 82 67 83 68 84 71 85 69 86 48 87
REMARK SMILES IDX 49 88 57 89 50 90 51 91 55 92 58 93 52 94 53 95 56 96 54 97
REMARK H PARENT 12 6 8 9 19 31 78 50 46 61
REMARK Flexibility Score: inf
ROOT
ATOM      1  C   UNL A   1      32.435  28.514  27.075  1.00  0.00     0.021 C 
ENDROOT
BRANCH   1   2
ATOM      2  C   UNL A   1      33.599  27.677  26.522  1.00  0.00     0.116 C 
BRANCH   2   3
ATOM      3  N   UNL A   1      34.046  28.189  25.242  1.00  0.00    -0.351 N 
ATOM      4  C   UNL A   1      33.583  28.024  23.970  1.00  0.00     0.275 C 
ATOM      5  O   UNL A   1      34.177  28.667  23.094  1.00  0.00    -0.269 OA
ATOM      6  H   UNL A   1      34.839  28.770  25.303  1.00  0.00     0.163 HD
BRANCH   4   7
ATOM      7  C   UNL A   1      32.354  27.167  23.601  1.00  0.00     0.364 C 
BRANCH   7   8
ATOM      8  N   UNL A   1      32.264  25.770  24.150  1.00  0.00    -0.319 N 
ATOM      9  H   UNL A   1      32.579  25.722  25.118  1.00  0.00     0.349 HD
BRANCH   8  10
ATOM     10  C   UNL A   1      33.220  24.931  23.428  1.00  0.00     0.299 C 
BRANCH  10  11
ATOM     11  C   UNL A   1      34.232  24.053  24.108  1.00  0.00     0.008 A 
ATOM     12  C   UNL A   1      36.085  22.306  25.319  1.00  0.00     0.136 A 
ATOM     13  C   UNL A   1      36.306  23.693  25.291  1.00  0.00     0.048 A 
ATOM     14  C   UNL A   1      34.933  21.784  24.726  1.00  0.00     0.094 A 
ATOM     15  C   UNL A   1      35.395  24.561  24.682  1.00  0.00     0.013 A 
ATOM     16  C   UNL A   1      34.031  22.660  24.113  1.00  0.00     0.033 A 
BRANCH  12  17
ATOM     17  O   UNL A   1      37.006  21.602  26.048  1.00  0.00    -0.495 OA
ATOM     18  C   UNL A   1      38.367  21.786  25.672  1.00  0.00     0.278 C 
ENDBRANCH  12  17
BRANCH  14  19
ATOM     19  C   UNL A   1      34.572  20.397  24.734  1.00  0.00     0.103 C 
ATOM     20  N   UNL A   1      34.255  19.285  24.673  1.00  0.00    -0.192 NA
ENDBRANCH  14  19
ENDBRANCH  10  11
ENDBRANCH   8  10
BRANCH   8  21
ATOM     21  C   UNL A   1      30.905  25.282  24.524  1.00  0.00     0.090 C 
ATOM     22  C   UNL A   1      30.806  24.586  25.897  1.00  0.00     0.078 C 
ATOM     23  C   UNL A   1      29.836  26.405  24.531  1.00  0.00     0.078 C 
ATOM     24  C   UNL A   1      30.406  24.292  23.438  1.00  0.00     0.078 C 
ENDBRANCH   8  21
ENDBRANCH   7   8
ENDBRANCH   4   7
ENDBRANCH   2   3
ENDBRANCH   1   2
BRANCH   1  25
ATOM     25  C   UNL A   1      32.601  30.027  27.000  1.00  0.00     0.002 C 
BRANCH  25  26
ATOM     26  C   UNL A   1      31.446  30.752  26.312  1.00  0.00     0.002 C 
BRANCH  26  27
ATOM     27  C   UNL A   1      31.440  32.272  26.503  1.00  0.00     0.021 C 
BRANCH  27  28
ATOM     28  C   UNL A   1      32.608  32.806  27.327  1.00  0.00     0.116 C 
BRANCH  28  29
ATOM     29  N   UNL A   1      32.453  34.225  27.610  1.00  0.00    -0.352 N 
ATOM     30  C   UNL A   1      33.019  34.972  28.611  1.00  0.00     0.251 C 
ATOM     31  H   UNL A   1      31.861  34.717  26.997  1.00  0.00     0.163 HD
ATOM     32  O   UNL A   1      32.561  36.071  28.905  1.00  0.00    -0.269 OA
BRANCH  30  33
ATOM     33  C   UNL A   1      34.183  34.435  29.340  1.00  0.00     0.039 A 
ATOM     34  C   UNL A   1      33.992  33.804  30.570  1.00  0.00     0.014 A 
ATOM     35  C   UNL A   1      35.467  34.559  28.799  1.00  0.00     0.014 A 
ATOM     36  C   UNL A   1      35.087  33.246  31.233  1.00  0.00     0.010 A 
ATOM     37  C   UNL A   1      36.539  33.926  29.417  1.00  0.00     0.010 A 
ATOM     38  C   UNL A   1      36.362  33.273  30.645  1.00  0.00    -0.014 A 
BRANCH  38  39
ATOM     39  C   UNL A   1      37.532  32.640  31.305  1.00  0.00     0.031 A 
ATOM     40  C   UNL A   1      38.243  31.497  30.631  1.00  0.00     0.074 A 
ATOM     41  C   UNL A   1      37.914  33.050  32.530  1.00  0.00     0.049 A 
ATOM     42  N   UNL A   1      39.222  30.752  31.079  1.00  0.00    -0.248 NA
ATOM     43  C   UNL A   1      37.773  31.123  29.287  1.00  0.00     0.031 C 
ATOM     44  C   UNL A   1      37.284  34.125  33.298  1.00  0.00     0.029 A 
ATOM     45  N   UNL A   1      38.918  32.601  33.352  1.00  0.00    -0.354 N 
ATOM     46  C   UNL A   1      39.472  29.819  30.081  1.00  0.00     0.074 A 
ATOM     47  C   UNL A   1      38.507  30.051  29.030  1.00  0.00     0.031 C 
ATOM     48  C   UNL A   1      37.927  34.267  34.467  1.00  0.00     0.029 A 
ATOM     49  C   UNL A   1      38.979  33.259  34.558  1.00  0.00     0.049 A 
ATOM     50  H   UNL A   1      39.536  31.877  33.103  1.00  0.00     0.167 HD
ATOM     51  C   UNL A   1      40.437  28.871  30.037  1.00  0.00     0.037 A 
ATOM     52  C   UNL A   1      39.779  33.057  35.623  1.00  0.00     0.037 A 
ATOM     53  C   UNL A   1      41.406  28.659  31.079  1.00  0.00     0.049 A 
ATOM     54  C   UNL A   1      40.818  31.966  35.560  1.00  0.00     0.074 A 
ATOM     55  C   UNL A   1      42.457  27.758  31.106  1.00  0.00     0.029 A 
ATOM     56  N   UNL A   1      41.439  29.350  32.281  1.00  0.00    -0.354 N 
ATOM     57  N   UNL A   1      41.088  31.135  34.583  1.00  0.00    -0.248 NA
ATOM     58  C   UNL A   1      41.666  31.789  36.746  1.00  0.00     0.031 C 
ATOM     59  C   UNL A   1      43.078  27.851  32.353  1.00  0.00     0.029 A 
ATOM     60  C   UNL A   1      42.472  28.869  33.071  1.00  0.00     0.049 A 
ATOM     61  H   UNL A   1      40.822  30.072  32.536  1.00  0.00     0.167 HD
ATOM     62  C   UNL A   1      42.162  30.369  35.019  1.00  0.00     0.074 A 
ATOM     63  C   UNL A   1      42.501  30.842  36.344  1.00  0.00     0.031 C 
ATOM     64  C   UNL A   1      42.812  29.366  34.379  1.00  0.00     0.037 A 
BRANCH  51  65
ATOM     65  C   UNL A   1      40.495  27.981  28.829  1.00  0.00     0.064 A 
ATOM     66  C   UNL A   1      39.765  26.785  28.755  1.00  0.00     0.173 A 
ATOM     67  C   UNL A   1      41.239  28.364  27.702  1.00  0.00     0.173 A 
ATOM     68  F   UNL A   1      39.046  26.366  29.808  1.00  0.00    -0.203 F 
ATOM     69  C   UNL A   1      39.796  25.994  27.610  1.00  0.00     0.198 A 
ATOM     70  C   UNL A   1      41.237  27.590  26.544  1.00  0.00     0.198 A 
ATOM     71  F   UNL A   1      41.951  29.500  27.715  1.00  0.00    -0.203 F 
ATOM     72  F   UNL A   1      39.126  24.834  27.579  1.00  0.00    -0.200 F 
ATOM     73  C   UNL A   1      40.523  26.404  26.501  1.00  0.00     0.200 A 
ATOM     74  F   UNL A   1      41.924  27.998  25.468  1.00  0.00    -0.200 F 
ATOM     75  F   UNL A   1      40.535  25.653  25.391  1.00  0.00    -0.200 F 
ENDBRANCH  51  65
BRANCH  52  76
ATOM     76  C   UNL A   1      39.634  33.895  36.845  1.00  0.00     0.064 A 
ATOM     77  C   UNL A   1      38.831  33.478  37.917  1.00  0.00     0.173 A 
ATOM     78  C   UNL A   1      40.254  35.149  36.950  1.00  0.00     0.173 A 
ATOM     79  F   UNL A   1      38.202  32.295  37.862  1.00  0.00    -0.203 F 
ATOM     80  C   UNL A   1      38.620  34.299  39.023  1.00  0.00     0.198 A 
ATOM     81  C   UNL A   1      40.075  35.951  38.073  1.00  0.00     0.198 A 
ATOM     82  F   UNL A   1      41.039  35.595  35.958  1.00  0.00    -0.203 F 
ATOM     83  F   UNL A   1      37.788  33.906  39.997  1.00  0.00    -0.200 F 
ATOM     84  C   UNL A   1      39.245  35.535  39.101  1.00  0.00     0.200 A 
ATOM     85  F   UNL A   1      40.698  37.136  38.154  1.00  0.00    -0.200 F 
ATOM     86  F   UNL A   1      39.036  36.328  40.162  1.00  0.00    -0.200 F 
ENDBRANCH  52  76
BRANCH  64  87
ATOM     87  C   UNL A   1      43.999  28.752  35.067  1.00  0.00     0.064 A 
ATOM     88  C   UNL A   1      43.874  27.653  35.931  1.00  0.00     0.173 A 
ATOM     89  C   UNL A   1      45.290  29.239  34.810  1.00  0.00     0.173 A 
ATOM     90  F   UNL A   1      42.662  27.156  36.221  1.00  0.00    -0.203 F 
ATOM     91  C   UNL A   1      44.994  27.085  36.531  1.00  0.00     0.198 A 
ATOM     92  C   UNL A   1      46.410  28.643  35.380  1.00  0.00     0.198 A 
ATOM     93  F   UNL A   1      45.467  30.282  33.984  1.00  0.00    -0.203 F 
ATOM     94  F   UNL A   1      44.846  26.070  37.395  1.00  0.00    -0.200 F 
ATOM     95  C   UNL A   1      46.262  27.573  36.247  1.00  0.00     0.200 A 
ATOM     96  F   UNL A   1      47.634  29.102  35.085  1.00  0.00    -0.200 F 
ATOM     97  F   UNL A   1      47.339  27.013  36.813  1.00  0.00    -0.200 F 
ENDBRANCH  64  87
ENDBRANCH  38  39
ENDBRANCH  30  33
ENDBRANCH  28  29
ENDBRANCH  27  28
ENDBRANCH  26  27
ENDBRANCH  25  26
ENDBRANCH   1  25
TORSDOF 19
ENDMDL
MODEL 2
REMARK VINA RESULT:     -11.0      3.307      8.904
REMARK SMILES COc1ccc(C[N@@H+](CC(=O)NCCCCCCNC(=O)c2ccc(-c3c4nc(c(-c5c(F)c(F)c(F)c(F)c5F)c5ccc([nH]5)c(-c5c(F)c(F)c(F)c(F)c5F)c5nc(c(-c6c(F)c(F)c(F)c(F)c6F)c6ccc3[nH]6)C=C5)C=C4)cc2)C(C)(C)C)cc1C#N
REMARK SMILES IDX 14 1 13 2 12 3 10 4 11 5 9 7 8 8 7 10 6 11 3 12 4 13 90 14
REMARK SMILES IDX 5 15 89 16 2 17 1 18 91 19 92 20 85 21 86 22 87 23 88 24
REMARK SMILES IDX 15 25 16 26 17 27 18 28 19 29 20 30 21 32 22 33 23 34 84 35
REMARK SMILES IDX 24 36 83 37 25 38 26 39 27 40 77 41 28 42 82 43 76 44 78 45
REMARK SMILES IDX 29 46 81 47 75 48 74 49 30 51 62 52 42 53 61 54 43 55 46 56
REMARK SMILES IDX 60 57 79 58 44 59 45 60 59 62 80 63 47 64 31 65 32 66 40 67
REMARK SMILES IDX 33 68 34 69 38 70 41 71 35 72 36 73 39 74 37 75 63 76 64 77
REMARK SMILES IDX 72 78 65 79 66 80 70 81 73 82 67 83 68 84 71 85 69 86 48 87
REMARK SMILES IDX 49 88 57 89 50 90 51 91 55 92 58 93 52 94 53 95 56 96 54 97
REMARK H PARENT 12 6 8 9 19 31 78 50 46 61
REMARK Flexibility Score: inf
ROOT
ATOM      1  C   UNL A   1      33.583  24.079  26.407  1.00  0.00     0.021 C 
ENDROOT
BRANCH   1   2
ATOM      2  C   UNL A   1      34.614  23.275  27.214  1.00  0.00     0.116 C 
BRANCH   2   3
ATOM      3  N   UNL A   1      35.470  22.500  26.338  1.00  0.00    -0.351 N 
ATOM      4  C   UNL A   1      35.313  21.290  25.728  1.00  0.00     0.275 C 
ATOM      5  O   UNL A   1      36.236  20.940  24.982  1.00  0.00    -0.269 OA
ATOM      6  H   UNL A   1      36.334  22.932  26.145  1.00  0.00     0.163 HD
BRANCH   4   7
ATOM      7  C   UNL A   1      34.053  20.410  25.864  1.00  0.00     0.364 C 
BRANCH   7   8
ATOM      8  N   UNL A   1      33.357  19.955  24.610  1.00  0.00    -0.319 N 
ATOM      9  H   UNL A   1      33.932  20.109  23.782  1.00  0.00     0.349 HD
BRANCH   8  10
ATOM     10  C   UNL A   1      32.193  20.813  24.394  1.00  0.00     0.299 C 
BRANCH  10  11
ATOM     11  C   UNL A   1      32.252  22.124  23.663  1.00  0.00     0.008 A 
ATOM     12  C   UNL A   1      32.287  24.635  22.380  1.00  0.00     0.136 A 
ATOM     13  C   UNL A   1      33.276  23.673  22.119  1.00  0.00     0.048 A 
ATOM     14  C   UNL A   1      31.276  24.346  23.298  1.00  0.00     0.094 A 
ATOM     15  C   UNL A   1      33.269  22.431  22.761  1.00  0.00     0.013 A 
ATOM     16  C   UNL A   1      31.281  23.103  23.942  1.00  0.00     0.033 A 
BRANCH  12  17
ATOM     17  O   UNL A   1      32.364  25.752  21.592  1.00  0.00    -0.495 OA
ATOM     18  C   UNL A   1      33.310  26.735  22.000  1.00  0.00     0.278 C 
ENDBRANCH  12  17
BRANCH  14  19
ATOM     19  C   UNL A   1      30.186  25.222  23.610  1.00  0.00     0.103 C 
ATOM     20  N   UNL A   1      29.353  25.982  23.876  1.00  0.00    -0.192 NA
ENDBRANCH  14  19
ENDBRANCH  10  11
ENDBRANCH   8  10
BRANCH   8  21
ATOM     21  C   UNL A   1      33.317  18.485  24.361  1.00  0.00     0.090 C 
ATOM     22  C   UNL A   1      34.691  17.794  24.251  1.00  0.00     0.078 C 
ATOM     23  C   UNL A   1      32.528  17.706  25.444  1.00  0.00     0.078 C 
ATOM     24  C   UNL A   1      32.528  18.216  23.052  1.00  0.00     0.078 C 
ENDBRANCH   8  21
ENDBRANCH   7   8
ENDBRANCH   4   7
ENDBRANCH   2   3
ENDBRANCH   1   2
BRANCH   1  25
ATOM     25  C   UNL A   1      34.112  25.299  25.665  1.00  0.00     0.002 C 
BRANCH  25  26
ATOM     26  C   UNL A   1      33.135  26.470  25.603  1.00  0.00     0.002 C 
BRANCH  26  27
ATOM     27  C   UNL A   1      33.455  27.624  26.558  1.00  0.00     0.021 C 
BRANCH  27  28
ATOM     28  C   UNL A   1      34.167  28.803  25.900  1.00  0.00     0.116 C 
BRANCH  28  29
ATOM     29  N   UNL A   1      33.913  30.044  26.617  1.00  0.00    -0.352 N 
ATOM     30  C   UNL A   1      34.551  30.551  27.719  1.00  0.00     0.251 C 
ATOM     31  H   UNL A   1      33.180  30.596  26.259  1.00  0.00     0.163 HD
ATOM     32  O   UNL A   1      34.035  31.441  28.386  1.00  0.00    -0.269 OA
BRANCH  30  33
ATOM     33  C   UNL A   1      35.868  30.008  28.101  1.00  0.00     0.039 A 
ATOM     34  C   UNL A   1      36.953  30.167  27.236  1.00  0.00     0.014 A 
ATOM     35  C   UNL A   1      36.025  29.340  29.319  1.00  0.00     0.014 A 
ATOM     36  C   UNL A   1      38.212  29.703  27.622  1.00  0.00     0.010 A 
ATOM     37  C   UNL A   1      37.294  28.959  29.738  1.00  0.00     0.010 A 
ATOM     38  C   UNL A   1      38.399  29.127  28.889  1.00  0.00    -0.014 A 
BRANCH  38  39
ATOM     39  C   UNL A   1      39.738  28.675  29.344  1.00  0.00     0.031 A 
ATOM     40  C   UNL A   1      40.547  29.544  30.269  1.00  0.00     0.074 A 
ATOM     41  C   UNL A   1      40.249  27.518  28.879  1.00  0.00     0.049 A 
ATOM     42  N   UNL A   1      41.769  29.374  30.706  1.00  0.00    -0.248 NA
ATOM     43  C   UNL A   1      39.909  30.783  30.743  1.00  0.00     0.031 C 
ATOM     44  C   UNL A   1      39.574  26.606  27.954  1.00  0.00     0.029 A 
ATOM     45  N   UNL A   1      41.461  26.917  29.111  1.00  0.00    -0.354 N 
ATOM     46  C   UNL A   1      42.046  30.486  31.491  1.00  0.00     0.074 A 
ATOM     47  C   UNL A   1      40.891  31.352  31.424  1.00  0.00     0.031 C 
ATOM     48  C   UNL A   1      40.371  25.553  27.714  1.00  0.00     0.029 A 
ATOM     49  C   UNL A   1      41.633  25.739  28.423  1.00  0.00     0.049 A 
ATOM     50  H   UNL A   1      42.143  27.292  29.714  1.00  0.00     0.167 HD
ATOM     51  C   UNL A   1      43.156  30.747  32.220  1.00  0.00     0.037 A 
ATOM     52  C   UNL A   1      42.697  24.915  28.355  1.00  0.00     0.037 A 
ATOM     53  C   UNL A   1      44.295  29.870  32.296  1.00  0.00     0.049 A 
ATOM     54  C   UNL A   1      43.935  25.254  29.146  1.00  0.00     0.074 A 
ATOM     55  C   UNL A   1      45.447  30.020  33.049  1.00  0.00     0.029 A 
ATOM     56  N   UNL A   1      44.429  28.685  31.589  1.00  0.00    -0.354 N 
ATOM     57  N   UNL A   1      44.159  26.275  29.937  1.00  0.00    -0.248 NA
ATOM     58  C   UNL A   1      45.066  24.322  29.039  1.00  0.00     0.031 C 
ATOM     59  C   UNL A   1      46.309  28.966  32.740  1.00  0.00     0.029 A 
ATOM     60  C   UNL A   1      45.661  28.111  31.863  1.00  0.00     0.049 A 
ATOM     61  H   UNL A   1      43.751  28.307  30.984  1.00  0.00     0.167 HD
ATOM     62  C   UNL A   1      45.435  26.085  30.454  1.00  0.00     0.074 A 
ATOM     63  C   UNL A   1      45.930  24.846  29.895  1.00  0.00     0.031 C 
ATOM     64  C   UNL A   1      46.132  26.865  31.316  1.00  0.00     0.037 A 
BRANCH  51  65
ATOM     65  C   UNL A   1      43.206  32.034  32.992  1.00  0.00     0.064 A 
ATOM     66  C   UNL A   1      43.700  33.219  32.424  1.00  0.00     0.173 A 
ATOM     67  C   UNL A   1      42.689  32.099  34.296  1.00  0.00     0.173 A 
ATOM     68  F   UNL A   1      44.214  33.211  31.185  1.00  0.00    -0.203 F 
ATOM     69  C   UNL A   1      43.696  34.413  33.140  1.00  0.00     0.198 A 
ATOM     70  C   UNL A   1      42.653  33.303  34.994  1.00  0.00     0.198 A 
ATOM     71  F   UNL A   1      42.200  30.998  34.884  1.00  0.00    -0.203 F 
ATOM     72  F   UNL A   1      44.213  35.522  32.593  1.00  0.00    -0.200 F 
ATOM     73  C   UNL A   1      43.161  34.456  34.419  1.00  0.00     0.200 A 
ATOM     74  F   UNL A   1      42.118  33.345  36.222  1.00  0.00    -0.200 F 
ATOM     75  F   UNL A   1      43.140  35.611  35.099  1.00  0.00    -0.200 F 
ENDBRANCH  51  65
BRANCH  52  76
ATOM     76  C   UNL A   1      42.653  23.694  27.503  1.00  0.00     0.064 A 
ATOM     77  C   UNL A   1      42.249  22.459  28.030  1.00  0.00     0.173 A 
ATOM     78  C   UNL A   1      43.057  23.726  26.160  1.00  0.00     0.173 A 
ATOM     79  F   UNL A   1      41.868  22.370  29.313  1.00  0.00    -0.203 F 
ATOM     80  C   UNL A   1      42.294  21.297  27.261  1.00  0.00     0.198 A 
ATOM     81  C   UNL A   1      43.062  22.572  25.381  1.00  0.00     0.198 A 
ATOM     82  F   UNL A   1      43.446  24.881  25.602  1.00  0.00    -0.203 F 
ATOM     83  F   UNL A   1      41.975  20.118  27.813  1.00  0.00    -0.200 F 
ATOM     84  C   UNL A   1      42.698  21.355  25.936  1.00  0.00     0.200 A 
ATOM     85  F   UNL A   1      43.434  22.636  24.095  1.00  0.00    -0.200 F 
ATOM     86  F   UNL A   1      42.748  20.237  25.198  1.00  0.00    -0.200 F 
ENDBRANCH  52  76
BRANCH  64  87
ATOM     87  C   UNL A   1      47.479  26.375  31.767  1.00  0.00     0.064 A 
ATOM     88  C   UNL A   1      47.632  25.521  32.869  1.00  0.00     0.173 A 
ATOM     89  C   UNL A   1      48.632  26.724  31.045  1.00  0.00     0.173 A 
ATOM     90  F   UNL A   1      46.565  25.165  33.602  1.00  0.00    -0.203 F 
ATOM     91  C   UNL A   1      48.889  25.058  33.247  1.00  0.00     0.198 A 
ATOM     92  C   UNL A   1      49.881  26.228  31.401  1.00  0.00     0.198 A 
ATOM     93  F   UNL A   1      48.542  27.531  29.977  1.00  0.00    -0.203 F 
ATOM     94  F   UNL A   1      49.017  24.286  34.336  1.00  0.00    -0.200 F 
ATOM     95  C   UNL A   1      50.011  25.403  32.507  1.00  0.00     0.200 A 
ATOM     96  F   UNL A   1      50.959  26.544  30.670  1.00  0.00    -0.200 F 
ATOM     97  F   UNL A   1      51.218  24.942  32.863  1.00  0.00    -0.200 F 
ENDBRANCH  64  87
ENDBRANCH  38  39
ENDBRANCH  30  33
ENDBRANCH  28  29
ENDBRANCH  27  28
ENDBRANCH  26  27
ENDBRANCH  25  26
ENDBRANCH   1  25
TORSDOF 19
ENDMDL
MODEL 3
REMARK VINA RESULT:     -11.0      3.099      8.921
REMARK SMILES COc1ccc(C[N@@H+](CC(=O)NCCCCCCNC(=O)c2ccc(-c3c4nc(c(-c5c(F)c(F)c(F)c(F)c5F)c5ccc([nH]5)c(-c5c(F)c(F)c(F)c(F)c5F)c5nc(c(-c6c(F)c(F)c(F)c(F)c6F)c6ccc3[nH]6)C=C5)C=C4)cc2)C(C)(C)C)cc1C#N
REMARK SMILES IDX 14 1 13 2 12 3 10 4 11 5 9 7 8 8 7 10 6 11 3 12 4 13 90 14
REMARK SMILES IDX 5 15 89 16 2 17 1 18 91 19 92 20 85 21 86 22 87 23 88 24
REMARK SMILES IDX 15 25 16 26 17 27 18 28 19 29 20 30 21 32 22 33 23 34 84 35
REMARK SMILES IDX 24 36 83 37 25 38 26 39 27 40 77 41 28 42 82 43 76 44 78 45
REMARK SMILES IDX 29 46 81 47 75 48 74 49 30 51 62 52 42 53 61 54 43 55 46 56
REMARK SMILES IDX 60 57 79 58 44 59 45 60 59 62 80 63 47 64 31 65 32 66 40 67
REMARK SMILES IDX 33 68 34 69 38 70 41 71 35 72 36 73 39 74 37 75 63 76 64 77
REMARK SMILES IDX 72 78 65 79 66 80 70 81 73 82 67 83 68 84 71 85 69 86 48 87
REMARK SMILES IDX 49 88 57 89 50 90 51 91 55 92 58 93 52 94 53 95 56 96 54 97
REMARK H PARENT 12 6 8 9 19 31 78 50 46 61
REMARK Flexibility Score: inf
ROOT
ATOM      1  C   UNL A   1      31.254  24.540  26.694  1.00  0.00     0.021 C 
ENDROOT
BRANCH   1   2
ATOM      2  C   UNL A   1      31.299  23.016  26.502  1.00  0.00     0.116 C 
BRANCH   2   3
ATOM      3  N   UNL A   1      32.404  22.432  27.235  1.00  0.00    -0.351 N 
ATOM      4  C   UNL A   1      33.534  21.779  26.836  1.00  0.00     0.275 C 
ATOM      5  O   UNL A   1      34.315  21.456  27.740  1.00  0.00    -0.269 OA
ATOM      6  H   UNL A   1      32.325  22.525  28.212  1.00  0.00     0.163 HD
BRANCH   4   7
ATOM      7  C   UNL A   1      33.899  21.504  25.363  1.00  0.00     0.364 C 
BRANCH   7   8
ATOM      8  N   UNL A   1      34.591  22.587  24.581  1.00  0.00    -0.319 N 
ATOM      9  H   UNL A   1      34.525  23.492  25.048  1.00  0.00     0.349 HD
BRANCH   8  10
ATOM     10  C   UNL A   1      33.864  22.785  23.328  1.00  0.00     0.299 C 
BRANCH  10  11
ATOM     11  C   UNL A   1      33.010  23.989  23.045  1.00  0.00     0.008 A 
ATOM     12  C   UNL A   1      31.510  26.303  22.457  1.00  0.00     0.136 A 
ATOM     13  C   UNL A   1      30.879  25.081  22.741  1.00  0.00     0.048 A 
ATOM     14  C   UNL A   1      32.905  26.369  22.456  1.00  0.00     0.094 A 
ATOM     15  C   UNL A   1      31.619  23.929  23.022  1.00  0.00     0.013 A 
ATOM     16  C   UNL A   1      33.638  25.208  22.731  1.00  0.00     0.033 A 
BRANCH  12  17
ATOM     17  O   UNL A   1      30.654  27.362  22.316  1.00  0.00    -0.495 OA
ATOM     18  C   UNL A   1      30.727  28.359  23.329  1.00  0.00     0.278 C 
ENDBRANCH  12  17
BRANCH  14  19
ATOM     19  C   UNL A   1      33.662  27.565  22.232  1.00  0.00     0.103 C 
ATOM     20  N   UNL A   1      34.311  28.496  22.001  1.00  0.00    -0.192 NA
ENDBRANCH  14  19
ENDBRANCH  10  11
ENDBRANCH   8  10
BRANCH   8  21
ATOM     21  C   UNL A   1      36.081  22.615  24.647  1.00  0.00     0.090 C 
ATOM     22  C   UNL A   1      36.681  23.611  25.660  1.00  0.00     0.078 C 
ATOM     23  C   UNL A   1      36.701  21.234  24.981  1.00  0.00     0.078 C 
ATOM     24  C   UNL A   1      36.643  22.951  23.240  1.00  0.00     0.078 C 
ENDBRANCH   8  21
ENDBRANCH   7   8
ENDBRANCH   4   7
ENDBRANCH   2   3
ENDBRANCH   1   2
BRANCH   1  25
ATOM     25  C   UNL A   1      32.527  25.299  26.343  1.00  0.00     0.002 C 
BRANCH  25  26
ATOM     26  C   UNL A   1      32.307  26.773  26.011  1.00  0.00     0.002 C 
BRANCH  26  27
ATOM     27  C   UNL A   1      33.100  27.751  26.884  1.00  0.00     0.021 C 
BRANCH  27  28
ATOM     28  C   UNL A   1      33.947  28.748  26.098  1.00  0.00     0.116 C 
BRANCH  28  29
ATOM     29  N   UNL A   1      33.804  30.097  26.625  1.00  0.00    -0.352 N 
ATOM     30  C   UNL A   1      34.511  30.713  27.625  1.00  0.00     0.251 C 
ATOM     31  H   UNL A   1      33.103  30.644  26.202  1.00  0.00     0.163 HD
ATOM     32  O   UNL A   1      34.081  31.729  28.161  1.00  0.00    -0.269 OA
BRANCH  30  33
ATOM     33  C   UNL A   1      35.797  30.134  28.059  1.00  0.00     0.039 A 
ATOM     34  C   UNL A   1      36.906  30.216  27.215  1.00  0.00     0.014 A 
ATOM     35  C   UNL A   1      35.900  29.510  29.306  1.00  0.00     0.014 A 
ATOM     36  C   UNL A   1      38.136  29.719  27.648  1.00  0.00     0.010 A 
ATOM     37  C   UNL A   1      37.143  29.097  29.769  1.00  0.00     0.010 A 
ATOM     38  C   UNL A   1      38.272  29.187  28.941  1.00  0.00    -0.014 A 
BRANCH  38  39
ATOM     39  C   UNL A   1      39.581  28.701  29.445  1.00  0.00     0.031 A 
ATOM     40  C   UNL A   1      40.339  29.512  30.462  1.00  0.00     0.074 A 
ATOM     41  C   UNL A   1      40.114  27.569  28.945  1.00  0.00     0.049 A 
ATOM     42  N   UNL A   1      41.534  29.310  30.957  1.00  0.00    -0.248 NA
ATOM     43  C   UNL A   1      39.679  30.727  30.968  1.00  0.00     0.031 C 
ATOM     44  C   UNL A   1      39.490  26.715  27.934  1.00  0.00     0.029 A 
ATOM     45  N   UNL A   1      41.309  26.948  29.211  1.00  0.00    -0.354 N 
ATOM     46  C   UNL A   1      41.770  30.374  31.818  1.00  0.00     0.074 A 
ATOM     47  C   UNL A   1      40.623  31.251  31.735  1.00  0.00     0.031 C 
ATOM     48  C   UNL A   1      40.295  25.672  27.680  1.00  0.00     0.029 A 
ATOM     49  C   UNL A   1      41.516  25.810  28.469  1.00  0.00     0.049 A 
ATOM     50  H   UNL A   1      41.956  27.284  29.872  1.00  0.00     0.167 HD
ATOM     51  C   UNL A   1      42.837  30.586  32.622  1.00  0.00     0.037 A 
ATOM     52  C   UNL A   1      42.579  24.984  28.415  1.00  0.00     0.037 A 
ATOM     53  C   UNL A   1      43.967  29.700  32.713  1.00  0.00     0.049 A 
ATOM     54  C   UNL A   1      43.771  25.270  29.293  1.00  0.00     0.074 A 
ATOM     55  C   UNL A   1      45.074  29.799  33.537  1.00  0.00     0.029 A 
ATOM     56  N   UNL A   1      44.136  28.555  31.949  1.00  0.00    -0.354 N 
ATOM     57  N   UNL A   1      43.953  26.243  30.152  1.00  0.00    -0.248 NA
ATOM     58  C   UNL A   1      44.903  24.338  29.197  1.00  0.00     0.031 C 
ATOM     59  C   UNL A   1      45.949  28.758  33.219  1.00  0.00     0.029 A 
ATOM     60  C   UNL A   1      45.349  27.959  32.259  1.00  0.00     0.049 A 
ATOM     61  H   UNL A   1      43.493  28.216  31.287  1.00  0.00     0.167 HD
ATOM     62  C   UNL A   1      45.197  26.016  30.728  1.00  0.00     0.074 A 
ATOM     63  C   UNL A   1      45.719  24.807  30.130  1.00  0.00     0.031 C 
ATOM     64  C   UNL A   1      45.846  26.742  31.671  1.00  0.00     0.037 A 
BRANCH  51  65
ATOM     65  C   UNL A   1      42.847  31.828  33.467  1.00  0.00     0.064 A 
ATOM     66  C   UNL A   1      43.412  33.029  33.011  1.00  0.00     0.173 A 
ATOM     67  C   UNL A   1      42.222  31.835  34.724  1.00  0.00     0.173 A 
ATOM     68  F   UNL A   1      44.031  33.076  31.821  1.00  0.00    -0.203 F 
ATOM     69  C   UNL A   1      43.372  34.182  33.790  1.00  0.00     0.198 A 
ATOM     70  C   UNL A   1      42.151  32.999  35.483  1.00  0.00     0.198 A 
ATOM     71  F   UNL A   1      41.661  30.716  35.206  1.00  0.00    -0.203 F 
ATOM     72  F   UNL A   1      43.957  35.306  33.352  1.00  0.00    -0.200 F 
ATOM     73  C   UNL A   1      42.730  34.169  35.020  1.00  0.00     0.200 A 
ATOM     74  F   UNL A   1      41.514  32.989  36.663  1.00  0.00    -0.200 F 
ATOM     75  F   UNL A   1      42.674  35.285  35.760  1.00  0.00    -0.200 F 
ENDBRANCH  51  65
BRANCH  52  76
ATOM     76  C   UNL A   1      42.579  23.813  27.495  1.00  0.00     0.064 A 
ATOM     77  C   UNL A   1      42.165  22.547  27.934  1.00  0.00     0.173 A 
ATOM     78  C   UNL A   1      43.038  23.923  26.173  1.00  0.00     0.173 A 
ATOM     79  F   UNL A   1      41.733  22.384  29.193  1.00  0.00    -0.203 F 
ATOM     80  C   UNL A   1      42.250  21.431  27.103  1.00  0.00     0.198 A 
ATOM     81  C   UNL A   1      43.084  22.815  25.331  1.00  0.00     0.198 A 
ATOM     82  F   UNL A   1      43.439  25.111  25.697  1.00  0.00    -0.203 F 
ATOM     83  F   UNL A   1      41.918  20.222  27.574  1.00  0.00    -0.200 F 
ATOM     84  C   UNL A   1      42.707  21.567  25.801  1.00  0.00     0.200 A 
ATOM     85  F   UNL A   1      43.506  22.955  24.067  1.00  0.00    -0.200 F 
ATOM     86  F   UNL A   1      42.795  20.493  25.004  1.00  0.00    -0.200 F 
ENDBRANCH  52  76
BRANCH  64  87
ATOM     87  C   UNL A   1      47.165  26.219  32.169  1.00  0.00     0.064 A 
ATOM     88  C   UNL A   1      48.386  26.623  31.610  1.00  0.00     0.173 A 
ATOM     89  C   UNL A   1      47.204  25.342  33.264  1.00  0.00     0.173 A 
ATOM     90  F   UNL A   1      48.405  27.451  30.554  1.00  0.00    -0.203 F 
ATOM     91  C   UNL A   1      49.594  26.147  32.111  1.00  0.00     0.198 A 
ATOM     92  C   UNL A   1      48.415  24.899  33.788  1.00  0.00     0.198 A 
ATOM     93  F   UNL A   1      46.065  24.931  33.843  1.00  0.00    -0.203 F 
ATOM     94  F   UNL A   1      50.747  26.504  31.527  1.00  0.00    -0.200 F 
ATOM     95  C   UNL A   1      49.609  25.294  33.206  1.00  0.00     0.200 A 
ATOM     96  F   UNL A   1      48.425  24.095  34.860  1.00  0.00    -0.200 F 
ATOM     97  F   UNL A   1      50.774  24.850  33.697  1.00  0.00    -0.200 F 
ENDBRANCH  64  87
ENDBRANCH  38  39
ENDBRANCH  30  33
ENDBRANCH  28  29
ENDBRANCH  27  28
ENDBRANCH  26  27
ENDBRANCH  25  26
ENDBRANCH   1  25
TORSDOF 19
ENDMDL
