MODEL 1
REMARK VINA RESULT:     -11.4      0.000      0.000
REMARK SMILES CCC[C@H](Nc1cc(C)c(N)c(C(=O)NCCCCCCNC(=O)c2ccc(-c3c4nc(c(-c5c(F)c(F)c(F)c(F)c5F)c5ccc([nH]5)c(-c5c(F)c(F)c(F)c(F)c5F)c5nc(c(-c6c(F)c(F)c(F)c(F)c6F)c6ccc3[nH]6)C=C5)C=C4)cc2)c1)c1cccs1
REMARK SMILES IDX 17 1 16 2 15 3 13 4 14 5 12 7 6 8 7 9 88 10 8 11 9 12 10 13
REMARK SMILES IDX 5 14 4 16 3 17 2 18 1 19 89 20 90 21 93 22 91 23 92 24 11 25
REMARK SMILES IDX 18 28 19 29 20 30 21 31 22 32 23 33 24 35 25 36 26 37 87 38
REMARK SMILES IDX 27 39 86 40 28 41 29 42 30 43 80 44 31 45 85 46 79 47 81 48
REMARK SMILES IDX 32 49 84 50 78 51 77 52 33 54 65 55 45 56 64 57 46 58 49 59
REMARK SMILES IDX 63 60 82 61 47 62 48 63 62 65 83 66 50 67 34 68 35 69 43 70
REMARK SMILES IDX 36 71 37 72 41 73 44 74 38 75 39 76 42 77 40 78 66 79 67 80
REMARK SMILES IDX 75 81 68 82 69 83 73 84 76 85 70 86 71 87 74 88 72 89 51 90
REMARK SMILES IDX 52 91 60 92 53 93 54 94 58 95 61 96 55 97 56 98 59 99 57 100
REMARK H PARENT 15 6 5 15 11 26 11 27 22 34 81 53 49 64
REMARK Flexibility Score: inf
ROOT
ATOM      1  C   UNL A   1      33.572  29.319  26.829  1.00  0.00     0.021 C 
ENDROOT
BRANCH   1   2
ATOM      2  C   UNL A   1      33.664  27.823  26.509  1.00  0.00     0.116 C 
BRANCH   2   3
ATOM      3  N   UNL A   1      32.373  27.200  26.718  1.00  0.00    -0.352 N 
ATOM      4  C   UNL A   1      31.725  26.119  26.175  1.00  0.00     0.253 C 
ATOM      5  O   UNL A   1      30.555  25.969  26.544  1.00  0.00    -0.269 OA
ATOM      6  H   UNL A   1      31.838  27.657  27.407  1.00  0.00     0.163 HD
BRANCH   4   7
ATOM      7  C   UNL A   1      32.343  25.127  25.229  1.00  0.00     0.065 A 
ATOM      8  C   UNL A   1      33.394  22.953  24.797  1.00  0.00     0.036 A 
ATOM      9  C   UNL A   1      33.417  23.241  23.438  1.00  0.00     0.031 A 
ATOM     10  C   UNL A   1      32.941  23.943  25.673  1.00  0.00     0.041 A 
ATOM     11  C   UNL A   1      32.898  24.453  22.943  1.00  0.00    -0.025 A 
ATOM     12  C   UNL A   1      32.905  24.696  21.457  1.00  0.00     0.046 C 
ATOM     13  C   UNL A   1      32.352  25.405  23.836  1.00  0.00     0.047 A 
BRANCH   8  14
ATOM     14  N   UNL A   1      33.797  21.743  25.320  1.00  0.00    -0.377 N 
ATOM     15  H   UNL A   1      33.412  21.471  26.184  1.00  0.00     0.161 HD
BRANCH  14  16
ATOM     16  C   UNL A   1      34.753  20.831  24.694  1.00  0.00     0.119 C 
BRANCH  16  17
ATOM     17  C   UNL A   1      36.134  21.071  25.355  1.00  0.00     0.030 C 
BRANCH  17  18
ATOM     18  C   UNL A   1      37.082  22.113  24.753  1.00  0.00    -0.001 C 
ATOM     19  C   UNL A   1      37.121  23.449  25.470  1.00  0.00     0.004 C 
ENDBRANCH  17  18
ENDBRANCH  16  17
BRANCH  16  20
ATOM     20  C   UNL A   1      34.249  19.399  24.788  1.00  0.00     0.027 A 
ATOM     21  C   UNL A   1      34.908  18.253  24.378  1.00  0.00     0.017 A 
ATOM     22  S   UNL A   1      32.676  19.022  25.371  1.00  0.00    -0.147 S 
ATOM     23  C   UNL A   1      34.174  17.066  24.660  1.00  0.00     0.012 A 
ATOM     24  C   UNL A   1      32.959  17.341  25.241  1.00  0.00     0.065 A 
ENDBRANCH  16  20
ENDBRANCH  14  16
ENDBRANCH   8  14
BRANCH  13  25
ATOM     25  N   UNL A   1      31.694  26.527  23.316  1.00  0.00    -0.398 N 
ATOM     26  H   UNL A   1      31.350  26.513  22.393  1.00  0.00     0.156 HD
ATOM     27  H   UNL A   1      31.576  27.331  23.873  1.00  0.00     0.156 HD
ENDBRANCH  13  25
ENDBRANCH   4   7
ENDBRANCH   2   3
ENDBRANCH   1   2
BRANCH   1  28
ATOM     28  C   UNL A   1      32.137  29.778  27.133  1.00  0.00     0.002 C 
BRANCH  28  29
ATOM     29  C   UNL A   1      31.554  30.772  26.119  1.00  0.00     0.002 C 
BRANCH  29  30
ATOM     30  C   UNL A   1      31.379  32.199  26.644  1.00  0.00     0.021 C 
BRANCH  30  31
ATOM     31  C   UNL A   1      32.659  32.827  27.185  1.00  0.00     0.116 C 
BRANCH  31  32
ATOM     32  N   UNL A   1      32.439  34.198  27.619  1.00  0.00    -0.352 N 
ATOM     33  C   UNL A   1      32.999  34.876  28.672  1.00  0.00     0.251 C 
ATOM     34  H   UNL A   1      31.797  34.713  27.080  1.00  0.00     0.163 HD
ATOM     35  O   UNL A   1      32.529  35.947  29.039  1.00  0.00    -0.269 OA
BRANCH  33  36
ATOM     36  C   UNL A   1      34.168  34.307  29.374  1.00  0.00     0.039 A 
ATOM     37  C   UNL A   1      33.963  33.565  30.539  1.00  0.00     0.014 A 
ATOM     38  C   UNL A   1      35.464  34.530  28.900  1.00  0.00     0.014 A 
ATOM     39  C   UNL A   1      35.055  33.004  31.204  1.00  0.00     0.010 A 
ATOM     40  C   UNL A   1      36.546  33.916  29.526  1.00  0.00     0.010 A 
ATOM     41  C   UNL A   1      36.352  33.153  30.688  1.00  0.00    -0.014 A 
BRANCH  41  42
ATOM     42  C   UNL A   1      37.521  32.529  31.355  1.00  0.00     0.031 A 
ATOM     43  C   UNL A   1      38.244  31.389  30.696  1.00  0.00     0.074 A 
ATOM     44  C   UNL A   1      37.893  32.952  32.579  1.00  0.00     0.049 A 
ATOM     45  N   UNL A   1      39.236  30.664  31.150  1.00  0.00    -0.248 NA
ATOM     46  C   UNL A   1      37.777  30.994  29.357  1.00  0.00     0.031 C 
ATOM     47  C   UNL A   1      37.244  34.023  33.337  1.00  0.00     0.029 A 
ATOM     48  N   UNL A   1      38.901  32.525  33.406  1.00  0.00    -0.354 N 
ATOM     49  C   UNL A   1      39.502  29.726  30.161  1.00  0.00     0.074 A 
ATOM     50  C   UNL A   1      38.535  29.938  29.105  1.00  0.00     0.031 C 
ATOM     51  C   UNL A   1      37.882  34.182  34.508  1.00  0.00     0.029 A 
ATOM     52  C   UNL A   1      38.958  33.201  34.600  1.00  0.00     0.049 A 
ATOM     53  H   UNL A   1      39.525  31.802  33.166  1.00  0.00     0.167 HD
ATOM     54  C   UNL A   1      40.479  28.789  30.126  1.00  0.00     0.037 A 
ATOM     55  C   UNL A   1      39.782  33.040  35.653  1.00  0.00     0.037 A 
ATOM     56  C   UNL A   1      41.455  28.598  31.166  1.00  0.00     0.049 A 
ATOM     57  C   UNL A   1      40.853  31.982  35.590  1.00  0.00     0.074 A 
ATOM     58  C   UNL A   1      42.512  27.706  31.206  1.00  0.00     0.029 A 
ATOM     59  N   UNL A   1      41.492  29.315  32.354  1.00  0.00    -0.354 N 
ATOM     60  N   UNL A   1      41.129  31.139  34.626  1.00  0.00    -0.248 NA
ATOM     61  C   UNL A   1      41.728  31.859  36.764  1.00  0.00     0.031 C 
ATOM     62  C   UNL A   1      43.166  27.857  32.432  1.00  0.00     0.029 A 
ATOM     63  C   UNL A   1      42.545  28.875  33.138  1.00  0.00     0.049 A 
ATOM     64  H   UNL A   1      40.863  30.031  32.601  1.00  0.00     0.167 HD
ATOM     65  C   UNL A   1      42.226  30.409  35.060  1.00  0.00     0.074 A 
ATOM     66  C   UNL A   1      42.575  30.918  36.370  1.00  0.00     0.031 C 
ATOM     67  C   UNL A   1      42.885  29.405  34.433  1.00  0.00     0.037 A 
BRANCH  54  68
ATOM     68  C   UNL A   1      40.553  27.903  28.916  1.00  0.00     0.064 A 
ATOM     69  C   UNL A   1      41.395  28.208  27.837  1.00  0.00     0.173 A 
ATOM     70  C   UNL A   1      39.814  26.712  28.857  1.00  0.00     0.173 A 
ATOM     71  F   UNL A   1      42.113  29.342  27.839  1.00  0.00    -0.203 F 
ATOM     72  C   UNL A   1      41.480  27.364  26.733  1.00  0.00     0.198 A 
ATOM     73  C   UNL A   1      39.922  25.856  27.764  1.00  0.00     0.198 A 
ATOM     74  F   UNL A   1      38.997  26.372  29.865  1.00  0.00    -0.203 F 
ATOM     75  F   UNL A   1      42.260  27.697  25.695  1.00  0.00    -0.200 F 
ATOM     76  C   UNL A   1      40.750  26.185  26.700  1.00  0.00     0.200 A 
ATOM     77  F   UNL A   1      39.227  24.711  27.740  1.00  0.00    -0.200 F 
ATOM     78  F   UNL A   1      40.841  25.368  25.642  1.00  0.00    -0.200 F 
ENDBRANCH  54  68
BRANCH  55  79
ATOM     79  C   UNL A   1      39.647  33.909  36.849  1.00  0.00     0.064 A 
ATOM     80  C   UNL A   1      38.875  33.506  37.948  1.00  0.00     0.173 A 
ATOM     81  C   UNL A   1      40.263  35.168  36.913  1.00  0.00     0.173 A 
ATOM     82  F   UNL A   1      38.249  32.320  37.926  1.00  0.00    -0.203 F 
ATOM     83  C   UNL A   1      38.701  34.339  39.051  1.00  0.00     0.198 A 
ATOM     84  C   UNL A   1      40.112  35.988  38.029  1.00  0.00     0.198 A 
ATOM     85  F   UNL A   1      41.016  35.600  35.890  1.00  0.00    -0.203 F 
ATOM     86  F   UNL A   1      37.912  33.951  40.063  1.00  0.00    -0.200 F 
ATOM     87  C   UNL A   1      39.322  35.578  39.093  1.00  0.00     0.200 A 
ATOM     88  F   UNL A   1      40.725  37.179  38.070  1.00  0.00    -0.200 F 
ATOM     89  F   UNL A   1      39.153  36.380  40.152  1.00  0.00    -0.200 F 
ENDBRANCH  55  79
BRANCH  67  90
ATOM     90  C   UNL A   1      44.074  28.819  35.136  1.00  0.00     0.064 A 
ATOM     91  C   UNL A   1      45.366  29.332  34.950  1.00  0.00     0.173 A 
ATOM     92  C   UNL A   1      43.912  27.756  36.038  1.00  0.00     0.173 A 
ATOM     93  F   UNL A   1      45.575  30.338  34.087  1.00  0.00    -0.203 F 
ATOM     94  C   UNL A   1      46.457  28.784  35.620  1.00  0.00     0.198 A 
ATOM     95  C   UNL A   1      45.000  27.230  36.729  1.00  0.00     0.198 A 
ATOM     96  F   UNL A   1      42.696  27.235  36.257  1.00  0.00    -0.203 F 
ATOM     97  F   UNL A   1      47.689  29.258  35.389  1.00  0.00    -0.200 F 
ATOM     98  C   UNL A   1      46.272  27.739  36.513  1.00  0.00     0.200 A 
ATOM     99  F   UNL A   1      44.818  26.229  37.601  1.00  0.00    -0.200 F 
ATOM    100  F   UNL A   1      47.322  27.219  37.162  1.00  0.00    -0.200 F 
ENDBRANCH  67  90
ENDBRANCH  41  42
ENDBRANCH  33  36
ENDBRANCH  31  32
ENDBRANCH  30  31
ENDBRANCH  29  30
ENDBRANCH  28  29
ENDBRANCH   1  28
TORSDOF 19
ENDMDL
MODEL 2
REMARK VINA RESULT:     -11.1      1.817      7.626
REMARK SMILES CCC[C@H](Nc1cc(C)c(N)c(C(=O)NCCCCCCNC(=O)c2ccc(-c3c4nc(c(-c5c(F)c(F)c(F)c(F)c5F)c5ccc([nH]5)c(-c5c(F)c(F)c(F)c(F)c5F)c5nc(c(-c6c(F)c(F)c(F)c(F)c6F)c6ccc3[nH]6)C=C5)C=C4)cc2)c1)c1cccs1
REMARK SMILES IDX 17 1 16 2 15 3 13 4 14 5 12 7 6 8 7 9 88 10 8 11 9 12 10 13
REMARK SMILES IDX 5 14 4 16 3 17 2 18 1 19 89 20 90 21 93 22 91 23 92 24 11 25
REMARK SMILES IDX 18 28 19 29 20 30 21 31 22 32 23 33 24 35 25 36 26 37 87 38
REMARK SMILES IDX 27 39 86 40 28 41 29 42 30 43 80 44 31 45 85 46 79 47 81 48
REMARK SMILES IDX 32 49 84 50 78 51 77 52 33 54 65 55 45 56 64 57 46 58 49 59
REMARK SMILES IDX 63 60 82 61 47 62 48 63 62 65 83 66 50 67 34 68 35 69 43 70
REMARK SMILES IDX 36 71 37 72 41 73 44 74 38 75 39 76 42 77 40 78 66 79 67 80
REMARK SMILES IDX 75 81 68 82 69 83 73 84 76 85 70 86 71 87 74 88 72 89 51 90
REMARK SMILES IDX 52 91 60 92 53 93 54 94 58 95 61 96 55 97 56 98 59 99 57 100
REMARK H PARENT 15 6 5 15 11 26 11 27 22 34 81 53 49 64
REMARK Flexibility Score: inf
ROOT
ATOM      1  C   UNL A   1      33.695  31.780  27.652  1.00  0.00     0.021 C 
ENDROOT
BRANCH   1   2
ATOM      2  C   UNL A   1      33.887  30.395  27.026  1.00  0.00     0.116 C 
BRANCH   2   3
ATOM      3  N   UNL A   1      32.958  29.457  27.623  1.00  0.00    -0.352 N 
ATOM      4  C   UNL A   1      32.345  28.305  27.199  1.00  0.00     0.253 C 
ATOM      5  O   UNL A   1      31.507  27.839  27.979  1.00  0.00    -0.269 OA
ATOM      6  H   UNL A   1      32.710  29.703  28.544  1.00  0.00     0.163 HD
BRANCH   4   7
ATOM      7  C   UNL A   1      32.651  27.587  25.913  1.00  0.00     0.065 A 
ATOM      8  C   UNL A   1      33.920  25.911  24.651  1.00  0.00     0.036 A 
ATOM      9  C   UNL A   1      33.153  26.186  23.526  1.00  0.00     0.031 A 
ATOM     10  C   UNL A   1      33.712  26.683  25.796  1.00  0.00     0.041 A 
ATOM     11  C   UNL A   1      32.121  27.142  23.567  1.00  0.00    -0.025 A 
ATOM     12  C   UNL A   1      31.289  27.370  22.332  1.00  0.00     0.046 C 
ATOM     13  C   UNL A   1      31.858  27.848  24.764  1.00  0.00     0.047 A 
BRANCH   8  14
ATOM     14  N   UNL A   1      34.874  24.916  24.690  1.00  0.00    -0.377 N 
ATOM     15  H   UNL A   1      35.669  25.027  24.120  1.00  0.00     0.161 HD
BRANCH  14  16
ATOM     16  C   UNL A   1      34.799  23.708  25.510  1.00  0.00     0.119 C 
BRANCH  16  17
ATOM     17  C   UNL A   1      33.687  22.805  24.917  1.00  0.00     0.030 C 
BRANCH  17  18
ATOM     18  C   UNL A   1      32.398  22.581  25.716  1.00  0.00    -0.001 C 
ATOM     19  C   UNL A   1      32.214  23.485  26.919  1.00  0.00     0.004 C 
ENDBRANCH  17  18
ENDBRANCH  16  17
BRANCH  16  20
ATOM     20  C   UNL A   1      36.166  23.049  25.598  1.00  0.00     0.027 A 
ATOM     21  C   UNL A   1      37.359  23.646  25.968  1.00  0.00     0.017 A 
ATOM     22  S   UNL A   1      36.421  21.412  25.139  1.00  0.00    -0.147 S 
ATOM     23  C   UNL A   1      38.448  22.728  25.996  1.00  0.00     0.012 A 
ATOM     24  C   UNL A   1      38.064  21.466  25.607  1.00  0.00     0.065 A 
ENDBRANCH  16  20
ENDBRANCH  14  16
ENDBRANCH   8  14
BRANCH  13  25
ATOM     25  N   UNL A   1      30.727  28.672  24.835  1.00  0.00    -0.398 N 
ATOM     26  H   UNL A   1      30.441  29.043  25.703  1.00  0.00     0.156 HD
ATOM     27  H   UNL A   1      30.218  28.882  24.019  1.00  0.00     0.156 HD
ENDBRANCH  13  25
ENDBRANCH   4   7
ENDBRANCH   2   3
ENDBRANCH   1   2
BRANCH   1  28
ATOM     28  C   UNL A   1      35.018  32.422  28.101  1.00  0.00     0.002 C 
BRANCH  28  29
ATOM     29  C   UNL A   1      34.902  33.888  28.539  1.00  0.00     0.002 C 
BRANCH  29  30
ATOM     30  C   UNL A   1      33.470  34.389  28.741  1.00  0.00     0.021 C 
BRANCH  30  31
ATOM     31  C   UNL A   1      33.367  35.880  29.045  1.00  0.00     0.116 C 
BRANCH  31  32
ATOM     32  N   UNL A   1      32.593  36.127  30.252  1.00  0.00    -0.352 N 
ATOM     33  C   UNL A   1      32.730  35.575  31.500  1.00  0.00     0.251 C 
ATOM     34  H   UNL A   1      31.867  36.785  30.159  1.00  0.00     0.163 HD
ATOM     35  O   UNL A   1      31.849  35.717  32.340  1.00  0.00    -0.269 OA
BRANCH  33  36
ATOM     36  C   UNL A   1      33.943  34.798  31.830  1.00  0.00     0.039 A 
ATOM     37  C   UNL A   1      35.174  35.455  31.886  1.00  0.00     0.014 A 
ATOM     38  C   UNL A   1      33.869  33.421  32.056  1.00  0.00     0.014 A 
ATOM     39  C   UNL A   1      36.326  34.739  32.216  1.00  0.00     0.010 A 
ATOM     40  C   UNL A   1      35.006  32.720  32.448  1.00  0.00     0.010 A 
ATOM     41  C   UNL A   1      36.247  33.372  32.525  1.00  0.00    -0.014 A 
BRANCH  41  42
ATOM     42  C   UNL A   1      37.453  32.603  32.919  1.00  0.00     0.031 A 
ATOM     43  C   UNL A   1      38.152  32.911  34.214  1.00  0.00     0.074 A 
ATOM     44  C   UNL A   1      37.950  31.670  32.085  1.00  0.00     0.049 A 
ATOM     45  N   UNL A   1      39.259  32.405  34.698  1.00  0.00    -0.248 NA
ATOM     46  C   UNL A   1      37.539  33.940  35.069  1.00  0.00     0.031 C 
ATOM     47  C   UNL A   1      37.383  31.311  30.784  1.00  0.00     0.029 A 
ATOM     48  N   UNL A   1      39.051  30.860  32.201  1.00  0.00    -0.354 N 
ATOM     49  C   UNL A   1      39.478  33.060  35.903  1.00  0.00     0.074 A 
ATOM     50  C   UNL A   1      38.420  34.036  36.054  1.00  0.00     0.031 C 
ATOM     51  C   UNL A   1      38.129  30.340  30.232  1.00  0.00     0.029 A 
ATOM     52  C   UNL A   1      39.246  30.036  31.120  1.00  0.00     0.049 A 
ATOM     53  H   UNL A   1      39.646  30.869  32.986  1.00  0.00     0.167 HD
ATOM     54  C   UNL A   1      40.458  32.849  36.813  1.00  0.00     0.037 A 
ATOM     55  C   UNL A   1      40.221  29.140  30.872  1.00  0.00     0.037 A 
ATOM     56  C   UNL A   1      41.494  31.860  36.672  1.00  0.00     0.049 A 
ATOM     57  C   UNL A   1      41.305  28.935  31.898  1.00  0.00     0.074 A 
ATOM     58  C   UNL A   1      42.508  31.538  37.558  1.00  0.00     0.029 A 
ATOM     59  N   UNL A   1      41.647  31.029  35.571  1.00  0.00    -0.354 N 
ATOM     60  N   UNL A   1      41.469  29.521  33.058  1.00  0.00    -0.248 NA
ATOM     61  C   UNL A   1      42.337  27.939  31.577  1.00  0.00     0.031 C 
ATOM     62  C   UNL A   1      43.295  30.540  36.977  1.00  0.00     0.029 A 
ATOM     63  C   UNL A   1      42.747  30.207  35.749  1.00  0.00     0.049 A 
ATOM     64  H   UNL A   1      41.060  31.026  34.780  1.00  0.00     0.167 HD
ATOM     65  C   UNL A   1      42.599  28.945  33.620  1.00  0.00     0.074 A 
ATOM     66  C   UNL A   1      43.073  27.952  32.678  1.00  0.00     0.031 C 
ATOM     67  C   UNL A   1      43.194  29.214  34.807  1.00  0.00     0.037 A 
BRANCH  54  68
ATOM     68  C   UNL A   1      40.453  33.696  38.052  1.00  0.00     0.064 A 
ATOM     69  C   UNL A   1      39.666  33.359  39.164  1.00  0.00     0.173 A 
ATOM     70  C   UNL A   1      41.281  34.824  38.150  1.00  0.00     0.173 A 
ATOM     71  F   UNL A   1      38.848  32.297  39.117  1.00  0.00    -0.203 F 
ATOM     72  C   UNL A   1      39.692  34.134  40.321  1.00  0.00     0.198 A 
ATOM     73  C   UNL A   1      41.325  35.581  39.319  1.00  0.00     0.198 A 
ATOM     74  F   UNL A   1      42.056  35.186  37.117  1.00  0.00    -0.203 F 
ATOM     75  F   UNL A   1      38.901  33.817  41.356  1.00  0.00    -0.200 F 
ATOM     76  C   UNL A   1      40.527  35.239  40.401  1.00  0.00     0.200 A 
ATOM     77  F   UNL A   1      42.142  36.640  39.399  1.00  0.00    -0.200 F 
ATOM     78  F   UNL A   1      40.559  35.977  41.519  1.00  0.00    -0.200 F 
ENDBRANCH  54  68
BRANCH  55  79
ATOM     79  C   UNL A   1      40.212  28.354  29.612  1.00  0.00     0.064 A 
ATOM     80  C   UNL A   1      39.571  27.109  29.545  1.00  0.00     0.173 A 
ATOM     81  C   UNL A   1      40.862  28.816  28.457  1.00  0.00     0.173 A 
ATOM     82  F   UNL A   1      38.954  26.616  30.629  1.00  0.00    -0.203 F 
ATOM     83  C   UNL A   1      39.604  26.343  28.381  1.00  0.00     0.198 A 
ATOM     84  C   UNL A   1      40.869  28.062  27.286  1.00  0.00     0.198 A 
ATOM     85  F   UNL A   1      41.487  30.003  28.467  1.00  0.00    -0.203 F 
ATOM     86  F   UNL A   1      39.030  25.133  28.363  1.00  0.00    -0.200 F 
ATOM     87  C   UNL A   1      40.250  26.822  27.252  1.00  0.00     0.200 A 
ATOM     88  F   UNL A   1      41.483  28.534  26.193  1.00  0.00    -0.200 F 
ATOM     89  F   UNL A   1      40.284  26.084  26.134  1.00  0.00    -0.200 F 
ENDBRANCH  55  79
BRANCH  67  90
ATOM     90  C   UNL A   1      44.398  28.396  35.174  1.00  0.00     0.064 A 
ATOM     91  C   UNL A   1      44.281  27.189  35.878  1.00  0.00     0.173 A 
ATOM     92  C   UNL A   1      45.681  28.807  34.780  1.00  0.00     0.173 A 
ATOM     93  F   UNL A   1      43.077  26.762  36.289  1.00  0.00    -0.203 F 
ATOM     94  C   UNL A   1      45.407  26.437  36.200  1.00  0.00     0.198 A 
ATOM     95  C   UNL A   1      46.802  28.038  35.077  1.00  0.00     0.198 A 
ATOM     96  F   UNL A   1      45.845  29.951  34.098  1.00  0.00    -0.203 F 
ATOM     97  F   UNL A   1      45.277  25.312  36.916  1.00  0.00    -0.200 F 
ATOM     98  C   UNL A   1      46.665  26.858  35.793  1.00  0.00     0.200 A 
ATOM     99  F   UNL A   1      48.015  28.439  34.673  1.00  0.00    -0.200 F 
ATOM    100  F   UNL A   1      47.747  26.129  36.097  1.00  0.00    -0.200 F 
ENDBRANCH  67  90
ENDBRANCH  41  42
ENDBRANCH  33  36
ENDBRANCH  31  32
ENDBRANCH  30  31
ENDBRANCH  29  30
ENDBRANCH  28  29
ENDBRANCH   1  28
TORSDOF 19
ENDMDL
MODEL 3
REMARK VINA RESULT:     -11.1      5.495      9.868
REMARK SMILES CCC[C@H](Nc1cc(C)c(N)c(C(=O)NCCCCCCNC(=O)c2ccc(-c3c4nc(c(-c5c(F)c(F)c(F)c(F)c5F)c5ccc([nH]5)c(-c5c(F)c(F)c(F)c(F)c5F)c5nc(c(-c6c(F)c(F)c(F)c(F)c6F)c6ccc3[nH]6)C=C5)C=C4)cc2)c1)c1cccs1
REMARK SMILES IDX 17 1 16 2 15 3 13 4 14 5 12 7 6 8 7 9 88 10 8 11 9 12 10 13
REMARK SMILES IDX 5 14 4 16 3 17 2 18 1 19 89 20 90 21 93 22 91 23 92 24 11 25
REMARK SMILES IDX 18 28 19 29 20 30 21 31 22 32 23 33 24 35 25 36 26 37 87 38
REMARK SMILES IDX 27 39 86 40 28 41 29 42 30 43 80 44 31 45 85 46 79 47 81 48
REMARK SMILES IDX 32 49 84 50 78 51 77 52 33 54 65 55 45 56 64 57 46 58 49 59
REMARK SMILES IDX 63 60 82 61 47 62 48 63 62 65 83 66 50 67 34 68 35 69 43 70
REMARK SMILES IDX 36 71 37 72 41 73 44 74 38 75 39 76 42 77 40 78 66 79 67 80
REMARK SMILES IDX 75 81 68 82 69 83 73 84 76 85 70 86 71 87 74 88 72 89 51 90
REMARK SMILES IDX 52 91 60 92 53 93 54 94 58 95 61 96 55 97 56 98 59 99 57 100
REMARK H PARENT 15 6 5 15 11 26 11 27 22 34 81 53 49 64
REMARK Flexibility Score: inf
ROOT
ATOM      1  C   UNL A   1      38.428  23.505  26.137  1.00  0.00     0.021 C 
ENDROOT
BRANCH   1   2
ATOM      2  C   UNL A   1      37.008  23.486  25.561  1.00  0.00     0.116 C 
BRANCH   2   3
ATOM      3  N   UNL A   1      36.068  23.102  26.594  1.00  0.00    -0.352 N 
ATOM      4  C   UNL A   1      34.752  22.712  26.603  1.00  0.00     0.253 C 
ATOM      5  O   UNL A   1      34.253  22.574  27.726  1.00  0.00    -0.269 OA
ATOM      6  H   UNL A   1      36.463  23.127  27.496  1.00  0.00     0.163 HD
BRANCH   4   7
ATOM      7  C   UNL A   1      33.930  22.416  25.379  1.00  0.00     0.065 A 
ATOM      8  C   UNL A   1      32.869  23.140  23.290  1.00  0.00     0.036 A 
ATOM      9  C   UNL A   1      32.468  21.832  23.047  1.00  0.00     0.031 A 
ATOM     10  C   UNL A   1      33.513  23.419  24.498  1.00  0.00     0.041 A 
ATOM     11  C   UNL A   1      32.795  20.794  23.941  1.00  0.00    -0.025 A 
ATOM     12  C   UNL A   1      32.376  19.387  23.608  1.00  0.00     0.046 C 
ATOM     13  C   UNL A   1      33.534  21.078  25.113  1.00  0.00     0.047 A 
BRANCH   8  14
ATOM     14  N   UNL A   1      32.660  24.172  22.399  1.00  0.00    -0.377 N 
ATOM     15  H   UNL A   1      33.271  24.237  21.630  1.00  0.00     0.161 HD
BRANCH  14  16
ATOM     16  C   UNL A   1      31.605  25.177  22.507  1.00  0.00     0.119 C 
BRANCH  16  17
ATOM     17  C   UNL A   1      30.562  24.657  23.529  1.00  0.00     0.030 C 
BRANCH  17  18
ATOM     18  C   UNL A   1      30.360  25.416  24.845  1.00  0.00    -0.001 C 
ATOM     19  C   UNL A   1      30.508  24.585  26.105  1.00  0.00     0.004 C 
ENDBRANCH  17  18
ENDBRANCH  16  17
BRANCH  16  20
ATOM     20  C   UNL A   1      32.206  26.531  22.853  1.00  0.00     0.027 A 
ATOM     21  C   UNL A   1      33.448  26.774  23.412  1.00  0.00     0.017 A 
ATOM     22  S   UNL A   1      31.327  27.996  22.658  1.00  0.00    -0.147 S 
ATOM     23  C   UNL A   1      33.722  28.165  23.559  1.00  0.00     0.012 A 
ATOM     24  C   UNL A   1      32.665  28.941  23.145  1.00  0.00     0.065 A 
ENDBRANCH  16  20
ENDBRANCH  14  16
ENDBRANCH   8  14
BRANCH  13  25
ATOM     25  N   UNL A   1      33.991  20.016  25.905  1.00  0.00    -0.398 N 
ATOM     26  H   UNL A   1      34.785  19.502  25.629  1.00  0.00     0.156 HD
ATOM     27  H   UNL A   1      33.519  19.782  26.736  1.00  0.00     0.156 HD
ENDBRANCH  13  25
ENDBRANCH   4   7
ENDBRANCH   2   3
ENDBRANCH   1   2
BRANCH   1  28
ATOM     28  C   UNL A   1      39.096  22.121  26.125  1.00  0.00     0.002 C 
BRANCH  28  29
ATOM     29  C   UNL A   1      38.414  21.088  25.217  1.00  0.00     0.002 C 
BRANCH  29  30
ATOM     30  C   UNL A   1      38.991  19.673  25.303  1.00  0.00     0.021 C 
BRANCH  30  31
ATOM     31  C   UNL A   1      39.915  19.447  26.496  1.00  0.00     0.116 C 
BRANCH  31  32
ATOM     32  N   UNL A   1      41.157  18.804  26.095  1.00  0.00    -0.352 N 
ATOM     33  C   UNL A   1      42.372  19.368  25.803  1.00  0.00     0.251 C 
ATOM     34  H   UNL A   1      41.119  17.823  26.025  1.00  0.00     0.163 HD
ATOM     35  O   UNL A   1      43.246  18.706  25.256  1.00  0.00    -0.269 OA
BRANCH  33  36
ATOM     36  C   UNL A   1      42.625  20.784  26.141  1.00  0.00     0.039 A 
ATOM     37  C   UNL A   1      42.744  21.148  27.483  1.00  0.00     0.014 A 
ATOM     38  C   UNL A   1      42.716  21.753  25.137  1.00  0.00     0.014 A 
ATOM     39  C   UNL A   1      43.003  22.479  27.819  1.00  0.00     0.010 A 
ATOM     40  C   UNL A   1      43.038  23.066  25.468  1.00  0.00     0.010 A 
ATOM     41  C   UNL A   1      43.178  23.442  26.813  1.00  0.00    -0.014 A 
BRANCH  41  42
ATOM     42  C   UNL A   1      43.496  24.853  27.147  1.00  0.00     0.031 A 
ATOM     43  C   UNL A   1      44.892  25.375  26.959  1.00  0.00     0.074 A 
ATOM     44  C   UNL A   1      42.541  25.643  27.674  1.00  0.00     0.049 A 
ATOM     45  N   UNL A   1      45.386  26.549  27.262  1.00  0.00    -0.248 NA
ATOM     46  C   UNL A   1      45.872  24.447  26.372  1.00  0.00     0.031 C 
ATOM     47  C   UNL A   1      41.160  25.238  27.941  1.00  0.00     0.029 A 
ATOM     48  N   UNL A   1      42.590  26.950  28.090  1.00  0.00    -0.354 N 
ATOM     49  C   UNL A   1      46.729  26.496  26.914  1.00  0.00     0.074 A 
ATOM     50  C   UNL A   1      46.988  25.159  26.425  1.00  0.00     0.031 C 
ATOM     51  C   UNL A   1      40.488  26.281  28.457  1.00  0.00     0.029 A 
ATOM     52  C   UNL A   1      41.398  27.413  28.593  1.00  0.00     0.049 A 
ATOM     53  H   UNL A   1      43.402  27.504  28.033  1.00  0.00     0.167 HD
ATOM     54  C   UNL A   1      47.657  27.481  26.973  1.00  0.00     0.037 A 
ATOM     55  C   UNL A   1      41.081  28.614  29.112  1.00  0.00     0.037 A 
ATOM     56  C   UNL A   1      47.390  28.818  27.436  1.00  0.00     0.049 A 
ATOM     57  C   UNL A   1      42.136  29.686  29.176  1.00  0.00     0.074 A 
ATOM     58  C   UNL A   1      48.250  29.900  27.494  1.00  0.00     0.029 A 
ATOM     59  N   UNL A   1      46.165  29.254  27.921  1.00  0.00    -0.354 N 
ATOM     60  N   UNL A   1      43.388  29.641  28.792  1.00  0.00    -0.248 NA
ATOM     61  C   UNL A   1      41.729  30.980  29.744  1.00  0.00     0.031 C 
ATOM     62  C   UNL A   1      47.557  30.980  28.048  1.00  0.00     0.029 A 
ATOM     63  C   UNL A   1      46.253  30.585  28.293  1.00  0.00     0.049 A 
ATOM     64  H   UNL A   1      45.354  28.700  27.989  1.00  0.00     0.167 HD
ATOM     65  C   UNL A   1      43.909  30.903  29.040  1.00  0.00     0.074 A 
ATOM     66  C   UNL A   1      42.833  31.698  29.595  1.00  0.00     0.031 C 
ATOM     67  C   UNL A   1      45.166  31.364  28.830  1.00  0.00     0.037 A 
BRANCH  54  68
ATOM     68  C   UNL A   1      49.048  27.157  26.514  1.00  0.00     0.064 A 
ATOM     69  C   UNL A   1      50.030  26.716  27.414  1.00  0.00     0.173 A 
ATOM     70  C   UNL A   1      49.389  27.235  25.156  1.00  0.00     0.173 A 
ATOM     71  F   UNL A   1      49.758  26.635  28.726  1.00  0.00    -0.203 F 
ATOM     72  C   UNL A   1      51.310  26.388  26.974  1.00  0.00     0.198 A 
ATOM     73  C   UNL A   1      50.662  26.879  24.716  1.00  0.00     0.198 A 
ATOM     74  F   UNL A   1      48.486  27.646  24.254  1.00  0.00    -0.203 F 
ATOM     75  F   UNL A   1      52.244  26.009  27.858  1.00  0.00    -0.200 F 
ATOM     76  C   UNL A   1      51.623  26.461  25.625  1.00  0.00     0.200 A 
ATOM     77  F   UNL A   1      50.958  26.937  23.410  1.00  0.00    -0.200 F 
ATOM     78  F   UNL A   1      52.851  26.133  25.201  1.00  0.00    -0.200 F 
ENDBRANCH  54  68
BRANCH  55  79
ATOM     79  C   UNL A   1      39.702  28.879  29.596  1.00  0.00     0.064 A 
ATOM     80  C   UNL A   1      39.331  28.578  30.914  1.00  0.00     0.173 A 
ATOM     81  C   UNL A   1      38.720  29.416  28.749  1.00  0.00     0.173 A 
ATOM     82  F   UNL A   1      40.229  28.044  31.756  1.00  0.00    -0.203 F 
ATOM     83  C   UNL A   1      38.025  28.776  31.359  1.00  0.00     0.198 A 
ATOM     84  C   UNL A   1      37.422  29.640  29.203  1.00  0.00     0.198 A 
ATOM     85  F   UNL A   1      39.024  29.726  27.480  1.00  0.00    -0.203 F 
ATOM     86  F   UNL A   1      37.685  28.427  32.607  1.00  0.00    -0.200 F 
ATOM     87  C   UNL A   1      37.073  29.310  30.504  1.00  0.00     0.200 A 
ATOM     88  F   UNL A   1      36.508  30.168  28.378  1.00  0.00    -0.200 F 
ATOM     89  F   UNL A   1      35.817  29.497  30.931  1.00  0.00    -0.200 F 
ENDBRANCH  55  79
BRANCH  67  90
ATOM     90  C   UNL A   1      45.435  32.802  29.162  1.00  0.00     0.064 A 
ATOM     91  C   UNL A   1      45.955  33.185  30.406  1.00  0.00     0.173 A 
ATOM     92  C   UNL A   1      45.206  33.805  28.207  1.00  0.00     0.173 A 
ATOM     93  F   UNL A   1      46.176  32.265  31.358  1.00  0.00    -0.203 F 
ATOM     94  C   UNL A   1      46.210  34.523  30.694  1.00  0.00     0.198 A 
ATOM     95  C   UNL A   1      45.490  35.138  28.487  1.00  0.00     0.198 A 
ATOM     96  F   UNL A   1      44.716  33.489  26.999  1.00  0.00    -0.203 F 
ATOM     97  F   UNL A   1      46.661  34.871  31.907  1.00  0.00    -0.200 F 
ATOM     98  C   UNL A   1      45.984  35.497  29.732  1.00  0.00     0.200 A 
ATOM     99  F   UNL A   1      45.285  36.077  27.552  1.00  0.00    -0.200 F 
ATOM    100  F   UNL A   1      46.238  36.783  30.008  1.00  0.00    -0.200 F 
ENDBRANCH  67  90
ENDBRANCH  41  42
ENDBRANCH  33  36
ENDBRANCH  31  32
ENDBRANCH  30  31
ENDBRANCH  29  30
ENDBRANCH  28  29
ENDBRANCH   1  28
TORSDOF 19
ENDMDL
