MODEL 1
REMARK VINA RESULT:     -13.4      0.000      0.000
REMARK SMILES COc1ccc(NC(=O)c2nn(C)cc2C(=O)NCCCCCCNC(=O)c2ccc(-c3c4nc(c(-c5c(F)c(F)c(F)c(F)c5F)c5ccc([nH]5)c(-c5c(F)c(F)c(F)c(F)c5F)c5nc(c(-c6c(F)c(F)c(F)c(F)c6F)c6ccc3[nH]6)C=C5)C=C4)cc2)c(C)c1
REMARK SMILES IDX 21 1 20 2 19 3 18 4 16 5 17 6 15 8 10 9 11 10 12 11 14 12
REMARK SMILES IDX 13 13 8 14 7 15 9 17 6 18 3 19 4 20 93 21 5 22 91 23 92 24
REMARK SMILES IDX 2 25 1 26 22 27 23 28 24 29 25 30 26 31 27 33 28 34 29 35
REMARK SMILES IDX 90 36 30 37 89 38 31 39 32 40 33 41 83 42 34 43 88 44 82 45
REMARK SMILES IDX 84 46 35 47 87 48 81 49 80 50 36 52 68 53 48 54 67 55 49 56
REMARK SMILES IDX 52 57 66 58 85 59 50 60 51 61 65 63 86 64 53 65 37 66 38 67
REMARK SMILES IDX 46 68 39 69 40 70 44 71 47 72 41 73 42 74 45 75 43 76 69 77
REMARK SMILES IDX 70 78 78 79 71 80 72 81 76 82 79 83 73 84 74 85 77 86 75 87
REMARK SMILES IDX 54 88 55 89 63 90 56 91 57 92 61 93 64 94 58 95 59 96 62 97
REMARK SMILES IDX 60 98
REMARK H PARENT 18 7 7 16 25 32 84 51 52 62
REMARK Flexibility Score: inf
ROOT
ATOM      1  C   UNL A   1      36.567  23.678  24.930  1.00  0.00     0.002 C 
ENDROOT
BRANCH   1   2
ATOM      2  C   UNL A   1      35.360  23.674  25.869  1.00  0.00     0.021 C 
BRANCH   2   3
ATOM      3  C   UNL A   1      34.229  24.672  25.620  1.00  0.00     0.116 C 
BRANCH   3   4
ATOM      4  N   UNL A   1      34.075  25.103  24.247  1.00  0.00    -0.352 N 
ATOM      5  C   UNL A   1      33.593  26.284  23.725  1.00  0.00     0.255 C 
ATOM      6  O   UNL A   1      33.637  26.429  22.504  1.00  0.00    -0.269 OA
ATOM      7  H   UNL A   1      34.364  24.444  23.575  1.00  0.00     0.163 HD
BRANCH   5   8
ATOM      8  C   UNL A   1      33.003  27.296  24.588  1.00  0.00     0.090 A 
ATOM      9  C   UNL A   1      31.632  27.360  25.014  1.00  0.00     0.163 A 
ATOM     10  N   UNL A   1      31.434  28.394  25.857  1.00  0.00    -0.167 NA
ATOM     11  N   UNL A   1      32.627  28.989  25.943  1.00  0.00    -0.274 N 
ATOM     12  C   UNL A   1      33.575  28.425  25.147  1.00  0.00     0.123 A 
ATOM     13  C   UNL A   1      32.805  30.077  26.876  1.00  0.00     0.173 C 
BRANCH   9  14
ATOM     14  C   UNL A   1      30.516  26.470  24.669  1.00  0.00     0.277 C 
ATOM     15  N   UNL A   1      29.465  26.905  23.887  1.00  0.00    -0.320 N 
ATOM     16  H   UNL A   1      28.713  26.271  23.849  1.00  0.00     0.170 HD
ATOM     17  O   UNL A   1      30.462  25.312  25.093  1.00  0.00    -0.267 OA
BRANCH  15  18
ATOM     18  C   UNL A   1      29.253  28.074  23.132  1.00  0.00     0.044 A 
ATOM     19  C   UNL A   1      28.839  30.509  21.758  1.00  0.00     0.119 A 
ATOM     20  C   UNL A   1      30.089  29.908  21.750  1.00  0.00     0.048 A 
ATOM     21  C   UNL A   1      27.784  29.863  22.403  1.00  0.00     0.052 A 
ATOM     22  C   UNL A   1      30.285  28.693  22.416  1.00  0.00     0.030 A 
ATOM     23  C   UNL A   1      27.964  28.639  23.078  1.00  0.00    -0.024 A 
ATOM     24  C   UNL A   1      26.728  28.013  23.672  1.00  0.00     0.047 C 
BRANCH  19  25
ATOM     25  O   UNL A   1      28.518  31.705  21.181  1.00  0.00    -0.497 OA
ATOM     26  C   UNL A   1      28.436  32.828  22.049  1.00  0.00     0.278 C 
ENDBRANCH  19  25
ENDBRANCH  15  18
ENDBRANCH   9  14
ENDBRANCH   5   8
ENDBRANCH   3   4
ENDBRANCH   2   3
ENDBRANCH   1   2
BRANCH   1  27
ATOM     27  C   UNL A   1      37.138  22.332  24.465  1.00  0.00     0.002 C 
BRANCH  27  28
ATOM     28  C   UNL A   1      38.271  21.722  25.290  1.00  0.00     0.021 C 
BRANCH  28  29
ATOM     29  C   UNL A   1      38.845  22.617  26.380  1.00  0.00     0.116 C 
BRANCH  29  30
ATOM     30  N   UNL A   1      40.294  22.784  26.326  1.00  0.00    -0.352 N 
ATOM     31  C   UNL A   1      41.039  23.943  26.478  1.00  0.00     0.251 C 
ATOM     32  H   UNL A   1      40.811  21.963  26.159  1.00  0.00     0.163 HD
ATOM     33  O   UNL A   1      42.256  23.923  26.418  1.00  0.00    -0.269 OA
BRANCH  31  34
ATOM     34  C   UNL A   1      40.331  25.196  26.838  1.00  0.00     0.039 A 
ATOM     35  C   UNL A   1      40.739  26.384  26.223  1.00  0.00     0.014 A 
ATOM     36  C   UNL A   1      39.443  25.222  27.910  1.00  0.00     0.014 A 
ATOM     37  C   UNL A   1      40.454  27.599  26.841  1.00  0.00     0.010 A 
ATOM     38  C   UNL A   1      39.239  26.416  28.575  1.00  0.00     0.010 A 
ATOM     39  C   UNL A   1      39.804  27.593  28.077  1.00  0.00    -0.014 A 
BRANCH  39  40
ATOM     40  C   UNL A   1      39.812  28.746  28.973  1.00  0.00     0.031 A 
ATOM     41  C   UNL A   1      38.775  29.793  28.881  1.00  0.00     0.074 A 
ATOM     42  C   UNL A   1      40.769  28.845  29.923  1.00  0.00     0.049 A 
ATOM     43  N   UNL A   1      38.981  31.032  29.185  1.00  0.00    -0.248 NA
ATOM     44  C   UNL A   1      37.420  29.527  28.414  1.00  0.00     0.031 C 
ATOM     45  C   UNL A   1      40.815  29.794  31.033  1.00  0.00     0.029 A 
ATOM     46  N   UNL A   1      42.023  28.213  29.951  1.00  0.00    -0.354 N 
ATOM     47  C   UNL A   1      37.760  31.662  29.206  1.00  0.00     0.074 A 
ATOM     48  C   UNL A   1      36.826  30.701  28.660  1.00  0.00     0.031 C 
ATOM     49  C   UNL A   1      42.085  29.913  31.447  1.00  0.00     0.029 A 
ATOM     50  C   UNL A   1      42.911  29.145  30.533  1.00  0.00     0.049 A 
ATOM     51  H   UNL A   1      42.239  27.308  29.629  1.00  0.00     0.167 HD
ATOM     52  C   UNL A   1      37.630  32.878  29.810  1.00  0.00     0.037 A 
ATOM     53  C   UNL A   1      43.992  29.629  29.859  1.00  0.00     0.037 A 
ATOM     54  C   UNL A   1      38.892  33.346  30.369  1.00  0.00     0.049 A 
ATOM     55  C   UNL A   1      44.016  31.131  29.723  1.00  0.00     0.074 A 
ATOM     56  C   UNL A   1      39.421  33.276  31.648  1.00  0.00     0.029 A 
ATOM     57  N   UNL A   1      39.940  33.699  29.527  1.00  0.00    -0.354 N 
ATOM     58  N   UNL A   1      42.961  31.885  29.855  1.00  0.00    -0.248 NA
ATOM     59  C   UNL A   1      45.211  31.893  29.378  1.00  0.00     0.031 C 
ATOM     60  C   UNL A   1      40.801  33.566  31.572  1.00  0.00     0.029 A 
ATOM     61  C   UNL A   1      41.113  33.820  30.248  1.00  0.00     0.049 A 
ATOM     62  H   UNL A   1      39.859  33.841  28.556  1.00  0.00     0.167 HD
ATOM     63  C   UNL A   1      43.299  33.189  29.591  1.00  0.00     0.074 A 
ATOM     64  C   UNL A   1      44.723  33.144  29.321  1.00  0.00     0.031 C 
ATOM     65  C   UNL A   1      42.365  34.184  29.607  1.00  0.00     0.037 A 
BRANCH  52  66
ATOM     66  C   UNL A   1      36.284  33.463  30.154  1.00  0.00     0.064 A 
ATOM     67  C   UNL A   1      35.458  34.040  29.165  1.00  0.00     0.173 A 
ATOM     68  C   UNL A   1      35.785  33.533  31.466  1.00  0.00     0.173 A 
ATOM     69  F   UNL A   1      35.759  33.961  27.864  1.00  0.00    -0.203 F 
ATOM     70  C   UNL A   1      34.293  34.742  29.483  1.00  0.00     0.198 A 
ATOM     71  C   UNL A   1      34.648  34.280  31.791  1.00  0.00     0.198 A 
ATOM     72  F   UNL A   1      36.385  32.868  32.465  1.00  0.00    -0.203 F 
ATOM     73  F   UNL A   1      33.560  35.291  28.504  1.00  0.00    -0.200 F 
ATOM     74  C   UNL A   1      33.911  34.898  30.800  1.00  0.00     0.200 A 
ATOM     75  F   UNL A   1      34.281  34.411  33.073  1.00  0.00    -0.200 F 
ATOM     76  F   UNL A   1      32.831  35.627  31.109  1.00  0.00    -0.200 F 
ENDBRANCH  52  66
BRANCH  53  77
ATOM     77  C   UNL A   1      44.536  28.683  28.853  1.00  0.00     0.064 A 
ATOM     78  C   UNL A   1      45.286  27.581  29.304  1.00  0.00     0.173 A 
ATOM     79  C   UNL A   1      44.036  28.638  27.546  1.00  0.00     0.173 A 
ATOM     80  F   UNL A   1      45.781  27.574  30.551  1.00  0.00    -0.203 F 
ATOM     81  C   UNL A   1      45.434  26.438  28.524  1.00  0.00     0.198 A 
ATOM     82  C   UNL A   1      44.197  27.494  26.762  1.00  0.00     0.198 A 
ATOM     83  F   UNL A   1      43.296  29.647  27.067  1.00  0.00    -0.203 F 
ATOM     84  F   UNL A   1      46.058  25.363  29.024  1.00  0.00    -0.200 F 
ATOM     85  C   UNL A   1      44.865  26.385  27.262  1.00  0.00     0.200 A 
ATOM     86  F   UNL A   1      43.621  27.431  25.552  1.00  0.00    -0.200 F 
ATOM     87  F   UNL A   1      44.924  25.254  26.546  1.00  0.00    -0.200 F 
ENDBRANCH  53  77
BRANCH  65  88
ATOM     88  C   UNL A   1      42.554  35.607  29.135  1.00  0.00     0.064 A 
ATOM     89  C   UNL A   1      41.924  36.152  28.004  1.00  0.00     0.173 A 
ATOM     90  C   UNL A   1      43.295  36.526  29.919  1.00  0.00     0.173 A 
ATOM     91  F   UNL A   1      41.099  35.420  27.245  1.00  0.00    -0.203 F 
ATOM     92  C   UNL A   1      42.076  37.496  27.649  1.00  0.00     0.198 A 
ATOM     93  C   UNL A   1      43.396  37.879  29.593  1.00  0.00     0.198 A 
ATOM     94  F   UNL A   1      43.922  36.147  31.042  1.00  0.00    -0.203 F 
ATOM     95  F   UNL A   1      41.486  37.957  26.537  1.00  0.00    -0.200 F 
ATOM     96  C   UNL A   1      42.799  38.361  28.448  1.00  0.00     0.200 A 
ATOM     97  F   UNL A   1      44.058  38.711  30.408  1.00  0.00    -0.200 F 
ATOM     98  F   UNL A   1      42.902  39.657  28.128  1.00  0.00    -0.200 F 
ENDBRANCH  65  88
ENDBRANCH  39  40
ENDBRANCH  31  34
ENDBRANCH  29  30
ENDBRANCH  28  29
ENDBRANCH  27  28
ENDBRANCH   1  27
TORSDOF 16
ENDMDL
MODEL 2
REMARK VINA RESULT:     -13.3      4.076     10.604
REMARK SMILES COc1ccc(NC(=O)c2nn(C)cc2C(=O)NCCCCCCNC(=O)c2ccc(-c3c4nc(c(-c5c(F)c(F)c(F)c(F)c5F)c5ccc([nH]5)c(-c5c(F)c(F)c(F)c(F)c5F)c5nc(c(-c6c(F)c(F)c(F)c(F)c6F)c6ccc3[nH]6)C=C5)C=C4)cc2)c(C)c1
REMARK SMILES IDX 21 1 20 2 19 3 18 4 16 5 17 6 15 8 10 9 11 10 12 11 14 12
REMARK SMILES IDX 13 13 8 14 7 15 9 17 6 18 3 19 4 20 93 21 5 22 91 23 92 24
REMARK SMILES IDX 2 25 1 26 22 27 23 28 24 29 25 30 26 31 27 33 28 34 29 35
REMARK SMILES IDX 90 36 30 37 89 38 31 39 32 40 33 41 83 42 34 43 88 44 82 45
REMARK SMILES IDX 84 46 35 47 87 48 81 49 80 50 36 52 68 53 48 54 67 55 49 56
REMARK SMILES IDX 52 57 66 58 85 59 50 60 51 61 65 63 86 64 53 65 37 66 38 67
REMARK SMILES IDX 46 68 39 69 40 70 44 71 47 72 41 73 42 74 45 75 43 76 69 77
REMARK SMILES IDX 70 78 78 79 71 80 72 81 76 82 79 83 73 84 74 85 77 86 75 87
REMARK SMILES IDX 54 88 55 89 63 90 56 91 57 92 61 93 64 94 58 95 59 96 62 97
REMARK SMILES IDX 60 98
REMARK H PARENT 18 7 7 16 25 32 84 51 52 62
REMARK Flexibility Score: inf
ROOT
ATOM      1  C   UNL A   1      32.577  28.375  26.639  1.00  0.00     0.002 C 
ENDROOT
BRANCH   1   2
ATOM      2  C   UNL A   1      31.594  27.209  26.523  1.00  0.00     0.021 C 
BRANCH   2   3
ATOM      3  C   UNL A   1      32.102  25.865  25.999  1.00  0.00     0.116 C 
BRANCH   3   4
ATOM      4  N   UNL A   1      31.586  24.699  26.683  1.00  0.00    -0.352 N 
ATOM      5  C   UNL A   1      32.135  23.448  26.865  1.00  0.00     0.255 C 
ATOM      6  O   UNL A   1      31.512  22.645  27.559  1.00  0.00    -0.269 OA
ATOM      7  H   UNL A   1      30.696  24.820  27.085  1.00  0.00     0.163 HD
BRANCH   5   8
ATOM      8  C   UNL A   1      33.382  23.078  26.213  1.00  0.00     0.090 A 
ATOM      9  C   UNL A   1      33.535  22.632  24.855  1.00  0.00     0.163 A 
ATOM     10  N   UNL A   1      34.834  22.429  24.555  1.00  0.00    -0.167 NA
ATOM     11  N   UNL A   1      35.487  22.703  25.688  1.00  0.00    -0.274 N 
ATOM     12  C   UNL A   1      34.666  23.017  26.727  1.00  0.00     0.123 A 
ATOM     13  C   UNL A   1      36.931  22.706  25.685  1.00  0.00     0.173 C 
BRANCH   9  14
ATOM     14  C   UNL A   1      32.503  22.415  23.834  1.00  0.00     0.277 C 
ATOM     15  N   UNL A   1      32.134  21.143  23.444  1.00  0.00    -0.320 N 
ATOM     16  H   UNL A   1      31.546  21.127  22.655  1.00  0.00     0.170 HD
ATOM     17  O   UNL A   1      31.951  23.362  23.264  1.00  0.00    -0.267 OA
BRANCH  15  18
ATOM     18  C   UNL A   1      32.430  19.863  23.950  1.00  0.00     0.044 A 
ATOM     19  C   UNL A   1      33.184  17.319  24.924  1.00  0.00     0.119 A 
ATOM     20  C   UNL A   1      32.996  18.374  25.804  1.00  0.00     0.048 A 
ATOM     21  C   UNL A   1      32.939  17.521  23.566  1.00  0.00     0.052 A 
ATOM     22  C   UNL A   1      32.604  19.627  25.319  1.00  0.00     0.030 A 
ATOM     23  C   UNL A   1      32.543  18.776  23.061  1.00  0.00    -0.024 A 
ATOM     24  C   UNL A   1      32.241  18.841  21.586  1.00  0.00     0.047 C 
BRANCH  19  25
ATOM     25  O   UNL A   1      33.596  16.059  25.255  1.00  0.00    -0.497 OA
ATOM     26  C   UNL A   1      35.001  15.843  25.309  1.00  0.00     0.278 C 
ENDBRANCH  19  25
ENDBRANCH  15  18
ENDBRANCH   9  14
ENDBRANCH   5   8
ENDBRANCH   3   4
ENDBRANCH   2   3
ENDBRANCH   1   2
BRANCH   1  27
ATOM     27  C   UNL A   1      32.022  29.805  26.628  1.00  0.00     0.002 C 
BRANCH  27  28
ATOM     28  C   UNL A   1      32.878  30.901  27.260  1.00  0.00     0.021 C 
BRANCH  28  29
ATOM     29  C   UNL A   1      34.298  30.493  27.631  1.00  0.00     0.116 C 
BRANCH  29  30
ATOM     30  N   UNL A   1      34.942  31.365  28.609  1.00  0.00    -0.352 N 
ATOM     31  C   UNL A   1      36.109  31.151  29.324  1.00  0.00     0.251 C 
ATOM     32  H   UNL A   1      34.485  32.220  28.784  1.00  0.00     0.163 HD
ATOM     33  O   UNL A   1      36.532  31.986  30.106  1.00  0.00    -0.269 OA
BRANCH  31  34
ATOM     34  C   UNL A   1      36.903  29.933  29.033  1.00  0.00     0.039 A 
ATOM     35  C   UNL A   1      37.211  29.076  30.094  1.00  0.00     0.014 A 
ATOM     36  C   UNL A   1      37.508  29.766  27.790  1.00  0.00     0.014 A 
ATOM     37  C   UNL A   1      38.301  28.217  29.978  1.00  0.00     0.010 A 
ATOM     38  C   UNL A   1      38.644  28.985  27.702  1.00  0.00     0.010 A 
ATOM     39  C   UNL A   1      39.080  28.266  28.819  1.00  0.00    -0.014 A 
BRANCH  39  40
ATOM     40  C   UNL A   1      40.431  27.716  28.758  1.00  0.00     0.031 A 
ATOM     41  C   UNL A   1      40.667  26.305  28.392  1.00  0.00     0.074 A 
ATOM     42  C   UNL A   1      41.489  28.518  29.013  1.00  0.00     0.049 A 
ATOM     43  N   UNL A   1      41.664  25.610  28.832  1.00  0.00    -0.248 NA
ATOM     44  C   UNL A   1      39.777  25.555  27.515  1.00  0.00     0.031 C 
ATOM     45  C   UNL A   1      42.901  28.213  28.793  1.00  0.00     0.029 A 
ATOM     46  N   UNL A   1      41.500  29.728  29.727  1.00  0.00    -0.354 N 
ATOM     47  C   UNL A   1      41.698  24.438  28.116  1.00  0.00     0.074 A 
ATOM     48  C   UNL A   1      40.470  24.421  27.352  1.00  0.00     0.031 C 
ATOM     49  C   UNL A   1      43.642  29.005  29.582  1.00  0.00     0.029 A 
ATOM     50  C   UNL A   1      42.727  29.751  30.427  1.00  0.00     0.049 A 
ATOM     51  H   UNL A   1      40.796  30.416  29.739  1.00  0.00     0.167 HD
ATOM     52  C   UNL A   1      42.821  23.663  28.130  1.00  0.00     0.037 A 
ATOM     53  C   UNL A   1      42.780  29.799  31.788  1.00  0.00     0.037 A 
ATOM     54  C   UNL A   1      43.871  24.240  28.959  1.00  0.00     0.049 A 
ATOM     55  C   UNL A   1      43.535  28.656  32.419  1.00  0.00     0.074 A 
ATOM     56  C   UNL A   1      44.969  25.027  28.651  1.00  0.00     0.029 A 
ATOM     57  N   UNL A   1      43.710  24.310  30.339  1.00  0.00    -0.354 N 
ATOM     58  N   UNL A   1      43.773  27.526  31.815  1.00  0.00    -0.248 NA
ATOM     59  C   UNL A   1      44.033  28.675  33.791  1.00  0.00     0.031 C 
ATOM     60  C   UNL A   1      45.458  25.594  29.849  1.00  0.00     0.029 A 
ATOM     61  C   UNL A   1      44.664  25.146  30.889  1.00  0.00     0.049 A 
ATOM     62  H   UNL A   1      43.017  23.833  30.850  1.00  0.00     0.167 HD
ATOM     63  C   UNL A   1      44.403  26.670  32.683  1.00  0.00     0.074 A 
ATOM     64  C   UNL A   1      44.565  27.445  33.899  1.00  0.00     0.031 C 
ATOM     65  C   UNL A   1      44.721  25.393  32.320  1.00  0.00     0.037 A 
BRANCH  52  66
ATOM     66  C   UNL A   1      43.046  22.559  27.128  1.00  0.00     0.064 A 
ATOM     67  C   UNL A   1      42.333  21.343  27.200  1.00  0.00     0.173 A 
ATOM     68  C   UNL A   1      44.007  22.630  26.104  1.00  0.00     0.173 A 
ATOM     69  F   UNL A   1      41.324  21.170  28.062  1.00  0.00    -0.203 F 
ATOM     70  C   UNL A   1      42.648  20.245  26.397  1.00  0.00     0.198 A 
ATOM     71  C   UNL A   1      44.358  21.515  25.335  1.00  0.00     0.198 A 
ATOM     72  F   UNL A   1      44.621  23.787  25.818  1.00  0.00    -0.203 F 
ATOM     73  F   UNL A   1      41.952  19.106  26.527  1.00  0.00    -0.200 F 
ATOM     74  C   UNL A   1      43.688  20.317  25.494  1.00  0.00     0.200 A 
ATOM     75  F   UNL A   1      45.362  21.604  24.452  1.00  0.00    -0.200 F 
ATOM     76  F   UNL A   1      44.033  19.244  24.772  1.00  0.00    -0.200 F 
ENDBRANCH  52  66
BRANCH  53  77
ATOM     77  C   UNL A   1      41.614  30.481  32.403  1.00  0.00     0.064 A 
ATOM     78  C   UNL A   1      41.533  31.883  32.316  1.00  0.00     0.173 A 
ATOM     79  C   UNL A   1      40.446  29.782  32.730  1.00  0.00     0.173 A 
ATOM     80  F   UNL A   1      42.624  32.598  31.999  1.00  0.00    -0.203 F 
ATOM     81  C   UNL A   1      40.316  32.547  32.437  1.00  0.00     0.198 A 
ATOM     82  C   UNL A   1      39.229  30.453  32.863  1.00  0.00     0.198 A 
ATOM     83  F   UNL A   1      40.455  28.443  32.806  1.00  0.00    -0.203 F 
ATOM     84  F   UNL A   1      40.253  33.871  32.238  1.00  0.00    -0.200 F 
ATOM     85  C   UNL A   1      39.159  31.828  32.684  1.00  0.00     0.200 A 
ATOM     86  F   UNL A   1      38.104  29.753  33.073  1.00  0.00    -0.200 F 
ATOM     87  F   UNL A   1      37.973  32.451  32.708  1.00  0.00    -0.200 F 
ENDBRANCH  53  77
BRANCH  65  88
ATOM     88  C   UNL A   1      45.217  24.294  33.230  1.00  0.00     0.064 A 
ATOM     89  C   UNL A   1      44.455  23.173  33.598  1.00  0.00     0.173 A 
ATOM     90  C   UNL A   1      46.569  24.275  33.656  1.00  0.00     0.173 A 
ATOM     91  F   UNL A   1      43.200  23.008  33.160  1.00  0.00    -0.203 F 
ATOM     92  C   UNL A   1      44.984  22.145  34.385  1.00  0.00     0.198 A 
ATOM     93  C   UNL A   1      47.109  23.220  34.392  1.00  0.00     0.198 A 
ATOM     94  F   UNL A   1      47.417  25.268  33.348  1.00  0.00    -0.203 F 
ATOM     95  F   UNL A   1      44.202  21.116  34.743  1.00  0.00    -0.200 F 
ATOM     96  C   UNL A   1      46.311  22.162  34.771  1.00  0.00     0.200 A 
ATOM     97  F   UNL A   1      48.410  23.230  34.712  1.00  0.00    -0.200 F 
ATOM     98  F   UNL A   1      46.824  21.152  35.485  1.00  0.00    -0.200 F 
ENDBRANCH  65  88
ENDBRANCH  39  40
ENDBRANCH  31  34
ENDBRANCH  29  30
ENDBRANCH  28  29
ENDBRANCH  27  28
ENDBRANCH   1  27
TORSDOF 16
ENDMDL
MODEL 3
REMARK VINA RESULT:     -13.2      4.195     10.257
REMARK SMILES COc1ccc(NC(=O)c2nn(C)cc2C(=O)NCCCCCCNC(=O)c2ccc(-c3c4nc(c(-c5c(F)c(F)c(F)c(F)c5F)c5ccc([nH]5)c(-c5c(F)c(F)c(F)c(F)c5F)c5nc(c(-c6c(F)c(F)c(F)c(F)c6F)c6ccc3[nH]6)C=C5)C=C4)cc2)c(C)c1
REMARK SMILES IDX 21 1 20 2 19 3 18 4 16 5 17 6 15 8 10 9 11 10 12 11 14 12
REMARK SMILES IDX 13 13 8 14 7 15 9 17 6 18 3 19 4 20 93 21 5 22 91 23 92 24
REMARK SMILES IDX 2 25 1 26 22 27 23 28 24 29 25 30 26 31 27 33 28 34 29 35
REMARK SMILES IDX 90 36 30 37 89 38 31 39 32 40 33 41 83 42 34 43 88 44 82 45
REMARK SMILES IDX 84 46 35 47 87 48 81 49 80 50 36 52 68 53 48 54 67 55 49 56
REMARK SMILES IDX 52 57 66 58 85 59 50 60 51 61 65 63 86 64 53 65 37 66 38 67
REMARK SMILES IDX 46 68 39 69 40 70 44 71 47 72 41 73 42 74 45 75 43 76 69 77
REMARK SMILES IDX 70 78 78 79 71 80 72 81 76 82 79 83 73 84 74 85 77 86 75 87
REMARK SMILES IDX 54 88 55 89 63 90 56 91 57 92 61 93 64 94 58 95 59 96 62 97
REMARK SMILES IDX 60 98
REMARK H PARENT 18 7 7 16 25 32 84 51 52 62
REMARK Flexibility Score: inf
ROOT
ATOM      1  C   UNL A   1      33.933  27.726  25.124  1.00  0.00     0.002 C 
ENDROOT
BRANCH   1   2
ATOM      2  C   UNL A   1      33.472  26.283  25.337  1.00  0.00     0.021 C 
BRANCH   2   3
ATOM      3  C   UNL A   1      34.524  25.175  25.397  1.00  0.00     0.116 C 
BRANCH   3   4
ATOM      4  N   UNL A   1      34.723  24.444  24.164  1.00  0.00    -0.352 N 
ATOM      5  C   UNL A   1      35.597  23.424  23.856  1.00  0.00     0.255 C 
ATOM      6  O   UNL A   1      35.513  22.917  22.738  1.00  0.00    -0.269 OA
ATOM      7  H   UNL A   1      34.136  24.720  23.423  1.00  0.00     0.163 HD
BRANCH   5   8
ATOM      8  C   UNL A   1      36.616  23.002  24.804  1.00  0.00     0.090 A 
ATOM      9  C   UNL A   1      36.822  21.669  25.299  1.00  0.00     0.163 A 
ATOM     10  N   UNL A   1      37.892  21.616  26.119  1.00  0.00    -0.167 NA
ATOM     11  N   UNL A   1      38.335  22.874  26.173  1.00  0.00    -0.274 N 
ATOM     12  C   UNL A   1      37.567  23.753  25.474  1.00  0.00     0.123 A 
ATOM     13  C   UNL A   1      39.564  23.157  26.877  1.00  0.00     0.173 C 
BRANCH   9  14
ATOM     14  C   UNL A   1      36.059  20.448  25.007  1.00  0.00     0.277 C 
ATOM     15  N   UNL A   1      34.730  20.331  25.360  1.00  0.00    -0.320 N 
ATOM     16  H   UNL A   1      34.371  19.421  25.247  1.00  0.00     0.170 HD
ATOM     17  O   UNL A   1      36.588  19.473  24.466  1.00  0.00    -0.267 OA
BRANCH  15  18
ATOM     18  C   UNL A   1      33.783  21.252  25.847  1.00  0.00     0.044 A 
ATOM     19  C   UNL A   1      31.784  22.972  26.864  1.00  0.00     0.119 A 
ATOM     20  C   UNL A   1      32.893  22.658  27.636  1.00  0.00     0.048 A 
ATOM     21  C   UNL A   1      31.706  22.473  25.564  1.00  0.00     0.052 A 
ATOM     22  C   UNL A   1      33.889  21.821  27.122  1.00  0.00     0.030 A 
ATOM     23  C   UNL A   1      32.701  21.630  25.030  1.00  0.00    -0.024 A 
ATOM     24  C   UNL A   1      32.530  21.219  23.590  1.00  0.00     0.047 C 
BRANCH  19  25
ATOM     25  O   UNL A   1      30.727  23.745  27.252  1.00  0.00    -0.497 OA
ATOM     26  C   UNL A   1      30.267  24.711  26.314  1.00  0.00     0.278 C 
ENDBRANCH  19  25
ENDBRANCH  15  18
ENDBRANCH   9  14
ENDBRANCH   5   8
ENDBRANCH   3   4
ENDBRANCH   2   3
ENDBRANCH   1   2
BRANCH   1  27
ATOM     27  C   UNL A   1      32.905  28.854  25.278  1.00  0.00     0.002 C 
BRANCH  27  28
ATOM     28  C   UNL A   1      33.077  29.814  26.455  1.00  0.00     0.021 C 
BRANCH  28  29
ATOM     29  C   UNL A   1      34.235  29.500  27.393  1.00  0.00     0.116 C 
BRANCH  29  30
ATOM     30  N   UNL A   1      34.689  30.633  28.193  1.00  0.00    -0.352 N 
ATOM     31  C   UNL A   1      35.907  30.810  28.832  1.00  0.00     0.251 C 
ATOM     32  H   UNL A   1      34.044  31.371  28.292  1.00  0.00     0.163 HD
ATOM     33  O   UNL A   1      36.147  31.827  29.460  1.00  0.00    -0.269 OA
BRANCH  31  34
ATOM     34  C   UNL A   1      36.963  29.788  28.636  1.00  0.00     0.039 A 
ATOM     35  C   UNL A   1      37.278  28.951  29.711  1.00  0.00     0.014 A 
ATOM     36  C   UNL A   1      37.763  29.809  27.497  1.00  0.00     0.014 A 
ATOM     37  C   UNL A   1      38.523  28.328  29.743  1.00  0.00     0.010 A 
ATOM     38  C   UNL A   1      39.033  29.270  27.567  1.00  0.00     0.010 A 
ATOM     39  C   UNL A   1      39.437  28.590  28.719  1.00  0.00    -0.014 A 
BRANCH  39  40
ATOM     40  C   UNL A   1      40.865  28.318  28.854  1.00  0.00     0.031 A 
ATOM     41  C   UNL A   1      41.480  27.132  28.224  1.00  0.00     0.074 A 
ATOM     42  C   UNL A   1      41.645  29.180  29.543  1.00  0.00     0.049 A 
ATOM     43  N   UNL A   1      42.510  26.519  28.709  1.00  0.00    -0.248 NA
ATOM     44  C   UNL A   1      40.964  26.526  27.004  1.00  0.00     0.031 C 
ATOM     45  C   UNL A   1      43.106  29.195  29.601  1.00  0.00     0.029 A 
ATOM     46  N   UNL A   1      41.247  30.118  30.510  1.00  0.00    -0.354 N 
ATOM     47  C   UNL A   1      42.943  25.626  27.760  1.00  0.00     0.074 A 
ATOM     48  C   UNL A   1      41.915  25.621  26.742  1.00  0.00     0.031 C 
ATOM     49  C   UNL A   1      43.487  29.840  30.714  1.00  0.00     0.029 A 
ATOM     50  C   UNL A   1      42.285  30.146  31.469  1.00  0.00     0.049 A 
ATOM     51  H   UNL A   1      40.416  30.644  30.519  1.00  0.00     0.167 HD
ATOM     52  C   UNL A   1      44.190  25.081  27.855  1.00  0.00     0.037 A 
ATOM     53  C   UNL A   1      42.072  29.811  32.772  1.00  0.00     0.037 A 
ATOM     54  C   UNL A   1      44.908  25.565  29.027  1.00  0.00     0.049 A 
ATOM     55  C   UNL A   1      42.937  28.680  33.270  1.00  0.00     0.074 A 
ATOM     56  C   UNL A   1      45.834  26.581  29.193  1.00  0.00     0.029 A 
ATOM     57  N   UNL A   1      44.482  25.208  30.302  1.00  0.00    -0.354 N 
ATOM     58  N   UNL A   1      43.535  27.828  32.485  1.00  0.00    -0.248 NA
ATOM     59  C   UNL A   1      43.154  28.388  34.683  1.00  0.00     0.031 C 
ATOM     60  C   UNL A   1      45.951  26.855  30.573  1.00  0.00     0.029 A 
ATOM     61  C   UNL A   1      45.101  25.999  31.251  1.00  0.00     0.049 A 
ATOM     62  H   UNL A   1      43.833  24.495  30.499  1.00  0.00     0.167 HD
ATOM     63  C   UNL A   1      44.171  26.878  33.245  1.00  0.00     0.074 A 
ATOM     64  C   UNL A   1      43.922  27.287  34.614  1.00  0.00     0.031 C 
ATOM     65  C   UNL A   1      44.833  25.832  32.670  1.00  0.00     0.037 A 
BRANCH  52  66
ATOM     66  C   UNL A   1      44.843  24.365  26.699  1.00  0.00     0.064 A 
ATOM     67  C   UNL A   1      44.573  23.006  26.428  1.00  0.00     0.173 A 
ATOM     68  C   UNL A   1      45.797  24.966  25.859  1.00  0.00     0.173 A 
ATOM     69  F   UNL A   1      43.620  22.335  27.084  1.00  0.00    -0.203 F 
ATOM     70  C   UNL A   1      45.294  22.278  25.479  1.00  0.00     0.198 A 
ATOM     71  C   UNL A   1      46.555  24.225  24.946  1.00  0.00     0.198 A 
ATOM     72  F   UNL A   1      46.009  26.289  25.897  1.00  0.00    -0.203 F 
ATOM     73  F   UNL A   1      45.010  20.983  25.282  1.00  0.00    -0.200 F 
ATOM     74  C   UNL A   1      46.313  22.877  24.768  1.00  0.00     0.200 A 
ATOM     75  F   UNL A   1      47.533  24.823  24.252  1.00  0.00    -0.200 F 
ATOM     76  F   UNL A   1      47.048  22.161  23.907  1.00  0.00    -0.200 F 
ENDBRANCH  52  66
BRANCH  53  77
ATOM     77  C   UNL A   1      40.688  30.079  33.235  1.00  0.00     0.064 A 
ATOM     78  C   UNL A   1      40.291  31.417  33.425  1.00  0.00     0.173 A 
ATOM     79  C   UNL A   1      39.682  29.111  33.136  1.00  0.00     0.173 A 
ATOM     80  F   UNL A   1      41.218  32.382  33.519  1.00  0.00    -0.203 F 
ATOM     81  C   UNL A   1      38.949  31.783  33.403  1.00  0.00     0.198 A 
ATOM     82  C   UNL A   1      38.336  29.482  33.127  1.00  0.00     0.198 A 
ATOM     83  F   UNL A   1      39.996  27.824  32.933  1.00  0.00    -0.203 F 
ATOM     84  F   UNL A   1      38.608  33.078  33.474  1.00  0.00    -0.200 F 
ATOM     85  C   UNL A   1      37.972  30.818  33.227  1.00  0.00     0.200 A 
ATOM     86  F   UNL A   1      37.392  28.551  32.927  1.00  0.00    -0.200 F 
ATOM     87  F   UNL A   1      36.686  31.177  33.110  1.00  0.00    -0.200 F 
ENDBRANCH  53  77
BRANCH  65  88
ATOM     88  C   UNL A   1      45.389  24.618  33.377  1.00  0.00     0.064 A 
ATOM     89  C   UNL A   1      46.657  24.570  33.980  1.00  0.00     0.173 A 
ATOM     90  C   UNL A   1      44.572  23.480  33.590  1.00  0.00     0.173 A 
ATOM     91  F   UNL A   1      47.481  25.625  33.956  1.00  0.00    -0.203 F 
ATOM     92  C   UNL A   1      47.097  23.446  34.686  1.00  0.00     0.198 A 
ATOM     93  C   UNL A   1      44.993  22.384  34.344  1.00  0.00     0.198 A 
ATOM     94  F   UNL A   1      43.327  23.406  33.097  1.00  0.00    -0.203 F 
ATOM     95  F   UNL A   1      48.332  23.435  35.208  1.00  0.00    -0.200 F 
ATOM     96  C   UNL A   1      46.264  22.361  34.878  1.00  0.00     0.200 A 
ATOM     97  F   UNL A   1      44.152  21.365  34.563  1.00  0.00    -0.200 F 
ATOM     98  F   UNL A   1      46.675  21.306  35.595  1.00  0.00    -0.200 F 
ENDBRANCH  65  88
ENDBRANCH  39  40
ENDBRANCH  31  34
ENDBRANCH  29  30
ENDBRANCH  28  29
ENDBRANCH  27  28
ENDBRANCH   1  27
TORSDOF 16
ENDMDL
