MODEL 1
REMARK VINA RESULT:     -12.8      0.000      0.000
REMARK SMILES COc1ccc([C@H](C(=O)NCCCCCCNC(=O)c2ccc(-c3c4nc(c(-c5c(F)c(F)c(F)c(F)c5F)c5ccc([nH]5)c(-c5c(F)c(F)c(F)c(F)c5F)c5nc(c(-c6c(F)c(F)c(F)c(F)c6F)c6ccc3[nH]6)C=C5)C=C4)cc2)[NH+]2CCOCC2)c(OC)n1
REMARK SMILES IDX 13 1 12 2 11 3 10 4 8 5 9 6 7 8 6 9 3 10 4 11 92 12 5 13
REMARK SMILES IDX 89 14 2 15 1 16 90 17 91 18 83 19 84 20 88 21 85 23 87 24
REMARK SMILES IDX 86 25 14 26 15 27 16 28 17 29 18 30 19 32 20 33 21 34 82 35
REMARK SMILES IDX 22 36 81 37 23 38 24 39 25 40 75 41 26 42 80 43 74 44 76 45
REMARK SMILES IDX 27 46 79 47 73 48 72 49 28 51 60 52 40 53 59 54 41 55 44 56
REMARK SMILES IDX 58 57 77 58 42 59 43 60 57 62 78 63 45 64 29 65 30 66 38 67
REMARK SMILES IDX 31 68 32 69 36 70 39 71 33 72 34 73 37 74 35 75 61 76 62 77
REMARK SMILES IDX 70 78 63 79 64 80 68 81 71 82 65 83 66 84 69 85 67 86 46 87
REMARK SMILES IDX 47 88 55 89 48 90 49 91 53 92 56 93 50 94 51 95 54 96 52 97
REMARK H PARENT 10 7 83 22 17 31 76 50 44 61
REMARK Flexibility Score: inf
ROOT
ATOM      1  C   UNL A   1      33.220  30.378  26.841  1.00  0.00     0.002 C 
ENDROOT
BRANCH   1   2
ATOM      2  C   UNL A   1      33.333  28.844  26.960  1.00  0.00     0.021 C 
BRANCH   2   3
ATOM      3  C   UNL A   1      32.016  28.097  27.591  1.00  0.00     0.116 C 
BRANCH   3   4
ATOM      4  N   UNL A   1      30.861  26.606  26.930  1.00  0.00    -0.351 N 
ATOM      5  C   UNL A   1      30.878  25.477  26.026  1.00  0.00     0.283 C 
ATOM      6  O   UNL A   1      29.994  24.633  26.037  1.00  0.00    -0.268 OA
ATOM      7  H   UNL A   1      29.983  26.657  27.370  1.00  0.00     0.163 HD
BRANCH   5   8
ATOM      8  C   UNL A   1      32.169  25.467  25.255  1.00  0.00     0.311 C 
BRANCH   8   9
ATOM      9  C   UNL A   1      33.217  24.362  25.152  1.00  0.00     0.081 A 
ATOM     10  C   UNL A   1      35.550  23.000  24.546  1.00  0.00     0.216 A 
ATOM     11  C   UNL A   1      35.680  24.202  25.189  1.00  0.00     0.069 A 
ATOM     12  N   UNL A   1      34.362  22.439  24.273  1.00  0.00    -0.177 NA
ATOM     13  C   UNL A   1      34.507  24.855  25.527  1.00  0.00     0.022 A 
ATOM     14  C   UNL A   1      33.204  23.095  24.561  1.00  0.00     0.226 A 
BRANCH  10  15
ATOM     15  O   UNL A   1      36.628  22.350  24.010  1.00  0.00    -0.481 OA
ATOM     16  C   UNL A   1      37.463  21.800  25.020  1.00  0.00     0.280 C 
ENDBRANCH  10  15
BRANCH  14  17
ATOM     17  O   UNL A   1      32.211  22.369  24.010  1.00  0.00    -0.481 OA
ATOM     18  C   UNL A   1      32.236  21.835  22.712  1.00  0.00     0.280 C 
ENDBRANCH  14  17
ENDBRANCH   8   9
BRANCH   8  19
ATOM     19  N   UNL A   1      31.492  25.560  23.925  1.00  0.00    -0.317 N 
ATOM     20  C   UNL A   1      33.020  25.677  22.855  1.00  0.00     0.292 C 
ATOM     21  C   UNL A   1      30.578  27.179  24.284  1.00  0.00     0.292 C 
ATOM     22  H   UNL A   1      30.859  24.873  23.516  1.00  0.00     0.349 HD
ATOM     23  C   UNL A   1      33.621  27.380  22.130  1.00  0.00     0.221 C 
ATOM     24  C   UNL A   1      31.156  28.865  23.544  1.00  0.00     0.221 C 
ATOM     25  O   UNL A   1      32.693  28.900  22.547  1.00  0.00    -0.370 OA
ENDBRANCH   8  19
ENDBRANCH   5   8
ENDBRANCH   3   4
ENDBRANCH   2   3
ENDBRANCH   1   2
BRANCH   1  26
ATOM     26  C   UNL A   1      31.813  30.872  26.495  1.00  0.00     0.002 C 
BRANCH  26  27
ATOM     27  C   UNL A   1      31.590  32.341  26.839  1.00  0.00     0.021 C 
BRANCH  27  28
ATOM     28  C   UNL A   1      32.803  32.965  27.512  1.00  0.00     0.116 C 
BRANCH  28  29
ATOM     29  N   UNL A   1      32.593  34.393  27.715  1.00  0.00    -0.352 N 
ATOM     30  C   UNL A   1      33.035  35.146  28.764  1.00  0.00     0.251 C 
ATOM     31  H   UNL A   1      32.078  34.866  27.022  1.00  0.00     0.163 HD
ATOM     32  O   UNL A   1      32.548  36.239  29.034  1.00  0.00    -0.269 OA
BRANCH  30  33
ATOM     33  C   UNL A   1      34.139  34.590  29.549  1.00  0.00     0.039 A 
ATOM     34  C   UNL A   1      33.880  33.989  30.777  1.00  0.00     0.014 A 
ATOM     35  C   UNL A   1      35.419  34.586  28.980  1.00  0.00     0.014 A 
ATOM     36  C   UNL A   1      34.924  33.357  31.440  1.00  0.00     0.010 A 
ATOM     37  C   UNL A   1      36.432  33.880  29.600  1.00  0.00     0.010 A 
ATOM     38  C   UNL A   1      36.198  33.285  30.848  1.00  0.00    -0.014 A 
BRANCH  38  39
ATOM     39  C   UNL A   1      37.314  32.614  31.542  1.00  0.00     0.031 A 
ATOM     40  C   UNL A   1      38.008  31.462  30.878  1.00  0.00     0.074 A 
ATOM     41  C   UNL A   1      37.664  33.025  32.774  1.00  0.00     0.049 A 
ATOM     42  N   UNL A   1      39.007  30.738  31.315  1.00  0.00    -0.248 NA
ATOM     43  C   UNL A   1      37.495  31.042  29.563  1.00  0.00     0.031 C 
ATOM     44  C   UNL A   1      37.002  34.092  33.528  1.00  0.00     0.029 A 
ATOM     45  N   UNL A   1      38.660  32.593  33.609  1.00  0.00    -0.354 N 
ATOM     46  C   UNL A   1      39.230  29.781  30.335  1.00  0.00     0.074 A 
ATOM     47  C   UNL A   1      38.224  29.965  29.315  1.00  0.00     0.031 C 
ATOM     48  C   UNL A   1      37.635  34.256  34.700  1.00  0.00     0.029 A 
ATOM     49  C   UNL A   1      38.719  33.283  34.794  1.00  0.00     0.049 A 
ATOM     50  H   UNL A   1      39.273  31.858  33.381  1.00  0.00     0.167 HD
ATOM     51  C   UNL A   1      40.211  28.850  30.282  1.00  0.00     0.037 A 
ATOM     52  C   UNL A   1      39.560  33.141  35.835  1.00  0.00     0.037 A 
ATOM     53  C   UNL A   1      41.218  28.698  31.296  1.00  0.00     0.049 A 
ATOM     54  C   UNL A   1      40.645  32.102  35.744  1.00  0.00     0.074 A 
ATOM     55  C   UNL A   1      42.300  27.838  31.315  1.00  0.00     0.029 A 
ATOM     56  N   UNL A   1      41.259  29.423  32.478  1.00  0.00    -0.354 N 
ATOM     57  N   UNL A   1      40.909  31.262  34.773  1.00  0.00    -0.248 NA
ATOM     58  C   UNL A   1      41.558  32.001  36.890  1.00  0.00     0.031 C 
ATOM     59  C   UNL A   1      42.962  28.000  32.535  1.00  0.00     0.029 A 
ATOM     60  C   UNL A   1      42.332  29.007  33.250  1.00  0.00     0.049 A 
ATOM     61  H   UNL A   1      40.622  30.129  32.732  1.00  0.00     0.167 HD
ATOM     62  C   UNL A   1      42.029  30.549  35.177  1.00  0.00     0.074 A 
ATOM     63  C   UNL A   1      42.408  31.075  36.472  1.00  0.00     0.031 C 
ATOM     64  C   UNL A   1      42.684  29.547  34.539  1.00  0.00     0.037 A 
BRANCH  51  65
ATOM     65  C   UNL A   1      40.237  27.931  29.095  1.00  0.00     0.064 A 
ATOM     66  C   UNL A   1      39.520  26.725  29.075  1.00  0.00     0.173 A 
ATOM     67  C   UNL A   1      40.965  28.278  27.947  1.00  0.00     0.173 A 
ATOM     68  F   UNL A   1      38.819  26.337  30.153  1.00  0.00    -0.203 F 
ATOM     69  C   UNL A   1      39.551  25.889  27.962  1.00  0.00     0.198 A 
ATOM     70  C   UNL A   1      40.966  27.455  26.823  1.00  0.00     0.198 A 
ATOM     71  F   UNL A   1      41.670  29.418  27.911  1.00  0.00    -0.203 F 
ATOM     72  F   UNL A   1      38.899  24.717  27.987  1.00  0.00    -0.200 F 
ATOM     73  C   UNL A   1      40.266  26.259  26.834  1.00  0.00     0.200 A 
ATOM     74  F   UNL A   1      41.649  27.821  25.729  1.00  0.00    -0.200 F 
ATOM     75  F   UNL A   1      40.286  25.458  25.759  1.00  0.00    -0.200 F 
ENDBRANCH  51  65
BRANCH  52  76
ATOM     76  C   UNL A   1      39.420  34.013  37.030  1.00  0.00     0.064 A 
ATOM     77  C   UNL A   1      39.989  35.294  37.063  1.00  0.00     0.173 A 
ATOM     78  C   UNL A   1      38.718  33.583  38.166  1.00  0.00     0.173 A 
ATOM     79  F   UNL A   1      40.681  35.746  36.007  1.00  0.00    -0.203 F 
ATOM     80  C   UNL A   1      39.886  36.099  38.196  1.00  0.00     0.198 A 
ATOM     81  C   UNL A   1      38.588  34.402  39.286  1.00  0.00     0.198 A 
ATOM     82  F   UNL A   1      38.144  32.371  38.184  1.00  0.00    -0.203 F 
ATOM     83  F   UNL A   1      40.485  37.298  38.220  1.00  0.00    -0.200 F 
ATOM     84  C   UNL A   1      39.181  35.654  39.304  1.00  0.00     0.200 A 
ATOM     85  F   UNL A   1      37.888  33.976  40.346  1.00  0.00    -0.200 F 
ATOM     86  F   UNL A   1      39.079  36.430  40.392  1.00  0.00    -0.200 F 
ENDBRANCH  52  76
BRANCH  64  87
ATOM     87  C   UNL A   1      43.892  28.976  35.225  1.00  0.00     0.064 A 
ATOM     88  C   UNL A   1      45.178  29.488  34.998  1.00  0.00     0.173 A 
ATOM     89  C   UNL A   1      43.754  27.927  36.146  1.00  0.00     0.173 A 
ATOM     90  F   UNL A   1      45.364  30.482  34.116  1.00  0.00    -0.203 F 
ATOM     91  C   UNL A   1      46.286  28.946  35.642  1.00  0.00     0.198 A 
ATOM     92  C   UNL A   1      44.859  27.414  36.817  1.00  0.00     0.198 A 
ATOM     93  F   UNL A   1      42.545  27.408  36.407  1.00  0.00    -0.203 F 
ATOM     94  F   UNL A   1      47.512  29.411  35.365  1.00  0.00    -0.200 F 
ATOM     95  C   UNL A   1      46.126  27.917  36.557  1.00  0.00     0.200 A 
ATOM     96  F   UNL A   1      44.700  26.431  37.714  1.00  0.00    -0.200 F 
ATOM     97  F   UNL A   1      47.192  27.401  37.182  1.00  0.00    -0.200 F 
ENDBRANCH  64  87
ENDBRANCH  38  39
ENDBRANCH  30  33
ENDBRANCH  28  29
ENDBRANCH  27  28
ENDBRANCH  26  27
ENDBRANCH   1  26
TORSDOF 17
ENDMDL
MODEL 2
REMARK VINA RESULT:     -12.8      5.364     10.906
REMARK SMILES COc1ccc([C@H](C(=O)NCCCCCCNC(=O)c2ccc(-c3c4nc(c(-c5c(F)c(F)c(F)c(F)c5F)c5ccc([nH]5)c(-c5c(F)c(F)c(F)c(F)c5F)c5nc(c(-c6c(F)c(F)c(F)c(F)c6F)c6ccc3[nH]6)C=C5)C=C4)cc2)[NH+]2CCOCC2)c(OC)n1
REMARK SMILES IDX 13 1 12 2 11 3 10 4 8 5 9 6 7 8 6 9 3 10 4 11 92 12 5 13
REMARK SMILES IDX 89 14 2 15 1 16 90 17 91 18 83 19 84 20 88 21 85 23 87 24
REMARK SMILES IDX 86 25 14 26 15 27 16 28 17 29 18 30 19 32 20 33 21 34 82 35
REMARK SMILES IDX 22 36 81 37 23 38 24 39 25 40 75 41 26 42 80 43 74 44 76 45
REMARK SMILES IDX 27 46 79 47 73 48 72 49 28 51 60 52 40 53 59 54 41 55 44 56
REMARK SMILES IDX 58 57 77 58 42 59 43 60 57 62 78 63 45 64 29 65 30 66 38 67
REMARK SMILES IDX 31 68 32 69 36 70 39 71 33 72 34 73 37 74 35 75 61 76 62 77
REMARK SMILES IDX 70 78 63 79 64 80 68 81 71 82 65 83 66 84 69 85 67 86 46 87
REMARK SMILES IDX 47 88 55 89 48 90 49 91 53 92 56 93 50 94 51 95 54 96 52 97
REMARK H PARENT 10 7 83 22 17 31 76 50 44 61
REMARK Flexibility Score: inf
ROOT
ATOM      1  C   UNL A   1      36.941  22.069  24.285  1.00  0.00     0.002 C 
ENDROOT
BRANCH   1   2
ATOM      2  C   UNL A   1      35.611  22.851  24.296  1.00  0.00     0.021 C 
BRANCH   2   3
ATOM      3  C   UNL A   1      35.143  23.407  25.766  1.00  0.00     0.116 C 
BRANCH   3   4
ATOM      4  N   UNL A   1      33.367  23.490  26.678  1.00  0.00    -0.351 N 
ATOM      5  C   UNL A   1      32.184  24.315  26.777  1.00  0.00     0.283 C 
ATOM      6  O   UNL A   1      31.166  23.915  27.323  1.00  0.00    -0.268 OA
ATOM      7  H   UNL A   1      33.262  22.700  27.256  1.00  0.00     0.163 HD
BRANCH   5   8
ATOM      8  C   UNL A   1      32.388  25.586  25.999  1.00  0.00     0.311 C 
BRANCH   8   9
ATOM      9  C   UNL A   1      32.438  25.787  24.487  1.00  0.00     0.081 A 
ATOM     10  C   UNL A   1      32.855  25.336  21.787  1.00  0.00     0.216 A 
ATOM     11  C   UNL A   1      32.128  24.399  22.470  1.00  0.00     0.069 A 
ATOM     12  N   UNL A   1      33.298  26.472  22.348  1.00  0.00    -0.177 NA
ATOM     13  C   UNL A   1      31.887  24.654  23.809  1.00  0.00     0.022 A 
ATOM     14  C   UNL A   1      33.105  26.710  23.675  1.00  0.00     0.226 A 
BRANCH  10  15
ATOM     15  O   UNL A   1      33.302  25.113  20.514  1.00  0.00    -0.481 OA
ATOM     16  C   UNL A   1      32.321  25.458  19.546  1.00  0.00     0.280 C 
ENDBRANCH  10  15
BRANCH  14  17
ATOM     17  O   UNL A   1      33.811  27.821  23.966  1.00  0.00    -0.481 OA
ATOM     18  C   UNL A   1      34.071  28.863  23.063  1.00  0.00     0.280 C 
ENDBRANCH  14  17
ENDBRANCH   8   9
BRANCH   8  19
ATOM     19  N   UNL A   1      31.117  26.207  26.487  1.00  0.00    -0.317 N 
ATOM     20  C   UNL A   1      30.225  26.310  24.848  1.00  0.00     0.292 C 
ATOM     21  C   UNL A   1      31.913  27.802  27.125  1.00  0.00     0.292 C 
ATOM     22  H   UNL A   1      30.480  25.819  27.182  1.00  0.00     0.349 HD
ATOM     23  C   UNL A   1      30.104  27.985  23.864  1.00  0.00     0.221 C 
ATOM     24  C   UNL A   1      31.770  29.470  26.166  1.00  0.00     0.221 C 
ATOM     25  O   UNL A   1      30.922  29.474  24.542  1.00  0.00    -0.370 OA
ENDBRANCH   8  19
ENDBRANCH   5   8
ENDBRANCH   3   4
ENDBRANCH   2   3
ENDBRANCH   1   2
BRANCH   1  26
ATOM     26  C   UNL A   1      36.894  20.754  25.068  1.00  0.00     0.002 C 
BRANCH  26  27
ATOM     27  C   UNL A   1      38.146  19.902  24.888  1.00  0.00     0.021 C 
BRANCH  27  28
ATOM     28  C   UNL A   1      39.274  20.334  25.813  1.00  0.00     0.116 C 
BRANCH  28  29
ATOM     29  N   UNL A   1      40.192  19.225  26.047  1.00  0.00    -0.352 N 
ATOM     30  C   UNL A   1      41.554  19.283  26.088  1.00  0.00     0.251 C 
ATOM     31  H   UNL A   1      39.785  18.340  26.191  1.00  0.00     0.163 HD
ATOM     32  O   UNL A   1      42.255  18.286  25.956  1.00  0.00    -0.269 OA
BRANCH  30  33
ATOM     33  C   UNL A   1      42.146  20.604  26.317  1.00  0.00     0.039 A 
ATOM     34  C   UNL A   1      42.452  21.421  25.234  1.00  0.00     0.014 A 
ATOM     35  C   UNL A   1      42.284  21.046  27.639  1.00  0.00     0.014 A 
ATOM     36  C   UNL A   1      42.890  22.716  25.482  1.00  0.00     0.010 A 
ATOM     37  C   UNL A   1      42.635  22.361  27.878  1.00  0.00     0.010 A 
ATOM     38  C   UNL A   1      42.968  23.196  26.802  1.00  0.00    -0.014 A 
BRANCH  38  39
ATOM     39  C   UNL A   1      43.431  24.570  27.077  1.00  0.00     0.031 A 
ATOM     40  C   UNL A   1      42.462  25.578  27.621  1.00  0.00     0.074 A 
ATOM     41  C   UNL A   1      44.704  24.903  26.800  1.00  0.00     0.049 A 
ATOM     42  N   UNL A   1      42.665  26.833  27.931  1.00  0.00    -0.248 NA
ATOM     43  C   UNL A   1      41.072  25.131  27.815  1.00  0.00     0.031 C 
ATOM     44  C   UNL A   1      45.700  24.009  26.205  1.00  0.00     0.029 A 
ATOM     45  N   UNL A   1      45.377  26.082  26.979  1.00  0.00    -0.354 N 
ATOM     46  C   UNL A   1      41.432  27.319  28.344  1.00  0.00     0.074 A 
ATOM     47  C   UNL A   1      40.472  26.252  28.181  1.00  0.00     0.031 C 
ATOM     48  C   UNL A   1      46.868  24.662  26.103  1.00  0.00     0.029 A 
ATOM     49  C   UNL A   1      46.691  26.026  26.589  1.00  0.00     0.049 A 
ATOM     50  H   UNL A   1      44.958  26.890  27.351  1.00  0.00     0.167 HD
ATOM     51  C   UNL A   1      41.139  28.542  28.843  1.00  0.00     0.037 A 
ATOM     52  C   UNL A   1      47.643  26.977  26.625  1.00  0.00     0.037 A 
ATOM     53  C   UNL A   1      42.115  29.583  29.020  1.00  0.00     0.049 A 
ATOM     54  C   UNL A   1      47.290  28.325  27.193  1.00  0.00     0.074 A 
ATOM     55  C   UNL A   1      41.948  30.835  29.582  1.00  0.00     0.029 A 
ATOM     56  N   UNL A   1      43.443  29.491  28.629  1.00  0.00    -0.354 N 
ATOM     57  N   UNL A   1      46.145  28.750  27.670  1.00  0.00    -0.248 NA
ATOM     58  C   UNL A   1      48.366  29.323  27.240  1.00  0.00     0.031 C 
ATOM     59  C   UNL A   1      43.159  31.524  29.474  1.00  0.00     0.029 A 
ATOM     60  C   UNL A   1      44.100  30.678  28.907  1.00  0.00     0.049 A 
ATOM     61  H   UNL A   1      43.857  28.700  28.215  1.00  0.00     0.167 HD
ATOM     62  C   UNL A   1      46.365  30.052  28.094  1.00  0.00     0.074 A 
ATOM     63  C   UNL A   1      47.763  30.338  27.841  1.00  0.00     0.031 C 
ATOM     64  C   UNL A   1      45.493  30.936  28.641  1.00  0.00     0.037 A 
BRANCH  51  65
ATOM     65  C   UNL A   1      39.715  28.815  29.230  1.00  0.00     0.064 A 
ATOM     66  C   UNL A   1      38.778  29.307  28.307  1.00  0.00     0.173 A 
ATOM     67  C   UNL A   1      39.271  28.550  30.534  1.00  0.00     0.173 A 
ATOM     68  F   UNL A   1      39.153  29.593  27.050  1.00  0.00    -0.203 F 
ATOM     69  C   UNL A   1      37.458  29.547  28.682  1.00  0.00     0.198 A 
ATOM     70  C   UNL A   1      37.943  28.760  30.896  1.00  0.00     0.198 A 
ATOM     71  F   UNL A   1      40.123  28.080  31.457  1.00  0.00    -0.203 F 
ATOM     72  F   UNL A   1      36.596  30.066  27.797  1.00  0.00    -0.200 F 
ATOM     73  C   UNL A   1      37.040  29.265  29.973  1.00  0.00     0.200 A 
ATOM     74  F   UNL A   1      37.537  28.474  32.142  1.00  0.00    -0.200 F 
ATOM     75  F   UNL A   1      35.767  29.486  30.330  1.00  0.00    -0.200 F 
ENDBRANCH  51  65
BRANCH  52  76
ATOM     76  C   UNL A   1      49.013  26.680  26.132  1.00  0.00     0.064 A 
ATOM     77  C   UNL A   1      49.971  26.086  26.966  1.00  0.00     0.173 A 
ATOM     78  C   UNL A   1      49.395  26.983  24.817  1.00  0.00     0.173 A 
ATOM     79  F   UNL A   1      49.660  25.788  28.237  1.00  0.00    -0.203 F 
ATOM     80  C   UNL A   1      51.265  25.837  26.515  1.00  0.00     0.198 A 
ATOM     81  C   UNL A   1      50.680  26.703  24.356  1.00  0.00     0.198 A 
ATOM     82  F   UNL A   1      48.515  27.541  23.972  1.00  0.00    -0.203 F 
ATOM     83  F   UNL A   1      52.176  25.319  27.350  1.00  0.00    -0.200 F 
ATOM     84  C   UNL A   1      51.617  26.141  25.208  1.00  0.00     0.200 A 
ATOM     85  F   UNL A   1      51.008  26.980  23.087  1.00  0.00    -0.200 F 
ATOM     86  F   UNL A   1      52.861  25.897  24.772  1.00  0.00    -0.200 F 
ENDBRANCH  52  76
BRANCH  64  87
ATOM     87  C   UNL A   1      46.035  32.283  29.022  1.00  0.00     0.064 A 
ATOM     88  C   UNL A   1      46.606  32.516  30.282  1.00  0.00     0.173 A 
ATOM     89  C   UNL A   1      46.014  33.342  28.103  1.00  0.00     0.173 A 
ATOM     90  F   UNL A   1      46.638  31.539  31.201  1.00  0.00    -0.203 F 
ATOM     91  C   UNL A   1      47.104  33.771  30.619  1.00  0.00     0.198 A 
ATOM     92  C   UNL A   1      46.547  34.585  28.430  1.00  0.00     0.198 A 
ATOM     93  F   UNL A   1      45.488  33.169  26.881  1.00  0.00    -0.203 F 
ATOM     94  F   UNL A   1      47.591  33.988  31.849  1.00  0.00    -0.200 F 
ATOM     95  C   UNL A   1      47.082  34.801  29.691  1.00  0.00     0.200 A 
ATOM     96  F   UNL A   1      46.542  35.574  27.526  1.00  0.00    -0.200 F 
ATOM     97  F   UNL A   1      47.569  36.007  30.015  1.00  0.00    -0.200 F 
ENDBRANCH  64  87
ENDBRANCH  38  39
ENDBRANCH  30  33
ENDBRANCH  28  29
ENDBRANCH  27  28
ENDBRANCH  26  27
ENDBRANCH   1  26
TORSDOF 17
ENDMDL
MODEL 3
REMARK VINA RESULT:     -12.8      0.700      7.244
REMARK SMILES COc1ccc([C@H](C(=O)NCCCCCCNC(=O)c2ccc(-c3c4nc(c(-c5c(F)c(F)c(F)c(F)c5F)c5ccc([nH]5)c(-c5c(F)c(F)c(F)c(F)c5F)c5nc(c(-c6c(F)c(F)c(F)c(F)c6F)c6ccc3[nH]6)C=C5)C=C4)cc2)[NH+]2CCOCC2)c(OC)n1
REMARK SMILES IDX 13 1 12 2 11 3 10 4 8 5 9 6 7 8 6 9 3 10 4 11 92 12 5 13
REMARK SMILES IDX 89 14 2 15 1 16 90 17 91 18 83 19 84 20 88 21 85 23 87 24
REMARK SMILES IDX 86 25 14 26 15 27 16 28 17 29 18 30 19 32 20 33 21 34 82 35
REMARK SMILES IDX 22 36 81 37 23 38 24 39 25 40 75 41 26 42 80 43 74 44 76 45
REMARK SMILES IDX 27 46 79 47 73 48 72 49 28 51 60 52 40 53 59 54 41 55 44 56
REMARK SMILES IDX 58 57 77 58 42 59 43 60 57 62 78 63 45 64 29 65 30 66 38 67
REMARK SMILES IDX 31 68 32 69 36 70 39 71 33 72 34 73 37 74 35 75 61 76 62 77
REMARK SMILES IDX 70 78 63 79 64 80 68 81 71 82 65 83 66 84 69 85 67 86 46 87
REMARK SMILES IDX 47 88 55 89 48 90 49 91 53 92 56 93 50 94 51 95 54 96 52 97
REMARK H PARENT 10 7 83 22 17 31 76 50 44 61
REMARK Flexibility Score: inf
ROOT
ATOM      1  C   UNL A   1      33.174  30.327  26.813  1.00  0.00     0.002 C 
ENDROOT
BRANCH   1   2
ATOM      2  C   UNL A   1      33.300  28.803  27.020  1.00  0.00     0.021 C 
BRANCH   2   3
ATOM      3  C   UNL A   1      31.956  28.068  27.603  1.00  0.00     0.116 C 
BRANCH   3   4
ATOM      4  N   UNL A   1      30.814  26.584  26.903  1.00  0.00    -0.351 N 
ATOM      5  C   UNL A   1      30.850  25.464  25.990  1.00  0.00     0.283 C 
ATOM      6  O   UNL A   1      29.965  24.621  25.973  1.00  0.00    -0.268 OA
ATOM      7  H   UNL A   1      29.926  26.632  27.325  1.00  0.00     0.163 HD
BRANCH   5   8
ATOM      8  C   UNL A   1      32.158  25.460  25.247  1.00  0.00     0.311 C 
BRANCH   8   9
ATOM      9  C   UNL A   1      33.218  24.365  25.178  1.00  0.00     0.081 A 
ATOM     10  C   UNL A   1      35.578  23.022  24.636  1.00  0.00     0.216 A 
ATOM     11  C   UNL A   1      35.681  24.231  25.270  1.00  0.00     0.069 A 
ATOM     12  N   UNL A   1      34.402  22.447  24.341  1.00  0.00    -0.177 NA
ATOM     13  C   UNL A   1      34.495  24.875  25.576  1.00  0.00     0.022 A 
ATOM     14  C   UNL A   1      33.232  23.093  24.598  1.00  0.00     0.226 A 
BRANCH  10  15
ATOM     15  O   UNL A   1      36.675  22.378  24.130  1.00  0.00    -0.481 OA
ATOM     16  C   UNL A   1      36.915  21.149  24.801  1.00  0.00     0.280 C 
ENDBRANCH  10  15
BRANCH  14  17
ATOM     17  O   UNL A   1      32.258  22.351  24.031  1.00  0.00    -0.481 OA
ATOM     18  C   UNL A   1      32.247  21.937  22.690  1.00  0.00     0.280 C 
ENDBRANCH  14  17
ENDBRANCH   8   9
BRANCH   8  19
ATOM     19  N   UNL A   1      31.508  25.533  23.901  1.00  0.00    -0.317 N 
ATOM     20  C   UNL A   1      33.056  25.709  22.868  1.00  0.00     0.292 C 
ATOM     21  C   UNL A   1      30.529  27.117  24.243  1.00  0.00     0.292 C 
ATOM     22  H   UNL A   1      30.910  24.825  23.476  1.00  0.00     0.349 HD
ATOM     23  C   UNL A   1      33.613  27.434  22.162  1.00  0.00     0.221 C 
ATOM     24  C   UNL A   1      31.063  28.825  23.520  1.00  0.00     0.221 C 
ATOM     25  O   UNL A   1      32.621  28.918  22.561  1.00  0.00    -0.370 OA
ENDBRANCH   8  19
ENDBRANCH   5   8
ENDBRANCH   3   4
ENDBRANCH   2   3
ENDBRANCH   1   2
BRANCH   1  26
ATOM     26  C   UNL A   1      31.739  30.805  26.580  1.00  0.00     0.002 C 
BRANCH  26  27
ATOM     27  C   UNL A   1      31.545  32.291  26.867  1.00  0.00     0.021 C 
BRANCH  27  28
ATOM     28  C   UNL A   1      32.843  32.971  27.276  1.00  0.00     0.116 C 
BRANCH  28  29
ATOM     29  N   UNL A   1      32.594  34.358  27.649  1.00  0.00    -0.352 N 
ATOM     30  C   UNL A   1      33.040  35.000  28.768  1.00  0.00     0.251 C 
ATOM     31  H   UNL A   1      32.045  34.890  27.027  1.00  0.00     0.163 HD
ATOM     32  O   UNL A   1      32.527  36.037  29.174  1.00  0.00    -0.269 OA
BRANCH  30  33
ATOM     33  C   UNL A   1      34.183  34.395  29.456  1.00  0.00     0.039 A 
ATOM     34  C   UNL A   1      33.967  33.504  30.502  1.00  0.00     0.014 A 
ATOM     35  C   UNL A   1      35.467  34.655  28.960  1.00  0.00     0.014 A 
ATOM     36  C   UNL A   1      35.061  32.847  31.051  1.00  0.00     0.010 A 
ATOM     37  C   UNL A   1      36.539  33.934  29.450  1.00  0.00     0.010 A 
ATOM     38  C   UNL A   1      36.347  33.046  30.517  1.00  0.00    -0.014 A 
BRANCH  38  39
ATOM     39  C   UNL A   1      37.516  32.353  31.092  1.00  0.00     0.031 A 
ATOM     40  C   UNL A   1      38.004  32.740  32.457  1.00  0.00     0.074 A 
ATOM     41  C   UNL A   1      38.146  31.412  30.365  1.00  0.00     0.049 A 
ATOM     42  N   UNL A   1      39.009  32.257  33.141  1.00  0.00    -0.248 NA
ATOM     43  C   UNL A   1      37.291  33.837  33.134  1.00  0.00     0.031 C 
ATOM     44  C   UNL A   1      37.786  31.017  29.001  1.00  0.00     0.029 A 
ATOM     45  N   UNL A   1      39.220  30.620  30.670  1.00  0.00    -0.354 N 
ATOM     46  C   UNL A   1      39.050  32.994  34.316  1.00  0.00     0.074 A 
ATOM     47  C   UNL A   1      38.019  34.003  34.227  1.00  0.00     0.031 C 
ATOM     48  C   UNL A   1      38.603  30.031  28.602  1.00  0.00     0.029 A 
ATOM     49  C   UNL A   1      39.564  29.752  29.665  1.00  0.00     0.049 A 
ATOM     50  H   UNL A   1      39.700  30.670  31.528  1.00  0.00     0.167 HD
ATOM     51  C   UNL A   1      39.860  32.822  35.385  1.00  0.00     0.037 A 
ATOM     52  C   UNL A   1      40.547  28.834  29.615  1.00  0.00     0.037 A 
ATOM     53  C   UNL A   1      40.865  31.797  35.464  1.00  0.00     0.049 A 
ATOM     54  C   UNL A   1      41.427  28.659  30.823  1.00  0.00     0.074 A 
ATOM     55  C   UNL A   1      41.694  31.482  36.524  1.00  0.00     0.029 A 
ATOM     56  N   UNL A   1      41.178  30.922  34.433  1.00  0.00    -0.354 N 
ATOM     57  N   UNL A   1      41.400  29.297  31.968  1.00  0.00    -0.248 NA
ATOM     58  C   UNL A   1      42.468  27.627  30.736  1.00  0.00     0.031 C 
ATOM     59  C   UNL A   1      42.553  30.458  36.114  1.00  0.00     0.029 A 
ATOM     60  C   UNL A   1      42.214  30.088  34.821  1.00  0.00     0.049 A 
ATOM     61  H   UNL A   1      40.732  30.898  33.556  1.00  0.00     0.167 HD
ATOM     62  C   UNL A   1      42.399  28.730  32.746  1.00  0.00     0.074 A 
ATOM     63  C   UNL A   1      42.998  27.679  31.949  1.00  0.00     0.031 C 
ATOM     64  C   UNL A   1      42.792  29.051  34.004  1.00  0.00     0.037 A 
BRANCH  51  65
ATOM     65  C   UNL A   1      39.691  33.758  36.547  1.00  0.00     0.064 A 
ATOM     66  C   UNL A   1      40.314  35.015  36.581  1.00  0.00     0.173 A 
ATOM     67  C   UNL A   1      38.868  33.406  37.627  1.00  0.00     0.173 A 
ATOM     68  F   UNL A   1      41.125  35.396  35.581  1.00  0.00    -0.203 F 
ATOM     69  C   UNL A   1      40.141  35.873  37.664  1.00  0.00     0.198 A 
ATOM     70  C   UNL A   1      38.670  34.281  38.692  1.00  0.00     0.198 A 
ATOM     71  F   UNL A   1      38.249  32.216  37.647  1.00  0.00    -0.203 F 
ATOM     72  F   UNL A   1      40.788  37.047  37.698  1.00  0.00    -0.200 F 
ATOM     73  C   UNL A   1      39.312  35.509  38.714  1.00  0.00     0.200 A 
ATOM     74  F   UNL A   1      37.858  33.932  39.700  1.00  0.00    -0.200 F 
ATOM     75  F   UNL A   1      39.136  36.341  39.751  1.00  0.00    -0.200 F 
ENDBRANCH  51  65
BRANCH  52  76
ATOM     76  C   UNL A   1      40.731  28.005  28.396  1.00  0.00     0.064 A 
ATOM     77  C   UNL A   1      41.520  28.453  27.327  1.00  0.00     0.173 A 
ATOM     78  C   UNL A   1      40.120  26.748  28.271  1.00  0.00     0.173 A 
ATOM     79  F   UNL A   1      42.116  29.653  27.390  1.00  0.00    -0.203 F 
ATOM     80  C   UNL A   1      41.666  27.690  26.170  1.00  0.00     0.198 A 
ATOM     81  C   UNL A   1      40.294  25.972  27.128  1.00  0.00     0.198 A 
ATOM     82  F   UNL A   1      39.364  26.267  29.269  1.00  0.00    -0.203 F 
ATOM     83  F   UNL A   1      42.383  28.166  25.142  1.00  0.00    -0.200 F 
ATOM     84  C   UNL A   1      41.057  26.447  26.074  1.00  0.00     0.200 A 
ATOM     85  F   UNL A   1      39.720  24.763  27.048  1.00  0.00    -0.200 F 
ATOM     86  F   UNL A   1      41.202  25.712  24.963  1.00  0.00    -0.200 F 
ENDBRANCH  52  76
BRANCH  64  87
ATOM     87  C   UNL A   1      43.904  28.237  34.601  1.00  0.00     0.064 A 
ATOM     88  C   UNL A   1      45.243  28.648  34.519  1.00  0.00     0.173 A 
ATOM     89  C   UNL A   1      43.622  27.049  35.292  1.00  0.00     0.173 A 
ATOM     90  F   UNL A   1      45.566  29.769  33.857  1.00  0.00    -0.203 F 
ATOM     91  C   UNL A   1      46.260  27.881  35.078  1.00  0.00     0.198 A 
ATOM     92  C   UNL A   1      44.638  26.305  35.882  1.00  0.00     0.198 A 
ATOM     93  F   UNL A   1      42.357  26.617  35.407  1.00  0.00    -0.203 F 
ATOM     94  F   UNL A   1      47.538  28.262  34.937  1.00  0.00    -0.200 F 
ATOM     95  C   UNL A   1      45.957  26.716  35.766  1.00  0.00     0.200 A 
ATOM     96  F   UNL A   1      44.341  25.189  36.562  1.00  0.00    -0.200 F 
ATOM     97  F   UNL A   1      46.937  25.982  36.310  1.00  0.00    -0.200 F 
ENDBRANCH  64  87
ENDBRANCH  38  39
ENDBRANCH  30  33
ENDBRANCH  28  29
ENDBRANCH  27  28
ENDBRANCH  26  27
ENDBRANCH   1  26
TORSDOF 17
ENDMDL
