MODEL 1
REMARK VINA RESULT:     -13.2      0.000      0.000
REMARK SMILES Cc1ccccc1CNc1ccc(C(=O)NCCCCCCNC(=O)c2ccc(-c3c4nc(c(-c5c(F)c(F)c(F)c(F)c5F)c5ccc([nH]5)c(-c5c(F)c(F)c(F)c(F)c5F)c5nc(c(-c6c(F)c(F)c(F)c(F)c6F)c6ccc3[nH]6)C=C5)C=C4)cc2)c(F)c1F
REMARK SMILES IDX 19 1 18 2 17 3 16 4 14 5 15 6 13 8 10 9 11 10 91 11 12 12
REMARK SMILES IDX 89 13 92 14 90 15 9 16 8 18 7 19 1 20 2 21 3 22 4 23 6 24
REMARK SMILES IDX 5 25 20 26 21 27 22 28 23 29 24 30 25 32 26 33 27 34 88 35
REMARK SMILES IDX 28 36 87 37 29 38 30 39 31 40 81 41 32 42 86 43 80 44 82 45
REMARK SMILES IDX 33 46 85 47 79 48 78 49 34 51 66 52 46 53 65 54 47 55 50 56
REMARK SMILES IDX 64 57 83 58 48 59 49 60 63 62 84 63 51 64 35 65 36 66 44 67
REMARK SMILES IDX 37 68 38 69 42 70 45 71 39 72 40 73 43 74 41 75 67 76 68 77
REMARK SMILES IDX 76 78 69 79 70 80 74 81 77 82 71 83 72 84 75 85 73 86 52 87
REMARK SMILES IDX 53 88 61 89 54 90 55 91 59 92 62 93 56 94 57 95 60 96 58 97
REMARK H PARENT 16 7 9 17 23 31 82 50 50 61
REMARK Flexibility Score: inf
ROOT
ATOM      1  C   UNL A   1      31.104  28.471  25.576  1.00  0.00     0.002 C 
ENDROOT
BRANCH   1   2
ATOM      2  C   UNL A   1      31.034  29.469  24.416  1.00  0.00     0.021 C 
BRANCH   2   3
ATOM      3  C   UNL A   1      31.103  28.915  22.997  1.00  0.00     0.116 C 
BRANCH   3   4
ATOM      4  N   UNL A   1      32.405  28.995  22.368  1.00  0.00    -0.352 N 
ATOM      5  C   UNL A   1      33.449  28.096  22.370  1.00  0.00     0.254 C 
ATOM      6  O   UNL A   1      34.444  28.354  21.698  1.00  0.00    -0.269 OA
ATOM      7  H   UNL A   1      32.570  29.822  21.859  1.00  0.00     0.163 HD
BRANCH   5   8
ATOM      8  C   UNL A   1      33.394  26.833  23.148  1.00  0.00     0.078 A 
ATOM      9  C   UNL A   1      33.245  24.396  24.602  1.00  0.00     0.074 A 
ATOM     10  C   UNL A   1      33.818  25.539  25.162  1.00  0.00     0.030 A 
ATOM     11  C   UNL A   1      32.748  24.506  23.292  1.00  0.00     0.182 A 
ATOM     12  C   UNL A   1      33.850  26.751  24.467  1.00  0.00     0.019 A 
ATOM     13  C   UNL A   1      32.822  25.700  22.571  1.00  0.00     0.173 A 
ATOM     14  F   UNL A   1      32.174  23.433  22.722  1.00  0.00    -0.201 F 
ATOM     15  F   UNL A   1      32.342  25.723  21.319  1.00  0.00    -0.203 F 
BRANCH   9  16
ATOM     16  N   UNL A   1      33.127  23.202  25.287  1.00  0.00    -0.379 N 
ATOM     17  H   UNL A   1      32.437  22.571  24.978  1.00  0.00     0.161 HD
BRANCH  16  18
ATOM     18  C   UNL A   1      33.936  22.798  26.426  1.00  0.00     0.149 C 
BRANCH  18  19
ATOM     19  C   UNL A   1      35.319  22.379  25.972  1.00  0.00    -0.026 A 
ATOM     20  C   UNL A   1      34.533  20.150  24.946  1.00  0.00     0.044 C 
ATOM     21  C   UNL A   1      35.577  21.182  25.274  1.00  0.00    -0.046 A 
ATOM     22  C   UNL A   1      36.897  20.899  24.873  1.00  0.00     0.004 A 
ATOM     23  C   UNL A   1      37.939  21.792  25.117  1.00  0.00     0.000 A 
ATOM     24  C   UNL A   1      36.386  23.279  26.188  1.00  0.00     0.006 A 
ATOM     25  C   UNL A   1      37.683  22.988  25.771  1.00  0.00     0.000 A 
ENDBRANCH  18  19
ENDBRANCH  16  18
ENDBRANCH   9  16
ENDBRANCH   5   8
ENDBRANCH   3   4
ENDBRANCH   2   3
ENDBRANCH   1   2
BRANCH   1  26
ATOM     26  C   UNL A   1      31.847  28.889  26.853  1.00  0.00     0.002 C 
BRANCH  26  27
ATOM     27  C   UNL A   1      32.142  30.376  27.047  1.00  0.00     0.021 C 
BRANCH  27  28
ATOM     28  C   UNL A   1      33.610  30.768  26.993  1.00  0.00     0.116 C 
BRANCH  28  29
ATOM     29  N   UNL A   1      34.048  31.632  28.078  1.00  0.00    -0.352 N 
ATOM     30  C   UNL A   1      35.041  31.430  29.025  1.00  0.00     0.251 C 
ATOM     31  H   UNL A   1      33.568  32.488  28.152  1.00  0.00     0.163 HD
ATOM     32  O   UNL A   1      35.192  32.232  29.929  1.00  0.00    -0.269 OA
BRANCH  30  33
ATOM     33  C   UNL A   1      36.013  30.318  28.851  1.00  0.00     0.039 A 
ATOM     34  C   UNL A   1      36.379  29.591  29.993  1.00  0.00     0.014 A 
ATOM     35  C   UNL A   1      36.699  30.122  27.657  1.00  0.00     0.014 A 
ATOM     36  C   UNL A   1      37.575  28.878  29.999  1.00  0.00     0.010 A 
ATOM     37  C   UNL A   1      37.932  29.509  27.687  1.00  0.00     0.010 A 
ATOM     38  C   UNL A   1      38.398  28.946  28.877  1.00  0.00    -0.014 A 
BRANCH  38  39
ATOM     39  C   UNL A   1      39.797  28.550  28.876  1.00  0.00     0.031 A 
ATOM     40  C   UNL A   1      40.186  27.187  28.469  1.00  0.00     0.074 A 
ATOM     41  C   UNL A   1      40.741  29.483  29.137  1.00  0.00     0.049 A 
ATOM     42  N   UNL A   1      41.294  26.628  28.812  1.00  0.00    -0.248 NA
ATOM     43  C   UNL A   1      39.334  26.326  27.656  1.00  0.00     0.031 C 
ATOM     44  C   UNL A   1      42.178  29.379  28.900  1.00  0.00     0.029 A 
ATOM     45  N   UNL A   1      40.592  30.680  29.857  1.00  0.00    -0.354 N 
ATOM     46  C   UNL A   1      41.427  25.473  28.079  1.00  0.00     0.074 A 
ATOM     47  C   UNL A   1      40.157  25.299  27.413  1.00  0.00     0.031 C 
ATOM     48  C   UNL A   1      42.811  30.261  29.690  1.00  0.00     0.029 A 
ATOM     49  C   UNL A   1      41.808  30.852  30.557  1.00  0.00     0.049 A 
ATOM     50  H   UNL A   1      39.806  31.273  29.871  1.00  0.00     0.167 HD
ATOM     51  C   UNL A   1      42.644  24.860  28.022  1.00  0.00     0.037 A 
ATOM     52  C   UNL A   1      41.854  30.843  31.921  1.00  0.00     0.037 A 
ATOM     53  C   UNL A   1      43.630  25.569  28.828  1.00  0.00     0.049 A 
ATOM     54  C   UNL A   1      42.752  29.773  32.493  1.00  0.00     0.074 A 
ATOM     55  C   UNL A   1      44.584  26.522  28.510  1.00  0.00     0.029 A 
ATOM     56  N   UNL A   1      43.499  25.586  30.211  1.00  0.00    -0.354 N 
ATOM     57  N   UNL A   1      43.107  28.700  31.842  1.00  0.00    -0.248 NA
ATOM     58  C   UNL A   1      43.306  29.817  33.842  1.00  0.00     0.031 C 
ATOM     59  C   UNL A   1      45.010  27.136  29.712  1.00  0.00     0.029 A 
ATOM     60  C   UNL A   1      44.329  26.543  30.760  1.00  0.00     0.049 A 
ATOM     61  H   UNL A   1      42.898  25.000  30.725  1.00  0.00     0.167 HD
ATOM     62  C   UNL A   1      43.908  27.923  32.640  1.00  0.00     0.074 A 
ATOM     63  C   UNL A   1      44.013  28.673  33.877  1.00  0.00     0.031 C 
ATOM     64  C   UNL A   1      44.406  26.727  32.201  1.00  0.00     0.037 A 
BRANCH  51  65
ATOM     65  C   UNL A   1      42.996  23.790  27.020  1.00  0.00     0.064 A 
ATOM     66  C   UNL A   1      42.674  22.435  27.258  1.00  0.00     0.173 A 
ATOM     67  C   UNL A   1      43.684  24.034  25.817  1.00  0.00     0.173 A 
ATOM     68  F   UNL A   1      41.947  22.062  28.318  1.00  0.00    -0.203 F 
ATOM     69  C   UNL A   1      43.101  21.404  26.419  1.00  0.00     0.198 A 
ATOM     70  C   UNL A   1      44.158  22.998  25.005  1.00  0.00     0.198 A 
ATOM     71  F   UNL A   1      43.882  25.283  25.377  1.00  0.00    -0.203 F 
ATOM     72  F   UNL A   1      42.773  20.136  26.704  1.00  0.00    -0.200 F 
ATOM     73  C   UNL A   1      43.875  21.682  25.312  1.00  0.00     0.200 A 
ATOM     74  F   UNL A   1      44.896  23.286  23.924  1.00  0.00    -0.200 F 
ATOM     75  F   UNL A   1      44.328  20.689  24.534  1.00  0.00    -0.200 F 
ENDBRANCH  51  65
BRANCH  52  76
ATOM     76  C   UNL A   1      40.602  31.347  32.544  1.00  0.00     0.064 A 
ATOM     77  C   UNL A   1      40.336  32.729  32.463  1.00  0.00     0.173 A 
ATOM     78  C   UNL A   1      39.527  30.495  32.819  1.00  0.00     0.173 A 
ATOM     79  F   UNL A   1      41.333  33.588  32.200  1.00  0.00    -0.203 F 
ATOM     80  C   UNL A   1      39.033  33.220  32.522  1.00  0.00     0.198 A 
ATOM     81  C   UNL A   1      38.224  30.994  32.894  1.00  0.00     0.198 A 
ATOM     82  F   UNL A   1      39.713  29.170  32.893  1.00  0.00    -0.203 F 
ATOM     83  F   UNL A   1      38.801  34.523  32.314  1.00  0.00    -0.200 F 
ATOM     84  C   UNL A   1      37.976  32.347  32.706  1.00  0.00     0.200 A 
ATOM     85  F   UNL A   1      37.196  30.148  33.050  1.00  0.00    -0.200 F 
ATOM     86  F   UNL A   1      36.716  32.801  32.661  1.00  0.00    -0.200 F 
ENDBRANCH  52  76
BRANCH  64  87
ATOM     87  C   UNL A   1      45.091  25.652  33.021  1.00  0.00     0.064 A 
ATOM     88  C   UNL A   1      46.472  25.405  33.011  1.00  0.00     0.173 A 
ATOM     89  C   UNL A   1      44.356  24.916  33.989  1.00  0.00     0.173 A 
ATOM     90  F   UNL A   1      47.304  26.106  32.231  1.00  0.00    -0.203 F 
ATOM     91  C   UNL A   1      47.064  24.465  33.862  1.00  0.00     0.198 A 
ATOM     92  C   UNL A   1      44.958  24.028  34.878  1.00  0.00     0.198 A 
ATOM     93  F   UNL A   1      43.030  25.057  34.129  1.00  0.00    -0.203 F 
ATOM     94  F   UNL A   1      48.383  24.242  33.783  1.00  0.00    -0.200 F 
ATOM     95  C   UNL A   1      46.313  23.790  34.805  1.00  0.00     0.200 A 
ATOM     96  F   UNL A   1      44.219  23.426  35.821  1.00  0.00    -0.200 F 
ATOM     97  F   UNL A   1      46.895  22.934  35.654  1.00  0.00    -0.200 F 
ENDBRANCH  64  87
ENDBRANCH  38  39
ENDBRANCH  30  33
ENDBRANCH  28  29
ENDBRANCH  27  28
ENDBRANCH  26  27
ENDBRANCH   1  26
TORSDOF 16
ENDMDL
MODEL 2
REMARK VINA RESULT:     -13.1      1.416      2.023
REMARK SMILES Cc1ccccc1CNc1ccc(C(=O)NCCCCCCNC(=O)c2ccc(-c3c4nc(c(-c5c(F)c(F)c(F)c(F)c5F)c5ccc([nH]5)c(-c5c(F)c(F)c(F)c(F)c5F)c5nc(c(-c6c(F)c(F)c(F)c(F)c6F)c6ccc3[nH]6)C=C5)C=C4)cc2)c(F)c1F
REMARK SMILES IDX 19 1 18 2 17 3 16 4 14 5 15 6 13 8 10 9 11 10 91 11 12 12
REMARK SMILES IDX 89 13 92 14 90 15 9 16 8 18 7 19 1 20 2 21 3 22 4 23 6 24
REMARK SMILES IDX 5 25 20 26 21 27 22 28 23 29 24 30 25 32 26 33 27 34 88 35
REMARK SMILES IDX 28 36 87 37 29 38 30 39 31 40 81 41 32 42 86 43 80 44 82 45
REMARK SMILES IDX 33 46 85 47 79 48 78 49 34 51 66 52 46 53 65 54 47 55 50 56
REMARK SMILES IDX 64 57 83 58 48 59 49 60 63 62 84 63 51 64 35 65 36 66 44 67
REMARK SMILES IDX 37 68 38 69 42 70 45 71 39 72 40 73 43 74 41 75 67 76 68 77
REMARK SMILES IDX 76 78 69 79 70 80 74 81 77 82 71 83 72 84 75 85 73 86 52 87
REMARK SMILES IDX 53 88 61 89 54 90 55 91 59 92 62 93 56 94 57 95 60 96 58 97
REMARK H PARENT 16 7 9 17 23 31 82 50 50 61
REMARK Flexibility Score: inf
ROOT
ATOM      1  C   UNL A   1      32.187  28.956  26.991  1.00  0.00     0.002 C 
ENDROOT
BRANCH   1   2
ATOM      2  C   UNL A   1      32.383  28.233  25.656  1.00  0.00     0.021 C 
BRANCH   2   3
ATOM      3  C   UNL A   1      32.774  29.071  24.444  1.00  0.00     0.116 C 
BRANCH   3   4
ATOM      4  N   UNL A   1      31.716  29.286  23.478  1.00  0.00    -0.352 N 
ATOM      5  C   UNL A   1      31.093  28.396  22.631  1.00  0.00     0.254 C 
ATOM      6  O   UNL A   1      30.161  28.801  21.940  1.00  0.00    -0.269 OA
ATOM      7  H   UNL A   1      31.392  30.214  23.417  1.00  0.00     0.163 HD
BRANCH   5   8
ATOM      8  C   UNL A   1      31.510  26.974  22.543  1.00  0.00     0.078 A 
ATOM      9  C   UNL A   1      32.278  24.241  22.424  1.00  0.00     0.074 A 
ATOM     10  C   UNL A   1      33.022  25.230  21.778  1.00  0.00     0.030 A 
ATOM     11  C   UNL A   1      31.138  24.658  23.132  1.00  0.00     0.182 A 
ATOM     12  C   UNL A   1      32.673  26.581  21.875  1.00  0.00     0.019 A 
ATOM     13  C   UNL A   1      30.753  25.999  23.191  1.00  0.00     0.173 A 
ATOM     14  F   UNL A   1      30.403  23.738  23.781  1.00  0.00    -0.201 F 
ATOM     15  F   UNL A   1      29.643  26.318  23.872  1.00  0.00    -0.203 F 
BRANCH   9  16
ATOM     16  N   UNL A   1      32.636  22.906  22.415  1.00  0.00    -0.379 N 
ATOM     17  H   UNL A   1      32.550  22.422  21.562  1.00  0.00     0.161 HD
BRANCH  16  18
ATOM     18  C   UNL A   1      33.128  22.157  23.559  1.00  0.00     0.149 C 
BRANCH  18  19
ATOM     19  C   UNL A   1      34.392  22.790  24.104  1.00  0.00    -0.026 A 
ATOM     20  C   UNL A   1      33.219  23.894  26.116  1.00  0.00     0.044 C 
ATOM     21  C   UNL A   1      34.428  23.558  25.285  1.00  0.00    -0.046 A 
ATOM     22  C   UNL A   1      35.662  24.080  25.720  1.00  0.00     0.004 A 
ATOM     23  C   UNL A   1      36.846  23.821  25.030  1.00  0.00     0.000 A 
ATOM     24  C   UNL A   1      35.606  22.521  23.435  1.00  0.00     0.006 A 
ATOM     25  C   UNL A   1      36.820  23.034  23.888  1.00  0.00     0.000 A 
ENDBRANCH  18  19
ENDBRANCH  16  18
ENDBRANCH   9  16
ENDBRANCH   5   8
ENDBRANCH   3   4
ENDBRANCH   2   3
ENDBRANCH   1   2
BRANCH   1  26
ATOM     26  C   UNL A   1      31.781  30.437  26.965  1.00  0.00     0.002 C 
BRANCH  26  27
ATOM     27  C   UNL A   1      32.880  31.477  27.177  1.00  0.00     0.021 C 
BRANCH  27  28
ATOM     28  C   UNL A   1      34.220  30.932  27.646  1.00  0.00     0.116 C 
BRANCH  28  29
ATOM     29  N   UNL A   1      34.907  31.766  28.618  1.00  0.00    -0.352 N 
ATOM     30  C   UNL A   1      36.013  31.481  29.405  1.00  0.00     0.251 C 
ATOM     31  H   UNL A   1      34.533  32.669  28.735  1.00  0.00     0.163 HD
ATOM     32  O   UNL A   1      36.384  32.281  30.245  1.00  0.00    -0.269 OA
BRANCH  30  33
ATOM     33  C   UNL A   1      36.830  30.271  29.122  1.00  0.00     0.039 A 
ATOM     34  C   UNL A   1      37.027  29.361  30.171  1.00  0.00     0.014 A 
ATOM     35  C   UNL A   1      37.547  30.129  27.939  1.00  0.00     0.014 A 
ATOM     36  C   UNL A   1      38.111  28.488  30.126  1.00  0.00     0.010 A 
ATOM     37  C   UNL A   1      38.680  29.346  27.933  1.00  0.00     0.010 A 
ATOM     38  C   UNL A   1      38.996  28.576  29.055  1.00  0.00    -0.014 A 
BRANCH  38  39
ATOM     39  C   UNL A   1      40.324  27.986  29.054  1.00  0.00     0.031 A 
ATOM     40  C   UNL A   1      40.511  26.570  28.685  1.00  0.00     0.074 A 
ATOM     41  C   UNL A   1      41.395  28.782  29.276  1.00  0.00     0.049 A 
ATOM     42  N   UNL A   1      41.533  25.869  29.036  1.00  0.00    -0.248 NA
ATOM     43  C   UNL A   1      39.534  25.815  27.908  1.00  0.00     0.031 C 
ATOM     44  C   UNL A   1      42.799  28.467  29.030  1.00  0.00     0.029 A 
ATOM     45  N   UNL A   1      41.427  30.009  29.960  1.00  0.00    -0.354 N 
ATOM     46  C   UNL A   1      41.491  24.686  28.338  1.00  0.00     0.074 A 
ATOM     47  C   UNL A   1      40.200  24.674  27.690  1.00  0.00     0.031 C 
ATOM     48  C   UNL A   1      43.562  29.274  29.785  1.00  0.00     0.029 A 
ATOM     49  C   UNL A   1      42.665  30.027  30.643  1.00  0.00     0.049 A 
ATOM     50  H   UNL A   1      40.734  30.708  29.963  1.00  0.00     0.167 HD
ATOM     51  C   UNL A   1      42.607  23.904  28.289  1.00  0.00     0.037 A 
ATOM     52  C   UNL A   1      42.728  30.052  32.006  1.00  0.00     0.037 A 
ATOM     53  C   UNL A   1      43.695  24.489  29.063  1.00  0.00     0.049 A 
ATOM     54  C   UNL A   1      43.472  28.883  32.603  1.00  0.00     0.074 A 
ATOM     55  C   UNL A   1      44.770  25.286  28.706  1.00  0.00     0.029 A 
ATOM     56  N   UNL A   1      43.586  24.566  30.446  1.00  0.00    -0.354 N 
ATOM     57  N   UNL A   1      43.662  27.751  31.982  1.00  0.00    -0.248 NA
ATOM     58  C   UNL A   1      44.045  28.887  33.944  1.00  0.00     0.031 C 
ATOM     59  C   UNL A   1      45.295  25.869  29.885  1.00  0.00     0.029 A 
ATOM     60  C   UNL A   1      44.551  25.410  30.957  1.00  0.00     0.049 A 
ATOM     61  H   UNL A   1      42.915  24.087  30.984  1.00  0.00     0.167 HD
ATOM     62  C   UNL A   1      44.356  26.892  32.797  1.00  0.00     0.074 A 
ATOM     63  C   UNL A   1      44.583  27.655  34.009  1.00  0.00     0.031 C 
ATOM     64  C   UNL A   1      44.673  25.625  32.391  1.00  0.00     0.037 A 
BRANCH  51  65
ATOM     65  C   UNL A   1      42.790  22.765  27.318  1.00  0.00     0.064 A 
ATOM     66  C   UNL A   1      42.055  21.566  27.454  1.00  0.00     0.173 A 
ATOM     67  C   UNL A   1      43.703  22.783  26.248  1.00  0.00     0.173 A 
ATOM     68  F   UNL A   1      41.089  21.436  28.372  1.00  0.00    -0.203 F 
ATOM     69  C   UNL A   1      42.293  20.445  26.657  1.00  0.00     0.198 A 
ATOM     70  C   UNL A   1      43.981  21.643  25.485  1.00  0.00     0.198 A 
ATOM     71  F   UNL A   1      44.324  23.914  25.889  1.00  0.00    -0.203 F 
ATOM     72  F   UNL A   1      41.569  19.333  26.841  1.00  0.00    -0.200 F 
ATOM     73  C   UNL A   1      43.282  20.471  25.696  1.00  0.00     0.200 A 
ATOM     74  F   UNL A   1      44.935  21.690  24.544  1.00  0.00    -0.200 F 
ATOM     75  F   UNL A   1      43.547  19.380  24.965  1.00  0.00    -0.200 F 
ENDBRANCH  51  65
BRANCH  52  76
ATOM     76  C   UNL A   1      41.569  30.747  32.624  1.00  0.00     0.064 A 
ATOM     77  C   UNL A   1      41.530  32.154  32.555  1.00  0.00     0.173 A 
ATOM     78  C   UNL A   1      40.367  30.078  32.883  1.00  0.00     0.173 A 
ATOM     79  F   UNL A   1      42.656  32.842  32.307  1.00  0.00    -0.203 F 
ATOM     80  C   UNL A   1      40.325  32.850  32.608  1.00  0.00     0.198 A 
ATOM     81  C   UNL A   1      39.162  30.782  32.953  1.00  0.00     0.198 A 
ATOM     82  F   UNL A   1      40.335  28.740  32.946  1.00  0.00    -0.203 F 
ATOM     83  F   UNL A   1      40.308  34.175  32.411  1.00  0.00    -0.200 F 
ATOM     84  C   UNL A   1      39.138  32.158  32.777  1.00  0.00     0.200 A 
ATOM     85  F   UNL A   1      38.008  30.112  33.094  1.00  0.00    -0.200 F 
ATOM     86  F   UNL A   1      37.968  32.811  32.726  1.00  0.00    -0.200 F 
ENDBRANCH  52  76
BRANCH  64  87
ATOM     87  C   UNL A   1      45.210  24.488  33.238  1.00  0.00     0.064 A 
ATOM     88  C   UNL A   1      44.475  23.347  33.594  1.00  0.00     0.173 A 
ATOM     89  C   UNL A   1      46.585  24.454  33.598  1.00  0.00     0.173 A 
ATOM     90  F   UNL A   1      43.199  23.191  33.221  1.00  0.00    -0.203 F 
ATOM     91  C   UNL A   1      45.052  22.282  34.296  1.00  0.00     0.198 A 
ATOM     92  C   UNL A   1      47.169  23.364  34.239  1.00  0.00     0.198 A 
ATOM     93  F   UNL A   1      47.417  25.465  33.310  1.00  0.00    -0.203 F 
ATOM     94  F   UNL A   1      44.294  21.233  34.643  1.00  0.00    -0.200 F 
ATOM     95  C   UNL A   1      46.399  22.282  34.602  1.00  0.00     0.200 A 
ATOM     96  F   UNL A   1      48.489  23.361  34.477  1.00  0.00    -0.200 F 
ATOM     97  F   UNL A   1      46.956  21.235  35.223  1.00  0.00    -0.200 F 
ENDBRANCH  64  87
ENDBRANCH  38  39
ENDBRANCH  30  33
ENDBRANCH  28  29
ENDBRANCH  27  28
ENDBRANCH  26  27
ENDBRANCH   1  26
TORSDOF 16
ENDMDL
MODEL 3
REMARK VINA RESULT:     -12.8      2.246      3.425
REMARK SMILES Cc1ccccc1CNc1ccc(C(=O)NCCCCCCNC(=O)c2ccc(-c3c4nc(c(-c5c(F)c(F)c(F)c(F)c5F)c5ccc([nH]5)c(-c5c(F)c(F)c(F)c(F)c5F)c5nc(c(-c6c(F)c(F)c(F)c(F)c6F)c6ccc3[nH]6)C=C5)C=C4)cc2)c(F)c1F
REMARK SMILES IDX 19 1 18 2 17 3 16 4 14 5 15 6 13 8 10 9 11 10 91 11 12 12
REMARK SMILES IDX 89 13 92 14 90 15 9 16 8 18 7 19 1 20 2 21 3 22 4 23 6 24
REMARK SMILES IDX 5 25 20 26 21 27 22 28 23 29 24 30 25 32 26 33 27 34 88 35
REMARK SMILES IDX 28 36 87 37 29 38 30 39 31 40 81 41 32 42 86 43 80 44 82 45
REMARK SMILES IDX 33 46 85 47 79 48 78 49 34 51 66 52 46 53 65 54 47 55 50 56
REMARK SMILES IDX 64 57 83 58 48 59 49 60 63 62 84 63 51 64 35 65 36 66 44 67
REMARK SMILES IDX 37 68 38 69 42 70 45 71 39 72 40 73 43 74 41 75 67 76 68 77
REMARK SMILES IDX 76 78 69 79 70 80 74 81 77 82 71 83 72 84 75 85 73 86 52 87
REMARK SMILES IDX 53 88 61 89 54 90 55 91 59 92 62 93 56 94 57 95 60 96 58 97
REMARK H PARENT 16 7 9 17 23 31 82 50 50 61
REMARK Flexibility Score: inf
ROOT
ATOM      1  C   UNL A   1      33.863  28.517  26.442  1.00  0.00     0.002 C 
ENDROOT
BRANCH   1   2
ATOM      2  C   UNL A   1      33.169  29.337  25.350  1.00  0.00     0.021 C 
BRANCH   2   3
ATOM      3  C   UNL A   1      31.650  29.252  25.255  1.00  0.00     0.116 C 
BRANCH   3   4
ATOM      4  N   UNL A   1      31.092  29.629  23.973  1.00  0.00    -0.352 N 
ATOM      5  C   UNL A   1      31.002  28.914  22.798  1.00  0.00     0.254 C 
ATOM      6  O   UNL A   1      30.417  29.425  21.847  1.00  0.00    -0.269 OA
ATOM      7  H   UNL A   1      30.719  30.540  23.934  1.00  0.00     0.163 HD
BRANCH   5   8
ATOM      8  C   UNL A   1      31.581  27.555  22.662  1.00  0.00     0.078 A 
ATOM      9  C   UNL A   1      32.647  24.930  22.438  1.00  0.00     0.074 A 
ATOM     10  C   UNL A   1      33.427  26.054  22.160  1.00  0.00     0.030 A 
ATOM     11  C   UNL A   1      31.317  25.156  22.831  1.00  0.00     0.182 A 
ATOM     12  C   UNL A   1      32.919  27.347  22.316  1.00  0.00     0.019 A 
ATOM     13  C   UNL A   1      30.786  26.443  22.940  1.00  0.00     0.173 A 
ATOM     14  F   UNL A   1      30.536  24.101  23.124  1.00  0.00    -0.201 F 
ATOM     15  F   UNL A   1      29.502  26.579  23.304  1.00  0.00    -0.203 F 
BRANCH   9  16
ATOM     16  N   UNL A   1      33.137  23.639  22.370  1.00  0.00    -0.379 N 
ATOM     17  H   UNL A   1      33.352  23.285  21.477  1.00  0.00     0.161 HD
BRANCH  16  18
ATOM     18  C   UNL A   1      33.362  22.762  23.507  1.00  0.00     0.149 C 
BRANCH  18  19
ATOM     19  C   UNL A   1      34.691  23.075  24.163  1.00  0.00    -0.026 A 
ATOM     20  C   UNL A   1      33.694  24.729  25.869  1.00  0.00     0.044 C 
ATOM     21  C   UNL A   1      34.829  23.953  25.258  1.00  0.00    -0.046 A 
ATOM     22  C   UNL A   1      36.107  24.155  25.812  1.00  0.00     0.004 A 
ATOM     23  C   UNL A   1      37.226  23.478  25.328  1.00  0.00     0.000 A 
ATOM     24  C   UNL A   1      35.834  22.383  23.705  1.00  0.00     0.006 A 
ATOM     25  C   UNL A   1      37.089  22.585  24.276  1.00  0.00     0.000 A 
ENDBRANCH  18  19
ENDBRANCH  16  18
ENDBRANCH   9  16
ENDBRANCH   5   8
ENDBRANCH   3   4
ENDBRANCH   2   3
ENDBRANCH   1   2
BRANCH   1  26
ATOM     26  C   UNL A   1      35.042  29.154  27.192  1.00  0.00     0.002 C 
BRANCH  26  27
ATOM     27  C   UNL A   1      34.731  30.279  28.177  1.00  0.00     0.021 C 
BRANCH  27  28
ATOM     28  C   UNL A   1      34.894  31.691  27.636  1.00  0.00     0.116 C 
BRANCH  28  29
ATOM     29  N   UNL A   1      34.164  32.711  28.371  1.00  0.00    -0.352 N 
ATOM     30  C   UNL A   1      34.510  33.383  29.533  1.00  0.00     0.251 C 
ATOM     31  H   UNL A   1      33.294  32.964  27.985  1.00  0.00     0.163 HD
ATOM     32  O   UNL A   1      33.712  34.137  30.061  1.00  0.00    -0.269 OA
BRANCH  30  33
ATOM     33  C   UNL A   1      35.902  33.299  30.050  1.00  0.00     0.039 A 
ATOM     34  C   UNL A   1      36.921  33.860  29.266  1.00  0.00     0.014 A 
ATOM     35  C   UNL A   1      36.229  32.523  31.158  1.00  0.00     0.014 A 
ATOM     36  C   UNL A   1      38.235  33.432  29.440  1.00  0.00     0.010 A 
ATOM     37  C   UNL A   1      37.505  32.016  31.266  1.00  0.00     0.010 A 
ATOM     38  C   UNL A   1      38.491  32.422  30.364  1.00  0.00    -0.014 A 
BRANCH  38  39
ATOM     39  C   UNL A   1      39.725  31.654  30.400  1.00  0.00     0.031 A 
ATOM     40  C   UNL A   1      39.811  30.348  29.720  1.00  0.00     0.074 A 
ATOM     41  C   UNL A   1      40.824  32.208  30.960  1.00  0.00     0.049 A 
ATOM     42  N   UNL A   1      40.673  29.440  30.022  1.00  0.00    -0.248 NA
ATOM     43  C   UNL A   1      38.903  29.946  28.651  1.00  0.00     0.031 C 
ATOM     44  C   UNL A   1      42.206  31.751  30.840  1.00  0.00     0.029 A 
ATOM     45  N   UNL A   1      40.877  33.227  31.926  1.00  0.00    -0.354 N 
ATOM     46  C   UNL A   1      40.618  28.468  29.053  1.00  0.00     0.074 A 
ATOM     47  C   UNL A   1      39.464  28.799  28.250  1.00  0.00     0.031 C 
ATOM     48  C   UNL A   1      42.914  32.240  31.871  1.00  0.00     0.029 A 
ATOM     49  C   UNL A   1      41.974  32.903  32.757  1.00  0.00     0.049 A 
ATOM     50  H   UNL A   1      40.276  34.004  32.007  1.00  0.00     0.167 HD
ATOM     51  C   UNL A   1      41.632  27.560  28.966  1.00  0.00     0.037 A 
ATOM     52  C   UNL A   1      41.805  32.606  34.078  1.00  0.00     0.037 A 
ATOM     53  C   UNL A   1      42.630  27.782  30.005  1.00  0.00     0.049 A 
ATOM     54  C   UNL A   1      42.300  31.233  34.462  1.00  0.00     0.074 A 
ATOM     55  C   UNL A   1      43.833  28.469  30.011  1.00  0.00     0.029 A 
ATOM     56  N   UNL A   1      42.296  27.557  31.334  1.00  0.00    -0.354 N 
ATOM     57  N   UNL A   1      42.465  30.258  33.611  1.00  0.00    -0.248 NA
ATOM     58  C   UNL A   1      42.632  30.844  35.828  1.00  0.00     0.031 C 
ATOM     59  C   UNL A   1      44.210  28.681  31.359  1.00  0.00     0.029 A 
ATOM     60  C   UNL A   1      43.247  28.107  32.169  1.00  0.00     0.049 A 
ATOM     61  H   UNL A   1      41.493  27.074  31.637  1.00  0.00     0.167 HD
ATOM     62  C   UNL A   1      42.908  29.141  34.274  1.00  0.00     0.074 A 
ATOM     63  C   UNL A   1      43.010  29.564  35.658  1.00  0.00     0.031 C 
ATOM     64  C   UNL A   1      43.146  27.968  33.613  1.00  0.00     0.037 A 
BRANCH  51  65
ATOM     65  C   UNL A   1      41.849  26.659  27.776  1.00  0.00     0.064 A 
ATOM     66  C   UNL A   1      41.105  25.468  27.619  1.00  0.00     0.173 A 
ATOM     67  C   UNL A   1      42.804  26.899  26.772  1.00  0.00     0.173 A 
ATOM     68  F   UNL A   1      40.103  25.152  28.449  1.00  0.00    -0.203 F 
ATOM     69  C   UNL A   1      41.371  24.546  26.606  1.00  0.00     0.198 A 
ATOM     70  C   UNL A   1      43.108  25.951  25.789  1.00  0.00     0.198 A 
ATOM     71  F   UNL A   1      43.443  28.074  26.693  1.00  0.00    -0.203 F 
ATOM     72  F   UNL A   1      40.636  23.429  26.514  1.00  0.00    -0.200 F 
ATOM     73  C   UNL A   1      42.397  24.769  25.712  1.00  0.00     0.200 A 
ATOM     74  F   UNL A   1      44.099  26.190  24.918  1.00  0.00    -0.200 F 
ATOM     75  F   UNL A   1      42.687  23.862  24.770  1.00  0.00    -0.200 F 
ENDBRANCH  51  65
BRANCH  52  76
ATOM     76  C   UNL A   1      40.643  33.308  34.683  1.00  0.00     0.064 A 
ATOM     77  C   UNL A   1      39.442  32.585  34.835  1.00  0.00     0.173 A 
ATOM     78  C   UNL A   1      40.807  34.461  35.458  1.00  0.00     0.173 A 
ATOM     79  F   UNL A   1      39.238  31.470  34.115  1.00  0.00    -0.203 F 
ATOM     80  C   UNL A   1      38.510  32.925  35.813  1.00  0.00     0.198 A 
ATOM     81  C   UNL A   1      39.861  34.808  36.426  1.00  0.00     0.198 A 
ATOM     82  F   UNL A   1      41.932  35.183  35.371  1.00  0.00    -0.203 F 
ATOM     83  F   UNL A   1      37.441  32.143  36.017  1.00  0.00    -0.200 F 
ATOM     84  C   UNL A   1      38.736  34.020  36.628  1.00  0.00     0.200 A 
ATOM     85  F   UNL A   1      40.088  35.856  37.233  1.00  0.00    -0.200 F 
ATOM     86  F   UNL A   1      37.894  34.291  37.635  1.00  0.00    -0.200 F 
ENDBRANCH  52  76
BRANCH  64  87
ATOM     87  C   UNL A   1      43.399  26.600  34.216  1.00  0.00     0.064 A 
ATOM     88  C   UNL A   1      42.414  25.803  34.817  1.00  0.00     0.173 A 
ATOM     89  C   UNL A   1      44.665  25.974  34.058  1.00  0.00     0.173 A 
ATOM     90  F   UNL A   1      41.147  26.219  34.929  1.00  0.00    -0.203 F 
ATOM     91  C   UNL A   1      42.683  24.505  35.270  1.00  0.00     0.198 A 
ATOM     92  C   UNL A   1      44.911  24.660  34.451  1.00  0.00     0.198 A 
ATOM     93  F   UNL A   1      45.700  26.605  33.485  1.00  0.00    -0.203 F 
ATOM     94  F   UNL A   1      41.715  23.802  35.872  1.00  0.00    -0.200 F 
ATOM     95  C   UNL A   1      43.923  23.929  35.072  1.00  0.00     0.200 A 
ATOM     96  F   UNL A   1      46.104  24.102  34.199  1.00  0.00    -0.200 F 
ATOM     97  F   UNL A   1      44.157  22.668  35.457  1.00  0.00    -0.200 F 
ENDBRANCH  64  87
ENDBRANCH  38  39
ENDBRANCH  30  33
ENDBRANCH  28  29
ENDBRANCH  27  28
ENDBRANCH  26  27
ENDBRANCH   1  26
TORSDOF 16
ENDMDL
