MODEL 1
REMARK VINA RESULT:     -13.8      0.000      0.000
REMARK SMILES Cc1cccc(-c2ccc(Cl)c(C(=O)NCCCCCCNC(=O)c3ccc(-c4c5nc(c(-c6c(F)c(F)c(F)c(F)c6F)c6ccc([nH]6)c(-c6c(F)c(F)c(F)c(F)c6F)c6nc(c(-c7c(F)c(F)c(F)c(F)c7F)c7ccc4[nH]7)C=C6)C=C5)cc3)c2)c1
REMARK SMILES IDX 19 1 18 2 17 3 16 4 15 5 13 6 14 7 12 9 7 10 8 11 88 12 9 13
REMARK SMILES IDX 10 14 11 15 6 16 1 17 2 18 3 19 89 20 4 21 5 22 20 23 21 24
REMARK SMILES IDX 22 25 23 26 24 28 25 29 26 30 87 31 27 32 86 33 28 34 29 35
REMARK SMILES IDX 30 36 80 37 31 38 85 39 79 40 81 41 32 42 84 43 78 44 77 45
REMARK SMILES IDX 33 47 65 48 45 49 64 50 46 51 49 52 63 53 82 54 47 55 48 56
REMARK SMILES IDX 62 58 83 59 50 60 34 61 35 62 43 63 36 64 37 65 41 66 44 67
REMARK SMILES IDX 38 68 39 69 42 70 40 71 66 72 67 73 75 74 68 75 69 76 73 77
REMARK SMILES IDX 76 78 70 79 71 80 74 81 72 82 51 83 52 84 60 85 53 86 54 87
REMARK SMILES IDX 58 88 61 89 55 90 56 91 59 92 57 93
REMARK H PARENT 15 8 22 27 81 46 49 57
REMARK Flexibility Score: inf
ROOT
ATOM      1  C   UNL A   1      32.025  29.150  27.259  1.00  0.00     0.002 C 
ENDROOT
BRANCH   1   2
ATOM      2  C   UNL A   1      31.970  28.177  26.071  1.00  0.00     0.002 C 
BRANCH   2   3
ATOM      3  C   UNL A   1      33.222  27.965  25.207  1.00  0.00     0.021 C 
BRANCH   3   4
ATOM      4  C   UNL A   1      33.642  26.533  24.878  1.00  0.00     0.116 C 
BRANCH   4   5
ATOM      5  N   UNL A   1      33.622  26.166  23.480  1.00  0.00    -0.352 N 
ATOM      6  C   UNL A   1      32.613  26.288  22.545  1.00  0.00     0.252 C 
ATOM      7  O   UNL A   1      32.873  25.993  21.377  1.00  0.00    -0.269 OA
ATOM      8  H   UNL A   1      34.455  25.766  23.142  1.00  0.00     0.163 HD
BRANCH   6   9
ATOM      9  C   UNL A   1      31.208  26.657  22.886  1.00  0.00     0.059 A 
ATOM     10  C   UNL A   1      29.532  28.468  22.850  1.00  0.00    -0.017 A 
ATOM     11  C   UNL A   1      28.601  27.576  23.398  1.00  0.00     0.010 A 
ATOM     12  C   UNL A   1      30.812  27.972  22.537  1.00  0.00     0.024 A 
ATOM     13  C   UNL A   1      28.988  26.300  23.796  1.00  0.00     0.022 A 
ATOM     14  C   UNL A   1      30.310  25.875  23.621  1.00  0.00     0.053 A 
ATOM     15  Cl  UNL A   1      30.757  24.486  24.547  1.00  0.00    -0.083 Cl
BRANCH  10  16
ATOM     16  C   UNL A   1      29.194  29.901  22.765  1.00  0.00    -0.018 A 
ATOM     17  C   UNL A   1      27.834  32.268  20.075  1.00  0.00     0.044 C 
ATOM     18  C   UNL A   1      28.354  31.760  21.387  1.00  0.00    -0.051 A 
ATOM     19  C   UNL A   1      28.524  32.625  22.469  1.00  0.00     0.003 A 
ATOM     20  C   UNL A   1      28.691  30.411  21.548  1.00  0.00     0.012 A 
ATOM     21  C   UNL A   1      29.008  32.141  23.686  1.00  0.00     0.001 A 
ATOM     22  C   UNL A   1      29.339  30.788  23.836  1.00  0.00     0.009 A 
ENDBRANCH  10  16
ENDBRANCH   6   9
ENDBRANCH   4   5
ENDBRANCH   3   4
ENDBRANCH   2   3
ENDBRANCH   1   2
BRANCH   1  23
ATOM     23  C   UNL A   1      32.923  30.382  27.149  1.00  0.00     0.021 C 
BRANCH  23  24
ATOM     24  C   UNL A   1      34.386  30.173  27.514  1.00  0.00     0.116 C 
BRANCH  24  25
ATOM     25  N   UNL A   1      34.871  31.024  28.598  1.00  0.00    -0.352 N 
ATOM     26  C   UNL A   1      36.018  30.862  29.365  1.00  0.00     0.251 C 
ATOM     27  H   UNL A   1      34.317  31.810  28.811  1.00  0.00     0.163 HD
ATOM     28  O   UNL A   1      36.340  31.666  30.218  1.00  0.00    -0.269 OA
BRANCH  26  29
ATOM     29  C   UNL A   1      36.908  29.726  29.027  1.00  0.00     0.039 A 
ATOM     30  C   UNL A   1      37.277  28.867  30.063  1.00  0.00     0.014 A 
ATOM     31  C   UNL A   1      37.590  29.726  27.813  1.00  0.00     0.014 A 
ATOM     32  C   UNL A   1      38.499  28.206  29.980  1.00  0.00     0.010 A 
ATOM     33  C   UNL A   1      38.840  29.139  27.764  1.00  0.00     0.010 A 
ATOM     34  C   UNL A   1      39.327  28.450  28.881  1.00  0.00    -0.014 A 
BRANCH  34  35
ATOM     35  C   UNL A   1      40.757  28.169  28.920  1.00  0.00     0.031 A 
ATOM     36  C   UNL A   1      41.308  26.934  28.332  1.00  0.00     0.074 A 
ATOM     37  C   UNL A   1      41.600  29.048  29.511  1.00  0.00     0.049 A 
ATOM     38  N   UNL A   1      42.313  26.289  28.825  1.00  0.00    -0.248 NA
ATOM     39  C   UNL A   1      40.751  26.321  27.134  1.00  0.00     0.031 C 
ATOM     40  C   UNL A   1      43.059  29.000  29.508  1.00  0.00     0.029 A 
ATOM     41  N   UNL A   1      41.282  30.069  30.424  1.00  0.00    -0.354 N 
ATOM     42  C   UNL A   1      42.709  25.365  27.886  1.00  0.00     0.074 A 
ATOM     43  C   UNL A   1      41.661  25.372  26.888  1.00  0.00     0.031 C 
ATOM     44  C   UNL A   1      43.513  29.691  30.565  1.00  0.00     0.029 A 
ATOM     45  C   UNL A   1      42.360  30.120  31.335  1.00  0.00     0.049 A 
ATOM     46  H   UNL A   1      40.476  30.634  30.427  1.00  0.00     0.167 HD
ATOM     47  C   UNL A   1      43.952  24.805  27.964  1.00  0.00     0.037 A 
ATOM     48  C   UNL A   1      42.183  29.907  32.669  1.00  0.00     0.037 A 
ATOM     49  C   UNL A   1      44.702  25.308  29.112  1.00  0.00     0.049 A 
ATOM     50  C   UNL A   1      42.964  28.739  33.218  1.00  0.00     0.074 A 
ATOM     51  C   UNL A   1      45.674  26.291  29.224  1.00  0.00     0.029 A 
ATOM     52  N   UNL A   1      44.280  25.026  30.407  1.00  0.00    -0.354 N 
ATOM     53  N   UNL A   1      43.498  27.811  32.474  1.00  0.00    -0.248 NA
ATOM     54  C   UNL A   1      43.170  28.498  34.643  1.00  0.00     0.031 C 
ATOM     55  C   UNL A   1      45.818  26.619  30.591  1.00  0.00     0.029 A 
ATOM     56  C   UNL A   1      44.938  25.835  31.315  1.00  0.00     0.049 A 
ATOM     57  H   UNL A   1      43.607  24.347  30.644  1.00  0.00     0.167 HD
ATOM     58  C   UNL A   1      44.080  26.859  33.273  1.00  0.00     0.074 A 
ATOM     59  C   UNL A   1      43.869  27.349  34.622  1.00  0.00     0.031 C 
ATOM     60  C   UNL A   1      44.677  25.751  32.744  1.00  0.00     0.037 A 
BRANCH  47  61
ATOM     61  C   UNL A   1      44.581  24.080  26.794  1.00  0.00     0.064 A 
ATOM     62  C   UNL A   1      44.319  22.716  26.542  1.00  0.00     0.173 A 
ATOM     63  C   UNL A   1      45.517  24.671  25.926  1.00  0.00     0.173 A 
ATOM     64  F   UNL A   1      43.354  22.053  27.190  1.00  0.00    -0.203 F 
ATOM     65  C   UNL A   1      45.049  21.972  25.613  1.00  0.00     0.198 A 
ATOM     66  C   UNL A   1      46.285  23.917  25.032  1.00  0.00     0.198 A 
ATOM     67  F   UNL A   1      45.690  26.000  25.904  1.00  0.00    -0.203 F 
ATOM     68  F   UNL A   1      44.774  20.671  25.439  1.00  0.00    -0.200 F 
ATOM     69  C   UNL A   1      46.066  22.561  24.892  1.00  0.00     0.200 A 
ATOM     70  F   UNL A   1      47.253  24.512  24.320  1.00  0.00    -0.200 F 
ATOM     71  F   UNL A   1      46.813  21.833  24.052  1.00  0.00    -0.200 F 
ENDBRANCH  47  61
BRANCH  48  72
ATOM     72  C   UNL A   1      40.878  30.389  33.180  1.00  0.00     0.064 A 
ATOM     73  C   UNL A   1      40.673  31.779  33.258  1.00  0.00     0.173 A 
ATOM     74  C   UNL A   1      39.751  29.563  33.236  1.00  0.00     0.173 A 
ATOM     75  F   UNL A   1      41.723  32.614  33.206  1.00  0.00    -0.203 F 
ATOM     76  C   UNL A   1      39.392  32.323  33.281  1.00  0.00     0.198 A 
ATOM     77  C   UNL A   1      38.466  30.112  33.274  1.00  0.00     0.198 A 
ATOM     78  F   UNL A   1      39.882  28.232  33.148  1.00  0.00    -0.203 F 
ATOM     79  F   UNL A   1      39.230  33.654  33.249  1.00  0.00    -0.200 F 
ATOM     80  C   UNL A   1      38.288  31.489  33.261  1.00  0.00     0.200 A 
ATOM     81  F   UNL A   1      37.396  29.305  33.243  1.00  0.00    -0.200 F 
ATOM     82  F   UNL A   1      37.055  32.010  33.195  1.00  0.00    -0.200 F 
ENDBRANCH  48  72
BRANCH  60  83
ATOM     83  C   UNL A   1      45.189  24.550  33.508  1.00  0.00     0.064 A 
ATOM     84  C   UNL A   1      44.465  23.362  33.690  1.00  0.00     0.173 A 
ATOM     85  C   UNL A   1      46.524  24.525  33.988  1.00  0.00     0.173 A 
ATOM     86  F   UNL A   1      43.240  23.205  33.173  1.00  0.00    -0.203 F 
ATOM     87  C   UNL A   1      45.004  22.261  34.367  1.00  0.00     0.198 A 
ATOM     88  C   UNL A   1      47.076  23.405  34.609  1.00  0.00     0.198 A 
ATOM     89  F   UNL A   1      47.342  25.578  33.849  1.00  0.00    -0.203 F 
ATOM     90  F   UNL A   1      44.252  21.167  34.557  1.00  0.00    -0.200 F 
ATOM     91  C   UNL A   1      46.310  22.279  34.816  1.00  0.00     0.200 A 
ATOM     92  F   UNL A   1      48.362  23.421  34.989  1.00  0.00    -0.200 F 
ATOM     93  F   UNL A   1      46.835  21.207  35.426  1.00  0.00    -0.200 F 
ENDBRANCH  60  83
ENDBRANCH  34  35
ENDBRANCH  26  29
ENDBRANCH  24  25
ENDBRANCH  23  24
ENDBRANCH   1  23
TORSDOF 14
ENDMDL
MODEL 2
REMARK VINA RESULT:     -13.7      1.637      3.960
REMARK SMILES Cc1cccc(-c2ccc(Cl)c(C(=O)NCCCCCCNC(=O)c3ccc(-c4c5nc(c(-c6c(F)c(F)c(F)c(F)c6F)c6ccc([nH]6)c(-c6c(F)c(F)c(F)c(F)c6F)c6nc(c(-c7c(F)c(F)c(F)c(F)c7F)c7ccc4[nH]7)C=C6)C=C5)cc3)c2)c1
REMARK SMILES IDX 19 1 18 2 17 3 16 4 15 5 13 6 14 7 12 9 7 10 8 11 88 12 9 13
REMARK SMILES IDX 10 14 11 15 6 16 1 17 2 18 3 19 89 20 4 21 5 22 20 23 21 24
REMARK SMILES IDX 22 25 23 26 24 28 25 29 26 30 87 31 27 32 86 33 28 34 29 35
REMARK SMILES IDX 30 36 80 37 31 38 85 39 79 40 81 41 32 42 84 43 78 44 77 45
REMARK SMILES IDX 33 47 65 48 45 49 64 50 46 51 49 52 63 53 82 54 47 55 48 56
REMARK SMILES IDX 62 58 83 59 50 60 34 61 35 62 43 63 36 64 37 65 41 66 44 67
REMARK SMILES IDX 38 68 39 69 42 70 40 71 66 72 67 73 75 74 68 75 69 76 73 77
REMARK SMILES IDX 76 78 70 79 71 80 74 81 72 82 51 83 52 84 60 85 53 86 54 87
REMARK SMILES IDX 58 88 61 89 55 90 56 91 59 92 57 93
REMARK H PARENT 15 8 22 27 81 46 49 57
REMARK Flexibility Score: inf
ROOT
ATOM      1  C   UNL A   1      32.225  30.221  25.802  1.00  0.00     0.002 C 
ENDROOT
BRANCH   1   2
ATOM      2  C   UNL A   1      31.813  28.926  25.084  1.00  0.00     0.002 C 
BRANCH   2   3
ATOM      3  C   UNL A   1      31.936  28.836  23.555  1.00  0.00     0.021 C 
BRANCH   3   4
ATOM      4  C   UNL A   1      33.318  28.586  22.952  1.00  0.00     0.116 C 
BRANCH   4   5
ATOM      5  N   UNL A   1      33.410  27.513  21.988  1.00  0.00    -0.352 N 
ATOM      6  C   UNL A   1      33.387  26.145  22.176  1.00  0.00     0.252 C 
ATOM      7  O   UNL A   1      33.381  25.427  21.175  1.00  0.00    -0.269 OA
ATOM      8  H   UNL A   1      33.505  27.801  21.051  1.00  0.00     0.163 HD
BRANCH   6   9
ATOM      9  C   UNL A   1      33.475  25.492  23.515  1.00  0.00     0.059 A 
ATOM     10  C   UNL A   1      34.963  24.307  25.087  1.00  0.00    -0.017 A 
ATOM     11  C   UNL A   1      33.901  24.247  26.000  1.00  0.00     0.010 A 
ATOM     12  C   UNL A   1      34.751  24.994  23.877  1.00  0.00     0.024 A 
ATOM     13  C   UNL A   1      32.630  24.682  25.639  1.00  0.00     0.022 A 
ATOM     14  C   UNL A   1      32.400  25.221  24.368  1.00  0.00     0.053 A 
ATOM     15  Cl  UNL A   1      30.739  25.294  23.897  1.00  0.00    -0.083 Cl
BRANCH  10  16
ATOM     16  C   UNL A   1      36.189  23.532  25.356  1.00  0.00    -0.018 A 
ATOM     17  C   UNL A   1      37.390  19.947  24.730  1.00  0.00     0.044 C 
ATOM     18  C   UNL A   1      37.372  21.381  25.170  1.00  0.00    -0.051 A 
ATOM     19  C   UNL A   1      38.470  21.940  25.824  1.00  0.00     0.003 A 
ATOM     20  C   UNL A   1      36.246  22.183  24.944  1.00  0.00     0.012 A 
ATOM     21  C   UNL A   1      38.441  23.276  26.230  1.00  0.00     0.001 A 
ATOM     22  C   UNL A   1      37.311  24.070  25.995  1.00  0.00     0.009 A 
ENDBRANCH  10  16
ENDBRANCH   6   9
ENDBRANCH   4   5
ENDBRANCH   3   4
ENDBRANCH   2   3
ENDBRANCH   1   2
BRANCH   1  23
ATOM     23  C   UNL A   1      32.692  30.129  27.255  1.00  0.00     0.021 C 
BRANCH  23  24
ATOM     24  C   UNL A   1      34.198  30.046  27.466  1.00  0.00     0.116 C 
BRANCH  24  25
ATOM     25  N   UNL A   1      34.729  30.988  28.448  1.00  0.00    -0.352 N 
ATOM     26  C   UNL A   1      35.925  30.909  29.149  1.00  0.00     0.251 C 
ATOM     27  H   UNL A   1      34.169  31.777  28.636  1.00  0.00     0.163 HD
ATOM     28  O   UNL A   1      36.280  31.784  29.916  1.00  0.00    -0.269 OA
BRANCH  26  29
ATOM     29  C   UNL A   1      36.820  29.769  28.842  1.00  0.00     0.039 A 
ATOM     30  C   UNL A   1      37.185  28.933  29.899  1.00  0.00     0.014 A 
ATOM     31  C   UNL A   1      37.510  29.745  27.633  1.00  0.00     0.014 A 
ATOM     32  C   UNL A   1      38.408  28.274  29.839  1.00  0.00     0.010 A 
ATOM     33  C   UNL A   1      38.763  29.160  27.605  1.00  0.00     0.010 A 
ATOM     34  C   UNL A   1      39.243  28.497  28.740  1.00  0.00    -0.014 A 
BRANCH  34  35
ATOM     35  C   UNL A   1      40.674  28.220  28.796  1.00  0.00     0.031 A 
ATOM     36  C   UNL A   1      41.231  26.973  28.243  1.00  0.00     0.074 A 
ATOM     37  C   UNL A   1      41.511  29.117  29.369  1.00  0.00     0.049 A 
ATOM     38  N   UNL A   1      42.235  26.343  28.759  1.00  0.00    -0.248 NA
ATOM     39  C   UNL A   1      40.684  26.327  27.058  1.00  0.00     0.031 C 
ATOM     40  C   UNL A   1      42.970  29.073  29.377  1.00  0.00     0.029 A 
ATOM     41  N   UNL A   1      41.185  30.161  30.253  1.00  0.00    -0.354 N 
ATOM     42  C   UNL A   1      42.639  25.396  27.846  1.00  0.00     0.074 A 
ATOM     43  C   UNL A   1      41.597  25.375  26.842  1.00  0.00     0.031 C 
ATOM     44  C   UNL A   1      43.416  29.791  30.418  1.00  0.00     0.029 A 
ATOM     45  C   UNL A   1      42.257  30.237  31.170  1.00  0.00     0.049 A 
ATOM     46  H   UNL A   1      40.377  30.723  30.237  1.00  0.00     0.167 HD
ATOM     47  C   UNL A   1      43.883  24.841  27.946  1.00  0.00     0.037 A 
ATOM     48  C   UNL A   1      42.072  30.058  32.507  1.00  0.00     0.037 A 
ATOM     49  C   UNL A   1      44.625  25.376  29.085  1.00  0.00     0.049 A 
ATOM     50  C   UNL A   1      42.853  28.907  33.091  1.00  0.00     0.074 A 
ATOM     51  C   UNL A   1      45.593  26.364  29.178  1.00  0.00     0.029 A 
ATOM     52  N   UNL A   1      44.195  25.126  30.385  1.00  0.00    -0.354 N 
ATOM     53  N   UNL A   1      43.394  27.962  32.375  1.00  0.00    -0.248 NA
ATOM     54  C   UNL A   1      43.051  28.704  34.523  1.00  0.00     0.031 C 
ATOM     55  C   UNL A   1      45.728  26.727  30.537  1.00  0.00     0.029 A 
ATOM     56  C   UNL A   1      44.846  25.960  31.275  1.00  0.00     0.049 A 
ATOM     57  H   UNL A   1      43.523  24.452  30.635  1.00  0.00     0.167 HD
ATOM     58  C   UNL A   1      43.973  27.032  33.201  1.00  0.00     0.074 A 
ATOM     59  C   UNL A   1      43.752  27.556  34.536  1.00  0.00     0.031 C 
ATOM     60  C   UNL A   1      44.576  25.912  32.705  1.00  0.00     0.037 A 
BRANCH  47  61
ATOM     61  C   UNL A   1      44.521  24.088  26.800  1.00  0.00     0.064 A 
ATOM     62  C   UNL A   1      44.264  22.717  26.581  1.00  0.00     0.173 A 
ATOM     63  C   UNL A   1      45.460  24.659  25.922  1.00  0.00     0.173 A 
ATOM     64  F   UNL A   1      43.297  22.068  27.240  1.00  0.00    -0.203 F 
ATOM     65  C   UNL A   1      45.002  21.951  25.676  1.00  0.00     0.198 A 
ATOM     66  C   UNL A   1      46.236  23.884  25.053  1.00  0.00     0.198 A 
ATOM     67  F   UNL A   1      45.630  25.987  25.866  1.00  0.00    -0.203 F 
ATOM     68  F   UNL A   1      44.731  20.646  25.535  1.00  0.00    -0.200 F 
ATOM     69  C   UNL A   1      46.021  22.525  24.946  1.00  0.00     0.200 A 
ATOM     70  F   UNL A   1      47.206  24.464  24.331  1.00  0.00    -0.200 F 
ATOM     71  F   UNL A   1      46.776  21.777  24.130  1.00  0.00    -0.200 F 
ENDBRANCH  47  61
BRANCH  48  72
ATOM     72  C   UNL A   1      40.763  30.550  32.997  1.00  0.00     0.064 A 
ATOM     73  C   UNL A   1      40.558  31.942  33.048  1.00  0.00     0.173 A 
ATOM     74  C   UNL A   1      39.635  29.726  33.059  1.00  0.00     0.173 A 
ATOM     75  F   UNL A   1      41.609  32.775  32.991  1.00  0.00    -0.203 F 
ATOM     76  C   UNL A   1      39.277  32.486  33.050  1.00  0.00     0.198 A 
ATOM     77  C   UNL A   1      38.350  30.276  33.075  1.00  0.00     0.198 A 
ATOM     78  F   UNL A   1      39.766  28.393  32.996  1.00  0.00    -0.203 F 
ATOM     79  F   UNL A   1      39.116  33.816  32.992  1.00  0.00    -0.200 F 
ATOM     80  C   UNL A   1      38.173  31.652  33.035  1.00  0.00     0.200 A 
ATOM     81  F   UNL A   1      37.281  29.468  33.049  1.00  0.00    -0.200 F 
ATOM     82  F   UNL A   1      36.940  32.172  32.948  1.00  0.00    -0.200 F 
ENDBRANCH  48  72
BRANCH  60  83
ATOM     83  C   UNL A   1      45.087  24.733  33.503  1.00  0.00     0.064 A 
ATOM     84  C   UNL A   1      44.409  23.509  33.626  1.00  0.00     0.173 A 
ATOM     85  C   UNL A   1      46.380  24.769  34.084  1.00  0.00     0.173 A 
ATOM     86  F   UNL A   1      43.237  23.296  33.016  1.00  0.00    -0.203 F 
ATOM     87  C   UNL A   1      44.948  22.432  34.338  1.00  0.00     0.198 A 
ATOM     88  C   UNL A   1      46.938  23.674  34.742  1.00  0.00     0.198 A 
ATOM     89  F   UNL A   1      47.154  25.862  34.011  1.00  0.00    -0.203 F 
ATOM     90  F   UNL A   1      44.239  21.302  34.467  1.00  0.00    -0.200 F 
ATOM     91  C   UNL A   1      46.214  22.511  34.887  1.00  0.00     0.200 A 
ATOM     92  F   UNL A   1      48.188  23.750  35.220  1.00  0.00    -0.200 F 
ATOM     93  F   UNL A   1      46.742  21.461  35.532  1.00  0.00    -0.200 F 
ENDBRANCH  60  83
ENDBRANCH  34  35
ENDBRANCH  26  29
ENDBRANCH  24  25
ENDBRANCH  23  24
ENDBRANCH   1  23
TORSDOF 14
ENDMDL
MODEL 3
REMARK VINA RESULT:     -13.6      4.182     10.178
REMARK SMILES Cc1cccc(-c2ccc(Cl)c(C(=O)NCCCCCCNC(=O)c3ccc(-c4c5nc(c(-c6c(F)c(F)c(F)c(F)c6F)c6ccc([nH]6)c(-c6c(F)c(F)c(F)c(F)c6F)c6nc(c(-c7c(F)c(F)c(F)c(F)c7F)c7ccc4[nH]7)C=C6)C=C5)cc3)c2)c1
REMARK SMILES IDX 19 1 18 2 17 3 16 4 15 5 13 6 14 7 12 9 7 10 8 11 88 12 9 13
REMARK SMILES IDX 10 14 11 15 6 16 1 17 2 18 3 19 89 20 4 21 5 22 20 23 21 24
REMARK SMILES IDX 22 25 23 26 24 28 25 29 26 30 87 31 27 32 86 33 28 34 29 35
REMARK SMILES IDX 30 36 80 37 31 38 85 39 79 40 81 41 32 42 84 43 78 44 77 45
REMARK SMILES IDX 33 47 65 48 45 49 64 50 46 51 49 52 63 53 82 54 47 55 48 56
REMARK SMILES IDX 62 58 83 59 50 60 34 61 35 62 43 63 36 64 37 65 41 66 44 67
REMARK SMILES IDX 38 68 39 69 42 70 40 71 66 72 67 73 75 74 68 75 69 76 73 77
REMARK SMILES IDX 76 78 70 79 71 80 74 81 72 82 51 83 52 84 60 85 53 86 54 87
REMARK SMILES IDX 58 88 61 89 55 90 56 91 59 92 57 93
REMARK H PARENT 15 8 22 27 81 46 49 57
REMARK Flexibility Score: inf
ROOT
ATOM      1  C   UNL A   1      36.211  22.132  24.889  1.00  0.00     0.002 C 
ENDROOT
BRANCH   1   2
ATOM      2  C   UNL A   1      35.392  20.835  24.978  1.00  0.00     0.002 C 
BRANCH   2   3
ATOM      3  C   UNL A   1      34.239  20.736  25.988  1.00  0.00     0.021 C 
BRANCH   3   4
ATOM      4  C   UNL A   1      34.137  21.800  27.080  1.00  0.00     0.116 C 
BRANCH   4   5
ATOM      5  N   UNL A   1      32.805  22.263  27.401  1.00  0.00    -0.352 N 
ATOM      6  C   UNL A   1      32.084  23.320  26.883  1.00  0.00     0.252 C 
ATOM      7  O   UNL A   1      30.916  23.453  27.251  1.00  0.00    -0.269 OA
ATOM      8  H   UNL A   1      32.341  21.744  28.097  1.00  0.00     0.163 HD
BRANCH   6   9
ATOM      9  C   UNL A   1      32.669  24.363  25.990  1.00  0.00     0.059 A 
ATOM     10  C   UNL A   1      33.246  26.754  25.790  1.00  0.00    -0.017 A 
ATOM     11  C   UNL A   1      33.763  26.491  24.514  1.00  0.00     0.010 A 
ATOM     12  C   UNL A   1      32.765  25.665  26.541  1.00  0.00     0.024 A 
ATOM     13  C   UNL A   1      33.627  25.232  23.939  1.00  0.00     0.022 A 
ATOM     14  C   UNL A   1      33.002  24.196  24.642  1.00  0.00     0.053 A 
ATOM     15  Cl  UNL A   1      32.501  22.856  23.672  1.00  0.00    -0.083 Cl
BRANCH  10  16
ATOM     16  C   UNL A   1      33.086  28.153  26.229  1.00  0.00    -0.018 A 
ATOM     17  C   UNL A   1      35.374  30.892  27.626  1.00  0.00     0.044 C 
ATOM     18  C   UNL A   1      34.149  30.183  27.130  1.00  0.00    -0.051 A 
ATOM     19  C   UNL A   1      32.912  30.827  27.109  1.00  0.00     0.003 A 
ATOM     20  C   UNL A   1      34.221  28.855  26.690  1.00  0.00     0.012 A 
ATOM     21  C   UNL A   1      31.778  30.156  26.646  1.00  0.00     0.001 A 
ATOM     22  C   UNL A   1      31.863  28.830  26.205  1.00  0.00     0.009 A 
ENDBRANCH  10  16
ENDBRANCH   6   9
ENDBRANCH   4   5
ENDBRANCH   3   4
ENDBRANCH   2   3
ENDBRANCH   1   2
BRANCH   1  23
ATOM     23  C   UNL A   1      37.716  22.061  25.150  1.00  0.00     0.021 C 
BRANCH  23  24
ATOM     24  C   UNL A   1      38.299  23.189  25.991  1.00  0.00     0.116 C 
BRANCH  24  25
ATOM     25  N   UNL A   1      39.750  23.138  26.155  1.00  0.00    -0.352 N 
ATOM     26  C   UNL A   1      40.591  24.130  26.642  1.00  0.00     0.251 C 
ATOM     27  H   UNL A   1      40.186  22.296  25.887  1.00  0.00     0.163 HD
ATOM     28  O   UNL A   1      41.788  23.953  26.772  1.00  0.00    -0.269 OA
BRANCH  26  29
ATOM     29  C   UNL A   1      39.961  25.385  27.114  1.00  0.00     0.039 A 
ATOM     30  C   UNL A   1      40.356  26.575  26.502  1.00  0.00     0.014 A 
ATOM     31  C   UNL A   1      39.266  25.392  28.321  1.00  0.00     0.014 A 
ATOM     32  C   UNL A   1      40.298  27.757  27.234  1.00  0.00     0.010 A 
ATOM     33  C   UNL A   1      39.284  26.547  29.081  1.00  0.00     0.010 A 
ATOM     34  C   UNL A   1      39.877  27.706  28.566  1.00  0.00    -0.014 A 
BRANCH  34  35
ATOM     35  C   UNL A   1      40.196  28.769  29.513  1.00  0.00     0.031 A 
ATOM     36  C   UNL A   1      39.197  29.787  29.881  1.00  0.00     0.074 A 
ATOM     37  C   UNL A   1      41.431  28.831  30.063  1.00  0.00     0.049 A 
ATOM     38  N   UNL A   1      39.486  31.022  30.128  1.00  0.00    -0.248 NA
ATOM     39  C   UNL A   1      37.775  29.489  29.987  1.00  0.00     0.031 C 
ATOM     40  C   UNL A   1      41.872  29.726  31.129  1.00  0.00     0.029 A 
ATOM     41  N   UNL A   1      42.612  28.218  29.607  1.00  0.00    -0.354 N 
ATOM     42  C   UNL A   1      38.371  31.602  30.688  1.00  0.00     0.074 A 
ATOM     43  C   UNL A   1      37.313  30.630  30.508  1.00  0.00     0.031 C 
ATOM     44  C   UNL A   1      43.205  29.859  31.054  1.00  0.00     0.029 A 
ATOM     45  C   UNL A   1      43.652  29.134  29.878  1.00  0.00     0.049 A 
ATOM     46  H   UNL A   1      42.697  27.332  29.186  1.00  0.00     0.167 HD
ATOM     47  C   UNL A   1      38.488  32.770  31.385  1.00  0.00     0.037 A 
ATOM     48  C   UNL A   1      44.432  29.650  28.888  1.00  0.00     0.037 A 
ATOM     49  C   UNL A   1      39.869  33.246  31.417  1.00  0.00     0.049 A 
ATOM     50  C   UNL A   1      44.371  31.152  28.772  1.00  0.00     0.074 A 
ATOM     51  C   UNL A   1      40.862  33.143  32.379  1.00  0.00     0.029 A 
ATOM     52  N   UNL A   1      40.500  33.654  30.245  1.00  0.00    -0.354 N 
ATOM     53  N   UNL A   1      43.441  31.884  29.317  1.00  0.00    -0.248 NA
ATOM     54  C   UNL A   1      45.325  31.946  28.002  1.00  0.00     0.031 C 
ATOM     55  C   UNL A   1      42.099  33.465  31.776  1.00  0.00     0.029 A 
ATOM     56  C   UNL A   1      41.863  33.769  30.448  1.00  0.00     0.049 A 
ATOM     57  H   UNL A   1      40.041  33.834  29.393  1.00  0.00     0.167 HD
ATOM     58  C   UNL A   1      43.629  33.199  28.972  1.00  0.00     0.074 A 
ATOM     59  C   UNL A   1      44.836  33.188  28.169  1.00  0.00     0.031 C 
ATOM     60  C   UNL A   1      42.764  34.175  29.380  1.00  0.00     0.037 A 
BRANCH  47  61
ATOM     61  C   UNL A   1      37.403  33.263  32.317  1.00  0.00     0.064 A 
ATOM     62  C   UNL A   1      36.320  34.038  31.847  1.00  0.00     0.173 A 
ATOM     63  C   UNL A   1      37.421  33.057  33.708  1.00  0.00     0.173 A 
ATOM     64  F   UNL A   1      36.087  34.203  30.540  1.00  0.00    -0.203 F 
ATOM     65  C   UNL A   1      35.432  34.685  32.709  1.00  0.00     0.198 A 
ATOM     66  C   UNL A   1      36.566  33.746  34.576  1.00  0.00     0.198 A 
ATOM     67  F   UNL A   1      38.252  32.161  34.259  1.00  0.00    -0.203 F 
ATOM     68  F   UNL A   1      34.442  35.433  32.204  1.00  0.00    -0.200 F 
ATOM     69  C   UNL A   1      35.585  34.578  34.076  1.00  0.00     0.200 A 
ATOM     70  F   UNL A   1      36.712  33.609  35.901  1.00  0.00    -0.200 F 
ATOM     71  F   UNL A   1      34.778  35.255  34.904  1.00  0.00    -0.200 F 
ENDBRANCH  47  61
BRANCH  48  72
ATOM     72  C   UNL A   1      44.674  28.707  27.771  1.00  0.00     0.064 A 
ATOM     73  C   UNL A   1      45.512  27.601  28.011  1.00  0.00     0.173 A 
ATOM     74  C   UNL A   1      43.847  28.661  26.644  1.00  0.00     0.173 A 
ATOM     75  F   UNL A   1      46.322  27.595  29.081  1.00  0.00    -0.203 F 
ATOM     76  C   UNL A   1      45.446  26.457  27.220  1.00  0.00     0.198 A 
ATOM     77  C   UNL A   1      43.794  27.517  25.844  1.00  0.00     0.198 A 
ATOM     78  F   UNL A   1      43.014  29.677  26.374  1.00  0.00    -0.203 F 
ATOM     79  F   UNL A   1      46.181  25.382  27.539  1.00  0.00    -0.200 F 
ATOM     80  C   UNL A   1      44.566  26.405  26.153  1.00  0.00     0.200 A 
ATOM     81  F   UNL A   1      42.934  27.461  24.818  1.00  0.00    -0.200 F 
ATOM     82  F   UNL A   1      44.438  25.274  25.445  1.00  0.00    -0.200 F 
ENDBRANCH  48  72
BRANCH  60  83
ATOM     83  C   UNL A   1      42.753  35.618  28.926  1.00  0.00     0.064 A 
ATOM     84  C   UNL A   1      41.951  36.112  27.885  1.00  0.00     0.173 A 
ATOM     85  C   UNL A   1      43.489  36.597  29.641  1.00  0.00     0.173 A 
ATOM     86  F   UNL A   1      41.110  35.317  27.213  1.00  0.00    -0.203 F 
ATOM     87  C   UNL A   1      41.944  37.468  27.535  1.00  0.00     0.198 A 
ATOM     88  C   UNL A   1      43.433  37.954  29.326  1.00  0.00     0.198 A 
ATOM     89  F   UNL A   1      44.268  36.270  30.682  1.00  0.00    -0.203 F 
ATOM     90  F   UNL A   1      41.197  37.881  26.501  1.00  0.00    -0.200 F 
ATOM     91  C   UNL A   1      42.676  38.388  28.260  1.00  0.00     0.200 A 
ATOM     92  F   UNL A   1      44.107  38.839  30.076  1.00  0.00    -0.200 F 
ATOM     93  F   UNL A   1      42.632  39.691  27.948  1.00  0.00    -0.200 F 
ENDBRANCH  60  83
ENDBRANCH  34  35
ENDBRANCH  26  29
ENDBRANCH  24  25
ENDBRANCH  23  24
ENDBRANCH   1  23
TORSDOF 14
ENDMDL
