MODEL 1
REMARK VINA RESULT:     -11.6      0.000      0.000
REMARK SMILES [NH3+][C@@]1(C(=O)NCCCCCCNC(=O)c2ccc(-c3c4nc(c(-c5c(F)c(F)c(F)c(F)c5F)c5ccc([nH]5)c(-c5c(F)c(F)c(F)c(F)c5F)c5nc(c(-c6c(F)c(F)c(F)c(F)c6F)c6ccc3[nH]6)C=C5)C=C4)cc2)CC[C@H](SC2CCOCC2)C1
REMARK SMILES IDX 8 1 7 2 6 3 5 4 3 5 4 6 2 8 78 9 88 10 79 11 80 12 1 13
REMARK SMILES IDX 81 17 82 18 83 19 87 20 84 21 86 22 85 23 9 24 10 25 11 26
REMARK SMILES IDX 12 27 13 28 14 30 15 31 16 32 77 33 17 34 76 35 18 36 19 37
REMARK SMILES IDX 20 38 70 39 21 40 75 41 69 42 71 43 22 44 74 45 68 46 67 47
REMARK SMILES IDX 23 49 55 50 35 51 54 52 36 53 39 54 53 55 72 56 37 57 38 58
REMARK SMILES IDX 52 60 73 61 40 62 24 63 25 64 33 65 26 66 27 67 31 68 34 69
REMARK SMILES IDX 28 70 29 71 32 72 30 73 56 74 57 75 65 76 58 77 59 78 63 79
REMARK SMILES IDX 66 80 60 81 61 82 64 83 62 84 41 85 42 86 50 87 43 88 44 89
REMARK SMILES IDX 48 90 51 91 45 92 46 93 49 94 47 95
REMARK H PARENT 5 7 1 14 1 15 1 16 12 29 71 48 39 59
REMARK Flexibility Score: inf
ROOT
ATOM      1  C   UNL A   1      32.365  29.929  26.711  1.00  0.00     0.002 C 
ENDROOT
BRANCH   1   2
ATOM      2  C   UNL A   1      31.851  28.571  27.187  1.00  0.00     0.021 C 
BRANCH   2   3
ATOM      3  C   UNL A   1      31.319  27.661  26.085  1.00  0.00     0.116 C 
BRANCH   3   4
ATOM      4  N   UNL A   1      32.043  26.423  25.947  1.00  0.00    -0.351 N 
ATOM      5  C   UNL A   1      32.686  25.862  24.889  1.00  0.00     0.281 C 
ATOM      6  O   UNL A   1      33.298  24.814  25.146  1.00  0.00    -0.268 OA
ATOM      7  H   UNL A   1      32.078  25.884  26.770  1.00  0.00     0.163 HD
BRANCH   5   8
ATOM      8  C   UNL A   1      32.725  26.443  23.416  1.00  0.00     0.175 C 
ATOM      9  C   UNL A   1      33.487  27.761  23.284  1.00  0.00     0.080 C 
ATOM     10  C   UNL A   1      31.364  26.683  22.751  1.00  0.00     0.093 C 
ATOM     11  C   UNL A   1      32.431  28.853  23.162  1.00  0.00     0.022 C 
ATOM     12  C   UNL A   1      31.223  28.208  22.482  1.00  0.00     0.054 C 
BRANCH   8  13
ATOM     13  N   UNL A   1      33.463  25.431  22.602  1.00  0.00    -0.345 N 
ATOM     14  H   UNL A   1      33.323  25.625  21.610  1.00  0.00     0.345 HD
ATOM     15  H   UNL A   1      33.113  24.499  22.819  1.00  0.00     0.345 HD
ATOM     16  H   UNL A   1      34.459  25.480  22.820  1.00  0.00     0.345 HD
ENDBRANCH   8  13
BRANCH  12  17
ATOM     17  S   UNL A   1      29.495  28.648  22.962  1.00  0.00    -0.155 SA
BRANCH  17  18
ATOM     18  C   UNL A   1      29.089  30.319  22.335  1.00  0.00     0.051 C 
ATOM     19  C   UNL A   1      28.844  31.324  23.456  1.00  0.00     0.043 C 
ATOM     20  C   UNL A   1      28.039  30.468  21.242  1.00  0.00     0.043 C 
ATOM     21  C   UNL A   1      28.767  32.726  22.853  1.00  0.00     0.161 C 
ATOM     22  C   UNL A   1      28.025  31.909  20.748  1.00  0.00     0.161 C 
ATOM     23  O   UNL A   1      27.767  32.796  21.836  1.00  0.00    -0.381 OA
ENDBRANCH  17  18
ENDBRANCH  12  17
ENDBRANCH   5   8
ENDBRANCH   3   4
ENDBRANCH   2   3
ENDBRANCH   1   2
BRANCH   1  24
ATOM     24  C   UNL A   1      31.324  30.844  26.051  1.00  0.00     0.002 C 
BRANCH  24  25
ATOM     25  C   UNL A   1      31.321  32.310  26.498  1.00  0.00     0.021 C 
BRANCH  25  26
ATOM     26  C   UNL A   1      32.669  32.879  26.935  1.00  0.00     0.116 C 
BRANCH  26  27
ATOM     27  N   UNL A   1      32.536  34.147  27.627  1.00  0.00    -0.352 N 
ATOM     28  C   UNL A   1      33.205  34.649  28.711  1.00  0.00     0.251 C 
ATOM     29  H   UNL A   1      31.850  34.748  27.255  1.00  0.00     0.163 HD
ATOM     30  O   UNL A   1      32.803  35.688  29.237  1.00  0.00    -0.269 OA
BRANCH  28  31
ATOM     31  C   UNL A   1      34.393  33.969  29.275  1.00  0.00     0.039 A 
ATOM     32  C   UNL A   1      34.189  32.900  30.155  1.00  0.00     0.014 A 
ATOM     33  C   UNL A   1      35.695  34.411  29.017  1.00  0.00     0.014 A 
ATOM     34  C   UNL A   1      35.279  32.258  30.747  1.00  0.00     0.010 A 
ATOM     35  C   UNL A   1      36.787  33.729  29.558  1.00  0.00     0.010 A 
ATOM     36  C   UNL A   1      36.590  32.655  30.441  1.00  0.00    -0.014 A 
BRANCH  36  37
ATOM     37  C   UNL A   1      37.754  31.969  31.060  1.00  0.00     0.031 A 
ATOM     38  C   UNL A   1      38.190  32.316  32.457  1.00  0.00     0.074 A 
ATOM     39  C   UNL A   1      38.438  31.050  30.352  1.00  0.00     0.049 A 
ATOM     40  N   UNL A   1      39.188  31.836  33.158  1.00  0.00    -0.248 NA
ATOM     41  C   UNL A   1      37.417  33.356  33.152  1.00  0.00     0.031 C 
ATOM     42  C   UNL A   1      38.145  30.656  28.973  1.00  0.00     0.029 A 
ATOM     43  N   UNL A   1      39.524  30.281  30.694  1.00  0.00    -0.354 N 
ATOM     44  C   UNL A   1      39.170  32.524  34.364  1.00  0.00     0.074 A 
ATOM     45  C   UNL A   1      38.094  33.487  34.285  1.00  0.00     0.031 C 
ATOM     46  C   UNL A   1      39.013  29.706  28.595  1.00  0.00     0.029 A 
ATOM     47  C   UNL A   1      39.939  29.439  29.693  1.00  0.00     0.049 A 
ATOM     48  H   UNL A   1      39.962  30.330  31.575  1.00  0.00     0.167 HD
ATOM     49  C   UNL A   1      39.965  32.353  35.449  1.00  0.00     0.037 A 
ATOM     50  C   UNL A   1      40.950  28.550  29.664  1.00  0.00     0.037 A 
ATOM     51  C   UNL A   1      41.016  31.372  35.539  1.00  0.00     0.049 A 
ATOM     52  C   UNL A   1      41.801  28.361  30.890  1.00  0.00     0.074 A 
ATOM     53  C   UNL A   1      41.842  31.087  36.613  1.00  0.00     0.029 A 
ATOM     54  N   UNL A   1      41.384  30.514  34.515  1.00  0.00    -0.354 N 
ATOM     55  N   UNL A   1      41.732  28.973  32.047  1.00  0.00    -0.248 NA
ATOM     56  C   UNL A   1      42.859  27.345  30.810  1.00  0.00     0.031 C 
ATOM     57  C   UNL A   1      42.734  30.080  36.227  1.00  0.00     0.029 A 
ATOM     58  C   UNL A   1      42.433  29.706  34.927  1.00  0.00     0.049 A 
ATOM     59  H   UNL A   1      40.964  30.482  33.625  1.00  0.00     0.167 HD
ATOM     60  C   UNL A   1      42.714  28.396  32.841  1.00  0.00     0.074 A 
ATOM     61  C   UNL A   1      43.356  27.376  32.038  1.00  0.00     0.031 C 
ATOM     62  C   UNL A   1      43.053  28.686  34.121  1.00  0.00     0.037 A 
BRANCH  49  63
ATOM     63  C   UNL A   1      39.726  33.244  36.633  1.00  0.00     0.064 A 
ATOM     64  C   UNL A   1      38.818  32.894  37.644  1.00  0.00     0.173 A 
ATOM     65  C   UNL A   1      40.439  34.443  36.778  1.00  0.00     0.173 A 
ATOM     66  F   UNL A   1      38.103  31.764  37.548  1.00  0.00    -0.203 F 
ATOM     67  C   UNL A   1      38.615  33.725  38.744  1.00  0.00     0.198 A 
ATOM     68  C   UNL A   1      40.255  35.258  37.893  1.00  0.00     0.198 A 
ATOM     69  F   UNL A   1      41.324  34.822  35.843  1.00  0.00    -0.203 F 
ATOM     70  F   UNL A   1      37.708  33.393  39.674  1.00  0.00    -0.200 F 
ATOM     71  C   UNL A   1      39.338  34.901  38.870  1.00  0.00     0.200 A 
ATOM     72  F   UNL A   1      40.963  36.387  38.021  1.00  0.00    -0.200 F 
ATOM     73  F   UNL A   1      39.145  35.697  39.932  1.00  0.00    -0.200 F 
ENDBRANCH  49  63
BRANCH  50  74
ATOM     74  C   UNL A   1      41.187  27.740  28.441  1.00  0.00     0.064 A 
ATOM     75  C   UNL A   1      42.115  28.153  27.473  1.00  0.00     0.173 A 
ATOM     76  C   UNL A   1      40.495  26.542  28.214  1.00  0.00     0.173 A 
ATOM     77  F   UNL A   1      42.785  29.303  27.638  1.00  0.00    -0.203 F 
ATOM     78  C   UNL A   1      42.325  27.409  26.315  1.00  0.00     0.198 A 
ATOM     79  C   UNL A   1      40.727  25.785  27.067  1.00  0.00     0.198 A 
ATOM     80  F   UNL A   1      39.602  26.101  29.112  1.00  0.00    -0.203 F 
ATOM     81  F   UNL A   1      43.183  27.850  25.386  1.00  0.00    -0.200 F 
ATOM     82  C   UNL A   1      41.635  26.224  26.114  1.00  0.00     0.200 A 
ATOM     83  F   UNL A   1      40.068  24.633  26.883  1.00  0.00    -0.200 F 
ATOM     84  F   UNL A   1      41.841  25.506  25.002  1.00  0.00    -0.200 F 
ENDBRANCH  50  74
BRANCH  62  85
ATOM     85  C   UNL A   1      44.137  27.860  34.748  1.00  0.00     0.064 A 
ATOM     86  C   UNL A   1      45.482  28.257  34.711  1.00  0.00     0.173 A 
ATOM     87  C   UNL A   1      43.821  26.667  35.417  1.00  0.00     0.173 A 
ATOM     88  F   UNL A   1      45.836  29.381  34.072  1.00  0.00    -0.203 F 
ATOM     89  C   UNL A   1      46.475  27.475  35.296  1.00  0.00     0.198 A 
ATOM     90  C   UNL A   1      44.813  25.903  36.026  1.00  0.00     0.198 A 
ATOM     91  F   UNL A   1      42.549  26.247  35.487  1.00  0.00    -0.203 F 
ATOM     92  F   UNL A   1      47.759  27.848  35.205  1.00  0.00    -0.200 F 
ATOM     93  C   UNL A   1      46.139  26.302  35.957  1.00  0.00     0.200 A 
ATOM     94  F   UNL A   1      44.486  24.776  36.674  1.00  0.00    -0.200 F 
ATOM     95  F   UNL A   1      47.095  25.553  36.522  1.00  0.00    -0.200 F 
ENDBRANCH  62  85
ENDBRANCH  36  37
ENDBRANCH  28  31
ENDBRANCH  26  27
ENDBRANCH  25  26
ENDBRANCH  24  25
ENDBRANCH   1  24
TORSDOF 16
ENDMDL
MODEL 2
REMARK VINA RESULT:     -11.3      1.589      2.971
REMARK SMILES [NH3+][C@@]1(C(=O)NCCCCCCNC(=O)c2ccc(-c3c4nc(c(-c5c(F)c(F)c(F)c(F)c5F)c5ccc([nH]5)c(-c5c(F)c(F)c(F)c(F)c5F)c5nc(c(-c6c(F)c(F)c(F)c(F)c6F)c6ccc3[nH]6)C=C5)C=C4)cc2)CC[C@H](SC2CCOCC2)C1
REMARK SMILES IDX 8 1 7 2 6 3 5 4 3 5 4 6 2 8 78 9 88 10 79 11 80 12 1 13
REMARK SMILES IDX 81 17 82 18 83 19 87 20 84 21 86 22 85 23 9 24 10 25 11 26
REMARK SMILES IDX 12 27 13 28 14 30 15 31 16 32 77 33 17 34 76 35 18 36 19 37
REMARK SMILES IDX 20 38 70 39 21 40 75 41 69 42 71 43 22 44 74 45 68 46 67 47
REMARK SMILES IDX 23 49 55 50 35 51 54 52 36 53 39 54 53 55 72 56 37 57 38 58
REMARK SMILES IDX 52 60 73 61 40 62 24 63 25 64 33 65 26 66 27 67 31 68 34 69
REMARK SMILES IDX 28 70 29 71 32 72 30 73 56 74 57 75 65 76 58 77 59 78 63 79
REMARK SMILES IDX 66 80 60 81 61 82 64 83 62 84 41 85 42 86 50 87 43 88 44 89
REMARK SMILES IDX 48 90 51 91 45 92 46 93 49 94 47 95
REMARK H PARENT 5 7 1 14 1 15 1 16 12 29 71 48 39 59
REMARK Flexibility Score: inf
ROOT
ATOM      1  C   UNL A   1      32.086  29.601  26.155  1.00  0.00     0.002 C 
ENDROOT
BRANCH   1   2
ATOM      2  C   UNL A   1      33.170  29.112  25.194  1.00  0.00     0.021 C 
BRANCH   2   3
ATOM      3  C   UNL A   1      33.145  27.616  24.903  1.00  0.00     0.116 C 
BRANCH   3   4
ATOM      4  N   UNL A   1      33.735  27.256  23.638  1.00  0.00    -0.351 N 
ATOM      5  C   UNL A   1      33.186  26.822  22.473  1.00  0.00     0.281 C 
ATOM      6  O   UNL A   1      33.988  26.693  21.534  1.00  0.00    -0.268 OA
ATOM      7  H   UNL A   1      34.715  27.340  23.614  1.00  0.00     0.163 HD
BRANCH   5   8
ATOM      8  C   UNL A   1      31.652  26.504  22.234  1.00  0.00     0.175 C 
ATOM      9  C   UNL A   1      30.735  27.719  22.360  1.00  0.00     0.080 C 
ATOM     10  C   UNL A   1      31.040  25.428  23.140  1.00  0.00     0.093 C 
ATOM     11  C   UNL A   1      30.046  27.595  23.713  1.00  0.00     0.022 C 
ATOM     12  C   UNL A   1      29.934  26.098  24.002  1.00  0.00     0.054 C 
BRANCH   8  13
ATOM     13  N   UNL A   1      31.553  26.029  20.822  1.00  0.00    -0.345 N 
ATOM     14  H   UNL A   1      31.032  25.153  20.794  1.00  0.00     0.345 HD
ATOM     15  H   UNL A   1      32.489  25.879  20.447  1.00  0.00     0.345 HD
ATOM     16  H   UNL A   1      31.070  26.730  20.260  1.00  0.00     0.345 HD
ENDBRANCH   8  13
BRANCH  12  17
ATOM     17  S   UNL A   1      30.147  25.424  25.709  1.00  0.00    -0.155 SA
BRANCH  17  18
ATOM     18  C   UNL A   1      31.398  24.088  25.690  1.00  0.00     0.051 C 
ATOM     19  C   UNL A   1      30.784  22.704  25.876  1.00  0.00     0.043 C 
ATOM     20  C   UNL A   1      32.655  24.235  26.538  1.00  0.00     0.043 C 
ATOM     21  C   UNL A   1      31.853  21.649  25.595  1.00  0.00     0.161 C 
ATOM     22  C   UNL A   1      33.626  23.110  26.202  1.00  0.00     0.161 C 
ATOM     23  O   UNL A   1      33.002  21.846  26.419  1.00  0.00    -0.381 OA
ENDBRANCH  17  18
ENDBRANCH  12  17
ENDBRANCH   5   8
ENDBRANCH   3   4
ENDBRANCH   2   3
ENDBRANCH   1   2
BRANCH   1  24
ATOM     24  C   UNL A   1      31.158  30.697  25.614  1.00  0.00     0.002 C 
BRANCH  24  25
ATOM     25  C   UNL A   1      31.136  32.019  26.389  1.00  0.00     0.021 C 
BRANCH  25  26
ATOM     26  C   UNL A   1      32.473  32.476  26.970  1.00  0.00     0.116 C 
BRANCH  26  27
ATOM     27  N   UNL A   1      32.418  33.831  27.485  1.00  0.00    -0.352 N 
ATOM     28  C   UNL A   1      33.165  34.452  28.450  1.00  0.00     0.251 C 
ATOM     29  H   UNL A   1      31.728  34.400  27.072  1.00  0.00     0.163 HD
ATOM     30  O   UNL A   1      32.825  35.568  28.848  1.00  0.00    -0.269 OA
BRANCH  28  31
ATOM     31  C   UNL A   1      34.365  33.813  29.035  1.00  0.00     0.039 A 
ATOM     32  C   UNL A   1      34.180  32.759  29.937  1.00  0.00     0.014 A 
ATOM     33  C   UNL A   1      35.657  34.281  28.777  1.00  0.00     0.014 A 
ATOM     34  C   UNL A   1      35.282  32.156  30.549  1.00  0.00     0.010 A 
ATOM     35  C   UNL A   1      36.762  33.637  29.339  1.00  0.00     0.010 A 
ATOM     36  C   UNL A   1      36.585  32.578  30.243  1.00  0.00    -0.014 A 
BRANCH  36  37
ATOM     37  C   UNL A   1      37.760  31.933  30.884  1.00  0.00     0.031 A 
ATOM     38  C   UNL A   1      38.179  32.321  32.276  1.00  0.00     0.074 A 
ATOM     39  C   UNL A   1      38.470  31.014  30.202  1.00  0.00     0.049 A 
ATOM     40  N   UNL A   1      39.184  31.881  32.993  1.00  0.00    -0.248 NA
ATOM     41  C   UNL A   1      37.378  33.358  32.943  1.00  0.00     0.031 C 
ATOM     42  C   UNL A   1      38.195  30.583  28.830  1.00  0.00     0.029 A 
ATOM     43  N   UNL A   1      39.571  30.279  30.567  1.00  0.00    -0.354 N 
ATOM     44  C   UNL A   1      39.143  32.595  34.183  1.00  0.00     0.074 A 
ATOM     45  C   UNL A   1      38.045  33.532  34.076  1.00  0.00     0.031 C 
ATOM     46  C   UNL A   1      39.087  29.645  28.478  1.00  0.00     0.029 A 
ATOM     47  C   UNL A   1      40.012  29.425  29.587  1.00  0.00     0.049 A 
ATOM     48  H   UNL A   1      40.003  30.358  31.449  1.00  0.00     0.167 HD
ATOM     49  C   UNL A   1      39.935  32.467  35.276  1.00  0.00     0.037 A 
ATOM     50  C   UNL A   1      41.043  28.559  29.584  1.00  0.00     0.037 A 
ATOM     51  C   UNL A   1      41.008  31.514  35.395  1.00  0.00     0.049 A 
ATOM     52  C   UNL A   1      41.891  28.417  30.819  1.00  0.00     0.074 A 
ATOM     53  C   UNL A   1      41.833  31.272  36.479  1.00  0.00     0.029 A 
ATOM     54  N   UNL A   1      41.402  30.641  34.392  1.00  0.00    -0.354 N 
ATOM     55  N   UNL A   1      41.801  29.054  31.962  1.00  0.00    -0.248 NA
ATOM     56  C   UNL A   1      42.973  27.425  30.769  1.00  0.00     0.031 C 
ATOM     57  C   UNL A   1      42.750  30.278  36.121  1.00  0.00     0.029 A 
ATOM     58  C   UNL A   1      42.467  29.868  34.829  1.00  0.00     0.049 A 
ATOM     59  H   UNL A   1      40.988  30.580  33.500  1.00  0.00     0.167 HD
ATOM     60  C   UNL A   1      42.791  28.518  32.775  1.00  0.00     0.074 A 
ATOM     61  C   UNL A   1      43.461  27.496  31.998  1.00  0.00     0.031 C 
ATOM     62  C   UNL A   1      43.115  28.845  34.049  1.00  0.00     0.037 A 
BRANCH  49  63
ATOM     63  C   UNL A   1      39.667  33.380  36.438  1.00  0.00     0.064 A 
ATOM     64  C   UNL A   1      38.778  33.022  37.463  1.00  0.00     0.173 A 
ATOM     65  C   UNL A   1      40.337  34.607  36.549  1.00  0.00     0.173 A 
ATOM     66  F   UNL A   1      38.104  31.864  37.399  1.00  0.00    -0.203 F 
ATOM     67  C   UNL A   1      38.548  33.873  38.541  1.00  0.00     0.198 A 
ATOM     68  C   UNL A   1      40.127  35.443  37.643  1.00  0.00     0.198 A 
ATOM     69  F   UNL A   1      41.203  34.994  35.600  1.00  0.00    -0.203 F 
ATOM     70  F   UNL A   1      37.658  33.532  39.484  1.00  0.00    -0.200 F 
ATOM     71  C   UNL A   1      39.228  35.078  38.634  1.00  0.00     0.200 A 
ATOM     72  F   UNL A   1      40.794  36.600  37.739  1.00  0.00    -0.200 F 
ATOM     73  F   UNL A   1      39.010  35.893  39.677  1.00  0.00    -0.200 F 
ENDBRANCH  49  63
BRANCH  50  74
ATOM     74  C   UNL A   1      41.307  27.727  28.382  1.00  0.00     0.064 A 
ATOM     75  C   UNL A   1      42.215  28.149  27.400  1.00  0.00     0.173 A 
ATOM     76  C   UNL A   1      40.659  26.500  28.187  1.00  0.00     0.173 A 
ATOM     77  F   UNL A   1      42.843  29.327  27.533  1.00  0.00    -0.203 F 
ATOM     78  C   UNL A   1      42.449  27.385  26.260  1.00  0.00     0.198 A 
ATOM     79  C   UNL A   1      40.915  25.722  27.059  1.00  0.00     0.198 A 
ATOM     80  F   UNL A   1      39.785  26.049  29.100  1.00  0.00    -0.203 F 
ATOM     81  F   UNL A   1      43.289  27.833  25.317  1.00  0.00    -0.200 F 
ATOM     82  C   UNL A   1      41.803  26.170  26.093  1.00  0.00     0.200 A 
ATOM     83  F   UNL A   1      40.299  24.542  26.907  1.00  0.00    -0.200 F 
ATOM     84  F   UNL A   1      42.033  25.432  24.998  1.00  0.00    -0.200 F 
ENDBRANCH  50  74
BRANCH  62  85
ATOM     85  C   UNL A   1      44.214  28.058  34.701  1.00  0.00     0.064 A 
ATOM     86  C   UNL A   1      45.549  28.488  34.667  1.00  0.00     0.173 A 
ATOM     87  C   UNL A   1      43.923  26.871  35.391  1.00  0.00     0.173 A 
ATOM     88  F   UNL A   1      45.880  29.608  34.008  1.00  0.00    -0.203 F 
ATOM     89  C   UNL A   1      46.556  27.743  35.275  1.00  0.00     0.198 A 
ATOM     90  C   UNL A   1      44.928  26.145  36.023  1.00  0.00     0.198 A 
ATOM     91  F   UNL A   1      42.661  26.421  35.460  1.00  0.00    -0.203 F 
ATOM     92  F   UNL A   1      47.831  28.146  35.186  1.00  0.00    -0.200 F 
ATOM     93  C   UNL A   1      46.244  26.575  35.956  1.00  0.00     0.200 A 
ATOM     94  F   UNL A   1      44.623  25.023  36.690  1.00  0.00    -0.200 F 
ATOM     95  F   UNL A   1      47.214  25.861  36.543  1.00  0.00    -0.200 F 
ENDBRANCH  62  85
ENDBRANCH  36  37
ENDBRANCH  28  31
ENDBRANCH  26  27
ENDBRANCH  25  26
ENDBRANCH  24  25
ENDBRANCH   1  24
TORSDOF 16
ENDMDL
MODEL 3
REMARK VINA RESULT:     -11.3      1.750      2.819
REMARK SMILES [NH3+][C@@]1(C(=O)NCCCCCCNC(=O)c2ccc(-c3c4nc(c(-c5c(F)c(F)c(F)c(F)c5F)c5ccc([nH]5)c(-c5c(F)c(F)c(F)c(F)c5F)c5nc(c(-c6c(F)c(F)c(F)c(F)c6F)c6ccc3[nH]6)C=C5)C=C4)cc2)CC[C@H](SC2CCOCC2)C1
REMARK SMILES IDX 8 1 7 2 6 3 5 4 3 5 4 6 2 8 78 9 88 10 79 11 80 12 1 13
REMARK SMILES IDX 81 17 82 18 83 19 87 20 84 21 86 22 85 23 9 24 10 25 11 26
REMARK SMILES IDX 12 27 13 28 14 30 15 31 16 32 77 33 17 34 76 35 18 36 19 37
REMARK SMILES IDX 20 38 70 39 21 40 75 41 69 42 71 43 22 44 74 45 68 46 67 47
REMARK SMILES IDX 23 49 55 50 35 51 54 52 36 53 39 54 53 55 72 56 37 57 38 58
REMARK SMILES IDX 52 60 73 61 40 62 24 63 25 64 33 65 26 66 27 67 31 68 34 69
REMARK SMILES IDX 28 70 29 71 32 72 30 73 56 74 57 75 65 76 58 77 59 78 63 79
REMARK SMILES IDX 66 80 60 81 61 82 64 83 62 84 41 85 42 86 50 87 43 88 44 89
REMARK SMILES IDX 48 90 51 91 45 92 46 93 49 94 47 95
REMARK H PARENT 5 7 1 14 1 15 1 16 12 29 71 48 39 59
REMARK Flexibility Score: inf
ROOT
ATOM      1  C   UNL A   1      34.776  32.866  27.960  1.00  0.00     0.002 C 
ENDROOT
BRANCH   1   2
ATOM      2  C   UNL A   1      35.161  31.412  28.233  1.00  0.00     0.021 C 
BRANCH   2   3
ATOM      3  C   UNL A   1      34.374  30.377  27.437  1.00  0.00     0.116 C 
BRANCH   3   4
ATOM      4  N   UNL A   1      33.125  30.869  26.910  1.00  0.00    -0.351 N 
ATOM      5  C   UNL A   1      32.242  30.334  26.027  1.00  0.00     0.281 C 
ATOM      6  O   UNL A   1      31.203  30.994  25.864  1.00  0.00    -0.268 OA
ATOM      7  H   UNL A   1      32.866  31.754  27.253  1.00  0.00     0.163 HD
BRANCH   5   8
ATOM      8  C   UNL A   1      32.429  28.972  25.239  1.00  0.00     0.175 C 
ATOM      9  C   UNL A   1      33.156  29.116  23.903  1.00  0.00     0.080 C 
ATOM     10  C   UNL A   1      31.144  28.193  24.930  1.00  0.00     0.093 C 
ATOM     11  C   UNL A   1      32.084  29.026  22.824  1.00  0.00     0.022 C 
ATOM     12  C   UNL A   1      30.984  28.125  23.385  1.00  0.00     0.054 C 
BRANCH   8  13
ATOM     13  N   UNL A   1      33.288  28.116  26.111  1.00  0.00    -0.345 N 
ATOM     14  H   UNL A   1      33.695  28.686  26.852  1.00  0.00     0.345 HD
ATOM     15  H   UNL A   1      34.033  27.701  25.553  1.00  0.00     0.345 HD
ATOM     16  H   UNL A   1      32.721  27.376  26.526  1.00  0.00     0.345 HD
ENDBRANCH   8  13
BRANCH  12  17
ATOM     17  S   UNL A   1      29.198  28.456  23.049  1.00  0.00    -0.155 SA
BRANCH  17  18
ATOM     18  C   UNL A   1      28.991  30.180  22.471  1.00  0.00     0.051 C 
ATOM     19  C   UNL A   1      28.634  31.140  23.602  1.00  0.00     0.043 C 
ATOM     20  C   UNL A   1      28.133  30.455  21.243  1.00  0.00     0.043 C 
ATOM     21  C   UNL A   1      28.731  32.574  23.080  1.00  0.00     0.161 C 
ATOM     22  C   UNL A   1      28.278  31.918  20.842  1.00  0.00     0.161 C 
ATOM     23  O   UNL A   1      27.906  32.762  21.930  1.00  0.00    -0.381 OA
ENDBRANCH  17  18
ENDBRANCH  12  17
ENDBRANCH   5   8
ENDBRANCH   3   4
ENDBRANCH   2   3
ENDBRANCH   1   2
BRANCH   1  24
ATOM     24  C   UNL A   1      34.346  33.684  29.184  1.00  0.00     0.002 C 
BRANCH  24  25
ATOM     25  C   UNL A   1      33.124  34.593  29.005  1.00  0.00     0.021 C 
BRANCH  25  26
ATOM     26  C   UNL A   1      33.258  36.010  29.559  1.00  0.00     0.116 C 
BRANCH  26  27
ATOM     27  N   UNL A   1      32.473  36.210  30.763  1.00  0.00    -0.352 N 
ATOM     28  C   UNL A   1      32.634  35.712  32.028  1.00  0.00     0.251 C 
ATOM     29  H   UNL A   1      31.694  36.801  30.652  1.00  0.00     0.163 HD
ATOM     30  O   UNL A   1      31.740  35.881  32.859  1.00  0.00    -0.269 OA
BRANCH  28  31
ATOM     31  C   UNL A   1      33.853  34.968  32.422  1.00  0.00     0.039 A 
ATOM     32  C   UNL A   1      35.093  35.593  32.253  1.00  0.00     0.014 A 
ATOM     33  C   UNL A   1      33.802  33.646  32.875  1.00  0.00     0.014 A 
ATOM     34  C   UNL A   1      36.272  34.912  32.567  1.00  0.00     0.010 A 
ATOM     35  C   UNL A   1      34.976  32.988  33.250  1.00  0.00     0.010 A 
ATOM     36  C   UNL A   1      36.224  33.609  33.085  1.00  0.00    -0.014 A 
BRANCH  36  37
ATOM     37  C   UNL A   1      37.475  32.885  33.431  1.00  0.00     0.031 A 
ATOM     38  C   UNL A   1      38.192  33.175  34.721  1.00  0.00     0.074 A 
ATOM     39  C   UNL A   1      37.984  31.984  32.568  1.00  0.00     0.049 A 
ATOM     40  N   UNL A   1      39.302  32.657  35.187  1.00  0.00    -0.248 NA
ATOM     41  C   UNL A   1      37.597  34.198  35.593  1.00  0.00     0.031 C 
ATOM     42  C   UNL A   1      37.409  31.645  31.266  1.00  0.00     0.029 A 
ATOM     43  N   UNL A   1      39.100  31.190  32.656  1.00  0.00    -0.354 N 
ATOM     44  C   UNL A   1      39.543  33.300  36.395  1.00  0.00     0.074 A 
ATOM     45  C   UNL A   1      38.492  34.279  36.568  1.00  0.00     0.031 C 
ATOM     46  C   UNL A   1      38.163  30.699  30.686  1.00  0.00     0.029 A 
ATOM     47  C   UNL A   1      39.287  30.380  31.564  1.00  0.00     0.049 A 
ATOM     48  H   UNL A   1      39.709  31.200  33.431  1.00  0.00     0.167 HD
ATOM     49  C   UNL A   1      40.538  33.079  37.289  1.00  0.00     0.037 A 
ATOM     50  C   UNL A   1      40.253  29.480  31.300  1.00  0.00     0.037 A 
ATOM     51  C   UNL A   1      41.565  32.082  37.131  1.00  0.00     0.049 A 
ATOM     52  C   UNL A   1      41.331  29.235  32.320  1.00  0.00     0.074 A 
ATOM     53  C   UNL A   1      42.586  31.747  38.004  1.00  0.00     0.029 A 
ATOM     54  N   UNL A   1      41.701  31.258  36.024  1.00  0.00    -0.354 N 
ATOM     55  N   UNL A   1      41.510  29.804  33.487  1.00  0.00    -0.248 NA
ATOM     56  C   UNL A   1      42.331  28.209  31.993  1.00  0.00     0.031 C 
ATOM     57  C   UNL A   1      43.360  30.744  37.411  1.00  0.00     0.029 A 
ATOM     58  C   UNL A   1      42.795  30.422  36.188  1.00  0.00     0.049 A 
ATOM     59  H   UNL A   1      41.109  31.264  35.238  1.00  0.00     0.167 HD
ATOM     60  C   UNL A   1      42.622  29.186  34.045  1.00  0.00     0.074 A 
ATOM     61  C   UNL A   1      43.066  28.189  33.095  1.00  0.00     0.031 C 
ATOM     62  C   UNL A   1      43.218  29.425  35.239  1.00  0.00     0.037 A 
BRANCH  49  63
ATOM     63  C   UNL A   1      40.561  33.929  38.526  1.00  0.00     0.064 A 
ATOM     64  C   UNL A   1      41.306  35.117  38.586  1.00  0.00     0.173 A 
ATOM     65  C   UNL A   1      39.799  33.575  39.649  1.00  0.00     0.173 A 
ATOM     66  F   UNL A   1      42.060  35.495  37.544  1.00  0.00    -0.203 F 
ATOM     67  C   UNL A   1      41.309  35.903  39.736  1.00  0.00     0.198 A 
ATOM     68  C   UNL A   1      39.781  34.378  40.786  1.00  0.00     0.198 A 
ATOM     69  F   UNL A   1      39.064  32.453  39.641  1.00  0.00    -0.203 F 
ATOM     70  F   UNL A   1      42.065  37.009  39.788  1.00  0.00    -0.200 F 
ATOM     71  C   UNL A   1      40.541  35.537  40.831  1.00  0.00     0.200 A 
ATOM     72  F   UNL A   1      39.029  34.031  41.839  1.00  0.00    -0.200 F 
ATOM     73  F   UNL A   1      40.540  36.299  41.935  1.00  0.00    -0.200 F 
ENDBRANCH  49  63
BRANCH  50  74
ATOM     74  C   UNL A   1      40.221  28.712  30.028  1.00  0.00     0.064 A 
ATOM     75  C   UNL A   1      40.857  29.200  28.878  1.00  0.00     0.173 A 
ATOM     76  C   UNL A   1      39.556  27.482  29.935  1.00  0.00     0.173 A 
ATOM     77  F   UNL A   1      41.488  30.383  28.914  1.00  0.00    -0.203 F 
ATOM     78  C   UNL A   1      40.812  28.496  27.677  1.00  0.00     0.198 A 
ATOM     79  C   UNL A   1      39.535  26.765  28.740  1.00  0.00     0.198 A 
ATOM     80  F   UNL A   1      38.938  26.969  31.009  1.00  0.00    -0.203 F 
ATOM     81  F   UNL A   1      41.390  29.007  26.582  1.00  0.00    -0.200 F 
ATOM     82  C   UNL A   1      40.155  27.277  27.610  1.00  0.00     0.200 A 
ATOM     83  F   UNL A   1      38.912  25.581  28.683  1.00  0.00    -0.200 F 
ATOM     84  F   UNL A   1      40.116  26.598  26.456  1.00  0.00    -0.200 F 
ENDBRANCH  50  74
BRANCH  62  85
ATOM     85  C   UNL A   1      44.390  28.562  35.604  1.00  0.00     0.064 A 
ATOM     86  C   UNL A   1      45.703  28.918  35.262  1.00  0.00     0.173 A 
ATOM     87  C   UNL A   1      44.198  27.376  36.329  1.00  0.00     0.173 A 
ATOM     88  F   UNL A   1      45.937  30.034  34.557  1.00  0.00    -0.203 F 
ATOM     89  C   UNL A   1      46.778  28.103  35.607  1.00  0.00     0.198 A 
ATOM     90  C   UNL A   1      45.278  26.579  36.698  1.00  0.00     0.198 A 
ATOM     91  F   UNL A   1      42.963  26.994  36.688  1.00  0.00    -0.203 F 
ATOM     92  F   UNL A   1      48.019  28.437  35.225  1.00  0.00    -0.200 F 
ATOM     93  C   UNL A   1      46.565  26.937  36.329  1.00  0.00     0.200 A 
ATOM     94  F   UNL A   1      45.072  25.459  37.405  1.00  0.00    -0.200 F 
ATOM     95  F   UNL A   1      47.601  26.156  36.662  1.00  0.00    -0.200 F 
ENDBRANCH  62  85
ENDBRANCH  36  37
ENDBRANCH  28  31
ENDBRANCH  26  27
ENDBRANCH  25  26
ENDBRANCH  24  25
ENDBRANCH   1  24
TORSDOF 16
ENDMDL
