MODEL 1
REMARK VINA RESULT:     -12.7      0.000      0.000
REMARK SMILES Cc1cccc2nc(C(=O)N3CCC[C@@H](C(=O)NCCCCCCNC(=O)c4ccc(-c5c6nc(c(-c7c(F)c(F)c(F)c(F)c7F)c7ccc([nH]7)c(-c7c(F)c(F)c(F)c(F)c7F)c7nc(c(-c8c(F)c(F)c(F)c(F)c8F)c8ccc5[nH]8)C=C7)C=C6)cc4)C3)cn12
REMARK SMILES IDX 21 1 20 2 19 3 18 4 16 5 17 6 15 8 11 9 12 10 91 11 13 12
REMARK SMILES IDX 14 13 9 14 10 15 8 16 1 17 2 18 3 19 93 20 4 21 6 22 92 23
REMARK SMILES IDX 5 24 7 25 22 26 23 27 24 28 25 29 26 30 27 32 28 33 29 34
REMARK SMILES IDX 90 35 30 36 89 37 31 38 32 39 33 40 83 41 34 42 88 43 82 44
REMARK SMILES IDX 84 45 35 46 87 47 81 48 80 49 36 51 68 52 48 53 67 54 49 55
REMARK SMILES IDX 52 56 66 57 85 58 50 59 51 60 65 62 86 63 53 64 37 65 38 66
REMARK SMILES IDX 46 67 39 68 40 69 44 70 47 71 41 72 42 73 45 74 43 75 69 76
REMARK SMILES IDX 70 77 78 78 71 79 72 80 76 81 79 82 73 83 74 84 77 85 75 86
REMARK SMILES IDX 54 87 55 88 63 89 56 90 57 91 61 92 64 93 58 94 59 95 62 96
REMARK SMILES IDX 60 97
REMARK H PARENT 18 7 25 31 84 50 52 61
REMARK Flexibility Score: inf
ROOT
ATOM      1  C   UNL A   1      39.903  21.431  26.463  1.00  0.00     0.002 C 
ENDROOT
BRANCH   1   2
ATOM      2  C   UNL A   1      39.539  22.901  26.233  1.00  0.00     0.021 C 
BRANCH   2   3
ATOM      3  C   UNL A   1      38.038  23.146  26.078  1.00  0.00     0.116 C 
BRANCH   3   4
ATOM      4  N   UNL A   1      37.642  23.171  24.681  1.00  0.00    -0.356 N 
ATOM      5  C   UNL A   1      36.551  22.766  23.985  1.00  0.00     0.224 C 
ATOM      6  O   UNL A   1      36.642  22.904  22.758  1.00  0.00    -0.275 OA
ATOM      7  H   UNL A   1      38.328  23.576  24.103  1.00  0.00     0.163 HD
BRANCH   5   8
ATOM      8  C   UNL A   1      35.236  22.261  24.596  1.00  0.00     0.098 C 
ATOM      9  N   UNL A   1      32.785  22.242  24.121  1.00  0.00    -0.336 N 
ATOM     10  C   UNL A   1      32.712  20.801  24.146  1.00  0.00     0.120 C 
ATOM     11  C   UNL A   1      34.069  22.822  23.729  1.00  0.00     0.133 C 
ATOM     12  C   UNL A   1      33.695  20.270  25.160  1.00  0.00     0.022 C 
ATOM     13  C   UNL A   1      35.101  20.749  24.826  1.00  0.00     0.017 C 
BRANCH   9  14
ATOM     14  C   UNL A   1      31.830  22.957  24.830  1.00  0.00     0.274 C 
ATOM     15  O   UNL A   1      30.952  22.390  25.483  1.00  0.00    -0.267 OA
BRANCH  14  16
ATOM     16  C   UNL A   1      31.794  24.402  24.594  1.00  0.00     0.147 A 
ATOM     17  C   UNL A   1      32.933  27.974  26.835  1.00  0.00     0.065 C 
ATOM     18  C   UNL A   1      32.075  27.829  25.615  1.00  0.00     0.021 A 
ATOM     19  C   UNL A   1      31.430  28.875  25.055  1.00  0.00     0.022 A 
ATOM     20  N   UNL A   1      31.895  26.560  25.036  1.00  0.00    -0.304 N 
ATOM     21  C   UNL A   1      30.594  28.663  23.883  1.00  0.00     0.006 A 
ATOM     22  C   UNL A   1      31.086  26.320  23.927  1.00  0.00     0.137 A 
ATOM     23  C   UNL A   1      32.387  25.339  25.421  1.00  0.00     0.127 A 
ATOM     24  C   UNL A   1      30.433  27.441  23.344  1.00  0.00     0.048 A 
ATOM     25  N   UNL A   1      31.023  25.037  23.635  1.00  0.00    -0.223 NA
ENDBRANCH  14  16
ENDBRANCH   9  14
ENDBRANCH   5   8
ENDBRANCH   3   4
ENDBRANCH   2   3
ENDBRANCH   1   2
BRANCH   1  26
ATOM     26  C   UNL A   1      40.949  21.172  27.561  1.00  0.00     0.002 C 
BRANCH  26  27
ATOM     27  C   UNL A   1      41.970  20.060  27.276  1.00  0.00     0.021 C 
BRANCH  27  28
ATOM     28  C   UNL A   1      42.061  19.688  25.806  1.00  0.00     0.116 C 
BRANCH  28  29
ATOM     29  N   UNL A   1      43.446  19.605  25.359  1.00  0.00    -0.352 N 
ATOM     30  C   UNL A   1      44.327  20.621  25.069  1.00  0.00     0.251 C 
ATOM     31  H   UNL A   1      43.802  18.692  25.250  1.00  0.00     0.163 HD
ATOM     32  O   UNL A   1      45.314  20.409  24.380  1.00  0.00    -0.269 OA
BRANCH  30  33
ATOM     33  C   UNL A   1      44.072  21.972  25.598  1.00  0.00     0.039 A 
ATOM     34  C   UNL A   1      43.192  22.828  24.933  1.00  0.00     0.014 A 
ATOM     35  C   UNL A   1      44.754  22.399  26.739  1.00  0.00     0.014 A 
ATOM     36  C   UNL A   1      42.972  24.099  25.450  1.00  0.00     0.010 A 
ATOM     37  C   UNL A   1      44.442  23.603  27.323  1.00  0.00     0.010 A 
ATOM     38  C   UNL A   1      43.598  24.474  26.651  1.00  0.00    -0.014 A 
BRANCH  38  39
ATOM     39  C   UNL A   1      43.312  25.771  27.243  1.00  0.00     0.031 A 
ATOM     40  C   UNL A   1      44.254  26.849  26.851  1.00  0.00     0.074 A 
ATOM     41  C   UNL A   1      42.213  26.030  27.979  1.00  0.00     0.049 A 
ATOM     42  N   UNL A   1      45.145  27.412  27.595  1.00  0.00    -0.248 NA
ATOM     43  C   UNL A   1      44.301  27.260  25.441  1.00  0.00     0.031 C 
ATOM     44  C   UNL A   1      41.040  25.184  28.217  1.00  0.00     0.029 A 
ATOM     45  N   UNL A   1      41.893  27.180  28.632  1.00  0.00    -0.354 N 
ATOM     46  C   UNL A   1      45.759  28.377  26.803  1.00  0.00     0.074 A 
ATOM     47  C   UNL A   1      45.310  28.135  25.456  1.00  0.00     0.031 C 
ATOM     48  C   UNL A   1      40.058  25.919  28.788  1.00  0.00     0.029 A 
ATOM     49  C   UNL A   1      40.592  27.229  29.114  1.00  0.00     0.049 A 
ATOM     50  H   UNL A   1      42.532  27.918  28.753  1.00  0.00     0.167 HD
ATOM     51  C   UNL A   1      46.409  29.429  27.373  1.00  0.00     0.037 A 
ATOM     52  C   UNL A   1      40.005  28.281  29.731  1.00  0.00     0.037 A 
ATOM     53  C   UNL A   1      46.690  29.165  28.764  1.00  0.00     0.049 A 
ATOM     54  C   UNL A   1      41.094  29.129  30.273  1.00  0.00     0.074 A 
ATOM     55  C   UNL A   1      47.442  28.231  29.447  1.00  0.00     0.029 A 
ATOM     56  N   UNL A   1      45.845  29.714  29.695  1.00  0.00    -0.354 N 
ATOM     57  N   UNL A   1      41.886  28.763  31.241  1.00  0.00    -0.248 NA
ATOM     58  C   UNL A   1      41.581  30.219  29.443  1.00  0.00     0.031 C 
ATOM     59  C   UNL A   1      46.687  27.934  30.622  1.00  0.00     0.029 A 
ATOM     60  C   UNL A   1      45.552  28.745  30.618  1.00  0.00     0.049 A 
ATOM     61  H   UNL A   1      45.508  30.639  29.700  1.00  0.00     0.167 HD
ATOM     62  C   UNL A   1      43.129  29.260  30.885  1.00  0.00     0.074 A 
ATOM     63  C   UNL A   1      42.860  30.233  29.829  1.00  0.00     0.031 C 
ATOM     64  C   UNL A   1      44.274  28.634  31.284  1.00  0.00     0.037 A 
BRANCH  51  65
ATOM     65  C   UNL A   1      46.450  30.829  26.806  1.00  0.00     0.064 A 
ATOM     66  C   UNL A   1      47.670  31.537  26.830  1.00  0.00     0.173 A 
ATOM     67  C   UNL A   1      45.304  31.607  26.542  1.00  0.00     0.173 A 
ATOM     68  F   UNL A   1      48.826  30.903  27.078  1.00  0.00    -0.203 F 
ATOM     69  C   UNL A   1      47.721  32.927  26.701  1.00  0.00     0.198 A 
ATOM     70  C   UNL A   1      45.366  32.988  26.360  1.00  0.00     0.198 A 
ATOM     71  F   UNL A   1      44.069  31.093  26.560  1.00  0.00    -0.203 F 
ATOM     72  F   UNL A   1      48.886  33.569  26.871  1.00  0.00    -0.200 F 
ATOM     73  C   UNL A   1      46.567  33.653  26.477  1.00  0.00     0.200 A 
ATOM     74  F   UNL A   1      44.233  33.676  26.162  1.00  0.00    -0.200 F 
ATOM     75  F   UNL A   1      46.602  34.991  26.423  1.00  0.00    -0.200 F 
ENDBRANCH  51  65
BRANCH  52  76
ATOM     76  C   UNL A   1      38.614  28.775  29.599  1.00  0.00     0.064 A 
ATOM     77  C   UNL A   1      37.822  28.995  30.738  1.00  0.00     0.173 A 
ATOM     78  C   UNL A   1      38.152  29.341  28.395  1.00  0.00     0.173 A 
ATOM     79  F   UNL A   1      38.210  28.519  31.931  1.00  0.00    -0.203 F 
ATOM     80  C   UNL A   1      36.665  29.778  30.687  1.00  0.00     0.198 A 
ATOM     81  C   UNL A   1      36.994  30.118  28.345  1.00  0.00     0.198 A 
ATOM     82  F   UNL A   1      38.871  29.238  27.268  1.00  0.00    -0.203 F 
ATOM     83  F   UNL A   1      35.980  30.032  31.812  1.00  0.00    -0.200 F 
ATOM     84  C   UNL A   1      36.262  30.353  29.494  1.00  0.00     0.200 A 
ATOM     85  F   UNL A   1      36.634  30.700  27.192  1.00  0.00    -0.200 F 
ATOM     86  F   UNL A   1      35.197  31.167  29.459  1.00  0.00    -0.200 F 
ENDBRANCH  52  76
BRANCH  64  87
ATOM     87  C   UNL A   1      44.160  27.578  32.349  1.00  0.00     0.064 A 
ATOM     88  C   UNL A   1      44.088  26.197  32.092  1.00  0.00     0.173 A 
ATOM     89  C   UNL A   1      44.279  27.978  33.686  1.00  0.00     0.173 A 
ATOM     90  F   UNL A   1      44.060  25.727  30.839  1.00  0.00    -0.203 F 
ATOM     91  C   UNL A   1      44.105  25.267  33.131  1.00  0.00     0.198 A 
ATOM     92  C   UNL A   1      44.332  27.045  34.720  1.00  0.00     0.198 A 
ATOM     93  F   UNL A   1      44.398  29.280  33.990  1.00  0.00    -0.203 F 
ATOM     94  F   UNL A   1      44.029  23.955  32.861  1.00  0.00    -0.200 F 
ATOM     95  C   UNL A   1      44.238  25.691  34.442  1.00  0.00     0.200 A 
ATOM     96  F   UNL A   1      44.506  27.460  35.981  1.00  0.00    -0.200 F 
ATOM     97  F   UNL A   1      44.301  24.796  35.438  1.00  0.00    -0.200 F 
ENDBRANCH  64  87
ENDBRANCH  38  39
ENDBRANCH  30  33
ENDBRANCH  28  29
ENDBRANCH  27  28
ENDBRANCH  26  27
ENDBRANCH   1  26
TORSDOF 15
ENDMDL
MODEL 2
REMARK VINA RESULT:     -12.4      2.806      8.716
REMARK SMILES Cc1cccc2nc(C(=O)N3CCC[C@@H](C(=O)NCCCCCCNC(=O)c4ccc(-c5c6nc(c(-c7c(F)c(F)c(F)c(F)c7F)c7ccc([nH]7)c(-c7c(F)c(F)c(F)c(F)c7F)c7nc(c(-c8c(F)c(F)c(F)c(F)c8F)c8ccc5[nH]8)C=C7)C=C6)cc4)C3)cn12
REMARK SMILES IDX 21 1 20 2 19 3 18 4 16 5 17 6 15 8 11 9 12 10 91 11 13 12
REMARK SMILES IDX 14 13 9 14 10 15 8 16 1 17 2 18 3 19 93 20 4 21 6 22 92 23
REMARK SMILES IDX 5 24 7 25 22 26 23 27 24 28 25 29 26 30 27 32 28 33 29 34
REMARK SMILES IDX 90 35 30 36 89 37 31 38 32 39 33 40 83 41 34 42 88 43 82 44
REMARK SMILES IDX 84 45 35 46 87 47 81 48 80 49 36 51 68 52 48 53 67 54 49 55
REMARK SMILES IDX 52 56 66 57 85 58 50 59 51 60 65 62 86 63 53 64 37 65 38 66
REMARK SMILES IDX 46 67 39 68 40 69 44 70 47 71 41 72 42 73 45 74 43 75 69 76
REMARK SMILES IDX 70 77 78 78 71 79 72 80 76 81 79 82 73 83 74 84 77 85 75 86
REMARK SMILES IDX 54 87 55 88 63 89 56 90 57 91 61 92 64 93 58 94 59 95 62 96
REMARK SMILES IDX 60 97
REMARK H PARENT 18 7 25 31 84 50 52 61
REMARK Flexibility Score: inf
ROOT
ATOM      1  C   UNL A   1      32.545  29.385  25.030  1.00  0.00     0.002 C 
ENDROOT
BRANCH   1   2
ATOM      2  C   UNL A   1      33.509  28.968  23.915  1.00  0.00     0.021 C 
BRANCH   2   3
ATOM      3  C   UNL A   1      32.826  28.724  22.570  1.00  0.00     0.116 C 
BRANCH   3   4
ATOM      4  N   UNL A   1      33.231  27.459  21.986  1.00  0.00    -0.356 N 
ATOM      5  C   UNL A   1      33.069  26.154  22.316  1.00  0.00     0.224 C 
ATOM      6  O   UNL A   1      33.654  25.356  21.570  1.00  0.00    -0.275 OA
ATOM      7  H   UNL A   1      33.746  27.576  21.155  1.00  0.00     0.163 HD
BRANCH   5   8
ATOM      8  C   UNL A   1      32.173  25.619  23.442  1.00  0.00     0.098 C 
ATOM      9  N   UNL A   1      32.224  25.218  25.905  1.00  0.00    -0.336 N 
ATOM     10  C   UNL A   1      31.084  26.070  26.147  1.00  0.00     0.120 C 
ATOM     11  C   UNL A   1      33.039  25.538  24.735  1.00  0.00     0.133 C 
ATOM     12  C   UNL A   1      30.132  25.969  24.981  1.00  0.00     0.022 C 
ATOM     13  C   UNL A   1      30.844  26.348  23.690  1.00  0.00     0.017 C 
BRANCH   9  14
ATOM     14  C   UNL A   1      32.246  23.969  26.510  1.00  0.00     0.274 C 
ATOM     15  O   UNL A   1      31.356  23.610  27.283  1.00  0.00    -0.267 OA
BRANCH  14  16
ATOM     16  C   UNL A   1      33.475  23.189  26.344  1.00  0.00     0.147 A 
ATOM     17  C   UNL A   1      37.749  24.072  26.169  1.00  0.00     0.065 C 
ATOM     18  C   UNL A   1      36.999  22.834  25.782  1.00  0.00     0.021 A 
ATOM     19  C   UNL A   1      37.604  21.772  25.208  1.00  0.00     0.022 A 
ATOM     20  N   UNL A   1      35.609  22.769  25.984  1.00  0.00    -0.304 N 
ATOM     21  C   UNL A   1      36.815  20.607  24.836  1.00  0.00     0.006 A 
ATOM     22  C   UNL A   1      34.821  21.678  25.620  1.00  0.00     0.137 A 
ATOM     23  C   UNL A   1      34.749  23.706  26.496  1.00  0.00     0.127 A 
ATOM     24  C   UNL A   1      35.485  20.563  25.036  1.00  0.00     0.048 A 
ATOM     25  N   UNL A   1      33.542  21.901  25.841  1.00  0.00    -0.223 NA
ENDBRANCH  14  16
ENDBRANCH   9  14
ENDBRANCH   5   8
ENDBRANCH   3   4
ENDBRANCH   2   3
ENDBRANCH   1   2
BRANCH   1  26
ATOM     26  C   UNL A   1      33.090  29.248  26.462  1.00  0.00     0.002 C 
BRANCH  26  27
ATOM     27  C   UNL A   1      33.239  30.553  27.260  1.00  0.00     0.021 C 
BRANCH  27  28
ATOM     28  C   UNL A   1      34.655  31.104  27.255  1.00  0.00     0.116 C 
BRANCH  28  29
ATOM     29  N   UNL A   1      34.813  32.183  28.221  1.00  0.00    -0.352 N 
ATOM     30  C   UNL A   1      35.555  32.210  29.380  1.00  0.00     0.251 C 
ATOM     31  H   UNL A   1      34.319  33.011  28.016  1.00  0.00     0.163 HD
ATOM     32  O   UNL A   1      35.316  33.032  30.252  1.00  0.00    -0.269 OA
BRANCH  30  33
ATOM     33  C   UNL A   1      36.647  31.238  29.561  1.00  0.00     0.039 A 
ATOM     34  C   UNL A   1      36.354  29.909  29.876  1.00  0.00     0.014 A 
ATOM     35  C   UNL A   1      37.971  31.670  29.462  1.00  0.00     0.014 A 
ATOM     36  C   UNL A   1      37.402  29.013  30.047  1.00  0.00     0.010 A 
ATOM     37  C   UNL A   1      39.001  30.761  29.503  1.00  0.00     0.010 A 
ATOM     38  C   UNL A   1      38.723  29.449  29.851  1.00  0.00    -0.014 A 
BRANCH  38  39
ATOM     39  C   UNL A   1      39.821  28.501  29.948  1.00  0.00     0.031 A 
ATOM     40  C   UNL A   1      40.288  28.237  31.331  1.00  0.00     0.074 A 
ATOM     41  C   UNL A   1      40.301  27.804  28.899  1.00  0.00     0.049 A 
ATOM     42  N   UNL A   1      41.401  28.615  31.863  1.00  0.00    -0.248 NA
ATOM     43  C   UNL A   1      39.362  27.592  32.273  1.00  0.00     0.031 C 
ATOM     44  C   UNL A   1      39.776  27.711  27.534  1.00  0.00     0.029 A 
ATOM     45  N   UNL A   1      41.364  26.955  28.871  1.00  0.00    -0.354 N 
ATOM     46  C   UNL A   1      41.404  28.111  33.159  1.00  0.00     0.074 A 
ATOM     47  C   UNL A   1      40.070  27.627  33.405  1.00  0.00     0.031 C 
ATOM     48  C   UNL A   1      40.399  26.707  26.875  1.00  0.00     0.029 A 
ATOM     49  C   UNL A   1      41.479  26.209  27.707  1.00  0.00     0.049 A 
ATOM     50  H   UNL A   1      42.001  26.876  29.618  1.00  0.00     0.167 HD
ATOM     51  C   UNL A   1      42.575  27.938  33.832  1.00  0.00     0.037 A 
ATOM     52  C   UNL A   1      42.398  25.246  27.459  1.00  0.00     0.037 A 
ATOM     53  C   UNL A   1      43.641  28.684  33.207  1.00  0.00     0.049 A 
ATOM     54  C   UNL A   1      43.542  25.495  28.369  1.00  0.00     0.074 A 
ATOM     55  C   UNL A   1      43.885  30.022  32.970  1.00  0.00     0.029 A 
ATOM     56  N   UNL A   1      44.492  27.999  32.378  1.00  0.00    -0.354 N 
ATOM     57  N   UNL A   1      44.328  26.531  28.281  1.00  0.00    -0.248 NA
ATOM     58  C   UNL A   1      43.550  24.809  29.651  1.00  0.00     0.031 C 
ATOM     59  C   UNL A   1      44.513  30.063  31.689  1.00  0.00     0.029 A 
ATOM     60  C   UNL A   1      44.670  28.749  31.246  1.00  0.00     0.049 A 
ATOM     61  H   UNL A   1      44.903  27.123  32.563  1.00  0.00     0.167 HD
ATOM     62  C   UNL A   1      44.589  26.886  29.594  1.00  0.00     0.074 A 
ATOM     63  C   UNL A   1      44.174  25.732  30.388  1.00  0.00     0.031 C 
ATOM     64  C   UNL A   1      44.856  28.182  29.930  1.00  0.00     0.037 A 
BRANCH  51  65
ATOM     65  C   UNL A   1      42.857  26.814  34.802  1.00  0.00     0.064 A 
ATOM     66  C   UNL A   1      42.797  27.078  36.187  1.00  0.00     0.173 A 
ATOM     67  C   UNL A   1      43.481  25.600  34.444  1.00  0.00     0.173 A 
ATOM     68  F   UNL A   1      42.231  28.205  36.645  1.00  0.00    -0.203 F 
ATOM     69  C   UNL A   1      43.406  26.242  37.126  1.00  0.00     0.198 A 
ATOM     70  C   UNL A   1      44.041  24.743  35.390  1.00  0.00     0.198 A 
ATOM     71  F   UNL A   1      43.680  25.245  33.170  1.00  0.00    -0.203 F 
ATOM     72  F   UNL A   1      43.445  26.608  38.415  1.00  0.00    -0.200 F 
ATOM     73  C   UNL A   1      44.038  25.081  36.726  1.00  0.00     0.200 A 
ATOM     74  F   UNL A   1      44.665  23.629  34.980  1.00  0.00    -0.200 F 
ATOM     75  F   UNL A   1      44.683  24.315  37.614  1.00  0.00    -0.200 F 
ENDBRANCH  51  65
BRANCH  52  76
ATOM     76  C   UNL A   1      42.223  23.958  26.748  1.00  0.00     0.064 A 
ATOM     77  C   UNL A   1      43.204  23.494  25.857  1.00  0.00     0.173 A 
ATOM     78  C   UNL A   1      41.260  23.019  27.166  1.00  0.00     0.173 A 
ATOM     79  F   UNL A   1      44.177  24.316  25.437  1.00  0.00    -0.203 F 
ATOM     80  C   UNL A   1      43.253  22.157  25.450  1.00  0.00     0.198 A 
ATOM     81  C   UNL A   1      41.307  21.686  26.756  1.00  0.00     0.198 A 
ATOM     82  F   UNL A   1      40.321  23.351  28.063  1.00  0.00    -0.203 F 
ATOM     83  F   UNL A   1      44.253  21.734  24.663  1.00  0.00    -0.200 F 
ATOM     84  C   UNL A   1      42.314  21.250  25.914  1.00  0.00     0.200 A 
ATOM     85  F   UNL A   1      40.416  20.810  27.240  1.00  0.00    -0.200 F 
ATOM     86  F   UNL A   1      42.405  19.953  25.587  1.00  0.00    -0.200 F 
ENDBRANCH  52  76
BRANCH  64  87
ATOM     87  C   UNL A   1      45.146  29.148  28.814  1.00  0.00     0.064 A 
ATOM     88  C   UNL A   1      44.166  29.905  28.146  1.00  0.00     0.173 A 
ATOM     89  C   UNL A   1      46.486  29.425  28.517  1.00  0.00     0.173 A 
ATOM     90  F   UNL A   1      42.867  29.763  28.435  1.00  0.00    -0.203 F 
ATOM     91  C   UNL A   1      44.518  30.870  27.204  1.00  0.00     0.198 A 
ATOM     92  C   UNL A   1      46.836  30.416  27.602  1.00  0.00     0.198 A 
ATOM     93  F   UNL A   1      47.466  28.768  29.157  1.00  0.00    -0.203 F 
ATOM     94  F   UNL A   1      43.565  31.575  26.575  1.00  0.00    -0.200 F 
ATOM     95  C   UNL A   1      45.852  31.132  26.941  1.00  0.00     0.200 A 
ATOM     96  F   UNL A   1      48.127  30.695  27.386  1.00  0.00    -0.200 F 
ATOM     97  F   UNL A   1      46.192  32.092  26.070  1.00  0.00    -0.200 F 
ENDBRANCH  64  87
ENDBRANCH  38  39
ENDBRANCH  30  33
ENDBRANCH  28  29
ENDBRANCH  27  28
ENDBRANCH  26  27
ENDBRANCH   1  26
TORSDOF 15
ENDMDL
MODEL 3
REMARK VINA RESULT:     -12.4      2.477      3.795
REMARK SMILES Cc1cccc2nc(C(=O)N3CCC[C@@H](C(=O)NCCCCCCNC(=O)c4ccc(-c5c6nc(c(-c7c(F)c(F)c(F)c(F)c7F)c7ccc([nH]7)c(-c7c(F)c(F)c(F)c(F)c7F)c7nc(c(-c8c(F)c(F)c(F)c(F)c8F)c8ccc5[nH]8)C=C7)C=C6)cc4)C3)cn12
REMARK SMILES IDX 21 1 20 2 19 3 18 4 16 5 17 6 15 8 11 9 12 10 91 11 13 12
REMARK SMILES IDX 14 13 9 14 10 15 8 16 1 17 2 18 3 19 93 20 4 21 6 22 92 23
REMARK SMILES IDX 5 24 7 25 22 26 23 27 24 28 25 29 26 30 27 32 28 33 29 34
REMARK SMILES IDX 90 35 30 36 89 37 31 38 32 39 33 40 83 41 34 42 88 43 82 44
REMARK SMILES IDX 84 45 35 46 87 47 81 48 80 49 36 51 68 52 48 53 67 54 49 55
REMARK SMILES IDX 52 56 66 57 85 58 50 59 51 60 65 62 86 63 53 64 37 65 38 66
REMARK SMILES IDX 46 67 39 68 40 69 44 70 47 71 41 72 42 73 45 74 43 75 69 76
REMARK SMILES IDX 70 77 78 78 71 79 72 80 76 81 79 82 73 83 74 84 77 85 75 86
REMARK SMILES IDX 54 87 55 88 63 89 56 90 57 91 61 92 64 93 58 94 59 95 62 96
REMARK SMILES IDX 60 97
REMARK H PARENT 18 7 25 31 84 50 52 61
REMARK Flexibility Score: inf
ROOT
ATOM      1  C   UNL A   1      36.947  23.731  25.553  1.00  0.00     0.002 C 
ENDROOT
BRANCH   1   2
ATOM      2  C   UNL A   1      35.453  24.067  25.517  1.00  0.00     0.021 C 
BRANCH   2   3
ATOM      3  C   UNL A   1      34.544  22.851  25.702  1.00  0.00     0.116 C 
BRANCH   3   4
ATOM      4  N   UNL A   1      33.765  22.580  24.508  1.00  0.00    -0.356 N 
ATOM      5  C   UNL A   1      32.666  23.127  23.934  1.00  0.00     0.224 C 
ATOM      6  O   UNL A   1      32.261  22.534  22.925  1.00  0.00    -0.275 OA
ATOM      7  H   UNL A   1      34.118  21.818  23.994  1.00  0.00     0.163 HD
BRANCH   5   8
ATOM      8  C   UNL A   1      31.978  24.428  24.376  1.00  0.00     0.098 C 
ATOM      9  N   UNL A   1      30.676  26.329  23.416  1.00  0.00    -0.336 N 
ATOM     10  C   UNL A   1      29.538  26.083  24.269  1.00  0.00     0.120 C 
ATOM     11  C   UNL A   1      31.507  25.171  23.090  1.00  0.00     0.133 C 
ATOM     12  C   UNL A   1      30.019  25.571  25.605  1.00  0.00     0.022 C 
ATOM     13  C   UNL A   1      30.852  24.311  25.413  1.00  0.00     0.017 C 
BRANCH   9  14
ATOM     14  C   UNL A   1      31.136  27.633  23.301  1.00  0.00     0.274 C 
ATOM     15  O   UNL A   1      31.176  28.209  22.212  1.00  0.00    -0.267 OA
BRANCH  14  16
ATOM     16  C   UNL A   1      31.758  28.210  24.495  1.00  0.00     0.147 A 
ATOM     17  C   UNL A   1      31.462  31.986  26.671  1.00  0.00     0.065 C 
ATOM     18  C   UNL A   1      32.494  30.901  26.748  1.00  0.00     0.021 A 
ATOM     19  C   UNL A   1      33.599  31.007  27.517  1.00  0.00     0.022 A 
ATOM     20  N   UNL A   1      32.341  29.737  25.974  1.00  0.00    -0.304 N 
ATOM     21  C   UNL A   1      34.573  29.927  27.531  1.00  0.00     0.006 A 
ATOM     22  C   UNL A   1      33.266  28.694  25.949  1.00  0.00     0.137 A 
ATOM     23  C   UNL A   1      31.355  29.395  25.085  1.00  0.00     0.127 A 
ATOM     24  C   UNL A   1      34.412  28.821  26.783  1.00  0.00     0.048 A 
ATOM     25  N   UNL A   1      32.929  27.762  25.082  1.00  0.00    -0.223 NA
ENDBRANCH  14  16
ENDBRANCH   9  14
ENDBRANCH   5   8
ENDBRANCH   3   4
ENDBRANCH   2   3
ENDBRANCH   1   2
BRANCH   1  26
ATOM     26  C   UNL A   1      37.359  22.463  24.785  1.00  0.00     0.002 C 
BRANCH  26  27
ATOM     27  C   UNL A   1      38.353  21.531  25.496  1.00  0.00     0.021 C 
BRANCH  27  28
ATOM     28  C   UNL A   1      39.180  22.233  26.561  1.00  0.00     0.116 C 
BRANCH  28  29
ATOM     29  N   UNL A   1      40.604  21.974  26.389  1.00  0.00    -0.352 N 
ATOM     30  C   UNL A   1      41.651  22.866  26.358  1.00  0.00     0.251 C 
ATOM     31  H   UNL A   1      40.852  21.026  26.281  1.00  0.00     0.163 HD
ATOM     32  O   UNL A   1      42.722  22.549  25.862  1.00  0.00    -0.269 OA
BRANCH  30  33
ATOM     33  C   UNL A   1      41.472  24.211  26.931  1.00  0.00     0.039 A 
ATOM     34  C   UNL A   1      41.940  24.490  28.218  1.00  0.00     0.014 A 
ATOM     35  C   UNL A   1      40.792  25.183  26.195  1.00  0.00     0.014 A 
ATOM     36  C   UNL A   1      41.754  25.765  28.737  1.00  0.00     0.010 A 
ATOM     37  C   UNL A   1      40.722  26.477  26.654  1.00  0.00     0.010 A 
ATOM     38  C   UNL A   1      41.149  26.754  27.943  1.00  0.00    -0.014 A 
BRANCH  38  39
ATOM     39  C   UNL A   1      41.023  28.112  28.447  1.00  0.00     0.031 A 
ATOM     40  C   UNL A   1      42.087  29.040  27.993  1.00  0.00     0.074 A 
ATOM     41  C   UNL A   1      39.963  28.550  29.156  1.00  0.00     0.049 A 
ATOM     42  N   UNL A   1      43.041  29.539  28.705  1.00  0.00    -0.248 NA
ATOM     43  C   UNL A   1      42.184  29.350  26.560  1.00  0.00     0.031 C 
ATOM     44  C   UNL A   1      38.697  27.869  29.440  1.00  0.00     0.029 A 
ATOM     45  N   UNL A   1      39.785  29.770  29.731  1.00  0.00    -0.354 N 
ATOM     46  C   UNL A   1      43.766  30.369  27.857  1.00  0.00     0.074 A 
ATOM     47  C   UNL A   1      43.291  30.095  26.525  1.00  0.00     0.031 C 
ATOM     48  C   UNL A   1      37.811  28.752  29.955  1.00  0.00     0.029 A 
ATOM     49  C   UNL A   1      38.500  30.006  30.199  1.00  0.00     0.049 A 
ATOM     50  H   UNL A   1      40.509  30.432  29.808  1.00  0.00     0.167 HD
ATOM     51  C   UNL A   1      44.540  31.370  28.361  1.00  0.00     0.037 A 
ATOM     52  C   UNL A   1      38.044  31.160  30.741  1.00  0.00     0.037 A 
ATOM     53  C   UNL A   1      44.787  31.166  29.769  1.00  0.00     0.049 A 
ATOM     54  C   UNL A   1      39.228  31.904  31.235  1.00  0.00     0.074 A 
ATOM     55  C   UNL A   1      45.421  30.194  30.517  1.00  0.00     0.029 A 
ATOM     56  N   UNL A   1      44.014  31.873  30.656  1.00  0.00    -0.354 N 
ATOM     57  N   UNL A   1      39.971  31.510  32.231  1.00  0.00    -0.248 NA
ATOM     58  C   UNL A   1      39.843  32.871  30.340  1.00  0.00     0.031 C 
ATOM     59  C   UNL A   1      44.636  30.069  31.703  1.00  0.00     0.029 A 
ATOM     60  C   UNL A   1      43.607  31.009  31.638  1.00  0.00     0.049 A 
ATOM     61  H   UNL A   1      43.792  32.830  30.598  1.00  0.00     0.167 HD
ATOM     62  C   UNL A   1      41.264  31.829  31.852  1.00  0.00     0.074 A 
ATOM     63  C   UNL A   1      41.114  32.756  30.734  1.00  0.00     0.031 C 
ATOM     64  C   UNL A   1      42.326  31.096  32.300  1.00  0.00     0.037 A 
BRANCH  51  65
ATOM     65  C   UNL A   1      44.749  32.714  27.706  1.00  0.00     0.064 A 
ATOM     66  C   UNL A   1      45.949  32.949  27.001  1.00  0.00     0.173 A 
ATOM     67  C   UNL A   1      43.987  33.864  28.000  1.00  0.00     0.173 A 
ATOM     68  F   UNL A   1      46.759  31.932  26.671  1.00  0.00    -0.203 F 
ATOM     69  C   UNL A   1      46.395  34.240  26.709  1.00  0.00     0.198 A 
ATOM     70  C   UNL A   1      44.410  35.148  27.659  1.00  0.00     0.198 A 
ATOM     71  F   UNL A   1      42.864  33.812  28.725  1.00  0.00    -0.203 F 
ATOM     72  F   UNL A   1      47.608  34.417  26.165  1.00  0.00    -0.200 F 
ATOM     73  C   UNL A   1      45.631  35.339  27.049  1.00  0.00     0.200 A 
ATOM     74  F   UNL A   1      43.662  36.202  28.013  1.00  0.00    -0.200 F 
ATOM     75  F   UNL A   1      46.087  36.580  26.834  1.00  0.00    -0.200 F 
ENDBRANCH  51  65
BRANCH  52  76
ATOM     76  C   UNL A   1      36.724  31.809  30.567  1.00  0.00     0.064 A 
ATOM     77  C   UNL A   1      35.854  31.965  31.659  1.00  0.00     0.173 A 
ATOM     78  C   UNL A   1      36.428  32.565  29.417  1.00  0.00     0.173 A 
ATOM     79  F   UNL A   1      36.084  31.307  32.804  1.00  0.00    -0.203 F 
ATOM     80  C   UNL A   1      34.784  32.865  31.622  1.00  0.00     0.198 A 
ATOM     81  C   UNL A   1      35.357  33.459  29.379  1.00  0.00     0.198 A 
ATOM     82  F   UNL A   1      37.235  32.530  28.346  1.00  0.00    -0.203 F 
ATOM     83  F   UNL A   1      34.025  33.045  32.713  1.00  0.00    -0.200 F 
ATOM     84  C   UNL A   1      34.547  33.624  30.488  1.00  0.00     0.200 A 
ATOM     85  F   UNL A   1      35.160  34.215  28.290  1.00  0.00    -0.200 F 
ATOM     86  F   UNL A   1      33.570  34.542  30.479  1.00  0.00    -0.200 F 
ENDBRANCH  52  76
BRANCH  64  87
ATOM     87  C   UNL A   1      42.085  30.134  33.431  1.00  0.00     0.064 A 
ATOM     88  C   UNL A   1      41.728  28.784  33.261  1.00  0.00     0.173 A 
ATOM     89  C   UNL A   1      42.375  30.564  34.732  1.00  0.00     0.173 A 
ATOM     90  F   UNL A   1      41.519  28.273  32.042  1.00  0.00    -0.203 F 
ATOM     91  C   UNL A   1      41.637  27.918  34.350  1.00  0.00     0.198 A 
ATOM     92  C   UNL A   1      42.320  29.687  35.814  1.00  0.00     0.198 A 
ATOM     93  F   UNL A   1      42.767  31.829  34.950  1.00  0.00    -0.203 F 
ATOM     94  F   UNL A   1      41.289  26.636  34.163  1.00  0.00    -0.200 F 
ATOM     95  C   UNL A   1      41.944  28.368  35.623  1.00  0.00     0.200 A 
ATOM     96  F   UNL A   1      42.662  30.117  37.035  1.00  0.00    -0.200 F 
ATOM     97  F   UNL A   1      41.904  27.525  36.664  1.00  0.00    -0.200 F 
ENDBRANCH  64  87
ENDBRANCH  38  39
ENDBRANCH  30  33
ENDBRANCH  28  29
ENDBRANCH  27  28
ENDBRANCH  26  27
ENDBRANCH   1  26
TORSDOF 15
ENDMDL
