MODEL 1
REMARK VINA RESULT:     -11.0      0.000      0.000
REMARK SMILES [NH3+][C@]1(C(=O)NCCCCCCNC(=O)c2ccc(-c3c4nc(c(-c5c(F)c(F)c(F)c(F)c5F)c5ccc([nH]5)c(-c5c(F)c(F)c(F)c(F)c5F)c5nc(c(-c6c(F)c(F)c(F)c(F)c6F)c6ccc3[nH]6)C=C5)C=C4)cc2)CCC[C@H]1CC[NH+]1CCCCC1
REMARK SMILES IDX 8 1 7 2 6 3 5 4 3 5 4 6 2 8 78 9 81 10 79 11 80 12 1 13
REMARK SMILES IDX 82 17 83 18 84 19 85 20 89 21 86 23 88 24 87 25 9 26 10 27
REMARK SMILES IDX 11 28 12 29 13 30 14 32 15 33 16 34 77 35 17 36 76 37 18 38
REMARK SMILES IDX 19 39 20 40 70 41 21 42 75 43 69 44 71 45 22 46 74 47 68 48
REMARK SMILES IDX 67 49 23 51 55 52 35 53 54 54 36 55 39 56 53 57 72 58 37 59
REMARK SMILES IDX 38 60 52 62 73 63 40 64 24 65 25 66 33 67 26 68 27 69 31 70
REMARK SMILES IDX 34 71 28 72 29 73 32 74 30 75 56 76 57 77 65 78 58 79 59 80
REMARK SMILES IDX 63 81 66 82 60 83 61 84 64 85 62 86 41 87 42 88 50 89 43 90
REMARK SMILES IDX 44 91 48 92 51 93 45 94 46 95 49 96 47 97
REMARK H PARENT 5 7 1 14 1 15 1 16 84 22 12 31 71 50 39 61
REMARK Flexibility Score: inf
ROOT
ATOM      1  C   UNL A   1      34.465  32.605  29.226  1.00  0.00     0.002 C 
ENDROOT
BRANCH   1   2
ATOM      2  C   UNL A   1      34.536  31.524  28.144  1.00  0.00     0.021 C 
BRANCH   2   3
ATOM      3  C   UNL A   1      33.275  31.279  27.306  1.00  0.00     0.116 C 
BRANCH   3   4
ATOM      4  N   UNL A   1      32.579  30.046  27.624  1.00  0.00    -0.351 N 
ATOM      5  C   UNL A   1      32.652  28.796  27.079  1.00  0.00     0.281 C 
ATOM      6  O   UNL A   1      32.031  27.918  27.692  1.00  0.00    -0.268 OA
ATOM      7  H   UNL A   1      31.938  30.124  28.368  1.00  0.00     0.163 HD
BRANCH   5   8
ATOM      8  C   UNL A   1      33.382  28.458  25.745  1.00  0.00     0.177 C 
ATOM      9  C   UNL A   1      33.450  26.917  25.600  1.00  0.00     0.079 C 
ATOM     10  C   UNL A   1      32.656  28.907  24.425  1.00  0.00     0.066 C 
ATOM     11  C   UNL A   1      33.652  26.675  24.116  1.00  0.00     0.008 C 
ATOM     12  C   UNL A   1      32.688  27.664  23.489  1.00  0.00     0.011 C 
BRANCH   8  13
ATOM     13  N   UNL A   1      34.786  28.950  25.715  1.00  0.00    -0.345 N 
ATOM     14  H   UNL A   1      34.863  29.793  26.285  1.00  0.00     0.345 HD
ATOM     15  H   UNL A   1      35.051  29.164  24.754  1.00  0.00     0.345 HD
ATOM     16  H   UNL A   1      35.407  28.231  26.087  1.00  0.00     0.345 HD
ENDBRANCH   8  13
BRANCH  10  17
ATOM     17  C   UNL A   1      31.203  29.443  24.468  1.00  0.00     0.072 C 
BRANCH  17  18
ATOM     18  C   UNL A   1      30.155  28.912  23.470  1.00  0.00     0.262 C 
BRANCH  18  19
ATOM     19  N   UNL A   1      29.087  29.790  22.945  1.00  0.00    -0.335 N 
ATOM     20  C   UNL A   1      29.063  31.023  23.758  1.00  0.00     0.262 C 
ATOM     21  C   UNL A   1      29.181  30.080  21.516  1.00  0.00     0.262 C 
ATOM     22  H   UNL A   1      28.205  29.285  23.029  1.00  0.00     0.348 HD
ATOM     23  C   UNL A   1      28.018  32.041  23.305  1.00  0.00     0.062 C 
ATOM     24  C   UNL A   1      28.107  31.054  21.032  1.00  0.00     0.062 C 
ATOM     25  C   UNL A   1      28.159  32.351  21.822  1.00  0.00     0.012 C 
ENDBRANCH  18  19
ENDBRANCH  17  18
ENDBRANCH  10  17
ENDBRANCH   5   8
ENDBRANCH   3   4
ENDBRANCH   2   3
ENDBRANCH   1   2
BRANCH   1  26
ATOM     26  C   UNL A   1      34.537  34.053  28.742  1.00  0.00     0.002 C 
BRANCH  26  27
ATOM     27  C   UNL A   1      33.224  34.837  28.783  1.00  0.00     0.021 C 
BRANCH  27  28
ATOM     28  C   UNL A   1      33.271  36.185  29.499  1.00  0.00     0.116 C 
BRANCH  28  29
ATOM     29  N   UNL A   1      32.392  36.252  30.653  1.00  0.00    -0.352 N 
ATOM     30  C   UNL A   1      32.544  35.723  31.912  1.00  0.00     0.251 C 
ATOM     31  H   UNL A   1      31.558  36.754  30.512  1.00  0.00     0.163 HD
ATOM     32  O   UNL A   1      31.621  35.798  32.718  1.00  0.00    -0.269 OA
BRANCH  30  33
ATOM     33  C   UNL A   1      33.797  35.034  32.305  1.00  0.00     0.039 A 
ATOM     34  C   UNL A   1      33.705  33.761  32.880  1.00  0.00     0.014 A 
ATOM     35  C   UNL A   1      35.049  35.638  32.161  1.00  0.00     0.014 A 
ATOM     36  C   UNL A   1      34.863  33.078  33.260  1.00  0.00     0.010 A 
ATOM     37  C   UNL A   1      36.208  34.928  32.478  1.00  0.00     0.010 A 
ATOM     38  C   UNL A   1      36.128  33.645  33.038  1.00  0.00    -0.014 A 
BRANCH  38  39
ATOM     39  C   UNL A   1      37.366  32.907  33.400  1.00  0.00     0.031 A 
ATOM     40  C   UNL A   1      38.079  33.202  34.692  1.00  0.00     0.074 A 
ATOM     41  C   UNL A   1      37.876  31.999  32.547  1.00  0.00     0.049 A 
ATOM     42  N   UNL A   1      39.183  32.680  35.168  1.00  0.00    -0.248 NA
ATOM     43  C   UNL A   1      37.486  34.236  35.553  1.00  0.00     0.031 C 
ATOM     44  C   UNL A   1      37.310  31.657  31.242  1.00  0.00     0.029 A 
ATOM     45  N   UNL A   1      38.990  31.201  32.645  1.00  0.00    -0.354 N 
ATOM     46  C   UNL A   1      39.421  33.331  36.371  1.00  0.00     0.074 A 
ATOM     47  C   UNL A   1      38.377  34.320  36.531  1.00  0.00     0.031 C 
ATOM     48  C   UNL A   1      38.063  30.701  30.674  1.00  0.00     0.029 A 
ATOM     49  C   UNL A   1      39.180  30.383  31.558  1.00  0.00     0.049 A 
ATOM     50  H   UNL A   1      39.595  31.215  33.422  1.00  0.00     0.167 HD
ATOM     51  C   UNL A   1      40.407  33.108  37.274  1.00  0.00     0.037 A 
ATOM     52  C   UNL A   1      40.144  29.479  31.306  1.00  0.00     0.037 A 
ATOM     53  C   UNL A   1      41.429  32.105  37.130  1.00  0.00     0.049 A 
ATOM     54  C   UNL A   1      41.219  29.239  32.331  1.00  0.00     0.074 A 
ATOM     55  C   UNL A   1      42.438  31.765  38.016  1.00  0.00     0.029 A 
ATOM     56  N   UNL A   1      41.573  31.279  36.025  1.00  0.00    -0.354 N 
ATOM     57  N   UNL A   1      41.394  29.812  33.495  1.00  0.00    -0.248 NA
ATOM     58  C   UNL A   1      42.226  28.218  32.008  1.00  0.00     0.031 C 
ATOM     59  C   UNL A   1      43.214  30.759  37.431  1.00  0.00     0.029 A 
ATOM     60  C   UNL A   1      42.663  30.440  36.200  1.00  0.00     0.049 A 
ATOM     61  H   UNL A   1      40.988  31.286  35.234  1.00  0.00     0.167 HD
ATOM     62  C   UNL A   1      42.506  29.202  34.059  1.00  0.00     0.074 A 
ATOM     63  C   UNL A   1      42.961  28.205  33.112  1.00  0.00     0.031 C 
ATOM     64  C   UNL A   1      43.095  29.444  35.255  1.00  0.00     0.037 A 
BRANCH  51  65
ATOM     65  C   UNL A   1      40.423  33.964  38.507  1.00  0.00     0.064 A 
ATOM     66  C   UNL A   1      41.135  35.173  38.553  1.00  0.00     0.173 A 
ATOM     67  C   UNL A   1      39.690  33.592  39.644  1.00  0.00     0.173 A 
ATOM     68  F   UNL A   1      41.861  35.569  37.496  1.00  0.00    -0.203 F 
ATOM     69  C   UNL A   1      41.138  35.961  39.701  1.00  0.00     0.198 A 
ATOM     70  C   UNL A   1      39.671  34.397  40.780  1.00  0.00     0.198 A 
ATOM     71  F   UNL A   1      38.985  32.451  39.651  1.00  0.00    -0.203 F 
ATOM     72  F   UNL A   1      41.866  37.085  39.738  1.00  0.00    -0.200 F 
ATOM     73  C   UNL A   1      40.401  35.575  40.811  1.00  0.00     0.200 A 
ATOM     74  F   UNL A   1      38.948  34.031  41.847  1.00  0.00    -0.200 F 
ATOM     75  F   UNL A   1      40.400  36.338  41.914  1.00  0.00    -0.200 F 
ENDBRANCH  51  65
BRANCH  52  76
ATOM     76  C   UNL A   1      40.111  28.697  30.041  1.00  0.00     0.064 A 
ATOM     77  C   UNL A   1      40.720  29.189  28.879  1.00  0.00     0.173 A 
ATOM     78  C   UNL A   1      39.476  27.450  29.971  1.00  0.00     0.173 A 
ATOM     79  F   UNL A   1      41.322  30.387  28.894  1.00  0.00    -0.203 F 
ATOM     80  C   UNL A   1      40.681  28.468  27.687  1.00  0.00     0.198 A 
ATOM     81  C   UNL A   1      39.460  26.718  28.785  1.00  0.00     0.198 A 
ATOM     82  F   UNL A   1      38.883  26.935  31.057  1.00  0.00    -0.203 F 
ATOM     83  F   UNL A   1      41.235  28.979  26.579  1.00  0.00    -0.200 F 
ATOM     84  C   UNL A   1      40.056  27.231  27.642  1.00  0.00     0.200 A 
ATOM     85  F   UNL A   1      38.866  25.517  28.748  1.00  0.00    -0.200 F 
ATOM     86  F   UNL A   1      40.022  26.536  26.497  1.00  0.00    -0.200 F 
ENDBRANCH  52  76
BRANCH  64  87
ATOM     87  C   UNL A   1      44.272  28.590  35.628  1.00  0.00     0.064 A 
ATOM     88  C   UNL A   1      44.114  27.376  36.311  1.00  0.00     0.173 A 
ATOM     89  C   UNL A   1      45.571  28.974  35.259  1.00  0.00     0.173 A 
ATOM     90  F   UNL A   1      42.895  26.973  36.698  1.00  0.00    -0.203 F 
ATOM     91  C   UNL A   1      45.217  26.589  36.633  1.00  0.00     0.198 A 
ATOM     92  C   UNL A   1      46.667  28.172  35.558  1.00  0.00     0.198 A 
ATOM     93  F   UNL A   1      45.774  30.123  34.598  1.00  0.00    -0.203 F 
ATOM     94  F   UNL A   1      45.048  25.454  37.327  1.00  0.00    -0.200 F 
ATOM     95  C   UNL A   1      46.491  26.984  36.251  1.00  0.00     0.200 A 
ATOM     96  F   UNL A   1      47.896  28.549  35.179  1.00  0.00    -0.200 F 
ATOM     97  F   UNL A   1      47.550  26.221  36.557  1.00  0.00    -0.200 F 
ENDBRANCH  64  87
ENDBRANCH  38  39
ENDBRANCH  30  33
ENDBRANCH  28  29
ENDBRANCH  27  28
ENDBRANCH  26  27
ENDBRANCH   1  26
TORSDOF 17
ENDMDL
MODEL 2
REMARK VINA RESULT:     -11.0      0.126      2.020
REMARK SMILES [NH3+][C@]1(C(=O)NCCCCCCNC(=O)c2ccc(-c3c4nc(c(-c5c(F)c(F)c(F)c(F)c5F)c5ccc([nH]5)c(-c5c(F)c(F)c(F)c(F)c5F)c5nc(c(-c6c(F)c(F)c(F)c(F)c6F)c6ccc3[nH]6)C=C5)C=C4)cc2)CCC[C@H]1CC[NH+]1CCCCC1
REMARK SMILES IDX 8 1 7 2 6 3 5 4 3 5 4 6 2 8 78 9 81 10 79 11 80 12 1 13
REMARK SMILES IDX 82 17 83 18 84 19 85 20 89 21 86 23 88 24 87 25 9 26 10 27
REMARK SMILES IDX 11 28 12 29 13 30 14 32 15 33 16 34 77 35 17 36 76 37 18 38
REMARK SMILES IDX 19 39 20 40 70 41 21 42 75 43 69 44 71 45 22 46 74 47 68 48
REMARK SMILES IDX 67 49 23 51 55 52 35 53 54 54 36 55 39 56 53 57 72 58 37 59
REMARK SMILES IDX 38 60 52 62 73 63 40 64 24 65 25 66 33 67 26 68 27 69 31 70
REMARK SMILES IDX 34 71 28 72 29 73 32 74 30 75 56 76 57 77 65 78 58 79 59 80
REMARK SMILES IDX 63 81 66 82 60 83 61 84 64 85 62 86 41 87 42 88 50 89 43 90
REMARK SMILES IDX 44 91 48 92 51 93 45 94 46 95 49 96 47 97
REMARK H PARENT 5 7 1 14 1 15 1 16 84 22 12 31 71 50 39 61
REMARK Flexibility Score: inf
ROOT
ATOM      1  C   UNL A   1      34.510  32.603  29.228  1.00  0.00     0.002 C 
ENDROOT
BRANCH   1   2
ATOM      2  C   UNL A   1      34.579  31.567  28.102  1.00  0.00     0.021 C 
BRANCH   2   3
ATOM      3  C   UNL A   1      33.304  31.323  27.287  1.00  0.00     0.116 C 
BRANCH   3   4
ATOM      4  N   UNL A   1      32.606  30.097  27.626  1.00  0.00    -0.351 N 
ATOM      5  C   UNL A   1      32.685  28.835  27.111  1.00  0.00     0.281 C 
ATOM      6  O   UNL A   1      32.059  27.970  27.739  1.00  0.00    -0.268 OA
ATOM      7  H   UNL A   1      31.957  30.192  28.362  1.00  0.00     0.163 HD
BRANCH   5   8
ATOM      8  C   UNL A   1      33.430  28.467  25.793  1.00  0.00     0.177 C 
ATOM      9  C   UNL A   1      33.489  26.923  25.678  1.00  0.00     0.079 C 
ATOM     10  C   UNL A   1      32.723  28.896  24.456  1.00  0.00     0.066 C 
ATOM     11  C   UNL A   1      33.708  26.652  24.201  1.00  0.00     0.008 C 
ATOM     12  C   UNL A   1      32.757  27.635  23.544  1.00  0.00     0.011 C 
BRANCH   8  13
ATOM     13  N   UNL A   1      34.837  28.950  25.771  1.00  0.00    -0.345 N 
ATOM     14  H   UNL A   1      35.395  28.403  26.427  1.00  0.00     0.345 HD
ATOM     15  H   UNL A   1      34.863  29.933  26.039  1.00  0.00     0.345 HD
ATOM     16  H   UNL A   1      35.218  28.844  24.830  1.00  0.00     0.345 HD
ENDBRANCH   8  13
BRANCH  10  17
ATOM     17  C   UNL A   1      31.272  29.441  24.471  1.00  0.00     0.072 C 
BRANCH  17  18
ATOM     18  C   UNL A   1      30.242  28.922  23.449  1.00  0.00     0.262 C 
BRANCH  18  19
ATOM     19  N   UNL A   1      29.166  29.798  22.937  1.00  0.00    -0.335 N 
ATOM     20  C   UNL A   1      29.132  31.020  23.767  1.00  0.00     0.262 C 
ATOM     21  C   UNL A   1      29.256  30.109  21.513  1.00  0.00     0.262 C 
ATOM     22  H   UNL A   1      28.289  29.285  23.015  1.00  0.00     0.348 HD
ATOM     23  C   UNL A   1      28.079  32.035  23.329  1.00  0.00     0.062 C 
ATOM     24  C   UNL A   1      28.173  31.081  21.043  1.00  0.00     0.062 C 
ATOM     25  C   UNL A   1      28.215  32.366  21.851  1.00  0.00     0.012 C 
ENDBRANCH  18  19
ENDBRANCH  17  18
ENDBRANCH  10  17
ENDBRANCH   5   8
ENDBRANCH   3   4
ENDBRANCH   2   3
ENDBRANCH   1   2
BRANCH   1  26
ATOM     26  C   UNL A   1      34.481  34.069  28.798  1.00  0.00     0.002 C 
BRANCH  26  27
ATOM     27  C   UNL A   1      33.145  34.791  28.977  1.00  0.00     0.021 C 
BRANCH  27  28
ATOM     28  C   UNL A   1      33.212  36.177  29.615  1.00  0.00     0.116 C 
BRANCH  28  29
ATOM     29  N   UNL A   1      32.408  36.294  30.819  1.00  0.00    -0.352 N 
ATOM     30  C   UNL A   1      32.596  35.745  32.064  1.00  0.00     0.251 C 
ATOM     31  H   UNL A   1      31.603  36.852  30.730  1.00  0.00     0.163 HD
ATOM     32  O   UNL A   1      31.729  35.876  32.923  1.00  0.00    -0.269 OA
BRANCH  30  33
ATOM     33  C   UNL A   1      33.820  34.970  32.381  1.00  0.00     0.039 A 
ATOM     34  C   UNL A   1      35.063  35.597  32.226  1.00  0.00     0.014 A 
ATOM     35  C   UNL A   1      33.766  33.633  32.782  1.00  0.00     0.014 A 
ATOM     36  C   UNL A   1      36.239  34.902  32.519  1.00  0.00     0.010 A 
ATOM     37  C   UNL A   1      34.937  32.961  33.138  1.00  0.00     0.010 A 
ATOM     38  C   UNL A   1      36.186  33.585  33.003  1.00  0.00    -0.014 A 
BRANCH  38  39
ATOM     39  C   UNL A   1      37.430  32.853  33.357  1.00  0.00     0.031 A 
ATOM     40  C   UNL A   1      38.153  33.156  34.640  1.00  0.00     0.074 A 
ATOM     41  C   UNL A   1      37.935  31.943  32.502  1.00  0.00     0.049 A 
ATOM     42  N   UNL A   1      39.263  32.639  35.109  1.00  0.00    -0.248 NA
ATOM     43  C   UNL A   1      37.565  34.192  35.502  1.00  0.00     0.031 C 
ATOM     44  C   UNL A   1      37.358  31.593  31.204  1.00  0.00     0.029 A 
ATOM     45  N   UNL A   1      39.052  31.149  32.594  1.00  0.00    -0.354 N 
ATOM     46  C   UNL A   1      39.510  33.296  36.307  1.00  0.00     0.074 A 
ATOM     47  C   UNL A   1      38.464  34.283  36.472  1.00  0.00     0.031 C 
ATOM     48  C   UNL A   1      38.109  30.638  30.633  1.00  0.00     0.029 A 
ATOM     49  C   UNL A   1      39.235  30.327  31.509  1.00  0.00     0.049 A 
ATOM     50  H   UNL A   1      39.664  31.168  33.365  1.00  0.00     0.167 HD
ATOM     51  C   UNL A   1      40.504  33.080  37.202  1.00  0.00     0.037 A 
ATOM     52  C   UNL A   1      40.199  29.424  31.251  1.00  0.00     0.037 A 
ATOM     53  C   UNL A   1      41.528  32.079  37.053  1.00  0.00     0.049 A 
ATOM     54  C   UNL A   1      41.284  29.193  32.268  1.00  0.00     0.074 A 
ATOM     55  C   UNL A   1      42.546  31.746  37.931  1.00  0.00     0.029 A 
ATOM     56  N   UNL A   1      41.665  31.249  35.950  1.00  0.00    -0.354 N 
ATOM     57  N   UNL A   1      41.468  29.771  33.428  1.00  0.00    -0.248 NA
ATOM     58  C   UNL A   1      42.291  28.173  31.940  1.00  0.00     0.031 C 
ATOM     59  C   UNL A   1      43.320  30.740  37.343  1.00  0.00     0.029 A 
ATOM     60  C   UNL A   1      42.759  30.414  36.119  1.00  0.00     0.049 A 
ATOM     61  H   UNL A   1      41.072  31.251  35.164  1.00  0.00     0.167 HD
ATOM     62  C   UNL A   1      42.586  29.166  33.985  1.00  0.00     0.074 A 
ATOM     63  C   UNL A   1      43.036  28.167  33.037  1.00  0.00     0.031 C 
ATOM     64  C   UNL A   1      43.186  29.415  35.174  1.00  0.00     0.037 A 
BRANCH  51  65
ATOM     65  C   UNL A   1      40.529  33.941  38.431  1.00  0.00     0.064 A 
ATOM     66  C   UNL A   1      39.809  33.596  39.585  1.00  0.00     0.173 A 
ATOM     67  C   UNL A   1      41.310  35.107  38.470  1.00  0.00     0.173 A 
ATOM     68  F   UNL A   1      39.039  32.497  39.596  1.00  0.00    -0.203 F 
ATOM     69  C   UNL A   1      39.844  34.401  40.721  1.00  0.00     0.198 A 
ATOM     70  C   UNL A   1      41.366  35.893  39.618  1.00  0.00     0.198 A 
ATOM     71  F   UNL A   1      42.024  35.478  37.398  1.00  0.00    -0.203 F 
ATOM     72  F   UNL A   1      39.108  34.076  41.793  1.00  0.00    -0.200 F 
ATOM     73  C   UNL A   1      40.627  35.545  40.738  1.00  0.00     0.200 A 
ATOM     74  F   UNL A   1      42.134  36.991  39.638  1.00  0.00    -0.200 F 
ATOM     75  F   UNL A   1      40.665  36.316  41.834  1.00  0.00    -0.200 F 
ENDBRANCH  51  65
BRANCH  52  76
ATOM     76  C   UNL A   1      40.157  28.637  29.991  1.00  0.00     0.064 A 
ATOM     77  C   UNL A   1      39.502  27.399  29.940  1.00  0.00     0.173 A 
ATOM     78  C   UNL A   1      40.765  29.105  28.818  1.00  0.00     0.173 A 
ATOM     79  F   UNL A   1      38.924  26.902  31.043  1.00  0.00    -0.203 F 
ATOM     80  C   UNL A   1      39.472  26.650  28.766  1.00  0.00     0.198 A 
ATOM     81  C   UNL A   1      40.711  28.367  27.637  1.00  0.00     0.198 A 
ATOM     82  F   UNL A   1      41.400  30.286  28.815  1.00  0.00    -0.203 F 
ATOM     83  F   UNL A   1      38.874  25.451  28.754  1.00  0.00    -0.200 F 
ATOM     84  C   UNL A   1      40.071  27.137  27.614  1.00  0.00     0.200 A 
ATOM     85  F   UNL A   1      41.280  28.846  26.523  1.00  0.00    -0.200 F 
ATOM     86  F   UNL A   1      40.037  26.418  26.484  1.00  0.00    -0.200 F 
ENDBRANCH  52  76
BRANCH  64  87
ATOM     87  C   UNL A   1      44.369  28.566  35.540  1.00  0.00     0.064 A 
ATOM     88  C   UNL A   1      45.677  28.943  35.205  1.00  0.00     0.173 A 
ATOM     89  C   UNL A   1      44.191  27.382  36.271  1.00  0.00     0.173 A 
ATOM     90  F   UNL A   1      45.897  30.059  34.493  1.00  0.00    -0.203 F 
ATOM     91  C   UNL A   1      46.763  28.151  35.567  1.00  0.00     0.198 A 
ATOM     92  C   UNL A   1      45.281  26.607  36.656  1.00  0.00     0.198 A 
ATOM     93  F   UNL A   1      42.960  26.982  36.622  1.00  0.00    -0.203 F 
ATOM     94  F   UNL A   1      48.002  28.506  35.198  1.00  0.00    -0.200 F 
ATOM     95  C   UNL A   1      46.565  26.988  36.298  1.00  0.00     0.200 A 
ATOM     96  F   UNL A   1      45.089  25.490  37.371  1.00  0.00    -0.200 F 
ATOM     97  F   UNL A   1      47.613  26.231  36.651  1.00  0.00    -0.200 F 
ENDBRANCH  64  87
ENDBRANCH  38  39
ENDBRANCH  30  33
ENDBRANCH  28  29
ENDBRANCH  27  28
ENDBRANCH  26  27
ENDBRANCH   1  26
TORSDOF 17
ENDMDL
MODEL 3
REMARK VINA RESULT:     -10.9      2.196      4.354
REMARK SMILES [NH3+][C@]1(C(=O)NCCCCCCNC(=O)c2ccc(-c3c4nc(c(-c5c(F)c(F)c(F)c(F)c5F)c5ccc([nH]5)c(-c5c(F)c(F)c(F)c(F)c5F)c5nc(c(-c6c(F)c(F)c(F)c(F)c6F)c6ccc3[nH]6)C=C5)C=C4)cc2)CCC[C@H]1CC[NH+]1CCCCC1
REMARK SMILES IDX 8 1 7 2 6 3 5 4 3 5 4 6 2 8 78 9 81 10 79 11 80 12 1 13
REMARK SMILES IDX 82 17 83 18 84 19 85 20 89 21 86 23 88 24 87 25 9 26 10 27
REMARK SMILES IDX 11 28 12 29 13 30 14 32 15 33 16 34 77 35 17 36 76 37 18 38
REMARK SMILES IDX 19 39 20 40 70 41 21 42 75 43 69 44 71 45 22 46 74 47 68 48
REMARK SMILES IDX 67 49 23 51 55 52 35 53 54 54 36 55 39 56 53 57 72 58 37 59
REMARK SMILES IDX 38 60 52 62 73 63 40 64 24 65 25 66 33 67 26 68 27 69 31 70
REMARK SMILES IDX 34 71 28 72 29 73 32 74 30 75 56 76 57 77 65 78 58 79 59 80
REMARK SMILES IDX 63 81 66 82 60 83 61 84 64 85 62 86 41 87 42 88 50 89 43 90
REMARK SMILES IDX 44 91 48 92 51 93 45 94 46 95 49 96 47 97
REMARK H PARENT 5 7 1 14 1 15 1 16 84 22 12 31 71 50 39 61
REMARK Flexibility Score: inf
ROOT
ATOM      1  C   UNL A   1      31.778  29.191  27.139  1.00  0.00     0.002 C 
ENDROOT
BRANCH   1   2
ATOM      2  C   UNL A   1      32.905  28.191  26.865  1.00  0.00     0.021 C 
BRANCH   2   3
ATOM      3  C   UNL A   1      32.530  26.873  26.177  1.00  0.00     0.116 C 
BRANCH   3   4
ATOM      4  N   UNL A   1      31.274  26.303  26.627  1.00  0.00    -0.351 N 
ATOM      5  C   UNL A   1      30.208  25.798  25.939  1.00  0.00     0.281 C 
ATOM      6  O   UNL A   1      29.349  25.239  26.635  1.00  0.00    -0.268 OA
ATOM      7  H   UNL A   1      31.171  26.275  27.606  1.00  0.00     0.163 HD
BRANCH   5   8
ATOM      8  C   UNL A   1      29.999  25.952  24.403  1.00  0.00     0.177 C 
ATOM      9  C   UNL A   1      30.700  27.255  23.940  1.00  0.00     0.079 C 
ATOM     10  C   UNL A   1      30.665  24.851  23.500  1.00  0.00     0.066 C 
ATOM     11  C   UNL A   1      30.928  27.065  22.452  1.00  0.00     0.008 C 
ATOM     12  C   UNL A   1      31.409  25.629  22.375  1.00  0.00     0.011 C 
BRANCH   8  13
ATOM     13  N   UNL A   1      28.566  26.083  24.025  1.00  0.00    -0.345 N 
ATOM     14  H   UNL A   1      27.984  25.664  24.751  1.00  0.00     0.345 HD
ATOM     15  H   UNL A   1      28.402  25.605  23.140  1.00  0.00     0.345 HD
ATOM     16  H   UNL A   1      28.329  27.071  23.929  1.00  0.00     0.345 HD
ENDBRANCH   8  13
BRANCH  10  17
ATOM     17  C   UNL A   1      31.651  23.823  24.108  1.00  0.00     0.072 C 
BRANCH  17  18
ATOM     18  C   UNL A   1      32.979  23.509  23.392  1.00  0.00     0.262 C 
BRANCH  18  19
ATOM     19  N   UNL A   1      34.168  23.060  24.149  1.00  0.00    -0.335 N 
ATOM     20  C   UNL A   1      35.339  23.133  23.253  1.00  0.00     0.262 C 
ATOM     21  C   UNL A   1      34.397  23.770  25.405  1.00  0.00     0.262 C 
ATOM     22  H   UNL A   1      33.999  22.099  24.445  1.00  0.00     0.348 HD
ATOM     23  C   UNL A   1      36.652  22.723  23.917  1.00  0.00     0.062 C 
ATOM     24  C   UNL A   1      35.678  23.333  26.115  1.00  0.00     0.062 C 
ATOM     25  C   UNL A   1      36.883  23.500  25.205  1.00  0.00     0.012 C 
ENDBRANCH  18  19
ENDBRANCH  17  18
ENDBRANCH  10  17
ENDBRANCH   5   8
ENDBRANCH   3   4
ENDBRANCH   2   3
ENDBRANCH   1   2
BRANCH   1  26
ATOM     26  C   UNL A   1      31.512  30.226  26.046  1.00  0.00     0.002 C 
BRANCH  26  27
ATOM     27  C   UNL A   1      31.398  31.677  26.515  1.00  0.00     0.021 C 
BRANCH  27  28
ATOM     28  C   UNL A   1      32.712  32.375  26.859  1.00  0.00     0.116 C 
BRANCH  28  29
ATOM     29  N   UNL A   1      32.529  33.713  27.393  1.00  0.00    -0.352 N 
ATOM     30  C   UNL A   1      33.206  34.366  28.394  1.00  0.00     0.251 C 
ATOM     31  H   UNL A   1      31.807  34.234  26.973  1.00  0.00     0.163 HD
ATOM     32  O   UNL A   1      32.815  35.466  28.775  1.00  0.00    -0.269 OA
BRANCH  30  33
ATOM     33  C   UNL A   1      34.388  33.751  29.044  1.00  0.00     0.039 A 
ATOM     34  C   UNL A   1      34.178  32.717  29.964  1.00  0.00     0.014 A 
ATOM     35  C   UNL A   1      35.687  34.203  28.798  1.00  0.00     0.014 A 
ATOM     36  C   UNL A   1      35.267  32.108  30.595  1.00  0.00     0.010 A 
ATOM     37  C   UNL A   1      36.777  33.550  29.376  1.00  0.00     0.010 A 
ATOM     38  C   UNL A   1      36.579  32.502  30.287  1.00  0.00    -0.014 A 
BRANCH  38  39
ATOM     39  C   UNL A   1      37.743  31.831  30.920  1.00  0.00     0.031 A 
ATOM     40  C   UNL A   1      38.178  32.210  32.309  1.00  0.00     0.074 A 
ATOM     41  C   UNL A   1      38.439  30.908  30.230  1.00  0.00     0.049 A 
ATOM     42  N   UNL A   1      39.182  31.754  33.018  1.00  0.00    -0.248 NA
ATOM     43  C   UNL A   1      37.396  33.256  32.985  1.00  0.00     0.031 C 
ATOM     44  C   UNL A   1      38.152  30.486  28.859  1.00  0.00     0.029 A 
ATOM     45  N   UNL A   1      39.535  30.160  30.584  1.00  0.00    -0.354 N 
ATOM     46  C   UNL A   1      39.159  32.466  34.210  1.00  0.00     0.074 A 
ATOM     47  C   UNL A   1      38.074  33.418  34.112  1.00  0.00     0.031 C 
ATOM     48  C   UNL A   1      39.031  29.537  28.497  1.00  0.00     0.029 A 
ATOM     49  C   UNL A   1      39.960  29.303  29.598  1.00  0.00     0.049 A 
ATOM     50  H   UNL A   1      39.975  30.231  31.462  1.00  0.00     0.167 HD
ATOM     51  C   UNL A   1      39.954  32.322  35.298  1.00  0.00     0.037 A 
ATOM     52  C   UNL A   1      40.983  28.428  29.585  1.00  0.00     0.037 A 
ATOM     53  C   UNL A   1      41.015  31.355  35.407  1.00  0.00     0.049 A 
ATOM     54  C   UNL A   1      41.842  28.276  30.810  1.00  0.00     0.074 A 
ATOM     55  C   UNL A   1      41.839  31.094  36.489  1.00  0.00     0.029 A 
ATOM     56  N   UNL A   1      41.399  30.488  34.395  1.00  0.00    -0.354 N 
ATOM     57  N   UNL A   1      41.767  28.906  31.956  1.00  0.00    -0.248 NA
ATOM     58  C   UNL A   1      42.923  27.282  30.743  1.00  0.00     0.031 C 
ATOM     59  C   UNL A   1      42.746  30.095  36.118  1.00  0.00     0.029 A 
ATOM     60  C   UNL A   1      42.457  29.702  34.822  1.00  0.00     0.049 A 
ATOM     61  H   UNL A   1      40.981  30.437  33.505  1.00  0.00     0.167 HD
ATOM     62  C   UNL A   1      42.763  28.366  32.757  1.00  0.00     0.074 A 
ATOM     63  C   UNL A   1      43.426  27.348  31.968  1.00  0.00     0.031 C 
ATOM     64  C   UNL A   1      43.098  28.683  34.031  1.00  0.00     0.037 A 
BRANCH  51  65
ATOM     65  C   UNL A   1      39.701  33.231  36.465  1.00  0.00     0.064 A 
ATOM     66  C   UNL A   1      38.795  32.888  37.481  1.00  0.00     0.173 A 
ATOM     67  C   UNL A   1      40.398  34.443  36.590  1.00  0.00     0.173 A 
ATOM     68  F   UNL A   1      38.096  31.745  37.404  1.00  0.00    -0.203 F 
ATOM     69  C   UNL A   1      38.573  33.738  38.562  1.00  0.00     0.198 A 
ATOM     70  C   UNL A   1      40.195  35.276  37.687  1.00  0.00     0.198 A 
ATOM     71  F   UNL A   1      41.281  34.815  35.653  1.00  0.00    -0.203 F 
ATOM     72  F   UNL A   1      37.667  33.411  39.493  1.00  0.00    -0.200 F 
ATOM     73  C   UNL A   1      39.277  34.927  38.667  1.00  0.00     0.200 A 
ATOM     74  F   UNL A   1      40.886  36.419  37.795  1.00  0.00    -0.200 F 
ATOM     75  F   UNL A   1      39.067  35.742  39.711  1.00  0.00    -0.200 F 
ENDBRANCH  51  65
BRANCH  52  76
ATOM     76  C   UNL A   1      41.223  27.591  28.380  1.00  0.00     0.064 A 
ATOM     77  C   UNL A   1      42.131  28.000  27.393  1.00  0.00     0.173 A 
ATOM     78  C   UNL A   1      40.557  26.373  28.192  1.00  0.00     0.173 A 
ATOM     79  F   UNL A   1      42.776  29.168  27.519  1.00  0.00    -0.203 F 
ATOM     80  C   UNL A   1      42.350  27.227  26.254  1.00  0.00     0.198 A 
ATOM     81  C   UNL A   1      40.797  25.588  27.065  1.00  0.00     0.198 A 
ATOM     82  F   UNL A   1      39.683  25.936  29.110  1.00  0.00    -0.203 F 
ATOM     83  F   UNL A   1      43.193  27.660  25.306  1.00  0.00    -0.200 F 
ATOM     84  C   UNL A   1      41.688  26.020  26.094  1.00  0.00     0.200 A 
ATOM     85  F   UNL A   1      40.165  24.416  26.920  1.00  0.00    -0.200 F 
ATOM     86  F   UNL A   1      41.903  25.275  25.001  1.00  0.00    -0.200 F 
ENDBRANCH  52  76
BRANCH  64  87
ATOM     87  C   UNL A   1      44.204  27.894  34.669  1.00  0.00     0.064 A 
ATOM     88  C   UNL A   1      45.534  28.335  34.641  1.00  0.00     0.173 A 
ATOM     89  C   UNL A   1      43.920  26.701  35.352  1.00  0.00     0.173 A 
ATOM     90  F   UNL A   1      45.859  29.461  33.987  1.00  0.00    -0.203 F 
ATOM     91  C   UNL A   1      46.545  27.598  35.253  1.00  0.00     0.198 A 
ATOM     92  C   UNL A   1      44.928  25.981  35.986  1.00  0.00     0.198 A 
ATOM     93  F   UNL A   1      42.662  26.241  35.413  1.00  0.00    -0.203 F 
ATOM     94  F   UNL A   1      47.817  28.014  35.176  1.00  0.00    -0.200 F 
ATOM     95  C   UNL A   1      46.240  26.426  35.931  1.00  0.00     0.200 A 
ATOM     96  F   UNL A   1      44.630  24.856  36.650  1.00  0.00    -0.200 F 
ATOM     97  F   UNL A   1      47.213  25.722  36.524  1.00  0.00    -0.200 F 
ENDBRANCH  64  87
ENDBRANCH  38  39
ENDBRANCH  30  33
ENDBRANCH  28  29
ENDBRANCH  27  28
ENDBRANCH  26  27
ENDBRANCH   1  26
TORSDOF 17
ENDMDL
