MODEL 1
REMARK VINA RESULT:     -12.2      0.000      0.000
REMARK SMILES C[C@@H]1[C@H](C(=O)NCCCCCCNC(=O)c2ccc(-c3c4nc(c(-c5c(F)c(F)c(F)c(F)c5F)c5ccc([nH]5)c(-c5c(F)c(F)c(F)c(F)c5F)c5nc(c(-c6c(F)c(F)c(F)c(F)c6F)c6ccc3[nH]6)C=C5)C=C4)cc2)CCN1C(=O)/C=C/c1cccc(Br)c1
REMARK SMILES IDX 9 1 8 2 7 3 6 4 4 5 5 6 3 8 1 9 2 10 81 11 79 12 80 13 82 14
REMARK SMILES IDX 83 15 84 16 85 17 86 18 87 19 92 20 88 21 90 22 89 23 91 24
REMARK SMILES IDX 10 25 11 26 12 27 13 28 14 29 15 31 16 32 17 33 78 34 18 35
REMARK SMILES IDX 77 36 19 37 20 38 21 39 71 40 22 41 76 42 70 43 72 44 23 45
REMARK SMILES IDX 75 46 69 47 68 48 24 50 56 51 36 52 55 53 37 54 40 55 54 56
REMARK SMILES IDX 73 57 38 58 39 59 53 61 74 62 41 63 25 64 26 65 34 66 27 67
REMARK SMILES IDX 28 68 32 69 35 70 29 71 30 72 33 73 31 74 57 75 58 76 66 77
REMARK SMILES IDX 59 78 60 79 64 80 67 81 61 82 62 83 65 84 63 85 42 86 43 87
REMARK SMILES IDX 51 88 44 89 45 90 49 91 52 92 46 93 47 94 50 95 48 96
REMARK H PARENT 6 7 13 30 72 49 40 60
REMARK Flexibility Score: inf
ROOT
ATOM      1  C   UNL A   1      31.923  29.834  27.088  1.00  0.00     0.002 C 
ENDROOT
BRANCH   1   2
ATOM      2  C   UNL A   1      33.444  29.765  27.202  1.00  0.00     0.021 C 
BRANCH   2   3
ATOM      3  C   UNL A   1      34.126  28.763  26.263  1.00  0.00     0.116 C 
BRANCH   3   4
ATOM      4  N   UNL A   1      33.857  29.069  24.872  1.00  0.00    -0.356 N 
ATOM      5  C   UNL A   1      33.648  28.313  23.768  1.00  0.00     0.225 C 
ATOM      6  O   UNL A   1      33.543  28.937  22.705  1.00  0.00    -0.275 OA
ATOM      7  H   UNL A   1      33.818  30.037  24.690  1.00  0.00     0.163 HD
BRANCH   5   8
ATOM      8  C   UNL A   1      33.567  26.791  23.729  1.00  0.00     0.102 C 
ATOM      9  C   UNL A   1      31.057  26.785  24.359  1.00  0.00     0.032 C 
ATOM     10  C   UNL A   1      32.410  26.111  24.482  1.00  0.00     0.094 C 
ATOM     11  N   UNL A   1      32.379  24.749  23.923  1.00  0.00    -0.336 N 
ATOM     12  C   UNL A   1      33.645  26.064  22.394  1.00  0.00     0.037 C 
ATOM     13  C   UNL A   1      33.263  24.636  22.769  1.00  0.00     0.121 C 
BRANCH  11  14
ATOM     14  C   UNL A   1      31.680  23.637  24.352  1.00  0.00     0.246 C 
ATOM     15  O   UNL A   1      30.836  23.694  25.245  1.00  0.00    -0.270 OA
BRANCH  14  16
ATOM     16  C   UNL A   1      32.056  22.293  23.835  1.00  0.00     0.072 C 
ATOM     17  C   UNL A   1      32.315  21.217  24.591  1.00  0.00     0.014 C 
BRANCH  17  18
ATOM     18  C   UNL A   1      32.561  19.893  24.014  1.00  0.00    -0.024 A 
ATOM     19  C   UNL A   1      32.294  19.649  22.658  1.00  0.00     0.008 A 
ATOM     20  C   UNL A   1      33.018  18.848  24.820  1.00  0.00     0.023 A 
ATOM     21  C   UNL A   1      32.466  18.373  22.117  1.00  0.00     0.002 A 
ATOM     22  C   UNL A   1      33.181  17.573  24.274  1.00  0.00     0.018 A 
ATOM     23  C   UNL A   1      32.904  17.329  22.929  1.00  0.00     0.016 A 
ATOM     24  Br  UNL A   1      33.760  16.153  25.377  1.00  0.00    -0.051 Br
ENDBRANCH  17  18
ENDBRANCH  14  16
ENDBRANCH  11  14
ENDBRANCH   5   8
ENDBRANCH   3   4
ENDBRANCH   2   3
ENDBRANCH   1   2
BRANCH   1  25
ATOM     25  C   UNL A   1      31.394  30.874  26.101  1.00  0.00     0.002 C 
BRANCH  25  26
ATOM     26  C   UNL A   1      31.332  32.312  26.625  1.00  0.00     0.021 C 
BRANCH  26  27
ATOM     27  C   UNL A   1      32.678  32.932  26.997  1.00  0.00     0.116 C 
BRANCH  27  28
ATOM     28  N   UNL A   1      32.526  34.233  27.625  1.00  0.00    -0.352 N 
ATOM     29  C   UNL A   1      33.136  34.745  28.741  1.00  0.00     0.251 C 
ATOM     30  H   UNL A   1      31.889  34.838  27.182  1.00  0.00     0.163 HD
ATOM     31  O   UNL A   1      32.728  35.790  29.237  1.00  0.00    -0.269 OA
BRANCH  29  32
ATOM     32  C   UNL A   1      34.281  34.041  29.359  1.00  0.00     0.039 A 
ATOM     33  C   UNL A   1      35.575  34.409  28.981  1.00  0.00     0.014 A 
ATOM     34  C   UNL A   1      34.085  32.989  30.260  1.00  0.00     0.014 A 
ATOM     35  C   UNL A   1      36.673  33.748  29.533  1.00  0.00     0.010 A 
ATOM     36  C   UNL A   1      35.183  32.373  30.857  1.00  0.00     0.010 A 
ATOM     37  C   UNL A   1      36.487  32.737  30.488  1.00  0.00    -0.014 A 
BRANCH  37  38
ATOM     38  C   UNL A   1      37.651  32.034  31.084  1.00  0.00     0.031 A 
ATOM     39  C   UNL A   1      38.116  32.381  32.471  1.00  0.00     0.074 A 
ATOM     40  C   UNL A   1      38.309  31.108  30.362  1.00  0.00     0.049 A 
ATOM     41  N   UNL A   1      39.119  31.892  33.155  1.00  0.00    -0.248 NA
ATOM     42  C   UNL A   1      37.366  33.432  33.175  1.00  0.00     0.031 C 
ATOM     43  C   UNL A   1      37.983  30.718  28.990  1.00  0.00     0.029 A 
ATOM     44  N   UNL A   1      39.393  30.329  30.682  1.00  0.00    -0.354 N 
ATOM     45  C   UNL A   1      39.128  32.582  34.359  1.00  0.00     0.074 A 
ATOM     46  C   UNL A   1      38.063  33.559  34.296  1.00  0.00     0.031 C 
ATOM     47  C   UNL A   1      38.833  29.758  28.593  1.00  0.00     0.029 A 
ATOM     48  C   UNL A   1      39.778  29.482  29.671  1.00  0.00     0.049 A 
ATOM     49  H   UNL A   1      39.850  30.372  31.552  1.00  0.00     0.167 HD
ATOM     50  C   UNL A   1      39.935  32.400  35.433  1.00  0.00     0.037 A 
ATOM     51  C   UNL A   1      40.781  28.585  29.623  1.00  0.00     0.037 A 
ATOM     52  C   UNL A   1      40.975  31.408  35.505  1.00  0.00     0.049 A 
ATOM     53  C   UNL A   1      41.659  28.398  30.830  1.00  0.00     0.074 A 
ATOM     54  C   UNL A   1      41.805  31.102  36.569  1.00  0.00     0.029 A 
ATOM     55  N   UNL A   1      41.327  30.559  34.466  1.00  0.00    -0.354 N 
ATOM     56  N   UNL A   1      41.610  29.005  31.991  1.00  0.00    -0.248 NA
ATOM     57  C   UNL A   1      42.724  27.391  30.724  1.00  0.00     0.031 C 
ATOM     58  C   UNL A   1      42.686  30.094  36.162  1.00  0.00     0.029 A 
ATOM     59  C   UNL A   1      42.377  29.742  34.858  1.00  0.00     0.049 A 
ATOM     60  H   UNL A   1      40.896  30.539  33.581  1.00  0.00     0.167 HD
ATOM     61  C   UNL A   1      42.620  28.442  32.759  1.00  0.00     0.074 A 
ATOM     62  C   UNL A   1      43.253  27.430  31.938  1.00  0.00     0.031 C 
ATOM     63  C   UNL A   1      42.991  28.738  34.029  1.00  0.00     0.037 A 
BRANCH  50  64
ATOM     64  C   UNL A   1      39.719  33.290  36.621  1.00  0.00     0.064 A 
ATOM     65  C   UNL A   1      40.435  34.488  36.781  1.00  0.00     0.173 A 
ATOM     66  C   UNL A   1      38.765  32.962  37.595  1.00  0.00     0.173 A 
ATOM     67  F   UNL A   1      41.368  34.841  35.885  1.00  0.00    -0.203 F 
ATOM     68  C   UNL A   1      40.220  35.308  37.886  1.00  0.00     0.198 A 
ATOM     69  C   UNL A   1      38.532  33.799  38.682  1.00  0.00     0.198 A 
ATOM     70  F   UNL A   1      38.050  31.831  37.487  1.00  0.00    -0.203 F 
ATOM     71  F   UNL A   1      40.948  36.422  38.041  1.00  0.00    -0.200 F 
ATOM     72  C   UNL A   1      39.265  34.967  38.831  1.00  0.00     0.200 A 
ATOM     73  F   UNL A   1      37.601  33.475  39.590  1.00  0.00    -0.200 F 
ATOM     74  F   UNL A   1      39.056  35.761  39.890  1.00  0.00    -0.200 F 
ENDBRANCH  50  64
BRANCH  51  75
ATOM     75  C   UNL A   1      40.987  27.771  28.398  1.00  0.00     0.064 A 
ATOM     76  C   UNL A   1      40.328  26.545  28.231  1.00  0.00     0.173 A 
ATOM     77  C   UNL A   1      41.845  28.196  27.375  1.00  0.00     0.173 A 
ATOM     78  F   UNL A   1      39.513  26.087  29.193  1.00  0.00    -0.203 F 
ATOM     79  C   UNL A   1      40.534  25.766  27.094  1.00  0.00     0.198 A 
ATOM     80  C   UNL A   1      42.030  27.428  26.226  1.00  0.00     0.198 A 
ATOM     81  F   UNL A   1      42.496  29.363  27.485  1.00  0.00    -0.203 F 
ATOM     82  F   UNL A   1      39.923  24.580  26.979  1.00  0.00    -0.200 F 
ATOM     83  C   UNL A   1      41.380  26.212  26.090  1.00  0.00     0.200 A 
ATOM     84  F   UNL A   1      42.838  27.868  25.252  1.00  0.00    -0.200 F 
ATOM     85  F   UNL A   1      41.574  25.465  24.995  1.00  0.00    -0.200 F 
ENDBRANCH  51  75
BRANCH  63  86
ATOM     86  C   UNL A   1      44.119  27.941  34.615  1.00  0.00     0.064 A 
ATOM     87  C   UNL A   1      45.447  28.380  34.533  1.00  0.00     0.173 A 
ATOM     88  C   UNL A   1      43.862  26.742  35.297  1.00  0.00     0.173 A 
ATOM     89  F   UNL A   1      45.745  29.512  33.877  1.00  0.00    -0.203 F 
ATOM     90  C   UNL A   1      46.482  27.635  35.091  1.00  0.00     0.198 A 
ATOM     91  C   UNL A   1      44.897  26.014  35.878  1.00  0.00     0.198 A 
ATOM     92  F   UNL A   1      42.607  26.283  35.409  1.00  0.00    -0.203 F 
ATOM     93  F   UNL A   1      47.751  28.051  34.960  1.00  0.00    -0.200 F 
ATOM     94  C   UNL A   1      46.206  26.457  35.768  1.00  0.00     0.200 A 
ATOM     95  F   UNL A   1      44.626  24.882  36.542  1.00  0.00    -0.200 F 
ATOM     96  F   UNL A   1      47.203  25.744  36.309  1.00  0.00    -0.200 F 
ENDBRANCH  63  86
ENDBRANCH  37  38
ENDBRANCH  29  32
ENDBRANCH  27  28
ENDBRANCH  26  27
ENDBRANCH  25  26
ENDBRANCH   1  25
TORSDOF 16
ENDMDL
MODEL 2
REMARK VINA RESULT:     -12.2      0.466      7.220
REMARK SMILES C[C@@H]1[C@H](C(=O)NCCCCCCNC(=O)c2ccc(-c3c4nc(c(-c5c(F)c(F)c(F)c(F)c5F)c5ccc([nH]5)c(-c5c(F)c(F)c(F)c(F)c5F)c5nc(c(-c6c(F)c(F)c(F)c(F)c6F)c6ccc3[nH]6)C=C5)C=C4)cc2)CCN1C(=O)/C=C/c1cccc(Br)c1
REMARK SMILES IDX 9 1 8 2 7 3 6 4 4 5 5 6 3 8 1 9 2 10 81 11 79 12 80 13 82 14
REMARK SMILES IDX 83 15 84 16 85 17 86 18 87 19 92 20 88 21 90 22 89 23 91 24
REMARK SMILES IDX 10 25 11 26 12 27 13 28 14 29 15 31 16 32 17 33 78 34 18 35
REMARK SMILES IDX 77 36 19 37 20 38 21 39 71 40 22 41 76 42 70 43 72 44 23 45
REMARK SMILES IDX 75 46 69 47 68 48 24 50 56 51 36 52 55 53 37 54 40 55 54 56
REMARK SMILES IDX 73 57 38 58 39 59 53 61 74 62 41 63 25 64 26 65 34 66 27 67
REMARK SMILES IDX 28 68 32 69 35 70 29 71 30 72 33 73 31 74 57 75 58 76 66 77
REMARK SMILES IDX 59 78 60 79 64 80 67 81 61 82 62 83 65 84 63 85 42 86 43 87
REMARK SMILES IDX 51 88 44 89 45 90 49 91 52 92 46 93 47 94 50 95 48 96
REMARK H PARENT 6 7 13 30 72 49 40 60
REMARK Flexibility Score: inf
ROOT
ATOM      1  C   UNL A   1      32.019  29.720  27.202  1.00  0.00     0.002 C 
ENDROOT
BRANCH   1   2
ATOM      2  C   UNL A   1      33.539  29.588  27.235  1.00  0.00     0.021 C 
BRANCH   2   3
ATOM      3  C   UNL A   1      34.125  28.536  26.285  1.00  0.00     0.116 C 
BRANCH   3   4
ATOM      4  N   UNL A   1      33.871  28.871  24.898  1.00  0.00    -0.356 N 
ATOM      5  C   UNL A   1      33.689  28.138  23.774  1.00  0.00     0.225 C 
ATOM      6  O   UNL A   1      33.588  28.786  22.724  1.00  0.00    -0.275 OA
ATOM      7  H   UNL A   1      33.819  29.842  24.738  1.00  0.00     0.163 HD
BRANCH   5   8
ATOM      8  C   UNL A   1      33.632  26.617  23.698  1.00  0.00     0.102 C 
ATOM      9  C   UNL A   1      31.199  26.539  24.577  1.00  0.00     0.032 C 
ATOM     10  C   UNL A   1      32.570  25.891  24.543  1.00  0.00     0.094 C 
ATOM     11  N   UNL A   1      32.507  24.545  23.950  1.00  0.00    -0.336 N 
ATOM     12  C   UNL A   1      33.588  25.929  22.341  1.00  0.00     0.037 C 
ATOM     13  C   UNL A   1      33.272  24.482  22.710  1.00  0.00     0.121 C 
BRANCH  11  14
ATOM     14  C   UNL A   1      31.876  23.407  24.414  1.00  0.00     0.246 C 
ATOM     15  O   UNL A   1      31.059  23.435  25.333  1.00  0.00    -0.270 OA
BRANCH  14  16
ATOM     16  C   UNL A   1      32.299  22.076  23.900  1.00  0.00     0.072 C 
ATOM     17  C   UNL A   1      32.495  20.983  24.651  1.00  0.00     0.014 C 
BRANCH  17  18
ATOM     18  C   UNL A   1      32.793  19.673  24.067  1.00  0.00    -0.024 A 
ATOM     19  C   UNL A   1      32.222  19.295  22.841  1.00  0.00     0.008 A 
ATOM     20  C   UNL A   1      33.611  18.768  24.747  1.00  0.00     0.023 A 
ATOM     21  C   UNL A   1      32.451  18.024  22.310  1.00  0.00     0.002 A 
ATOM     22  C   UNL A   1      33.830  17.496  24.214  1.00  0.00     0.018 A 
ATOM     23  C   UNL A   1      33.252  17.118  23.001  1.00  0.00     0.016 A 
ATOM     24  Br  UNL A   1      34.904  16.261  25.158  1.00  0.00    -0.051 Br
ENDBRANCH  17  18
ENDBRANCH  14  16
ENDBRANCH  11  14
ENDBRANCH   5   8
ENDBRANCH   3   4
ENDBRANCH   2   3
ENDBRANCH   1   2
BRANCH   1  25
ATOM     25  C   UNL A   1      31.479  30.766  26.227  1.00  0.00     0.002 C 
BRANCH  25  26
ATOM     26  C   UNL A   1      31.365  32.190  26.780  1.00  0.00     0.021 C 
BRANCH  26  27
ATOM     27  C   UNL A   1      32.690  32.921  26.986  1.00  0.00     0.116 C 
BRANCH  27  28
ATOM     28  N   UNL A   1      32.504  34.237  27.572  1.00  0.00    -0.352 N 
ATOM     29  C   UNL A   1      33.102  34.801  28.669  1.00  0.00     0.251 C 
ATOM     30  H   UNL A   1      31.849  34.810  27.112  1.00  0.00     0.163 HD
ATOM     31  O   UNL A   1      32.665  35.850  29.133  1.00  0.00    -0.269 OA
BRANCH  29  32
ATOM     32  C   UNL A   1      34.266  34.149  29.306  1.00  0.00     0.039 A 
ATOM     33  C   UNL A   1      34.038  33.105  30.206  1.00  0.00     0.014 A 
ATOM     34  C   UNL A   1      35.569  34.596  29.066  1.00  0.00     0.014 A 
ATOM     35  C   UNL A   1      35.117  32.485  30.837  1.00  0.00     0.010 A 
ATOM     36  C   UNL A   1      36.649  33.935  29.648  1.00  0.00     0.010 A 
ATOM     37  C   UNL A   1      36.432  32.883  30.551  1.00  0.00    -0.014 A 
BRANCH  37  38
ATOM     38  C   UNL A   1      37.585  32.224  31.214  1.00  0.00     0.031 A 
ATOM     39  C   UNL A   1      38.353  31.146  30.501  1.00  0.00     0.074 A 
ATOM     40  C   UNL A   1      37.918  32.572  32.470  1.00  0.00     0.049 A 
ATOM     41  N   UNL A   1      39.376  30.443  30.918  1.00  0.00    -0.248 NA
ATOM     42  C   UNL A   1      37.899  30.797  29.146  1.00  0.00     0.031 C 
ATOM     43  C   UNL A   1      37.221  33.570  33.283  1.00  0.00     0.029 A 
ATOM     44  N   UNL A   1      38.926  32.123  33.286  1.00  0.00    -0.354 N 
ATOM     45  C   UNL A   1      39.677  29.564  29.887  1.00  0.00     0.074 A 
ATOM     46  C   UNL A   1      38.700  29.785  28.843  1.00  0.00     0.031 C 
ATOM     47  C   UNL A   1      37.836  33.675  34.472  1.00  0.00     0.029 A 
ATOM     48  C   UNL A   1      38.952  32.735  34.516  1.00  0.00     0.049 A 
ATOM     49  H   UNL A   1      39.570  31.429  33.016  1.00  0.00     0.167 HD
ATOM     50  C   UNL A   1      40.692  28.671  29.806  1.00  0.00     0.037 A 
ATOM     51  C   UNL A   1      39.785  32.556  35.559  1.00  0.00     0.037 A 
ATOM     52  C   UNL A   1      41.680  28.473  30.833  1.00  0.00     0.049 A 
ATOM     53  C   UNL A   1      40.907  31.563  35.441  1.00  0.00     0.074 A 
ATOM     54  C   UNL A   1      42.784  27.639  30.822  1.00  0.00     0.029 A 
ATOM     55  N   UNL A   1      41.682  29.121  32.060  1.00  0.00    -0.354 N 
ATOM     56  N   UNL A   1      41.226  30.790  34.432  1.00  0.00    -0.248 NA
ATOM     57  C   UNL A   1      41.794  31.426  36.606  1.00  0.00     0.031 C 
ATOM     58  C   UNL A   1      43.432  27.752  32.056  1.00  0.00     0.029 A 
ATOM     59  C   UNL A   1      42.757  28.689  32.822  1.00  0.00     0.049 A 
ATOM     60  H   UNL A   1      41.018  29.788  32.347  1.00  0.00     0.167 HD
ATOM     61  C   UNL A   1      42.359  30.092  34.828  1.00  0.00     0.074 A 
ATOM     62  C   UNL A   1      42.683  30.548  36.164  1.00  0.00     0.031 C 
ATOM     63  C   UNL A   1      43.066  29.156  34.148  1.00  0.00     0.037 A 
BRANCH  50  64
ATOM     64  C   UNL A   1      40.791  27.843  28.558  1.00  0.00     0.064 A 
ATOM     65  C   UNL A   1      40.122  26.614  28.438  1.00  0.00     0.173 A 
ATOM     66  C   UNL A   1      41.532  28.296  27.457  1.00  0.00     0.173 A 
ATOM     67  F   UNL A   1      39.409  26.130  29.467  1.00  0.00    -0.203 F 
ATOM     68  C   UNL A   1      40.215  25.858  27.272  1.00  0.00     0.198 A 
ATOM     69  C   UNL A   1      41.599  27.552  26.283  1.00  0.00     0.198 A 
ATOM     70  F   UNL A   1      42.186  29.466  27.518  1.00  0.00    -0.203 F 
ATOM     71  F   UNL A   1      39.607  24.667  27.198  1.00  0.00    -0.200 F 
ATOM     72  C   UNL A   1      40.948  26.331  26.194  1.00  0.00     0.200 A 
ATOM     73  F   UNL A   1      42.298  28.013  25.237  1.00  0.00    -0.200 F 
ATOM     74  F   UNL A   1      41.032  25.605  25.070  1.00  0.00    -0.200 F 
ENDBRANCH  50  64
BRANCH  51  75
ATOM     75  C   UNL A   1      39.606  33.361  36.794  1.00  0.00     0.064 A 
ATOM     76  C   UNL A   1      38.712  32.954  37.794  1.00  0.00     0.173 A 
ATOM     77  C   UNL A   1      40.318  34.551  37.000  1.00  0.00     0.173 A 
ATOM     78  F   UNL A   1      37.993  31.834  37.632  1.00  0.00    -0.203 F 
ATOM     79  C   UNL A   1      38.523  33.715  38.945  1.00  0.00     0.198 A 
ATOM     80  C   UNL A   1      40.149  35.298  38.165  1.00  0.00     0.198 A 
ATOM     81  F   UNL A   1      41.189  34.981  36.076  1.00  0.00    -0.203 F 
ATOM     82  F   UNL A   1      37.632  33.324  39.866  1.00  0.00    -0.200 F 
ATOM     83  C   UNL A   1      39.246  34.884  39.132  1.00  0.00     0.200 A 
ATOM     84  F   UNL A   1      40.859  36.420  38.347  1.00  0.00    -0.200 F 
ATOM     85  F   UNL A   1      39.068  35.614  40.241  1.00  0.00    -0.200 F 
ENDBRANCH  51  75
BRANCH  63  86
ATOM     86  C   UNL A   1      44.272  28.581  34.829  1.00  0.00     0.064 A 
ATOM     87  C   UNL A   1      45.530  29.191  34.731  1.00  0.00     0.173 A 
ATOM     88  C   UNL A   1      44.159  27.426  35.618  1.00  0.00     0.173 A 
ATOM     89  F   UNL A   1      45.691  30.288  33.975  1.00  0.00    -0.203 F 
ATOM     90  C   UNL A   1      46.639  28.651  35.377  1.00  0.00     0.198 A 
ATOM     91  C   UNL A   1      45.264  26.905  36.286  1.00  0.00     0.198 A 
ATOM     92  F   UNL A   1      42.975  26.810  35.749  1.00  0.00    -0.203 F 
ATOM     93  F   UNL A   1      47.842  29.224  35.231  1.00  0.00    -0.200 F 
ATOM     94  C   UNL A   1      46.504  27.513  36.159  1.00  0.00     0.200 A 
ATOM     95  F   UNL A   1      45.129  25.813  37.050  1.00  0.00    -0.200 F 
ATOM     96  F   UNL A   1      47.571  26.999  36.785  1.00  0.00    -0.200 F 
ENDBRANCH  63  86
ENDBRANCH  37  38
ENDBRANCH  29  32
ENDBRANCH  27  28
ENDBRANCH  26  27
ENDBRANCH  25  26
ENDBRANCH   1  25
TORSDOF 16
ENDMDL
MODEL 3
REMARK VINA RESULT:     -12.0      5.099      8.517
REMARK SMILES C[C@@H]1[C@H](C(=O)NCCCCCCNC(=O)c2ccc(-c3c4nc(c(-c5c(F)c(F)c(F)c(F)c5F)c5ccc([nH]5)c(-c5c(F)c(F)c(F)c(F)c5F)c5nc(c(-c6c(F)c(F)c(F)c(F)c6F)c6ccc3[nH]6)C=C5)C=C4)cc2)CCN1C(=O)/C=C/c1cccc(Br)c1
REMARK SMILES IDX 9 1 8 2 7 3 6 4 4 5 5 6 3 8 1 9 2 10 81 11 79 12 80 13 82 14
REMARK SMILES IDX 83 15 84 16 85 17 86 18 87 19 92 20 88 21 90 22 89 23 91 24
REMARK SMILES IDX 10 25 11 26 12 27 13 28 14 29 15 31 16 32 17 33 78 34 18 35
REMARK SMILES IDX 77 36 19 37 20 38 21 39 71 40 22 41 76 42 70 43 72 44 23 45
REMARK SMILES IDX 75 46 69 47 68 48 24 50 56 51 36 52 55 53 37 54 40 55 54 56
REMARK SMILES IDX 73 57 38 58 39 59 53 61 74 62 41 63 25 64 26 65 34 66 27 67
REMARK SMILES IDX 28 68 32 69 35 70 29 71 30 72 33 73 31 74 57 75 58 76 66 77
REMARK SMILES IDX 59 78 60 79 64 80 67 81 61 82 62 83 65 84 63 85 42 86 43 87
REMARK SMILES IDX 51 88 44 89 45 90 49 91 52 92 46 93 47 94 50 95 48 96
REMARK H PARENT 6 7 13 30 72 49 40 60
REMARK Flexibility Score: inf
ROOT
ATOM      1  C   UNL A   1      33.514  36.482  29.020  1.00  0.00     0.002 C 
ENDROOT
BRANCH   1   2
ATOM      2  C   UNL A   1      32.557  36.095  30.144  1.00  0.00     0.021 C 
BRANCH   2   3
ATOM      3  C   UNL A   1      33.122  36.233  31.562  1.00  0.00     0.116 C 
BRANCH   3   4
ATOM      4  N   UNL A   1      32.879  35.041  32.350  1.00  0.00    -0.356 N 
ATOM      5  C   UNL A   1      33.638  33.973  32.695  1.00  0.00     0.225 C 
ATOM      6  O   UNL A   1      33.050  33.078  33.315  1.00  0.00    -0.275 OA
ATOM      7  H   UNL A   1      31.964  34.998  32.714  1.00  0.00     0.163 HD
BRANCH   5   8
ATOM      8  C   UNL A   1      35.112  33.779  32.361  1.00  0.00     0.102 C 
ATOM      9  C   UNL A   1      35.813  33.829  34.851  1.00  0.00     0.032 C 
ATOM     10  C   UNL A   1      36.153  34.189  33.418  1.00  0.00     0.094 C 
ATOM     11  N   UNL A   1      37.386  33.516  32.978  1.00  0.00    -0.336 N 
ATOM     12  C   UNL A   1      35.598  32.435  31.836  1.00  0.00     0.037 C 
ATOM     13  C   UNL A   1      37.115  32.584  31.891  1.00  0.00     0.121 C 
BRANCH  11  14
ATOM     14  C   UNL A   1      38.683  33.675  33.426  1.00  0.00     0.246 C 
ATOM     15  O   UNL A   1      39.189  34.783  33.599  1.00  0.00    -0.270 OA
BRANCH  14  16
ATOM     16  C   UNL A   1      39.561  32.481  33.563  1.00  0.00     0.072 C 
ATOM     17  C   UNL A   1      39.157  31.265  33.959  1.00  0.00     0.014 C 
BRANCH  17  18
ATOM     18  C   UNL A   1      40.049  30.103  33.956  1.00  0.00    -0.024 A 
ATOM     19  C   UNL A   1      39.902  29.098  32.987  1.00  0.00     0.008 A 
ATOM     20  C   UNL A   1      41.025  29.961  34.946  1.00  0.00     0.023 A 
ATOM     21  C   UNL A   1      40.707  27.957  33.017  1.00  0.00     0.002 A 
ATOM     22  C   UNL A   1      41.821  28.815  34.973  1.00  0.00     0.018 A 
ATOM     23  C   UNL A   1      41.665  27.811  34.017  1.00  0.00     0.016 A 
ATOM     24  Br  UNL A   1      43.112  28.608  36.338  1.00  0.00    -0.051 Br
ENDBRANCH  17  18
ENDBRANCH  14  16
ENDBRANCH  11  14
ENDBRANCH   5   8
ENDBRANCH   3   4
ENDBRANCH   2   3
ENDBRANCH   1   2
BRANCH   1  25
ATOM     25  C   UNL A   1      34.265  35.316  28.377  1.00  0.00     0.002 C 
BRANCH  25  26
ATOM     26  C   UNL A   1      33.850  33.921  28.852  1.00  0.00     0.021 C 
BRANCH  26  27
ATOM     27  C   UNL A   1      34.760  32.778  28.405  1.00  0.00     0.116 C 
BRANCH  27  28
ATOM     28  N   UNL A   1      34.022  31.550  28.168  1.00  0.00    -0.352 N 
ATOM     29  C   UNL A   1      34.481  30.269  28.000  1.00  0.00     0.251 C 
ATOM     30  H   UNL A   1      33.045  31.654  28.119  1.00  0.00     0.163 HD
ATOM     31  O   UNL A   1      33.719  29.393  27.605  1.00  0.00    -0.269 OA
BRANCH  29  32
ATOM     32  C   UNL A   1      35.893  29.936  28.285  1.00  0.00     0.039 A 
ATOM     33  C   UNL A   1      36.826  30.043  27.251  1.00  0.00     0.014 A 
ATOM     34  C   UNL A   1      36.289  29.467  29.542  1.00  0.00     0.014 A 
ATOM     35  C   UNL A   1      38.162  29.716  27.485  1.00  0.00     0.010 A 
ATOM     36  C   UNL A   1      37.634  29.201  29.792  1.00  0.00     0.010 A 
ATOM     37  C   UNL A   1      38.581  29.308  28.762  1.00  0.00    -0.014 A 
BRANCH  37  38
ATOM     38  C   UNL A   1      40.001  28.965  29.020  1.00  0.00     0.031 A 
ATOM     39  C   UNL A   1      40.895  29.935  29.740  1.00  0.00     0.074 A 
ATOM     40  C   UNL A   1      40.494  27.794  28.575  1.00  0.00     0.049 A 
ATOM     41  N   UNL A   1      42.164  29.823  30.044  1.00  0.00    -0.248 NA
ATOM     42  C   UNL A   1      40.289  31.209  30.158  1.00  0.00     0.031 C 
ATOM     43  C   UNL A   1      39.738  26.791  27.823  1.00  0.00     0.029 A 
ATOM     44  N   UNL A   1      41.749  27.250  28.688  1.00  0.00    -0.354 N 
ATOM     45  C   UNL A   1      42.509  31.012  30.674  1.00  0.00     0.074 A 
ATOM     46  C   UNL A   1      41.331  31.852  30.665  1.00  0.00     0.031 C 
ATOM     47  C   UNL A   1      40.537  25.745  27.562  1.00  0.00     0.029 A 
ATOM     48  C   UNL A   1      41.866  26.012  28.103  1.00  0.00     0.049 A 
ATOM     49  H   UNL A   1      42.494  27.704  29.144  1.00  0.00     0.167 HD
ATOM     50  C   UNL A   1      43.693  31.362  31.232  1.00  0.00     0.037 A 
ATOM     51  C   UNL A   1      42.928  25.188  28.018  1.00  0.00     0.037 A 
ATOM     52  C   UNL A   1      44.854  30.512  31.265  1.00  0.00     0.049 A 
ATOM     53  C   UNL A   1      44.229  25.598  28.652  1.00  0.00     0.074 A 
ATOM     54  C   UNL A   1      46.080  30.748  31.861  1.00  0.00     0.029 A 
ATOM     55  N   UNL A   1      44.931  29.259  30.675  1.00  0.00    -0.354 N 
ATOM     56  N   UNL A   1      44.521  26.694  29.308  1.00  0.00    -0.248 NA
ATOM     57  C   UNL A   1      45.346  24.649  28.541  1.00  0.00     0.031 C 
ATOM     58  C   UNL A   1      46.913  29.656  31.599  1.00  0.00     0.029 A 
ATOM     59  C   UNL A   1      46.192  28.719  30.876  1.00  0.00     0.049 A 
ATOM     60  H   UNL A   1      44.199  28.819  30.186  1.00  0.00     0.167 HD
ATOM     61  C   UNL A   1      45.843  26.558  29.708  1.00  0.00     0.074 A 
ATOM     62  C   UNL A   1      46.292  25.265  29.235  1.00  0.00     0.031 C 
ATOM     63  C   UNL A   1      46.618  27.428  30.401  1.00  0.00     0.037 A 
BRANCH  50  64
ATOM     64  C   UNL A   1      43.789  32.721  31.860  1.00  0.00     0.064 A 
ATOM     65  C   UNL A   1      44.135  33.855  31.108  1.00  0.00     0.173 A 
ATOM     66  C   UNL A   1      43.499  32.901  33.221  1.00  0.00     0.173 A 
ATOM     67  F   UNL A   1      44.434  33.735  29.805  1.00  0.00    -0.203 F 
ATOM     68  C   UNL A   1      44.214  35.112  31.702  1.00  0.00     0.198 A 
ATOM     69  C   UNL A   1      43.551  34.163  33.804  1.00  0.00     0.198 A 
ATOM     70  F   UNL A   1      43.158  31.851  33.984  1.00  0.00    -0.203 F 
ATOM     71  F   UNL A   1      44.592  36.171  30.974  1.00  0.00    -0.200 F 
ATOM     72  C   UNL A   1      43.915  35.266  33.047  1.00  0.00     0.200 A 
ATOM     73  F   UNL A   1      43.252  34.314  35.102  1.00  0.00    -0.200 F 
ATOM     74  F   UNL A   1      43.987  36.478  33.615  1.00  0.00    -0.200 F 
ENDBRANCH  50  64
BRANCH  51  75
ATOM     75  C   UNL A   1      42.793  23.878  27.332  1.00  0.00     0.064 A 
ATOM     76  C   UNL A   1      43.173  23.727  25.991  1.00  0.00     0.173 A 
ATOM     77  C   UNL A   1      42.282  22.755  27.997  1.00  0.00     0.173 A 
ATOM     78  F   UNL A   1      43.647  24.779  25.308  1.00  0.00    -0.203 F 
ATOM     79  C   UNL A   1      43.028  22.506  25.335  1.00  0.00     0.198 A 
ATOM     80  C   UNL A   1      42.164  21.527  27.348  1.00  0.00     0.198 A 
ATOM     81  F   UNL A   1      41.910  22.846  29.282  1.00  0.00    -0.203 F 
ATOM     82  F   UNL A   1      43.360  22.400  24.042  1.00  0.00    -0.200 F 
ATOM     83  C   UNL A   1      42.530  21.406  26.016  1.00  0.00     0.200 A 
ATOM     84  F   UNL A   1      41.693  20.463  28.013  1.00  0.00    -0.200 F 
ATOM     85  F   UNL A   1      42.395  20.231  25.387  1.00  0.00    -0.200 F 
ENDBRANCH  51  75
BRANCH  63  86
ATOM     86  C   UNL A   1      48.022  26.998  30.710  1.00  0.00     0.064 A 
ATOM     87  C   UNL A   1      49.099  27.372  29.895  1.00  0.00     0.173 A 
ATOM     88  C   UNL A   1      48.296  26.233  31.854  1.00  0.00     0.173 A 
ATOM     89  F   UNL A   1      48.886  28.089  28.781  1.00  0.00    -0.203 F 
ATOM     90  C   UNL A   1      50.398  26.974  30.200  1.00  0.00     0.198 A 
ATOM     91  C   UNL A   1      49.599  25.861  32.171  1.00  0.00     0.198 A 
ATOM     92  F   UNL A   1      47.300  25.857  32.670  1.00  0.00    -0.203 F 
ATOM     93  F   UNL A   1      51.407  27.303  29.380  1.00  0.00    -0.200 F 
ATOM     94  C   UNL A   1      50.648  26.225  31.340  1.00  0.00     0.200 A 
ATOM     95  F   UNL A   1      49.839  25.148  33.279  1.00  0.00    -0.200 F 
ATOM     96  F   UNL A   1      51.899  25.848  31.634  1.00  0.00    -0.200 F 
ENDBRANCH  63  86
ENDBRANCH  37  38
ENDBRANCH  29  32
ENDBRANCH  27  28
ENDBRANCH  26  27
ENDBRANCH  25  26
ENDBRANCH   1  25
TORSDOF 16
ENDMDL
