MODEL 1
REMARK VINA RESULT:     -14.1      0.000      0.000
REMARK SMILES COc1ccc(-c2[nH]nc3nc(-c4ccc(C(F)(F)F)cc4)cc(C(=O)NCCCCCCNC(=O)c4ccc(-c5c6nc(c(-c7c(F)c(F)c(F)c(F)c7F)c7ccc([nH]7)c(-c7c(F)c(F)c(F)c(F)c7F)c7nc(c(-c8c(F)c(F)c(F)c(F)c8F)c8ccc5[nH]8)C=C7)C=C6)cc4)c23)cc1
REMARK SMILES IDX 30 1 29 2 28 3 27 4 25 5 26 6 24 8 7 9 8 10 100 11 9 12
REMARK SMILES IDX 10 14 11 15 23 16 12 17 6 18 3 19 4 20 102 21 5 22 101 23
REMARK SMILES IDX 2 24 1 25 13 26 14 27 22 28 15 29 21 30 16 31 17 32 18 33
REMARK SMILES IDX 19 34 20 35 31 36 32 37 33 38 34 39 35 40 36 42 37 43 38 44
REMARK SMILES IDX 99 45 39 46 98 47 40 48 41 49 42 50 92 51 43 52 97 53 91 54
REMARK SMILES IDX 93 55 44 56 96 57 90 58 89 59 45 61 77 62 57 63 76 64 58 65
REMARK SMILES IDX 61 66 75 67 94 68 59 69 60 70 74 72 95 73 62 74 46 75 47 76
REMARK SMILES IDX 55 77 48 78 49 79 53 80 56 81 50 82 51 83 54 84 52 85 78 86
REMARK SMILES IDX 79 87 87 88 80 89 81 90 85 91 88 92 82 93 83 94 86 95 84 96
REMARK SMILES IDX 63 97 64 98 72 99 65 100 66 101 70 102 73 103 67 104 68 105
REMARK SMILES IDX 71 106 69 107
REMARK H PARENT 27 7 8 13 34 41 93 60 61 71
REMARK Flexibility Score: inf
ROOT
ATOM      1  C   UNL A   1      35.200  22.983  24.739  1.00  0.00     0.002 C 
ENDROOT
BRANCH   1   2
ATOM      2  C   UNL A   1      35.202  23.647  23.354  1.00  0.00     0.021 C 
BRANCH   2   3
ATOM      3  C   UNL A   1      34.651  25.071  23.379  1.00  0.00     0.116 C 
BRANCH   3   4
ATOM      4  N   UNL A   1      33.454  25.182  22.575  1.00  0.00    -0.352 N 
ATOM      5  C   UNL A   1      32.160  24.745  22.659  1.00  0.00     0.252 C 
ATOM      6  O   UNL A   1      31.412  25.281  21.847  1.00  0.00    -0.269 OA
ATOM      7  H   UNL A   1      33.611  25.705  21.756  1.00  0.00     0.163 HD
BRANCH   5   8
ATOM      8  C   UNL A   1      31.642  23.787  23.664  1.00  0.00     0.055 A 
ATOM      9  C   UNL A   1      30.278  25.255  25.238  1.00  0.00     0.075 A 
ATOM     10  N   UNL A   1      29.727  24.946  26.462  1.00  0.00    -0.275 N 
ATOM     11  C   UNL A   1      30.911  24.087  24.834  1.00  0.00     0.059 A 
ATOM     12  N   UNL A   1      29.936  23.694  26.885  1.00  0.00    -0.154 NA
ATOM     13  H   UNL A   1      29.212  25.601  26.988  1.00  0.00     0.190 HD
ATOM     14  C   UNL A   1      30.647  23.145  25.903  1.00  0.00     0.182 A 
ATOM     15  N   UNL A   1      31.098  21.864  25.893  1.00  0.00    -0.226 NA
ATOM     16  C   UNL A   1      31.911  22.414  23.636  1.00  0.00     0.043 A 
ATOM     17  C   UNL A   1      31.732  21.547  24.741  1.00  0.00     0.074 A 
BRANCH   9  18
ATOM     18  C   UNL A   1      30.059  26.585  24.673  1.00  0.00     0.001 A 
ATOM     19  C   UNL A   1      29.716  29.130  23.516  1.00  0.00     0.118 A 
ATOM     20  C   UNL A   1      30.784  28.884  24.379  1.00  0.00     0.047 A 
ATOM     21  C   UNL A   1      28.812  28.106  23.237  1.00  0.00     0.047 A 
ATOM     22  C   UNL A   1      30.952  27.624  24.961  1.00  0.00     0.014 A 
ATOM     23  C   UNL A   1      28.971  26.846  23.830  1.00  0.00     0.014 A 
BRANCH  19  24
ATOM     24  O   UNL A   1      29.692  30.382  22.966  1.00  0.00    -0.497 OA
ATOM     25  C   UNL A   1      29.237  31.424  23.821  1.00  0.00     0.278 C 
ENDBRANCH  19  24
ENDBRANCH   9  18
BRANCH  17  26
ATOM     26  C   UNL A   1      32.396  20.232  24.675  1.00  0.00     0.000 A 
ATOM     27  C   UNL A   1      32.887  19.586  25.812  1.00  0.00     0.011 A 
ATOM     28  C   UNL A   1      32.450  19.544  23.444  1.00  0.00     0.011 A 
ATOM     29  C   UNL A   1      33.365  18.270  25.734  1.00  0.00     0.014 A 
ATOM     30  C   UNL A   1      32.928  18.234  23.362  1.00  0.00     0.014 A 
ATOM     31  C   UNL A   1      33.375  17.575  24.512  1.00  0.00     0.056 A 
BRANCH  31  32
ATOM     32  C   UNL A   1      33.846  16.142  24.450  1.00  0.00     0.416 C 
ATOM     33  F   UNL A   1      34.429  15.827  23.262  1.00  0.00    -0.166 F 
ATOM     34  F   UNL A   1      34.772  15.862  25.411  1.00  0.00    -0.166 F 
ATOM     35  F   UNL A   1      32.847  15.232  24.631  1.00  0.00    -0.166 F 
ENDBRANCH  31  32
ENDBRANCH  17  26
ENDBRANCH   5   8
ENDBRANCH   3   4
ENDBRANCH   2   3
ENDBRANCH   1   2
BRANCH   1  36
ATOM     36  C   UNL A   1      35.797  21.567  24.787  1.00  0.00     0.002 C 
BRANCH  36  37
ATOM     37  C   UNL A   1      37.317  21.473  24.577  1.00  0.00     0.021 C 
BRANCH  37  38
ATOM     38  C   UNL A   1      38.116  21.897  25.796  1.00  0.00     0.116 C 
BRANCH  38  39
ATOM     39  N   UNL A   1      39.420  21.241  25.835  1.00  0.00    -0.352 N 
ATOM     40  C   UNL A   1      40.637  21.803  26.127  1.00  0.00     0.251 C 
ATOM     41  H   UNL A   1      39.426  20.280  25.624  1.00  0.00     0.163 HD
ATOM     42  O   UNL A   1      41.686  21.273  25.754  1.00  0.00    -0.269 OA
BRANCH  40  43
ATOM     43  C   UNL A   1      40.674  23.049  26.902  1.00  0.00     0.039 A 
ATOM     44  C   UNL A   1      41.560  23.197  27.970  1.00  0.00     0.014 A 
ATOM     45  C   UNL A   1      39.825  24.088  26.520  1.00  0.00     0.014 A 
ATOM     46  C   UNL A   1      41.638  24.431  28.603  1.00  0.00     0.010 A 
ATOM     47  C   UNL A   1      39.995  25.341  27.058  1.00  0.00     0.010 A 
ATOM     48  C   UNL A   1      40.873  25.510  28.122  1.00  0.00    -0.014 A 
BRANCH  48  49
ATOM     49  C   UNL A   1      41.150  26.863  28.600  1.00  0.00     0.031 A 
ATOM     50  C   UNL A   1      42.386  27.431  27.998  1.00  0.00     0.074 A 
ATOM     51  C   UNL A   1      40.279  27.599  29.330  1.00  0.00     0.049 A 
ATOM     52  N   UNL A   1      43.500  27.681  28.600  1.00  0.00    -0.248 NA
ATOM     53  C   UNL A   1      42.470  27.567  26.531  1.00  0.00     0.031 C 
ATOM     54  C   UNL A   1      38.903  27.237  29.686  1.00  0.00     0.029 A 
ATOM     55  N   UNL A   1      40.387  28.874  29.820  1.00  0.00    -0.354 N 
ATOM     56  C   UNL A   1      44.316  28.277  27.642  1.00  0.00     0.074 A 
ATOM     57  C   UNL A   1      43.733  27.970  26.366  1.00  0.00     0.031 C 
ATOM     58  C   UNL A   1      38.231  28.333  30.098  1.00  0.00     0.029 A 
ATOM     59  C   UNL A   1      39.168  29.434  30.212  1.00  0.00     0.049 A 
ATOM     60  H   UNL A   1      41.244  29.351  29.892  1.00  0.00     0.167 HD
ATOM     61  C   UNL A   1      45.157  29.280  28.020  1.00  0.00     0.037 A 
ATOM     62  C   UNL A   1      38.941  30.716  30.596  1.00  0.00     0.037 A 
ATOM     63  C   UNL A   1      45.314  29.281  29.453  1.00  0.00     0.049 A 
ATOM     64  C   UNL A   1      40.234  31.283  31.034  1.00  0.00     0.074 A 
ATOM     65  C   UNL A   1      45.981  28.537  30.400  1.00  0.00     0.029 A 
ATOM     66  N   UNL A   1      44.308  29.947  30.095  1.00  0.00    -0.354 N 
ATOM     67  N   UNL A   1      40.865  30.881  32.102  1.00  0.00    -0.248 NA
ATOM     68  C   UNL A   1      41.025  32.065  30.091  1.00  0.00     0.031 C 
ATOM     69  C   UNL A   1      45.277  28.726  31.630  1.00  0.00     0.029 A 
ATOM     70  C   UNL A   1      44.237  29.625  31.420  1.00  0.00     0.049 A 
ATOM     71  H   UNL A   1      43.703  30.585  29.653  1.00  0.00     0.167 HD
ATOM     72  C   UNL A   1      42.195  30.969  31.754  1.00  0.00     0.074 A 
ATOM     73  C   UNL A   1      42.241  31.864  30.604  1.00  0.00     0.031 C 
ATOM     74  C   UNL A   1      43.084  30.030  32.187  1.00  0.00     0.037 A 
BRANCH  61  75
ATOM     75  C   UNL A   1      45.357  30.569  27.239  1.00  0.00     0.064 A 
ATOM     76  C   UNL A   1      46.674  31.007  26.981  1.00  0.00     0.173 A 
ATOM     77  C   UNL A   1      44.351  31.542  27.039  1.00  0.00     0.173 A 
ATOM     78  F   UNL A   1      47.716  30.184  27.171  1.00  0.00    -0.203 F 
ATOM     79  C   UNL A   1      46.959  32.328  26.615  1.00  0.00     0.198 A 
ATOM     80  C   UNL A   1      44.636  32.843  26.626  1.00  0.00     0.198 A 
ATOM     81  F   UNL A   1      43.070  31.322  27.349  1.00  0.00    -0.203 F 
ATOM     82  F   UNL A   1      48.232  32.728  26.498  1.00  0.00    -0.200 F 
ATOM     83  C   UNL A   1      45.940  33.245  26.441  1.00  0.00     0.200 A 
ATOM     84  F   UNL A   1      43.634  33.725  26.499  1.00  0.00    -0.200 F 
ATOM     85  F   UNL A   1      46.211  34.524  26.147  1.00  0.00    -0.200 F 
ENDBRANCH  61  75
BRANCH  62  86
ATOM     86  C   UNL A   1      37.741  31.568  30.413  1.00  0.00     0.064 A 
ATOM     87  C   UNL A   1      37.293  32.425  31.435  1.00  0.00     0.173 A 
ATOM     88  C   UNL A   1      37.201  31.790  29.132  1.00  0.00     0.173 A 
ATOM     89  F   UNL A   1      37.781  32.303  32.679  1.00  0.00    -0.203 F 
ATOM     90  C   UNL A   1      36.402  33.472  31.180  1.00  0.00     0.198 A 
ATOM     91  C   UNL A   1      36.308  32.835  28.879  1.00  0.00     0.198 A 
ATOM     92  F   UNL A   1      37.609  31.064  28.081  1.00  0.00    -0.203 F 
ATOM     93  F   UNL A   1      36.060  34.315  32.165  1.00  0.00    -0.200 F 
ATOM     94  C   UNL A   1      35.923  33.687  29.899  1.00  0.00     0.200 A 
ATOM     95  F   UNL A   1      35.880  33.054  27.628  1.00  0.00    -0.200 F 
ATOM     96  F   UNL A   1      35.131  34.736  29.636  1.00  0.00    -0.200 F 
ENDBRANCH  62  86
BRANCH  74  97
ATOM     97  C   UNL A   1      42.767  29.303  33.452  1.00  0.00     0.064 A 
ATOM     98  C   UNL A   1      42.078  28.082  33.528  1.00  0.00     0.173 A 
ATOM     99  C   UNL A   1      43.239  29.859  34.647  1.00  0.00     0.173 A 
ATOM    100  F   UNL A   1      41.659  27.455  32.420  1.00  0.00    -0.203 F 
ATOM    101  C   UNL A   1      41.841  27.471  34.759  1.00  0.00     0.198 A 
ATOM    102  C   UNL A   1      43.034  29.230  35.868  1.00  0.00     0.198 A 
ATOM    103  F   UNL A   1      43.932  31.010  34.624  1.00  0.00    -0.203 F 
ATOM    104  F   UNL A   1      41.159  26.317  34.817  1.00  0.00    -0.200 F 
ATOM    105  C   UNL A   1      42.324  28.043  35.926  1.00  0.00     0.200 A 
ATOM    106  F   UNL A   1      43.538  29.770  36.986  1.00  0.00    -0.200 F 
ATOM    107  F   UNL A   1      42.122  27.441  37.106  1.00  0.00    -0.200 F 
ENDBRANCH  74  97
ENDBRANCH  48  49
ENDBRANCH  40  43
ENDBRANCH  38  39
ENDBRANCH  37  38
ENDBRANCH  36  37
ENDBRANCH   1  36
TORSDOF 17
ENDMDL
MODEL 2
REMARK VINA RESULT:     -14.1      3.264      5.649
REMARK SMILES COc1ccc(-c2[nH]nc3nc(-c4ccc(C(F)(F)F)cc4)cc(C(=O)NCCCCCCNC(=O)c4ccc(-c5c6nc(c(-c7c(F)c(F)c(F)c(F)c7F)c7ccc([nH]7)c(-c7c(F)c(F)c(F)c(F)c7F)c7nc(c(-c8c(F)c(F)c(F)c(F)c8F)c8ccc5[nH]8)C=C7)C=C6)cc4)c23)cc1
REMARK SMILES IDX 30 1 29 2 28 3 27 4 25 5 26 6 24 8 7 9 8 10 100 11 9 12
REMARK SMILES IDX 10 14 11 15 23 16 12 17 6 18 3 19 4 20 102 21 5 22 101 23
REMARK SMILES IDX 2 24 1 25 13 26 14 27 22 28 15 29 21 30 16 31 17 32 18 33
REMARK SMILES IDX 19 34 20 35 31 36 32 37 33 38 34 39 35 40 36 42 37 43 38 44
REMARK SMILES IDX 99 45 39 46 98 47 40 48 41 49 42 50 92 51 43 52 97 53 91 54
REMARK SMILES IDX 93 55 44 56 96 57 90 58 89 59 45 61 77 62 57 63 76 64 58 65
REMARK SMILES IDX 61 66 75 67 94 68 59 69 60 70 74 72 95 73 62 74 46 75 47 76
REMARK SMILES IDX 55 77 48 78 49 79 53 80 56 81 50 82 51 83 54 84 52 85 78 86
REMARK SMILES IDX 79 87 87 88 80 89 81 90 85 91 88 92 82 93 83 94 86 95 84 96
REMARK SMILES IDX 63 97 64 98 72 99 65 100 66 101 70 102 73 103 67 104 68 105
REMARK SMILES IDX 71 106 69 107
REMARK H PARENT 27 7 8 13 34 41 93 60 61 71
REMARK Flexibility Score: inf
ROOT
ATOM      1  C   UNL A   1      34.817  24.592  25.673  1.00  0.00     0.002 C 
ENDROOT
BRANCH   1   2
ATOM      2  C   UNL A   1      34.109  23.531  26.528  1.00  0.00     0.021 C 
BRANCH   2   3
ATOM      3  C   UNL A   1      32.841  24.059  27.197  1.00  0.00     0.116 C 
BRANCH   3   4
ATOM      4  N   UNL A   1      31.685  23.279  26.814  1.00  0.00    -0.352 N 
ATOM      5  C   UNL A   1      30.924  23.122  25.688  1.00  0.00     0.252 C 
ATOM      6  O   UNL A   1      30.165  22.159  25.744  1.00  0.00    -0.269 OA
ATOM      7  H   UNL A   1      31.362  22.715  27.555  1.00  0.00     0.163 HD
BRANCH   5   8
ATOM      8  C   UNL A   1      31.026  23.949  24.462  1.00  0.00     0.055 A 
ATOM      9  C   UNL A   1      32.643  22.639  22.992  1.00  0.00     0.075 A 
ATOM     10  N   UNL A   1      33.260  23.019  21.820  1.00  0.00    -0.275 N 
ATOM     11  C   UNL A   1      31.880  23.741  23.358  1.00  0.00     0.059 A 
ATOM     12  N   UNL A   1      32.968  24.252  21.392  1.00  0.00    -0.154 NA
ATOM     13  H   UNL A   1      33.872  22.422  21.331  1.00  0.00     0.190 HD
ATOM     14  C   UNL A   1      32.118  24.709  22.307  1.00  0.00     0.182 A 
ATOM     15  N   UNL A   1      31.545  25.942  22.289  1.00  0.00    -0.226 NA
ATOM     16  C   UNL A   1      30.334  25.152  24.281  1.00  0.00     0.043 A 
ATOM     17  C   UNL A   1      30.666  26.119  23.302  1.00  0.00     0.074 A 
BRANCH   9  18
ATOM     18  C   UNL A   1      32.864  21.290  23.510  1.00  0.00     0.001 A 
ATOM     19  C   UNL A   1      33.343  18.669  24.421  1.00  0.00     0.118 A 
ATOM     20  C   UNL A   1      32.403  18.908  23.417  1.00  0.00     0.047 A 
ATOM     21  C   UNL A   1      34.038  19.742  24.977  1.00  0.00     0.047 A 
ATOM     22  C   UNL A   1      32.158  20.209  22.969  1.00  0.00     0.014 A 
ATOM     23  C   UNL A   1      33.783  21.048  24.539  1.00  0.00     0.014 A 
BRANCH  19  24
ATOM     24  O   UNL A   1      33.536  17.351  24.733  1.00  0.00    -0.497 OA
ATOM     25  C   UNL A   1      34.117  16.553  23.710  1.00  0.00     0.278 C 
ENDBRANCH  19  24
ENDBRANCH   9  18
BRANCH  17  26
ATOM     26  C   UNL A   1      30.096  27.468  23.472  1.00  0.00     0.000 A 
ATOM     27  C   UNL A   1      30.871  28.562  23.865  1.00  0.00     0.011 A 
ATOM     28  C   UNL A   1      28.746  27.699  23.130  1.00  0.00     0.011 A 
ATOM     29  C   UNL A   1      30.331  29.857  23.860  1.00  0.00     0.014 A 
ATOM     30  C   UNL A   1      28.205  28.987  23.127  1.00  0.00     0.014 A 
ATOM     31  C   UNL A   1      28.999  30.084  23.475  1.00  0.00     0.056 A 
BRANCH  31  32
ATOM     32  C   UNL A   1      28.445  31.487  23.427  1.00  0.00     0.416 C 
ATOM     33  F   UNL A   1      28.281  31.949  22.158  1.00  0.00    -0.166 F 
ATOM     34  F   UNL A   1      27.222  31.580  24.023  1.00  0.00    -0.166 F 
ATOM     35  F   UNL A   1      29.230  32.404  24.062  1.00  0.00    -0.166 F 
ENDBRANCH  31  32
ENDBRANCH  17  26
ENDBRANCH   5   8
ENDBRANCH   3   4
ENDBRANCH   2   3
ENDBRANCH   1   2
BRANCH   1  36
ATOM     36  C   UNL A   1      35.742  24.038  24.577  1.00  0.00     0.002 C 
BRANCH  36  37
ATOM     37  C   UNL A   1      36.742  22.961  25.027  1.00  0.00     0.021 C 
BRANCH  37  38
ATOM     38  C   UNL A   1      37.738  23.463  26.058  1.00  0.00     0.116 C 
BRANCH  38  39
ATOM     39  N   UNL A   1      38.823  22.507  26.263  1.00  0.00    -0.352 N 
ATOM     40  C   UNL A   1      40.154  22.774  26.457  1.00  0.00     0.251 C 
ATOM     41  H   UNL A   1      38.567  21.557  26.259  1.00  0.00     0.163 HD
ATOM     42  O   UNL A   1      41.012  21.918  26.227  1.00  0.00    -0.269 OA
BRANCH  40  43
ATOM     43  C   UNL A   1      40.547  24.098  26.952  1.00  0.00     0.039 A 
ATOM     44  C   UNL A   1      40.064  25.258  26.344  1.00  0.00     0.014 A 
ATOM     45  C   UNL A   1      41.387  24.163  28.064  1.00  0.00     0.014 A 
ATOM     46  C   UNL A   1      40.373  26.486  26.916  1.00  0.00     0.010 A 
ATOM     47  C   UNL A   1      41.583  25.364  28.703  1.00  0.00     0.010 A 
ATOM     48  C   UNL A   1      41.110  26.531  28.114  1.00  0.00    -0.014 A 
BRANCH  48  49
ATOM     49  C   UNL A   1      41.203  27.784  28.859  1.00  0.00     0.031 A 
ATOM     50  C   UNL A   1      42.317  28.644  28.376  1.00  0.00     0.074 A 
ATOM     51  C   UNL A   1      40.264  28.216  29.733  1.00  0.00     0.049 A 
ATOM     52  N   UNL A   1      43.405  28.934  29.007  1.00  0.00    -0.248 NA
ATOM     53  C   UNL A   1      42.320  29.087  26.968  1.00  0.00     0.031 C 
ATOM     54  C   UNL A   1      38.971  27.583  30.019  1.00  0.00     0.029 A 
ATOM     55  N   UNL A   1      40.201  29.366  30.475  1.00  0.00    -0.354 N 
ATOM     56  C   UNL A   1      44.085  29.830  28.184  1.00  0.00     0.074 A 
ATOM     57  C   UNL A   1      43.502  29.702  26.878  1.00  0.00     0.031 C 
ATOM     58  C   UNL A   1      38.162  28.458  30.655  1.00  0.00     0.029 A 
ATOM     59  C   UNL A   1      38.931  29.643  30.985  1.00  0.00     0.049 A 
ATOM     60  H   UNL A   1      40.981  29.944  30.635  1.00  0.00     0.167 HD
ATOM     61  C   UNL A   1      44.784  30.851  28.754  1.00  0.00     0.037 A 
ATOM     62  C   UNL A   1      38.532  30.770  31.627  1.00  0.00     0.037 A 
ATOM     63  C   UNL A   1      44.996  30.586  30.155  1.00  0.00     0.049 A 
ATOM     64  C   UNL A   1      39.745  31.427  32.161  1.00  0.00     0.074 A 
ATOM     65  C   UNL A   1      45.803  29.776  30.922  1.00  0.00     0.029 A 
ATOM     66  N   UNL A   1      43.929  30.946  30.929  1.00  0.00    -0.354 N 
ATOM     67  N   UNL A   1      40.470  30.918  33.118  1.00  0.00    -0.248 NA
ATOM     68  C   UNL A   1      40.373  32.495  31.393  1.00  0.00     0.031 C 
ATOM     69  C   UNL A   1      45.129  29.602  32.171  1.00  0.00     0.029 A 
ATOM     70  C   UNL A   1      43.961  30.355  32.160  1.00  0.00     0.049 A 
ATOM     71  H   UNL A   1      43.220  31.561  30.634  1.00  0.00     0.167 HD
ATOM     72  C   UNL A   1      41.758  31.276  32.783  1.00  0.00     0.074 A 
ATOM     73  C   UNL A   1      41.625  32.382  31.842  1.00  0.00     0.031 C 
ATOM     74  C   UNL A   1      42.792  30.416  33.005  1.00  0.00     0.037 A 
BRANCH  61  75
ATOM     75  C   UNL A   1      44.760  32.287  28.254  1.00  0.00     0.064 A 
ATOM     76  C   UNL A   1      45.985  32.917  27.945  1.00  0.00     0.173 A 
ATOM     77  C   UNL A   1      43.655  33.159  28.391  1.00  0.00     0.173 A 
ATOM     78  F   UNL A   1      47.111  32.197  27.827  1.00  0.00    -0.203 F 
ATOM     79  C   UNL A   1      46.100  34.308  27.844  1.00  0.00     0.198 A 
ATOM     80  C   UNL A   1      43.765  34.541  28.241  1.00  0.00     0.198 A 
ATOM     81  F   UNL A   1      42.453  32.735  28.794  1.00  0.00    -0.203 F 
ATOM     82  F   UNL A   1      47.305  34.867  27.668  1.00  0.00    -0.200 F 
ATOM     83  C   UNL A   1      44.991  35.118  27.995  1.00  0.00     0.200 A 
ATOM     84  F   UNL A   1      42.683  35.309  28.428  1.00  0.00    -0.200 F 
ATOM     85  F   UNL A   1      45.106  36.453  27.956  1.00  0.00    -0.200 F 
ENDBRANCH  61  75
BRANCH  62  86
ATOM     86  C   UNL A   1      37.214  31.449  31.635  1.00  0.00     0.064 A 
ATOM     87  C   UNL A   1      36.581  31.797  32.842  1.00  0.00     0.173 A 
ATOM     88  C   UNL A   1      36.701  32.045  30.467  1.00  0.00     0.173 A 
ATOM     89  F   UNL A   1      37.025  31.298  34.005  1.00  0.00    -0.203 F 
ATOM     90  C   UNL A   1      35.535  32.725  32.884  1.00  0.00     0.198 A 
ATOM     91  C   UNL A   1      35.655  32.970  30.510  1.00  0.00     0.198 A 
ATOM     92  F   UNL A   1      37.274  31.822  29.276  1.00  0.00    -0.203 F 
ATOM     93  F   UNL A   1      35.010  33.089  34.063  1.00  0.00    -0.200 F 
ATOM     94  C   UNL A   1      35.084  33.324  31.720  1.00  0.00     0.200 A 
ATOM     95  F   UNL A   1      35.252  33.569  29.381  1.00  0.00    -0.200 F 
ATOM     96  F   UNL A   1      34.137  34.271  31.766  1.00  0.00    -0.200 F 
ENDBRANCH  62  86
BRANCH  74  97
ATOM     97  C   UNL A   1      42.636  29.408  34.095  1.00  0.00     0.064 A 
ATOM     98  C   UNL A   1      41.943  28.193  33.976  1.00  0.00     0.173 A 
ATOM     99  C   UNL A   1      43.276  29.675  35.312  1.00  0.00     0.173 A 
ATOM    100  F   UNL A   1      41.367  27.837  32.819  1.00  0.00    -0.203 F 
ATOM    101  C   UNL A   1      41.864  27.307  35.050  1.00  0.00     0.198 A 
ATOM    102  C   UNL A   1      43.227  28.774  36.367  1.00  0.00     0.198 A 
ATOM    103  F   UNL A   1      43.980  30.809  35.465  1.00  0.00    -0.203 F 
ATOM    104  F   UNL A   1      41.176  26.162  34.928  1.00  0.00    -0.200 F 
ATOM    105  C   UNL A   1      42.511  27.596  36.242  1.00  0.00     0.200 A 
ATOM    106  F   UNL A   1      43.888  29.044  37.501  1.00  0.00    -0.200 F 
ATOM    107  F   UNL A   1      42.460  26.731  37.264  1.00  0.00    -0.200 F 
ENDBRANCH  74  97
ENDBRANCH  48  49
ENDBRANCH  40  43
ENDBRANCH  38  39
ENDBRANCH  37  38
ENDBRANCH  36  37
ENDBRANCH   1  36
TORSDOF 17
ENDMDL
MODEL 3
REMARK VINA RESULT:     -14.0      3.241      5.865
REMARK SMILES COc1ccc(-c2[nH]nc3nc(-c4ccc(C(F)(F)F)cc4)cc(C(=O)NCCCCCCNC(=O)c4ccc(-c5c6nc(c(-c7c(F)c(F)c(F)c(F)c7F)c7ccc([nH]7)c(-c7c(F)c(F)c(F)c(F)c7F)c7nc(c(-c8c(F)c(F)c(F)c(F)c8F)c8ccc5[nH]8)C=C7)C=C6)cc4)c23)cc1
REMARK SMILES IDX 30 1 29 2 28 3 27 4 25 5 26 6 24 8 7 9 8 10 100 11 9 12
REMARK SMILES IDX 10 14 11 15 23 16 12 17 6 18 3 19 4 20 102 21 5 22 101 23
REMARK SMILES IDX 2 24 1 25 13 26 14 27 22 28 15 29 21 30 16 31 17 32 18 33
REMARK SMILES IDX 19 34 20 35 31 36 32 37 33 38 34 39 35 40 36 42 37 43 38 44
REMARK SMILES IDX 99 45 39 46 98 47 40 48 41 49 42 50 92 51 43 52 97 53 91 54
REMARK SMILES IDX 93 55 44 56 96 57 90 58 89 59 45 61 77 62 57 63 76 64 58 65
REMARK SMILES IDX 61 66 75 67 94 68 59 69 60 70 74 72 95 73 62 74 46 75 47 76
REMARK SMILES IDX 55 77 48 78 49 79 53 80 56 81 50 82 51 83 54 84 52 85 78 86
REMARK SMILES IDX 79 87 87 88 80 89 81 90 85 91 88 92 82 93 83 94 86 95 84 96
REMARK SMILES IDX 63 97 64 98 72 99 65 100 66 101 70 102 73 103 67 104 68 105
REMARK SMILES IDX 71 106 69 107
REMARK H PARENT 27 7 8 13 34 41 93 60 61 71
REMARK Flexibility Score: inf
ROOT
ATOM      1  C   UNL A   1      34.587  24.556  25.425  1.00  0.00     0.002 C 
ENDROOT
BRANCH   1   2
ATOM      2  C   UNL A   1      34.103  23.653  26.568  1.00  0.00     0.021 C 
BRANCH   2   3
ATOM      3  C   UNL A   1      32.794  24.136  27.192  1.00  0.00     0.116 C 
BRANCH   3   4
ATOM      4  N   UNL A   1      31.685  23.300  26.789  1.00  0.00    -0.352 N 
ATOM      5  C   UNL A   1      30.953  23.105  25.649  1.00  0.00     0.252 C 
ATOM      6  O   UNL A   1      30.240  22.108  25.693  1.00  0.00    -0.269 OA
ATOM      7  H   UNL A   1      31.376  22.722  27.525  1.00  0.00     0.163 HD
BRANCH   5   8
ATOM      8  C   UNL A   1      31.037  23.936  24.424  1.00  0.00     0.055 A 
ATOM      9  C   UNL A   1      32.623  22.624  22.923  1.00  0.00     0.075 A 
ATOM     10  N   UNL A   1      33.221  23.004  21.742  1.00  0.00    -0.275 N 
ATOM     11  C   UNL A   1      31.871  23.727  23.305  1.00  0.00     0.059 A 
ATOM     12  N   UNL A   1      32.927  24.239  21.322  1.00  0.00    -0.154 NA
ATOM     13  H   UNL A   1      33.823  22.406  21.241  1.00  0.00     0.190 HD
ATOM     14  C   UNL A   1      32.094  24.698  22.253  1.00  0.00     0.182 A 
ATOM     15  N   UNL A   1      31.526  25.932  22.248  1.00  0.00    -0.226 NA
ATOM     16  C   UNL A   1      30.346  25.141  24.258  1.00  0.00     0.043 A 
ATOM     17  C   UNL A   1      30.665  26.110  23.276  1.00  0.00     0.074 A 
BRANCH   9  18
ATOM     18  C   UNL A   1      32.848  21.273  23.434  1.00  0.00     0.001 A 
ATOM     19  C   UNL A   1      33.334  18.648  24.331  1.00  0.00     0.118 A 
ATOM     20  C   UNL A   1      32.397  18.889  23.325  1.00  0.00     0.047 A 
ATOM     21  C   UNL A   1      34.023  19.720  24.896  1.00  0.00     0.047 A 
ATOM     22  C   UNL A   1      32.148  20.192  22.884  1.00  0.00     0.014 A 
ATOM     23  C   UNL A   1      33.765  21.028  24.464  1.00  0.00     0.014 A 
BRANCH  19  24
ATOM     24  O   UNL A   1      33.531  17.329  24.636  1.00  0.00    -0.497 OA
ATOM     25  C   UNL A   1      34.321  16.592  23.710  1.00  0.00     0.278 C 
ENDBRANCH  19  24
ENDBRANCH   9  18
BRANCH  17  26
ATOM     26  C   UNL A   1      30.103  27.461  23.459  1.00  0.00     0.000 A 
ATOM     27  C   UNL A   1      30.882  28.543  23.877  1.00  0.00     0.011 A 
ATOM     28  C   UNL A   1      28.759  27.706  23.105  1.00  0.00     0.011 A 
ATOM     29  C   UNL A   1      30.352  29.842  23.885  1.00  0.00     0.014 A 
ATOM     30  C   UNL A   1      28.228  28.998  23.115  1.00  0.00     0.014 A 
ATOM     31  C   UNL A   1      29.026  30.085  23.488  1.00  0.00     0.056 A 
BRANCH  31  32
ATOM     32  C   UNL A   1      28.483  31.493  23.455  1.00  0.00     0.416 C 
ATOM     33  F   UNL A   1      28.298  31.959  22.190  1.00  0.00    -0.166 F 
ATOM     34  F   UNL A   1      27.273  31.594  24.075  1.00  0.00    -0.166 F 
ATOM     35  F   UNL A   1      29.288  32.401  24.076  1.00  0.00    -0.166 F 
ENDBRANCH  31  32
ENDBRANCH  17  26
ENDBRANCH   5   8
ENDBRANCH   3   4
ENDBRANCH   2   3
ENDBRANCH   1   2
BRANCH   1  36
ATOM     36  C   UNL A   1      35.803  24.029  24.645  1.00  0.00     0.002 C 
BRANCH  36  37
ATOM     37  C   UNL A   1      36.677  23.002  25.382  1.00  0.00     0.021 C 
BRANCH  37  38
ATOM     38  C   UNL A   1      37.786  23.639  26.201  1.00  0.00     0.116 C 
BRANCH  38  39
ATOM     39  N   UNL A   1      38.792  22.656  26.593  1.00  0.00    -0.352 N 
ATOM     40  C   UNL A   1      40.127  22.866  26.829  1.00  0.00     0.251 C 
ATOM     41  H   UNL A   1      38.473  21.732  26.700  1.00  0.00     0.163 HD
ATOM     42  O   UNL A   1      40.936  21.937  26.764  1.00  0.00    -0.269 OA
BRANCH  40  43
ATOM     43  C   UNL A   1      40.583  24.219  27.168  1.00  0.00     0.039 A 
ATOM     44  C   UNL A   1      40.075  25.331  26.495  1.00  0.00     0.014 A 
ATOM     45  C   UNL A   1      41.510  24.363  28.200  1.00  0.00     0.014 A 
ATOM     46  C   UNL A   1      40.452  26.598  26.925  1.00  0.00     0.010 A 
ATOM     47  C   UNL A   1      41.780  25.611  28.708  1.00  0.00     0.010 A 
ATOM     48  C   UNL A   1      41.282  26.732  28.053  1.00  0.00    -0.014 A 
BRANCH  48  49
ATOM     49  C   UNL A   1      41.458  28.045  28.669  1.00  0.00     0.031 A 
ATOM     50  C   UNL A   1      42.688  28.731  28.190  1.00  0.00     0.074 A 
ATOM     51  C   UNL A   1      40.513  28.662  29.417  1.00  0.00     0.049 A 
ATOM     52  N   UNL A   1      43.756  28.980  28.872  1.00  0.00    -0.248 NA
ATOM     53  C   UNL A   1      42.836  29.012  26.749  1.00  0.00     0.031 C 
ATOM     54  C   UNL A   1      39.143  28.196  29.663  1.00  0.00     0.029 A 
ATOM     55  N   UNL A   1      40.523  29.887  30.028  1.00  0.00    -0.354 N 
ATOM     56  C   UNL A   1      44.582  29.706  28.019  1.00  0.00     0.074 A 
ATOM     57  C   UNL A   1      44.080  29.493  26.691  1.00  0.00     0.031 C 
ATOM     58  C   UNL A   1      38.391  29.212  30.138  1.00  0.00     0.029 A 
ATOM     59  C   UNL A   1      39.258  30.344  30.404  1.00  0.00     0.049 A 
ATOM     60  H   UNL A   1      41.348  30.399  30.190  1.00  0.00     0.167 HD
ATOM     61  C   UNL A   1      45.346  30.710  28.534  1.00  0.00     0.037 A 
ATOM     62  C   UNL A   1      38.940  31.569  30.893  1.00  0.00     0.037 A 
ATOM     63  C   UNL A   1      45.432  30.583  29.967  1.00  0.00     0.049 A 
ATOM     64  C   UNL A   1      40.176  32.158  31.451  1.00  0.00     0.074 A 
ATOM     65  C   UNL A   1      46.093  29.786  30.875  1.00  0.00     0.029 A 
ATOM     66  N   UNL A   1      44.360  31.130  30.613  1.00  0.00    -0.354 N 
ATOM     67  N   UNL A   1      40.775  31.689  32.510  1.00  0.00    -0.248 NA
ATOM     68  C   UNL A   1      40.966  33.067  30.629  1.00  0.00     0.031 C 
ATOM     69  C   UNL A   1      45.321  29.820  32.078  1.00  0.00     0.029 A 
ATOM     70  C   UNL A   1      44.243  30.679  31.897  1.00  0.00     0.049 A 
ATOM     71  H   UNL A   1      43.742  31.776  30.200  1.00  0.00     0.167 HD
ATOM     72  C   UNL A   1      42.114  31.878  32.244  1.00  0.00     0.074 A 
ATOM     73  C   UNL A   1      42.165  32.880  31.186  1.00  0.00     0.031 C 
ATOM     74  C   UNL A   1      43.032  30.950  32.634  1.00  0.00     0.037 A 
BRANCH  61  75
ATOM     75  C   UNL A   1      45.510  32.077  27.888  1.00  0.00     0.064 A 
ATOM     76  C   UNL A   1      44.352  32.826  27.586  1.00  0.00     0.173 A 
ATOM     77  C   UNL A   1      46.694  32.522  27.256  1.00  0.00     0.173 A 
ATOM     78  F   UNL A   1      43.161  32.478  28.096  1.00  0.00    -0.203 F 
ATOM     79  C   UNL A   1      44.372  33.891  26.677  1.00  0.00     0.198 A 
ATOM     80  C   UNL A   1      46.719  33.614  26.389  1.00  0.00     0.198 A 
ATOM     81  F   UNL A   1      47.848  31.854  27.346  1.00  0.00    -0.203 F 
ATOM     82  F   UNL A   1      43.228  34.494  26.330  1.00  0.00    -0.200 F 
ATOM     83  C   UNL A   1      45.555  34.281  26.078  1.00  0.00     0.200 A 
ATOM     84  F   UNL A   1      47.871  33.951  25.792  1.00  0.00    -0.200 F 
ATOM     85  F   UNL A   1      45.570  35.262  25.165  1.00  0.00    -0.200 F 
ENDBRANCH  61  75
BRANCH  62  86
ATOM     86  C   UNL A   1      37.704  32.372  30.725  1.00  0.00     0.064 A 
ATOM     87  C   UNL A   1      37.389  32.977  29.495  1.00  0.00     0.173 A 
ATOM     88  C   UNL A   1      36.662  32.300  31.669  1.00  0.00     0.173 A 
ATOM     89  F   UNL A   1      38.315  33.059  28.527  1.00  0.00    -0.203 F 
ATOM     90  C   UNL A   1      36.098  33.432  29.207  1.00  0.00     0.198 A 
ATOM     91  C   UNL A   1      35.374  32.758  31.382  1.00  0.00     0.198 A 
ATOM     92  F   UNL A   1      36.847  31.689  32.849  1.00  0.00    -0.203 F 
ATOM     93  F   UNL A   1      35.820  33.932  27.994  1.00  0.00    -0.200 F 
ATOM     94  C   UNL A   1      35.087  33.307  30.145  1.00  0.00     0.200 A 
ATOM     95  F   UNL A   1      34.396  32.599  32.284  1.00  0.00    -0.200 F 
ATOM     96  F   UNL A   1      33.833  33.671  29.844  1.00  0.00    -0.200 F 
ENDBRANCH  62  86
BRANCH  74  97
ATOM     97  C   UNL A   1      42.695  30.089  33.807  1.00  0.00     0.064 A 
ATOM     98  C   UNL A   1      42.824  30.472  35.151  1.00  0.00     0.173 A 
ATOM     99  C   UNL A   1      42.162  28.821  33.540  1.00  0.00     0.173 A 
ATOM    100  F   UNL A   1      43.259  31.696  35.482  1.00  0.00    -0.203 F 
ATOM    101  C   UNL A   1      42.470  29.600  36.180  1.00  0.00     0.198 A 
ATOM    102  C   UNL A   1      41.775  27.969  34.566  1.00  0.00     0.198 A 
ATOM    103  F   UNL A   1      41.989  28.420  32.270  1.00  0.00    -0.203 F 
ATOM    104  F   UNL A   1      42.623  29.973  37.460  1.00  0.00    -0.200 F 
ATOM    105  C   UNL A   1      41.940  28.353  35.886  1.00  0.00     0.200 A 
ATOM    106  F   UNL A   1      41.228  26.782  34.272  1.00  0.00    -0.200 F 
ATOM    107  F   UNL A   1      41.572  27.526  36.875  1.00  0.00    -0.200 F 
ENDBRANCH  74  97
ENDBRANCH  48  49
ENDBRANCH  40  43
ENDBRANCH  38  39
ENDBRANCH  37  38
ENDBRANCH  36  37
ENDBRANCH   1  36
TORSDOF 17
ENDMDL
