MODEL 1
REMARK VINA RESULT:     -10.6      0.000      0.000
REMARK SMILES CN(CC(=O)NCCCCCCNC(=O)c1ccc(-c2c3nc(c(-c4c(F)c(F)c(F)c(F)c4F)c4ccc([nH]4)c(-c4c(F)c(F)c(F)c(F)c4F)c4nc(c(-c5c(F)c(F)c(F)c(F)c5F)c5ccc2[nH]5)C=C4)C=C3)cc1)C(=O)[C@@H]1CC[C@@H](C[NH3+])O1
REMARK SMILES IDX 8 1 7 2 6 3 4 4 5 5 3 7 2 8 1 9 79 10 80 11 81 12 82 13
REMARK SMILES IDX 87 14 83 15 84 16 85 17 86 18 9 22 10 23 11 24 12 25 13 26
REMARK SMILES IDX 14 27 15 29 16 30 17 31 78 32 18 33 77 34 19 35 20 36 21 37
REMARK SMILES IDX 71 38 22 39 76 40 70 41 72 42 23 43 75 44 69 45 68 46 24 48
REMARK SMILES IDX 56 49 36 50 55 51 37 52 40 53 54 54 73 55 38 56 39 57 53 59
REMARK SMILES IDX 74 60 41 61 25 62 26 63 34 64 27 65 28 66 32 67 35 68 29 69
REMARK SMILES IDX 30 70 33 71 31 72 57 73 58 74 66 75 59 76 60 77 64 78 67 79
REMARK SMILES IDX 61 80 62 81 65 82 63 83 42 84 43 85 51 86 44 87 45 88 49 89
REMARK SMILES IDX 52 90 46 91 47 92 50 93 48 94
REMARK H PARENT 6 6 86 19 86 20 86 21 13 28 72 47 40 58
REMARK Flexibility Score: inf
ROOT
ATOM      1  C   UNL A   1      35.629  32.059  28.031  1.00  0.00     0.021 C 
ENDROOT
BRANCH   1   2
ATOM      2  C   UNL A   1      35.209  30.592  28.031  1.00  0.00     0.116 C 
BRANCH   2   3
ATOM      3  N   UNL A   1      33.775  30.433  27.952  1.00  0.00    -0.355 N 
ATOM      4  C   UNL A   1      33.014  29.930  26.940  1.00  0.00     0.239 C 
ATOM      5  O   UNL A   1      31.816  29.732  27.169  1.00  0.00    -0.273 OA
ATOM      6  H   UNL A   1      33.275  30.731  28.746  1.00  0.00     0.163 HD
BRANCH   4   7
ATOM      7  C   UNL A   1      33.650  29.437  25.630  1.00  0.00     0.219 C 
BRANCH   7   8
ATOM      8  N   UNL A   1      33.361  28.062  25.205  1.00  0.00    -0.334 N 
ATOM      9  C   UNL A   1      33.650  26.976  26.128  1.00  0.00     0.147 C 
BRANCH   8  10
ATOM     10  C   UNL A   1      32.565  27.743  24.101  1.00  0.00     0.251 C 
ATOM     11  O   UNL A   1      33.078  27.403  23.031  1.00  0.00    -0.272 OA
BRANCH  10  12
ATOM     12  C   UNL A   1      31.034  27.824  24.263  1.00  0.00     0.208 C 
ATOM     13  C   UNL A   1      30.326  26.500  24.012  1.00  0.00     0.045 C 
ATOM     14  O   UNL A   1      30.465  28.762  23.335  1.00  0.00    -0.359 OA
ATOM     15  C   UNL A   1      28.947  26.962  23.621  1.00  0.00     0.041 C 
ATOM     16  C   UNL A   1      29.262  28.193  22.784  1.00  0.00     0.174 C 
BRANCH  16  17
ATOM     17  C   UNL A   1      28.147  29.246  22.780  1.00  0.00     0.291 C 
BRANCH  17  18
ATOM     18  N   UNL A   1      26.834  28.697  23.119  1.00  0.00    -0.355 N 
ATOM     19  H   UNL A   1      26.106  29.262  22.684  1.00  0.00     0.344 HD
ATOM     20  H   UNL A   1      26.713  28.706  24.132  1.00  0.00     0.344 HD
ATOM     21  H   UNL A   1      26.769  27.738  22.777  1.00  0.00     0.344 HD
ENDBRANCH  17  18
ENDBRANCH  16  17
ENDBRANCH  10  12
ENDBRANCH   8  10
ENDBRANCH   7   8
ENDBRANCH   4   7
ENDBRANCH   2   3
ENDBRANCH   1   2
BRANCH   1  22
ATOM     22  C   UNL A   1      34.709  32.976  28.846  1.00  0.00     0.002 C 
BRANCH  22  23
ATOM     23  C   UNL A   1      34.032  34.104  28.056  1.00  0.00     0.002 C 
BRANCH  23  24
ATOM     24  C   UNL A   1      32.924  34.849  28.802  1.00  0.00     0.021 C 
BRANCH  24  25
ATOM     25  C   UNL A   1      33.400  36.067  29.587  1.00  0.00     0.116 C 
BRANCH  25  26
ATOM     26  N   UNL A   1      32.490  36.414  30.669  1.00  0.00    -0.352 N 
ATOM     27  C   UNL A   1      32.495  35.980  31.971  1.00  0.00     0.251 C 
ATOM     28  H   UNL A   1      31.774  37.048  30.434  1.00  0.00     0.163 HD
ATOM     29  O   UNL A   1      31.554  36.227  32.718  1.00  0.00    -0.269 OA
BRANCH  27  30
ATOM     30  C   UNL A   1      33.640  35.188  32.466  1.00  0.00     0.039 A 
ATOM     31  C   UNL A   1      33.436  33.862  32.858  1.00  0.00     0.014 A 
ATOM     32  C   UNL A   1      34.917  35.754  32.526  1.00  0.00     0.014 A 
ATOM     33  C   UNL A   1      34.526  33.082  33.250  1.00  0.00     0.010 A 
ATOM     34  C   UNL A   1      36.009  34.955  32.846  1.00  0.00     0.010 A 
ATOM     35  C   UNL A   1      35.825  33.612  33.214  1.00  0.00    -0.014 A 
BRANCH  35  36
ATOM     36  C   UNL A   1      37.015  32.803  33.584  1.00  0.00     0.031 A 
ATOM     37  C   UNL A   1      37.740  33.102  34.868  1.00  0.00     0.074 A 
ATOM     38  C   UNL A   1      37.491  31.870  32.738  1.00  0.00     0.049 A 
ATOM     39  N   UNL A   1      38.886  32.644  35.300  1.00  0.00    -0.248 NA
ATOM     40  C   UNL A   1      37.101  34.071  35.774  1.00  0.00     0.031 C 
ATOM     41  C   UNL A   1      36.893  31.505  31.453  1.00  0.00     0.029 A 
ATOM     42  N   UNL A   1      38.608  31.074  32.821  1.00  0.00    -0.354 N 
ATOM     43  C   UNL A   1      39.112  33.278  36.515  1.00  0.00     0.074 A 
ATOM     44  C   UNL A   1      38.013  34.194  36.727  1.00  0.00     0.031 C 
ATOM     45  C   UNL A   1      37.646  30.558  30.870  1.00  0.00     0.029 A 
ATOM     46  C   UNL A   1      38.803  30.282  31.716  1.00  0.00     0.049 A 
ATOM     47  H   UNL A   1      39.210  31.071  33.599  1.00  0.00     0.167 HD
ATOM     48  C   UNL A   1      40.130  33.093  37.388  1.00  0.00     0.037 A 
ATOM     49  C   UNL A   1      39.816  29.447  31.410  1.00  0.00     0.037 A 
ATOM     50  C   UNL A   1      41.209  32.164  37.185  1.00  0.00     0.049 A 
ATOM     51  C   UNL A   1      40.951  29.280  32.389  1.00  0.00     0.074 A 
ATOM     52  C   UNL A   1      42.281  31.891  38.017  1.00  0.00     0.029 A 
ATOM     53  N   UNL A   1      41.347  31.349  36.072  1.00  0.00    -0.354 N 
ATOM     54  N   UNL A   1      41.135  29.860  33.550  1.00  0.00    -0.248 NA
ATOM     55  C   UNL A   1      42.016  28.337  32.018  1.00  0.00     0.031 C 
ATOM     56  C   UNL A   1      43.086  30.934  37.393  1.00  0.00     0.029 A 
ATOM     57  C   UNL A   1      42.488  30.574  36.196  1.00  0.00     0.049 A 
ATOM     58  H   UNL A   1      40.726  31.324  35.308  1.00  0.00     0.167 HD
ATOM     59  C   UNL A   1      42.306  29.322  34.064  1.00  0.00     0.074 A 
ATOM     60  C   UNL A   1      42.789  28.364  33.094  1.00  0.00     0.031 C 
ATOM     61  C   UNL A   1      42.928  29.595  35.237  1.00  0.00     0.037 A 
BRANCH  48  62
ATOM     62  C   UNL A   1      40.118  33.899  38.654  1.00  0.00     0.064 A 
ATOM     63  C   UNL A   1      40.807  35.118  38.749  1.00  0.00     0.173 A 
ATOM     64  C   UNL A   1      39.367  33.481  39.762  1.00  0.00     0.173 A 
ATOM     65  F   UNL A   1      41.549  35.556  37.721  1.00  0.00    -0.203 F 
ATOM     66  C   UNL A   1      40.761  35.878  39.914  1.00  0.00     0.198 A 
ATOM     67  C   UNL A   1      39.298  34.259  40.915  1.00  0.00     0.198 A 
ATOM     68  F   UNL A   1      38.685  32.327  39.721  1.00  0.00    -0.203 F 
ATOM     69  F   UNL A   1      41.459  37.019  39.996  1.00  0.00    -0.200 F 
ATOM     70  C   UNL A   1      39.999  35.453  40.992  1.00  0.00     0.200 A 
ATOM     71  F   UNL A   1      38.550  33.855  41.950  1.00  0.00    -0.200 F 
ATOM     72  F   UNL A   1      39.943  36.193  42.108  1.00  0.00    -0.200 F 
ENDBRANCH  48  62
BRANCH  49  73
ATOM     73  C   UNL A   1      39.816  28.702  30.122  1.00  0.00     0.064 A 
ATOM     74  C   UNL A   1      39.283  27.407  30.037  1.00  0.00     0.173 A 
ATOM     75  C   UNL A   1      40.390  29.246  28.963  1.00  0.00     0.173 A 
ATOM     76  F   UNL A   1      38.741  26.835  31.122  1.00  0.00    -0.203 F 
ATOM     77  C   UNL A   1      39.358  26.672  28.856  1.00  0.00     0.198 A 
ATOM     78  C   UNL A   1      40.434  28.523  27.773  1.00  0.00     0.198 A 
ATOM     79  F   UNL A   1      40.909  30.482  28.986  1.00  0.00    -0.203 F 
ATOM     80  F   UNL A   1      38.901  25.413  28.822  1.00  0.00    -0.200 F 
ATOM     81  C   UNL A   1      39.931  27.231  27.724  1.00  0.00     0.200 A 
ATOM     82  F   UNL A   1      40.976  29.073  26.677  1.00  0.00    -0.200 F 
ATOM     83  F   UNL A   1      40.011  26.521  26.590  1.00  0.00    -0.200 F 
ENDBRANCH  49  73
BRANCH  61  84
ATOM     84  C   UNL A   1      44.154  28.800  35.578  1.00  0.00     0.064 A 
ATOM     85  C   UNL A   1      44.081  27.593  36.288  1.00  0.00     0.173 A 
ATOM     86  C   UNL A   1      45.414  29.223  35.125  1.00  0.00     0.173 A 
ATOM     87  F   UNL A   1      42.902  27.154  36.754  1.00  0.00    -0.203 F 
ATOM     88  C   UNL A   1      45.229  26.849  36.549  1.00  0.00     0.198 A 
ATOM     89  C   UNL A   1      46.553  28.461  35.361  1.00  0.00     0.198 A 
ATOM     90  F   UNL A   1      45.535  30.366  34.434  1.00  0.00    -0.203 F 
ATOM     91  F   UNL A   1      45.143  25.718  37.264  1.00  0.00    -0.200 F 
ATOM     92  C   UNL A   1      46.461  27.277  36.077  1.00  0.00     0.200 A 
ATOM     93  F   UNL A   1      47.740  28.869  34.891  1.00  0.00    -0.200 F 
ATOM     94  F   UNL A   1      47.561  26.550  36.317  1.00  0.00    -0.200 F 
ENDBRANCH  61  84
ENDBRANCH  35  36
ENDBRANCH  27  30
ENDBRANCH  25  26
ENDBRANCH  24  25
ENDBRANCH  23  24
ENDBRANCH  22  23
ENDBRANCH   1  22
TORSDOF 18
ENDMDL
MODEL 2
REMARK VINA RESULT:     -10.5      1.832      7.736
REMARK SMILES CN(CC(=O)NCCCCCCNC(=O)c1ccc(-c2c3nc(c(-c4c(F)c(F)c(F)c(F)c4F)c4ccc([nH]4)c(-c4c(F)c(F)c(F)c(F)c4F)c4nc(c(-c5c(F)c(F)c(F)c(F)c5F)c5ccc2[nH]5)C=C4)C=C3)cc1)C(=O)[C@@H]1CC[C@@H](C[NH3+])O1
REMARK SMILES IDX 8 1 7 2 6 3 4 4 5 5 3 7 2 8 1 9 79 10 80 11 81 12 82 13
REMARK SMILES IDX 87 14 83 15 84 16 85 17 86 18 9 22 10 23 11 24 12 25 13 26
REMARK SMILES IDX 14 27 15 29 16 30 17 31 78 32 18 33 77 34 19 35 20 36 21 37
REMARK SMILES IDX 71 38 22 39 76 40 70 41 72 42 23 43 75 44 69 45 68 46 24 48
REMARK SMILES IDX 56 49 36 50 55 51 37 52 40 53 54 54 73 55 38 56 39 57 53 59
REMARK SMILES IDX 74 60 41 61 25 62 26 63 34 64 27 65 28 66 32 67 35 68 29 69
REMARK SMILES IDX 30 70 33 71 31 72 57 73 58 74 66 75 59 76 60 77 64 78 67 79
REMARK SMILES IDX 61 80 62 81 65 82 63 83 42 84 43 85 51 86 44 87 45 88 49 89
REMARK SMILES IDX 52 90 46 91 47 92 50 93 48 94
REMARK H PARENT 6 6 86 19 86 20 86 21 13 28 72 47 40 58
REMARK Flexibility Score: inf
ROOT
ATOM      1  C   UNL A   1      33.507  28.859  25.821  1.00  0.00     0.021 C 
ENDROOT
BRANCH   1   2
ATOM      2  C   UNL A   1      33.288  27.538  26.554  1.00  0.00     0.116 C 
BRANCH   2   3
ATOM      3  N   UNL A   1      33.986  26.441  25.925  1.00  0.00    -0.355 N 
ATOM      4  C   UNL A   1      33.577  25.157  25.722  1.00  0.00     0.239 C 
ATOM      5  O   UNL A   1      34.281  24.438  25.004  1.00  0.00    -0.273 OA
ATOM      6  H   UNL A   1      34.889  26.651  25.594  1.00  0.00     0.163 HD
BRANCH   4   7
ATOM      7  C   UNL A   1      32.197  24.673  26.195  1.00  0.00     0.219 C 
BRANCH   7   8
ATOM      8  N   UNL A   1      31.372  23.920  25.242  1.00  0.00    -0.334 N 
ATOM      9  C   UNL A   1      31.001  22.554  25.575  1.00  0.00     0.147 C 
BRANCH   8  10
ATOM     10  C   UNL A   1      30.677  24.510  24.183  1.00  0.00     0.251 C 
ATOM     11  O   UNL A   1      30.333  23.840  23.205  1.00  0.00    -0.272 OA
BRANCH  10  12
ATOM     12  C   UNL A   1      30.355  26.014  24.274  1.00  0.00     0.208 C 
ATOM     13  C   UNL A   1      28.930  26.355  23.863  1.00  0.00     0.045 C 
ATOM     14  O   UNL A   1      31.212  26.780  23.413  1.00  0.00    -0.359 OA
ATOM     15  C   UNL A   1      29.069  27.797  23.448  1.00  0.00     0.041 C 
ATOM     16  C   UNL A   1      30.420  27.786  22.750  1.00  0.00     0.174 C 
BRANCH  16  17
ATOM     17  C   UNL A   1      31.155  29.132  22.791  1.00  0.00     0.291 C 
BRANCH  17  18
ATOM     18  N   UNL A   1      31.004  29.907  21.560  1.00  0.00    -0.355 N 
ATOM     19  H   UNL A   1      30.015  30.090  21.392  1.00  0.00     0.344 HD
ATOM     20  H   UNL A   1      31.391  29.381  20.777  1.00  0.00     0.344 HD
ATOM     21  H   UNL A   1      31.502  30.793  21.653  1.00  0.00     0.344 HD
ENDBRANCH  17  18
ENDBRANCH  16  17
ENDBRANCH  10  12
ENDBRANCH   8  10
ENDBRANCH   7   8
ENDBRANCH   4   7
ENDBRANCH   2   3
ENDBRANCH   1   2
BRANCH   1  22
ATOM     22  C   UNL A   1      33.063  30.097  26.611  1.00  0.00     0.002 C 
BRANCH  22  23
ATOM     23  C   UNL A   1      31.705  30.687  26.208  1.00  0.00     0.002 C 
BRANCH  23  24
ATOM     24  C   UNL A   1      31.444  32.114  26.691  1.00  0.00     0.021 C 
BRANCH  24  25
ATOM     25  C   UNL A   1      32.661  32.811  27.289  1.00  0.00     0.116 C 
BRANCH  25  26
ATOM     26  N   UNL A   1      32.392  34.204  27.615  1.00  0.00    -0.352 N 
ATOM     27  C   UNL A   1      32.978  34.993  28.574  1.00  0.00     0.251 C 
ATOM     28  H   UNL A   1      31.695  34.640  27.074  1.00  0.00     0.163 HD
ATOM     29  O   UNL A   1      32.518  36.097  28.846  1.00  0.00    -0.269 OA
BRANCH  27  30
ATOM     30  C   UNL A   1      34.164  34.490  29.298  1.00  0.00     0.039 A 
ATOM     31  C   UNL A   1      33.995  33.865  30.537  1.00  0.00     0.014 A 
ATOM     32  C   UNL A   1      35.440  34.625  28.744  1.00  0.00     0.014 A 
ATOM     33  C   UNL A   1      35.099  33.316  31.191  1.00  0.00     0.010 A 
ATOM     34  C   UNL A   1      36.526  34.013  29.360  1.00  0.00     0.010 A 
ATOM     35  C   UNL A   1      36.368  33.356  30.591  1.00  0.00    -0.014 A 
BRANCH  35  36
ATOM     36  C   UNL A   1      37.561  32.748  31.235  1.00  0.00     0.031 A 
ATOM     37  C   UNL A   1      38.266  31.606  30.554  1.00  0.00     0.074 A 
ATOM     38  C   UNL A   1      37.956  33.156  32.456  1.00  0.00     0.049 A 
ATOM     39  N   UNL A   1      39.208  30.822  31.010  1.00  0.00    -0.248 NA
ATOM     40  C   UNL A   1      37.827  31.286  29.186  1.00  0.00     0.031 C 
ATOM     41  C   UNL A   1      37.340  34.235  33.231  1.00  0.00     0.029 A 
ATOM     42  N   UNL A   1      38.955  32.690  33.275  1.00  0.00    -0.354 N 
ATOM     43  C   UNL A   1      39.463  29.909  29.994  1.00  0.00     0.074 A 
ATOM     44  C   UNL A   1      38.539  30.200  28.920  1.00  0.00     0.031 C 
ATOM     45  C   UNL A   1      37.975  34.350  34.408  1.00  0.00     0.029 A 
ATOM     46  C   UNL A   1      39.011  33.325  34.493  1.00  0.00     0.049 A 
ATOM     47  H   UNL A   1      39.574  31.971  33.014  1.00  0.00     0.167 HD
ATOM     48  C   UNL A   1      40.401  28.935  29.950  1.00  0.00     0.037 A 
ATOM     49  C   UNL A   1      39.794  33.088  35.564  1.00  0.00     0.037 A 
ATOM     50  C   UNL A   1      41.333  28.663  31.011  1.00  0.00     0.049 A 
ATOM     51  C   UNL A   1      40.812  31.978  35.498  1.00  0.00     0.074 A 
ATOM     52  C   UNL A   1      42.333  27.708  31.058  1.00  0.00     0.029 A 
ATOM     53  N   UNL A   1      41.385  29.357  32.210  1.00  0.00    -0.354 N 
ATOM     54  N   UNL A   1      41.067  31.145  34.519  1.00  0.00    -0.248 NA
ATOM     55  C   UNL A   1      41.658  31.780  36.684  1.00  0.00     0.031 C 
ATOM     56  C   UNL A   1      42.969  27.801  32.299  1.00  0.00     0.029 A 
ATOM     57  C   UNL A   1      42.400  28.849  33.004  1.00  0.00     0.049 A 
ATOM     58  H   UNL A   1      40.791  30.101  32.460  1.00  0.00     0.167 HD
ATOM     59  C   UNL A   1      42.125  30.358  34.951  1.00  0.00     0.074 A 
ATOM     60  C   UNL A   1      42.471  30.815  36.280  1.00  0.00     0.031 C 
ATOM     61  C   UNL A   1      42.756  29.346  34.307  1.00  0.00     0.037 A 
BRANCH  48  62
ATOM     62  C   UNL A   1      40.480  28.098  28.707  1.00  0.00     0.064 A 
ATOM     63  C   UNL A   1      41.264  28.492  27.612  1.00  0.00     0.173 A 
ATOM     64  C   UNL A   1      39.815  26.866  28.629  1.00  0.00     0.173 A 
ATOM     65  F   UNL A   1      41.910  29.667  27.632  1.00  0.00    -0.203 F 
ATOM     66  C   UNL A   1      41.362  27.693  26.476  1.00  0.00     0.198 A 
ATOM     67  C   UNL A   1      39.940  26.055  27.504  1.00  0.00     0.198 A 
ATOM     68  F   UNL A   1      39.057  26.440  29.651  1.00  0.00    -0.203 F 
ATOM     69  F   UNL A   1      42.083  28.109  25.427  1.00  0.00    -0.200 F 
ATOM     70  C   UNL A   1      40.707  26.471  26.428  1.00  0.00     0.200 A 
ATOM     71  F   UNL A   1      39.320  24.868  27.464  1.00  0.00    -0.200 F 
ATOM     72  F   UNL A   1      40.815  25.695  25.340  1.00  0.00    -0.200 F 
ENDBRANCH  48  62
BRANCH  49  73
ATOM     73  C   UNL A   1      39.652  33.908  36.798  1.00  0.00     0.064 A 
ATOM     74  C   UNL A   1      38.848  33.475  37.863  1.00  0.00     0.173 A 
ATOM     75  C   UNL A   1      40.277  35.158  36.921  1.00  0.00     0.173 A 
ATOM     76  F   UNL A   1      38.213  32.297  37.786  1.00  0.00    -0.203 F 
ATOM     77  C   UNL A   1      38.643  34.277  38.984  1.00  0.00     0.198 A 
ATOM     78  C   UNL A   1      40.098  35.945  38.057  1.00  0.00     0.198 A 
ATOM     79  F   UNL A   1      41.061  35.617  35.935  1.00  0.00    -0.203 F 
ATOM     80  F   UNL A   1      37.816  33.868  39.956  1.00  0.00    -0.200 F 
ATOM     81  C   UNL A   1      39.270  35.510  39.081  1.00  0.00     0.200 A 
ATOM     82  F   UNL A   1      40.718  37.129  38.153  1.00  0.00    -0.200 F 
ATOM     83  F   UNL A   1      39.066  36.285  40.156  1.00  0.00    -0.200 F 
ENDBRANCH  49  73
BRANCH  61  84
ATOM     84  C   UNL A   1      43.932  28.712  34.989  1.00  0.00     0.064 A 
ATOM     85  C   UNL A   1      43.795  27.576  35.799  1.00  0.00     0.173 A 
ATOM     86  C   UNL A   1      45.225  29.213  34.770  1.00  0.00     0.173 A 
ATOM     87  F   UNL A   1      42.579  27.067  36.051  1.00  0.00    -0.203 F 
ATOM     88  C   UNL A   1      44.909  26.976  36.381  1.00  0.00     0.198 A 
ATOM     89  C   UNL A   1      46.338  28.592  35.328  1.00  0.00     0.198 A 
ATOM     90  F   UNL A   1      45.409  30.293  33.996  1.00  0.00    -0.203 F 
ATOM     91  F   UNL A   1      44.753  25.914  37.184  1.00  0.00    -0.200 F 
ATOM     92  C   UNL A   1      46.179  27.477  36.137  1.00  0.00     0.200 A 
ATOM     93  F   UNL A   1      47.565  29.070  35.078  1.00  0.00    -0.200 F 
ATOM     94  F   UNL A   1      47.250  26.888  36.685  1.00  0.00    -0.200 F 
ENDBRANCH  61  84
ENDBRANCH  35  36
ENDBRANCH  27  30
ENDBRANCH  25  26
ENDBRANCH  24  25
ENDBRANCH  23  24
ENDBRANCH  22  23
ENDBRANCH   1  22
TORSDOF 18
ENDMDL
MODEL 3
REMARK VINA RESULT:     -10.4      7.188     11.805
REMARK SMILES CN(CC(=O)NCCCCCCNC(=O)c1ccc(-c2c3nc(c(-c4c(F)c(F)c(F)c(F)c4F)c4ccc([nH]4)c(-c4c(F)c(F)c(F)c(F)c4F)c4nc(c(-c5c(F)c(F)c(F)c(F)c5F)c5ccc2[nH]5)C=C4)C=C3)cc1)C(=O)[C@@H]1CC[C@@H](C[NH3+])O1
REMARK SMILES IDX 8 1 7 2 6 3 4 4 5 5 3 7 2 8 1 9 79 10 80 11 81 12 82 13
REMARK SMILES IDX 87 14 83 15 84 16 85 17 86 18 9 22 10 23 11 24 12 25 13 26
REMARK SMILES IDX 14 27 15 29 16 30 17 31 78 32 18 33 77 34 19 35 20 36 21 37
REMARK SMILES IDX 71 38 22 39 76 40 70 41 72 42 23 43 75 44 69 45 68 46 24 48
REMARK SMILES IDX 56 49 36 50 55 51 37 52 40 53 54 54 73 55 38 56 39 57 53 59
REMARK SMILES IDX 74 60 41 61 25 62 26 63 34 64 27 65 28 66 32 67 35 68 29 69
REMARK SMILES IDX 30 70 33 71 31 72 57 73 58 74 66 75 59 76 60 77 64 78 67 79
REMARK SMILES IDX 61 80 62 81 65 82 63 83 42 84 43 85 51 86 44 87 45 88 49 89
REMARK SMILES IDX 52 90 46 91 47 92 50 93 48 94
REMARK H PARENT 6 6 86 19 86 20 86 21 13 28 72 47 40 58
REMARK Flexibility Score: inf
ROOT
ATOM      1  C   UNL A   1      36.998  22.986  23.760  1.00  0.00     0.021 C 
ENDROOT
BRANCH   1   2
ATOM      2  C   UNL A   1      35.571  22.922  23.221  1.00  0.00     0.116 C 
BRANCH   2   3
ATOM      3  N   UNL A   1      34.647  23.690  24.023  1.00  0.00    -0.355 N 
ATOM      4  C   UNL A   1      33.364  23.403  24.379  1.00  0.00     0.239 C 
ATOM      5  O   UNL A   1      32.826  24.133  25.218  1.00  0.00    -0.273 OA
ATOM      6  H   UNL A   1      34.996  24.545  24.362  1.00  0.00     0.163 HD
BRANCH   4   7
ATOM      7  C   UNL A   1      32.675  22.110  23.914  1.00  0.00     0.219 C 
BRANCH   7   8
ATOM      8  N   UNL A   1      33.005  20.866  24.621  1.00  0.00    -0.334 N 
ATOM      9  C   UNL A   1      33.268  20.930  26.049  1.00  0.00     0.147 C 
BRANCH   8  10
ATOM     10  C   UNL A   1      32.800  19.592  24.085  1.00  0.00     0.251 C 
ATOM     11  O   UNL A   1      32.174  19.445  23.031  1.00  0.00    -0.272 OA
BRANCH  10  12
ATOM     12  C   UNL A   1      33.379  18.382  24.845  1.00  0.00     0.208 C 
ATOM     13  C   UNL A   1      34.751  17.954  24.347  1.00  0.00     0.045 C 
ATOM     14  O   UNL A   1      32.529  17.232  24.710  1.00  0.00    -0.359 OA
ATOM     15  C   UNL A   1      34.786  16.505  24.760  1.00  0.00     0.041 C 
ATOM     16  C   UNL A   1      33.354  16.073  24.483  1.00  0.00     0.174 C 
BRANCH  16  17
ATOM     17  C   UNL A   1      32.871  14.914  25.363  1.00  0.00     0.291 C 
BRANCH  17  18
ATOM     18  N   UNL A   1      31.477  15.053  25.784  1.00  0.00    -0.355 N 
ATOM     19  H   UNL A   1      31.268  14.359  26.502  1.00  0.00     0.344 HD
ATOM     20  H   UNL A   1      30.864  14.910  24.982  1.00  0.00     0.344 HD
ATOM     21  H   UNL A   1      31.328  15.988  26.163  1.00  0.00     0.344 HD
ENDBRANCH  17  18
ENDBRANCH  16  17
ENDBRANCH  10  12
ENDBRANCH   8  10
ENDBRANCH   7   8
ENDBRANCH   4   7
ENDBRANCH   2   3
ENDBRANCH   1   2
BRANCH   1  22
ATOM     22  C   UNL A   1      37.199  22.254  25.093  1.00  0.00     0.002 C 
BRANCH  22  23
ATOM     23  C   UNL A   1      36.840  20.763  25.090  1.00  0.00     0.002 C 
BRANCH  23  24
ATOM     24  C   UNL A   1      38.027  19.805  24.983  1.00  0.00     0.021 C 
BRANCH  24  25
ATOM     25  C   UNL A   1      39.257  20.233  25.776  1.00  0.00     0.116 C 
BRANCH  25  26
ATOM     26  N   UNL A   1      40.219  19.152  25.926  1.00  0.00    -0.352 N 
ATOM     27  C   UNL A   1      41.574  19.227  26.137  1.00  0.00     0.251 C 
ATOM     28  H   UNL A   1      39.847  18.242  25.868  1.00  0.00     0.163 HD
ATOM     29  O   UNL A   1      42.277  18.224  26.064  1.00  0.00    -0.269 OA
BRANCH  27  30
ATOM     30  C   UNL A   1      42.188  20.538  26.433  1.00  0.00     0.039 A 
ATOM     31  C   UNL A   1      42.684  21.314  25.382  1.00  0.00     0.014 A 
ATOM     32  C   UNL A   1      42.258  21.004  27.748  1.00  0.00     0.014 A 
ATOM     33  C   UNL A   1      43.193  22.587  25.643  1.00  0.00     0.010 A 
ATOM     34  C   UNL A   1      42.697  22.300  27.997  1.00  0.00     0.010 A 
ATOM     35  C   UNL A   1      43.172  23.104  26.948  1.00  0.00    -0.014 A 
BRANCH  35  36
ATOM     36  C   UNL A   1      43.666  24.469  27.261  1.00  0.00     0.031 A 
ATOM     37  C   UNL A   1      42.698  25.508  27.759  1.00  0.00     0.074 A 
ATOM     38  C   UNL A   1      44.949  24.799  27.019  1.00  0.00     0.049 A 
ATOM     39  N   UNL A   1      42.874  26.793  27.927  1.00  0.00    -0.248 NA
ATOM     40  C   UNL A   1      41.340  25.040  28.083  1.00  0.00     0.031 C 
ATOM     41  C   UNL A   1      45.978  23.889  26.513  1.00  0.00     0.029 A 
ATOM     42  N   UNL A   1      45.602  26.001  27.141  1.00  0.00    -0.354 N 
ATOM     43  C   UNL A   1      41.650  27.287  28.360  1.00  0.00     0.074 A 
ATOM     44  C   UNL A   1      40.724  26.176  28.375  1.00  0.00     0.031 C 
ATOM     45  C   UNL A   1      47.131  24.564  26.371  1.00  0.00     0.029 A 
ATOM     46  C   UNL A   1      46.912  25.962  26.730  1.00  0.00     0.049 A 
ATOM     47  H   UNL A   1      45.172  26.814  27.492  1.00  0.00     0.167 HD
ATOM     48  C   UNL A   1      41.333  28.548  28.735  1.00  0.00     0.037 A 
ATOM     49  C   UNL A   1      47.825  26.948  26.630  1.00  0.00     0.037 A 
ATOM     50  C   UNL A   1      42.263  29.646  28.741  1.00  0.00     0.049 A 
ATOM     51  C   UNL A   1      47.437  28.350  27.031  1.00  0.00     0.074 A 
ATOM     52  C   UNL A   1      42.045  30.959  29.119  1.00  0.00     0.029 A 
ATOM     53  N   UNL A   1      43.591  29.555  28.358  1.00  0.00    -0.354 N 
ATOM     54  N   UNL A   1      46.287  28.797  27.469  1.00  0.00    -0.248 NA
ATOM     55  C   UNL A   1      48.479  29.382  26.927  1.00  0.00     0.031 C 
ATOM     56  C   UNL A   1      43.233  31.671  28.934  1.00  0.00     0.029 A 
ATOM     57  C   UNL A   1      44.205  30.789  28.490  1.00  0.00     0.049 A 
ATOM     58  H   UNL A   1      44.034  28.734  28.041  1.00  0.00     0.167 HD
ATOM     59  C   UNL A   1      46.477  30.146  27.736  1.00  0.00     0.074 A 
ATOM     60  C   UNL A   1      47.856  30.445  27.415  1.00  0.00     0.031 C 
ATOM     61  C   UNL A   1      45.591  31.057  28.205  1.00  0.00     0.037 A 
BRANCH  48  62
ATOM     62  C   UNL A   1      39.927  28.808  29.190  1.00  0.00     0.064 A 
ATOM     63  C   UNL A   1      38.924  29.180  28.281  1.00  0.00     0.173 A 
ATOM     64  C   UNL A   1      39.564  28.630  30.532  1.00  0.00     0.173 A 
ATOM     65  F   UNL A   1      39.223  29.375  26.988  1.00  0.00    -0.203 F 
ATOM     66  C   UNL A   1      37.614  29.384  28.704  1.00  0.00     0.198 A 
ATOM     67  C   UNL A   1      38.245  28.804  30.946  1.00  0.00     0.198 A 
ATOM     68  F   UNL A   1      40.482  28.269  31.440  1.00  0.00    -0.203 F 
ATOM     69  F   UNL A   1      36.682  29.778  27.826  1.00  0.00    -0.200 F 
ATOM     70  C   UNL A   1      37.274  29.186  30.035  1.00  0.00     0.200 A 
ATOM     71  F   UNL A   1      37.915  28.598  32.229  1.00  0.00    -0.200 F 
ATOM     72  F   UNL A   1      36.009  29.367  30.437  1.00  0.00    -0.200 F 
ENDBRANCH  48  62
BRANCH  49  73
ATOM     73  C   UNL A   1      49.196  26.660  26.128  1.00  0.00     0.064 A 
ATOM     74  C   UNL A   1      49.545  26.922  24.795  1.00  0.00     0.173 A 
ATOM     75  C   UNL A   1      50.168  26.076  26.953  1.00  0.00     0.173 A 
ATOM     76  F   UNL A   1      48.645  27.461  23.961  1.00  0.00    -0.203 F 
ATOM     77  C   UNL A   1      50.800  26.575  24.297  1.00  0.00     0.198 A 
ATOM     78  C   UNL A   1      51.434  25.760  26.462  1.00  0.00     0.198 A 
ATOM     79  F   UNL A   1      49.890  25.809  28.237  1.00  0.00    -0.203 F 
ATOM     80  F   UNL A   1      51.083  26.775  23.002  1.00  0.00    -0.200 F 
ATOM     81  C   UNL A   1      51.744  25.997  25.131  1.00  0.00     0.200 A 
ATOM     82  F   UNL A   1      52.349  25.214  27.276  1.00  0.00    -0.200 F 
ATOM     83  F   UNL A   1      52.947  25.655  24.650  1.00  0.00    -0.200 F 
ENDBRANCH  49  73
BRANCH  61  84
ATOM     84  C   UNL A   1      46.094  32.444  28.475  1.00  0.00     0.064 A 
ATOM     85  C   UNL A   1      46.029  33.458  27.509  1.00  0.00     0.173 A 
ATOM     86  C   UNL A   1      46.586  32.777  29.747  1.00  0.00     0.173 A 
ATOM     87  F   UNL A   1      45.579  33.186  26.274  1.00  0.00    -0.203 F 
ATOM     88  C   UNL A   1      46.456  34.750  27.800  1.00  0.00     0.198 A 
ATOM     89  C   UNL A   1      46.984  34.077  30.043  1.00  0.00     0.198 A 
ATOM     90  F   UNL A   1      46.661  31.845  30.709  1.00  0.00    -0.203 F 
ATOM     91  F   UNL A   1      46.423  35.695  26.850  1.00  0.00    -0.200 F 
ATOM     92  C   UNL A   1      46.924  35.062  29.069  1.00  0.00     0.200 A 
ATOM     93  F   UNL A   1      47.420  34.378  31.274  1.00  0.00    -0.200 F 
ATOM     94  F   UNL A   1      47.319  36.310  29.351  1.00  0.00    -0.200 F 
ENDBRANCH  61  84
ENDBRANCH  35  36
ENDBRANCH  27  30
ENDBRANCH  25  26
ENDBRANCH  24  25
ENDBRANCH  23  24
ENDBRANCH  22  23
ENDBRANCH   1  22
TORSDOF 18
ENDMDL
