MODEL 1
REMARK VINA RESULT:     -11.1      0.000      0.000
REMARK SMILES CN(C)C(=O)CSc1ccc(C(=O)NCCCCCCNC(=O)c2ccc(-c3c4nc(c(-c5c(F)c(F)c(F)c(F)c5F)c5ccc([nH]5)c(-c5c(F)c(F)c(F)c(F)c5F)c5nc(c(-c6c(F)c(F)c(F)c(F)c6F)c6ccc3[nH]6)C=C5)C=C4)cc2)cc1
REMARK SMILES IDX 17 1 16 2 15 3 14 4 12 5 13 6 11 8 8 9 9 10 88 11 10 12
REMARK SMILES IDX 87 13 7 14 6 15 4 16 1 17 2 18 3 19 5 20 18 21 19 22 20 23
REMARK SMILES IDX 21 24 22 25 23 27 24 28 25 29 86 30 26 31 85 32 27 33 28 34
REMARK SMILES IDX 29 35 79 36 30 37 84 38 78 39 80 40 31 41 83 42 77 43 76 44
REMARK SMILES IDX 32 46 64 47 44 48 63 49 45 50 48 51 62 52 81 53 46 54 47 55
REMARK SMILES IDX 61 57 82 58 49 59 33 60 34 61 42 62 35 63 36 64 40 65 43 66
REMARK SMILES IDX 37 67 38 68 41 69 39 70 65 71 66 72 74 73 67 74 68 75 72 76
REMARK SMILES IDX 75 77 69 78 70 79 73 80 71 81 50 82 51 83 59 84 52 85 53 86
REMARK SMILES IDX 57 87 60 88 54 89 55 90 58 91 56 92
REMARK H PARENT 14 7 21 26 80 45 48 56
REMARK Flexibility Score: inf
ROOT
ATOM      1  C   UNL A   1      33.295  27.008  26.492  1.00  0.00     0.002 C 
ENDROOT
BRANCH   1   2
ATOM      2  C   UNL A   1      34.079  26.410  25.315  1.00  0.00     0.021 C 
BRANCH   2   3
ATOM      3  C   UNL A   1      33.879  24.901  25.154  1.00  0.00     0.116 C 
BRANCH   3   4
ATOM      4  N   UNL A   1      33.863  24.549  23.749  1.00  0.00    -0.352 N 
ATOM      5  C   UNL A   1      33.019  24.866  22.718  1.00  0.00     0.251 C 
ATOM      6  O   UNL A   1      33.278  24.398  21.609  1.00  0.00    -0.269 OA
ATOM      7  H   UNL A   1      34.608  23.963  23.481  1.00  0.00     0.163 HD
BRANCH   5   8
ATOM      8  C   UNL A   1      31.852  25.781  22.859  1.00  0.00     0.039 A 
ATOM      9  C   UNL A   1      29.503  27.334  23.175  1.00  0.00     0.008 A 
ATOM     10  C   UNL A   1      29.575  26.045  23.698  1.00  0.00     0.016 A 
ATOM     11  C   UNL A   1      30.644  27.862  22.556  1.00  0.00     0.016 A 
ATOM     12  C   UNL A   1      30.730  25.272  23.528  1.00  0.00     0.015 A 
ATOM     13  C   UNL A   1      31.817  27.104  22.422  1.00  0.00     0.015 A 
BRANCH   9  14
ATOM     14  S   UNL A   1      28.078  28.402  23.279  1.00  0.00    -0.116 SA
BRANCH  14  15
ATOM     15  C   UNL A   1      28.746  30.089  23.097  1.00  0.00     0.175 C 
BRANCH  15  16
ATOM     16  C   UNL A   1      28.375  30.772  21.788  1.00  0.00     0.232 C 
ATOM     17  C   UNL A   1      28.010  32.749  20.430  1.00  0.00     0.146 C 
ATOM     18  N   UNL A   1      28.366  32.159  21.709  1.00  0.00    -0.348 N 
ATOM     19  C   UNL A   1      28.777  33.063  22.770  1.00  0.00     0.146 C 
ATOM     20  O   UNL A   1      28.028  30.078  20.824  1.00  0.00    -0.274 OA
ENDBRANCH  15  16
ENDBRANCH  14  15
ENDBRANCH   9  14
ENDBRANCH   5   8
ENDBRANCH   3   4
ENDBRANCH   2   3
ENDBRANCH   1   2
BRANCH   1  21
ATOM     21  C   UNL A   1      31.869  27.465  26.156  1.00  0.00     0.002 C 
BRANCH  21  22
ATOM     22  C   UNL A   1      31.660  28.981  26.150  1.00  0.00     0.021 C 
BRANCH  22  23
ATOM     23  C   UNL A   1      32.940  29.792  25.967  1.00  0.00     0.116 C 
BRANCH  23  24
ATOM     24  N   UNL A   1      32.744  31.193  26.305  1.00  0.00    -0.352 N 
ATOM     25  C   UNL A   1      33.379  31.954  27.255  1.00  0.00     0.251 C 
ATOM     26  H   UNL A   1      32.060  31.663  25.776  1.00  0.00     0.163 HD
ATOM     27  O   UNL A   1      32.944  33.061  27.555  1.00  0.00    -0.269 OA
BRANCH  25  28
ATOM     28  C   UNL A   1      34.586  31.432  27.929  1.00  0.00     0.039 A 
ATOM     29  C   UNL A   1      35.684  32.278  28.100  1.00  0.00     0.014 A 
ATOM     30  C   UNL A   1      34.642  30.107  28.370  1.00  0.00     0.014 A 
ATOM     31  C   UNL A   1      36.821  31.810  28.764  1.00  0.00     0.010 A 
ATOM     32  C   UNL A   1      35.746  29.663  29.090  1.00  0.00     0.010 A 
ATOM     33  C   UNL A   1      36.849  30.508  29.288  1.00  0.00    -0.014 A 
BRANCH  33  34
ATOM     34  C   UNL A   1      38.027  30.007  30.041  1.00  0.00     0.031 A 
ATOM     35  C   UNL A   1      38.278  30.473  31.447  1.00  0.00     0.074 A 
ATOM     36  C   UNL A   1      38.905  29.188  29.431  1.00  0.00     0.049 A 
ATOM     37  N   UNL A   1      39.285  30.208  32.240  1.00  0.00    -0.248 NA
ATOM     38  C   UNL A   1      37.279  31.383  32.027  1.00  0.00     0.031 C 
ATOM     39  C   UNL A   1      38.795  28.707  28.054  1.00  0.00     0.029 A 
ATOM     40  N   UNL A   1      40.070  28.627  29.889  1.00  0.00    -0.354 N 
ATOM     41  C   UNL A   1      39.048  30.928  33.403  1.00  0.00     0.074 A 
ATOM     42  C   UNL A   1      37.832  31.684  33.192  1.00  0.00     0.031 C 
ATOM     43  C   UNL A   1      39.841  27.909  27.784  1.00  0.00     0.029 A 
ATOM     44  C   UNL A   1      40.710  27.851  28.955  1.00  0.00     0.049 A 
ATOM     45  H   UNL A   1      40.416  28.769  30.801  1.00  0.00     0.167 HD
ATOM     46  C   UNL A   1      39.768  30.940  34.550  1.00  0.00     0.037 A 
ATOM     47  C   UNL A   1      41.871  27.173  29.033  1.00  0.00     0.037 A 
ATOM     48  C   UNL A   1      40.964  30.168  34.762  1.00  0.00     0.049 A 
ATOM     49  C   UNL A   1      42.652  27.198  30.318  1.00  0.00     0.074 A 
ATOM     50  C   UNL A   1      41.731  30.059  35.910  1.00  0.00     0.029 A 
ATOM     51  N   UNL A   1      41.570  29.374  33.800  1.00  0.00    -0.354 N 
ATOM     52  N   UNL A   1      42.382  27.828  31.437  1.00  0.00    -0.248 NA
ATOM     53  C   UNL A   1      43.893  26.414  30.356  1.00  0.00     0.031 C 
ATOM     54  C   UNL A   1      42.826  29.236  35.627  1.00  0.00     0.029 A 
ATOM     55  C   UNL A   1      42.715  28.790  34.321  1.00  0.00     0.049 A 
ATOM     56  H   UNL A   1      41.237  29.243  32.883  1.00  0.00     0.167 HD
ATOM     57  C   UNL A   1      43.402  27.495  32.318  1.00  0.00     0.074 A 
ATOM     58  C   UNL A   1      44.291  26.598  31.606  1.00  0.00     0.031 C 
ATOM     59  C   UNL A   1      43.587  27.896  33.600  1.00  0.00     0.037 A 
BRANCH  46  60
ATOM     60  C   UNL A   1      39.278  31.822  35.664  1.00  0.00     0.064 A 
ATOM     61  C   UNL A   1      39.710  33.150  35.796  1.00  0.00     0.173 A 
ATOM     62  C   UNL A   1      38.351  31.338  36.599  1.00  0.00     0.173 A 
ATOM     63  F   UNL A   1      40.604  33.659  34.935  1.00  0.00    -0.203 F 
ATOM     64  C   UNL A   1      39.262  33.950  36.845  1.00  0.00     0.198 A 
ATOM     65  C   UNL A   1      37.880  32.150  37.628  1.00  0.00     0.198 A 
ATOM     66  F   UNL A   1      37.899  30.078  36.516  1.00  0.00    -0.203 F 
ATOM     67  F   UNL A   1      39.734  35.196  36.985  1.00  0.00    -0.200 F 
ATOM     68  C   UNL A   1      38.343  33.452  37.757  1.00  0.00     0.200 A 
ATOM     69  F   UNL A   1      36.982  31.672  38.500  1.00  0.00    -0.200 F 
ATOM     70  F   UNL A   1      37.912  34.222  38.764  1.00  0.00    -0.200 F 
ENDBRANCH  46  60
BRANCH  47  71
ATOM     71  C   UNL A   1      42.346  26.389  27.864  1.00  0.00     0.064 A 
ATOM     72  C   UNL A   1      43.266  26.936  26.958  1.00  0.00     0.173 A 
ATOM     73  C   UNL A   1      41.908  25.077  27.638  1.00  0.00     0.173 A 
ATOM     74  F   UNL A   1      43.699  28.194  27.123  1.00  0.00    -0.203 F 
ATOM     75  C   UNL A   1      43.719  26.205  25.863  1.00  0.00     0.198 A 
ATOM     76  C   UNL A   1      42.381  24.337  26.557  1.00  0.00     0.198 A 
ATOM     77  F   UNL A   1      41.032  24.507  28.479  1.00  0.00    -0.203 F 
ATOM     78  F   UNL A   1      44.570  26.763  24.992  1.00  0.00    -0.200 F 
ATOM     79  C   UNL A   1      43.281  24.902  25.667  1.00  0.00     0.200 A 
ATOM     80  F   UNL A   1      41.968  23.074  26.380  1.00  0.00    -0.200 F 
ATOM     81  F   UNL A   1      43.725  24.196  24.619  1.00  0.00    -0.200 F 
ENDBRANCH  47  71
BRANCH  59  82
ATOM     82  C   UNL A   1      44.778  27.346  34.328  1.00  0.00     0.064 A 
ATOM     83  C   UNL A   1      44.717  26.128  35.022  1.00  0.00     0.173 A 
ATOM     84  C   UNL A   1      46.006  28.023  34.295  1.00  0.00     0.173 A 
ATOM     85  F   UNL A   1      43.563  25.450  35.096  1.00  0.00    -0.203 F 
ATOM     86  C   UNL A   1      45.837  25.622  35.677  1.00  0.00     0.198 A 
ATOM     87  C   UNL A   1      47.131  27.500  34.926  1.00  0.00     0.198 A 
ATOM     88  F   UNL A   1      46.117  29.189  33.640  1.00  0.00    -0.203 F 
ATOM     89  F   UNL A   1      45.745  24.481  36.373  1.00  0.00    -0.200 F 
ATOM     90  C   UNL A   1      47.044  26.304  35.621  1.00  0.00     0.200 A 
ATOM     91  F   UNL A   1      48.298  28.154  34.861  1.00  0.00    -0.200 F 
ATOM     92  F   UNL A   1      48.123  25.811  36.246  1.00  0.00    -0.200 F 
ENDBRANCH  59  82
ENDBRANCH  33  34
ENDBRANCH  25  28
ENDBRANCH  23  24
ENDBRANCH  22  23
ENDBRANCH  21  22
ENDBRANCH   1  21
TORSDOF 16
ENDMDL
MODEL 2
REMARK VINA RESULT:     -11.0      4.833      8.005
REMARK SMILES CN(C)C(=O)CSc1ccc(C(=O)NCCCCCCNC(=O)c2ccc(-c3c4nc(c(-c5c(F)c(F)c(F)c(F)c5F)c5ccc([nH]5)c(-c5c(F)c(F)c(F)c(F)c5F)c5nc(c(-c6c(F)c(F)c(F)c(F)c6F)c6ccc3[nH]6)C=C5)C=C4)cc2)cc1
REMARK SMILES IDX 17 1 16 2 15 3 14 4 12 5 13 6 11 8 8 9 9 10 88 11 10 12
REMARK SMILES IDX 87 13 7 14 6 15 4 16 1 17 2 18 3 19 5 20 18 21 19 22 20 23
REMARK SMILES IDX 21 24 22 25 23 27 24 28 25 29 86 30 26 31 85 32 27 33 28 34
REMARK SMILES IDX 29 35 79 36 30 37 84 38 78 39 80 40 31 41 83 42 77 43 76 44
REMARK SMILES IDX 32 46 64 47 44 48 63 49 45 50 48 51 62 52 81 53 46 54 47 55
REMARK SMILES IDX 61 57 82 58 49 59 33 60 34 61 42 62 35 63 36 64 40 65 43 66
REMARK SMILES IDX 37 67 38 68 41 69 39 70 65 71 66 72 74 73 67 74 68 75 72 76
REMARK SMILES IDX 75 77 69 78 70 79 73 80 71 81 50 82 51 83 59 84 52 85 53 86
REMARK SMILES IDX 57 87 60 88 54 89 55 90 58 91 56 92
REMARK H PARENT 14 7 21 26 80 45 48 56
REMARK Flexibility Score: inf
ROOT
ATOM      1  C   UNL A   1      35.086  20.204  25.011  1.00  0.00     0.002 C 
ENDROOT
BRANCH   1   2
ATOM      2  C   UNL A   1      33.980  21.008  24.311  1.00  0.00     0.021 C 
BRANCH   2   3
ATOM      3  C   UNL A   1      32.632  20.946  25.034  1.00  0.00     0.116 C 
BRANCH   3   4
ATOM      4  N   UNL A   1      32.808  21.262  26.438  1.00  0.00    -0.352 N 
ATOM      5  C   UNL A   1      32.882  22.444  27.126  1.00  0.00     0.251 C 
ATOM      6  O   UNL A   1      33.040  22.380  28.346  1.00  0.00    -0.269 OA
ATOM      7  H   UNL A   1      32.891  20.467  27.012  1.00  0.00     0.163 HD
BRANCH   5   8
ATOM      8  C   UNL A   1      32.727  23.781  26.488  1.00  0.00     0.039 A 
ATOM      9  C   UNL A   1      32.203  26.293  25.288  1.00  0.00     0.008 A 
ATOM     10  C   UNL A   1      31.215  25.639  26.019  1.00  0.00     0.016 A 
ATOM     11  C   UNL A   1      33.476  25.711  25.225  1.00  0.00     0.016 A 
ATOM     12  C   UNL A   1      31.469  24.389  26.598  1.00  0.00     0.015 A 
ATOM     13  C   UNL A   1      33.745  24.480  25.841  1.00  0.00     0.015 A 
BRANCH   9  14
ATOM     14  S   UNL A   1      31.993  27.860  24.461  1.00  0.00    -0.116 SA
BRANCH  14  15
ATOM     15  C   UNL A   1      30.997  27.476  22.982  1.00  0.00     0.175 C 
BRANCH  15  16
ATOM     16  C   UNL A   1      29.514  27.787  23.128  1.00  0.00     0.232 C 
ATOM     17  C   UNL A   1      27.587  29.230  22.825  1.00  0.00     0.146 C 
ATOM     18  N   UNL A   1      29.011  28.995  22.662  1.00  0.00    -0.348 N 
ATOM     19  C   UNL A   1      29.774  29.999  21.939  1.00  0.00     0.146 C 
ATOM     20  O   UNL A   1      28.784  26.980  23.716  1.00  0.00    -0.274 OA
ENDBRANCH  15  16
ENDBRANCH  14  15
ENDBRANCH   9  14
ENDBRANCH   5   8
ENDBRANCH   3   4
ENDBRANCH   2   3
ENDBRANCH   1   2
BRANCH   1  21
ATOM     21  C   UNL A   1      36.468  20.871  25.013  1.00  0.00     0.002 C 
BRANCH  21  22
ATOM     22  C   UNL A   1      37.654  19.903  24.995  1.00  0.00     0.021 C 
BRANCH  22  23
ATOM     23  C   UNL A   1      38.889  20.407  25.735  1.00  0.00     0.116 C 
BRANCH  23  24
ATOM     24  N   UNL A   1      39.893  19.365  25.883  1.00  0.00    -0.352 N 
ATOM     25  C   UNL A   1      41.246  19.485  26.082  1.00  0.00     0.251 C 
ATOM     26  H   UNL A   1      39.554  18.443  25.834  1.00  0.00     0.163 HD
ATOM     27  O   UNL A   1      41.978  18.508  25.971  1.00  0.00    -0.269 OA
BRANCH  25  28
ATOM     28  C   UNL A   1      41.825  20.802  26.421  1.00  0.00     0.039 A 
ATOM     29  C   UNL A   1      42.139  21.688  25.388  1.00  0.00     0.014 A 
ATOM     30  C   UNL A   1      42.076  21.151  27.750  1.00  0.00     0.014 A 
ATOM     31  C   UNL A   1      42.656  22.949  25.692  1.00  0.00     0.010 A 
ATOM     32  C   UNL A   1      42.526  22.432  28.056  1.00  0.00     0.010 A 
ATOM     33  C   UNL A   1      42.827  23.341  27.030  1.00  0.00    -0.014 A 
BRANCH  33  34
ATOM     34  C   UNL A   1      43.327  24.695  27.377  1.00  0.00     0.031 A 
ATOM     35  C   UNL A   1      42.395  25.717  27.963  1.00  0.00     0.074 A 
ATOM     36  C   UNL A   1      44.604  25.023  27.098  1.00  0.00     0.049 A 
ATOM     37  N   UNL A   1      42.623  26.970  28.265  1.00  0.00    -0.248 NA
ATOM     38  C   UNL A   1      41.014  25.280  28.215  1.00  0.00     0.031 C 
ATOM     39  C   UNL A   1      45.589  24.133  26.484  1.00  0.00     0.029 A 
ATOM     40  N   UNL A   1      45.285  26.199  27.284  1.00  0.00    -0.354 N 
ATOM     41  C   UNL A   1      41.414  27.472  28.726  1.00  0.00     0.074 A 
ATOM     42  C   UNL A   1      40.442  26.406  28.613  1.00  0.00     0.031 C 
ATOM     43  C   UNL A   1      46.755  24.790  26.359  1.00  0.00     0.029 A 
ATOM     44  C   UNL A   1      46.587  26.154  26.851  1.00  0.00     0.049 A 
ATOM     45  H   UNL A   1      44.878  27.001  27.687  1.00  0.00     0.167 HD
ATOM     46  C   UNL A   1      41.144  28.705  29.220  1.00  0.00     0.037 A 
ATOM     47  C   UNL A   1      47.538  27.107  26.848  1.00  0.00     0.037 A 
ATOM     48  C   UNL A   1      42.121  29.754  29.351  1.00  0.00     0.049 A 
ATOM     49  C   UNL A   1      47.217  28.467  27.404  1.00  0.00     0.074 A 
ATOM     50  C   UNL A   1      41.966  31.016  29.899  1.00  0.00     0.029 A 
ATOM     51  N   UNL A   1      43.438  29.664  28.924  1.00  0.00    -0.354 N 
ATOM     52  N   UNL A   1      46.088  28.911  27.903  1.00  0.00    -0.248 NA
ATOM     53  C   UNL A   1      48.303  29.456  27.404  1.00  0.00     0.031 C 
ATOM     54  C   UNL A   1      43.175  31.705  29.760  1.00  0.00     0.029 A 
ATOM     55  C   UNL A   1      44.100  30.855  29.175  1.00  0.00     0.049 A 
ATOM     56  H   UNL A   1      43.843  28.870  28.505  1.00  0.00     0.167 HD
ATOM     57  C   UNL A   1      46.333  30.218  28.300  1.00  0.00     0.074 A 
ATOM     58  C   UNL A   1      47.723  30.492  27.994  1.00  0.00     0.031 C 
ATOM     59  C   UNL A   1      45.485  31.111  28.866  1.00  0.00     0.037 A 
BRANCH  46  60
ATOM     60  C   UNL A   1      39.733  28.982  29.651  1.00  0.00     0.064 A 
ATOM     61  C   UNL A   1      38.772  29.477  28.756  1.00  0.00     0.173 A 
ATOM     62  C   UNL A   1      39.330  28.733  30.972  1.00  0.00     0.173 A 
ATOM     63  F   UNL A   1      39.107  29.743  27.485  1.00  0.00    -0.203 F 
ATOM     64  C   UNL A   1      37.472  29.749  29.176  1.00  0.00     0.198 A 
ATOM     65  C   UNL A   1      38.020  28.975  31.381  1.00  0.00     0.198 A 
ATOM     66  F   UNL A   1      40.205  28.253  31.868  1.00  0.00    -0.203 F 
ATOM     67  F   UNL A   1      36.589  30.276  28.318  1.00  0.00    -0.200 F 
ATOM     68  C   UNL A   1      37.096  29.492  30.485  1.00  0.00     0.200 A 
ATOM     69  F   UNL A   1      37.655  28.713  32.643  1.00  0.00    -0.200 F 
ATOM     70  F   UNL A   1      35.844  29.751  30.888  1.00  0.00    -0.200 F 
ENDBRANCH  46  60
BRANCH  47  71
ATOM     71  C   UNL A   1      48.892  26.793  26.325  1.00  0.00     0.064 A 
ATOM     72  C   UNL A   1      49.877  26.249  27.161  1.00  0.00     0.173 A 
ATOM     73  C   UNL A   1      49.225  27.011  24.980  1.00  0.00     0.173 A 
ATOM     74  F   UNL A   1      49.612  26.041  28.459  1.00  0.00    -0.203 F 
ATOM     75  C   UNL A   1      51.147  25.947  26.675  1.00  0.00     0.198 A 
ATOM     76  C   UNL A   1      50.487  26.684  24.489  1.00  0.00     0.198 A 
ATOM     77  F   UNL A   1      48.316  27.524  24.138  1.00  0.00    -0.203 F 
ATOM     78  F   UNL A   1      52.081  25.462  27.504  1.00  0.00    -0.200 F 
ATOM     79  C   UNL A   1      51.449  26.159  25.338  1.00  0.00     0.200 A 
ATOM     80  F   UNL A   1      50.769  26.876  23.193  1.00  0.00    -0.200 F 
ATOM     81  F   UNL A   1      52.668  25.859  24.869  1.00  0.00    -0.200 F 
ENDBRANCH  47  71
BRANCH  59  82
ATOM     82  C   UNL A   1      46.042  32.458  29.222  1.00  0.00     0.064 A 
ATOM     83  C   UNL A   1      45.969  33.541  28.333  1.00  0.00     0.173 A 
ATOM     84  C   UNL A   1      46.616  32.679  30.482  1.00  0.00     0.173 A 
ATOM     85  F   UNL A   1      45.445  33.378  27.111  1.00  0.00    -0.203 F 
ATOM     86  C   UNL A   1      46.474  34.791  28.687  1.00  0.00     0.198 A 
ATOM     87  C   UNL A   1      47.093  33.936  30.843  1.00  0.00     0.198 A 
ATOM     88  F   UNL A   1      46.703  31.677  31.371  1.00  0.00    -0.203 F 
ATOM     89  F   UNL A   1      46.437  35.800  27.806  1.00  0.00    -0.200 F 
ATOM     90  C   UNL A   1      47.027  34.988  29.943  1.00  0.00     0.200 A 
ATOM     91  F   UNL A   1      47.615  34.128  32.062  1.00  0.00    -0.200 F 
ATOM     92  F   UNL A   1      47.506  36.193  30.284  1.00  0.00    -0.200 F 
ENDBRANCH  59  82
ENDBRANCH  33  34
ENDBRANCH  25  28
ENDBRANCH  23  24
ENDBRANCH  22  23
ENDBRANCH  21  22
ENDBRANCH   1  21
TORSDOF 16
ENDMDL
MODEL 3
REMARK VINA RESULT:     -11.0      4.874      8.182
REMARK SMILES CN(C)C(=O)CSc1ccc(C(=O)NCCCCCCNC(=O)c2ccc(-c3c4nc(c(-c5c(F)c(F)c(F)c(F)c5F)c5ccc([nH]5)c(-c5c(F)c(F)c(F)c(F)c5F)c5nc(c(-c6c(F)c(F)c(F)c(F)c6F)c6ccc3[nH]6)C=C5)C=C4)cc2)cc1
REMARK SMILES IDX 17 1 16 2 15 3 14 4 12 5 13 6 11 8 8 9 9 10 88 11 10 12
REMARK SMILES IDX 87 13 7 14 6 15 4 16 1 17 2 18 3 19 5 20 18 21 19 22 20 23
REMARK SMILES IDX 21 24 22 25 23 27 24 28 25 29 86 30 26 31 85 32 27 33 28 34
REMARK SMILES IDX 29 35 79 36 30 37 84 38 78 39 80 40 31 41 83 42 77 43 76 44
REMARK SMILES IDX 32 46 64 47 44 48 63 49 45 50 48 51 62 52 81 53 46 54 47 55
REMARK SMILES IDX 61 57 82 58 49 59 33 60 34 61 42 62 35 63 36 64 40 65 43 66
REMARK SMILES IDX 37 67 38 68 41 69 39 70 65 71 66 72 74 73 67 74 68 75 72 76
REMARK SMILES IDX 75 77 69 78 70 79 73 80 71 81 50 82 51 83 59 84 52 85 53 86
REMARK SMILES IDX 57 87 60 88 54 89 55 90 58 91 56 92
REMARK H PARENT 14 7 21 26 80 45 48 56
REMARK Flexibility Score: inf
ROOT
ATOM      1  C   UNL A   1      36.742  21.726  24.272  1.00  0.00     0.002 C 
ENDROOT
BRANCH   1   2
ATOM      2  C   UNL A   1      35.530  22.616  24.586  1.00  0.00     0.021 C 
BRANCH   2   3
ATOM      3  C   UNL A   1      34.208  21.846  24.639  1.00  0.00     0.116 C 
BRANCH   3   4
ATOM      4  N   UNL A   1      33.655  21.901  25.977  1.00  0.00    -0.352 N 
ATOM      5  C   UNL A   1      33.024  22.888  26.686  1.00  0.00     0.251 C 
ATOM      6  O   UNL A   1      32.663  22.620  27.833  1.00  0.00    -0.269 OA
ATOM      7  H   UNL A   1      33.753  21.059  26.478  1.00  0.00     0.163 HD
BRANCH   5   8
ATOM      8  C   UNL A   1      32.709  24.232  26.127  1.00  0.00     0.039 A 
ATOM      9  C   UNL A   1      31.921  26.694  24.967  1.00  0.00     0.008 A 
ATOM     10  C   UNL A   1      31.005  25.655  25.111  1.00  0.00     0.016 A 
ATOM     11  C   UNL A   1      33.214  26.513  25.475  1.00  0.00     0.016 A 
ATOM     12  C   UNL A   1      31.399  24.432  25.670  1.00  0.00     0.015 A 
ATOM     13  C   UNL A   1      33.599  25.304  26.074  1.00  0.00     0.015 A 
BRANCH   9  14
ATOM     14  S   UNL A   1      31.561  28.277  24.228  1.00  0.00    -0.116 SA
BRANCH  14  15
ATOM     15  C   UNL A   1      30.002  28.022  23.316  1.00  0.00     0.175 C 
BRANCH  15  16
ATOM     16  C   UNL A   1      29.632  29.161  22.376  1.00  0.00     0.232 C 
ATOM     17  C   UNL A   1      28.028  30.691  21.389  1.00  0.00     0.146 C 
ATOM     18  N   UNL A   1      28.315  29.595  22.300  1.00  0.00    -0.348 N 
ATOM     19  C   UNL A   1      27.222  29.111  23.127  1.00  0.00     0.146 C 
ATOM     20  O   UNL A   1      30.505  29.646  21.646  1.00  0.00    -0.274 OA
ENDBRANCH  15  16
ENDBRANCH  14  15
ENDBRANCH   9  14
ENDBRANCH   5   8
ENDBRANCH   3   4
ENDBRANCH   2   3
ENDBRANCH   1   2
BRANCH   1  21
ATOM     21  C   UNL A   1      36.761  20.376  25.001  1.00  0.00     0.002 C 
BRANCH  21  22
ATOM     22  C   UNL A   1      38.065  19.586  24.867  1.00  0.00     0.021 C 
BRANCH  22  23
ATOM     23  C   UNL A   1      39.197  20.084  25.761  1.00  0.00     0.116 C 
BRANCH  23  24
ATOM     24  N   UNL A   1      40.229  19.075  25.939  1.00  0.00    -0.352 N 
ATOM     25  C   UNL A   1      41.580  19.238  26.126  1.00  0.00     0.251 C 
ATOM     26  H   UNL A   1      39.914  18.143  25.925  1.00  0.00     0.163 HD
ATOM     27  O   UNL A   1      42.336  18.277  26.044  1.00  0.00    -0.269 OA
BRANCH  25  28
ATOM     28  C   UNL A   1      42.125  20.580  26.415  1.00  0.00     0.039 A 
ATOM     29  C   UNL A   1      42.513  21.396  25.350  1.00  0.00     0.014 A 
ATOM     30  C   UNL A   1      42.271  21.024  27.732  1.00  0.00     0.014 A 
ATOM     31  C   UNL A   1      43.000  22.680  25.604  1.00  0.00     0.010 A 
ATOM     32  C   UNL A   1      42.691  22.328  27.981  1.00  0.00     0.010 A 
ATOM     33  C   UNL A   1      43.066  23.165  26.920  1.00  0.00    -0.014 A 
BRANCH  33  34
ATOM     34  C   UNL A   1      43.532  24.545  27.209  1.00  0.00     0.031 A 
ATOM     35  C   UNL A   1      42.575  25.566  27.755  1.00  0.00     0.074 A 
ATOM     36  C   UNL A   1      44.799  24.894  26.913  1.00  0.00     0.049 A 
ATOM     37  N   UNL A   1      42.771  26.836  28.003  1.00  0.00    -0.248 NA
ATOM     38  C   UNL A   1      41.206  25.105  28.029  1.00  0.00     0.031 C 
ATOM     39  C   UNL A   1      45.806  24.005  26.334  1.00  0.00     0.029 A 
ATOM     40  N   UNL A   1      45.450  26.094  27.047  1.00  0.00    -0.354 N 
ATOM     41  C   UNL A   1      41.550  27.327  28.447  1.00  0.00     0.074 A 
ATOM     42  C   UNL A   1      40.606  26.232  28.381  1.00  0.00     0.031 C 
ATOM     43  C   UNL A   1      46.954  24.685  26.178  1.00  0.00     0.029 A 
ATOM     44  C   UNL A   1      46.752  26.064  26.613  1.00  0.00     0.049 A 
ATOM     45  H   UNL A   1      45.024  26.901  27.418  1.00  0.00     0.167 HD
ATOM     46  C   UNL A   1      41.250  28.572  28.889  1.00  0.00     0.037 A 
ATOM     47  C   UNL A   1      47.678  27.040  26.567  1.00  0.00     0.037 A 
ATOM     48  C   UNL A   1      42.200  29.650  28.973  1.00  0.00     0.049 A 
ATOM     49  C   UNL A   1      47.323  28.413  27.067  1.00  0.00     0.074 A 
ATOM     50  C   UNL A   1      42.013  30.929  29.468  1.00  0.00     0.029 A 
ATOM     51  N   UNL A   1      43.517  29.575  28.547  1.00  0.00    -0.354 N 
ATOM     52  N   UNL A   1      46.184  28.849  27.550  1.00  0.00    -0.248 NA
ATOM     53  C   UNL A   1      48.383  29.429  27.022  1.00  0.00     0.031 C 
ATOM     54  C   UNL A   1      43.204  31.642  29.298  1.00  0.00     0.029 A 
ATOM     55  C   UNL A   1      44.149  30.793  28.746  1.00  0.00     0.049 A 
ATOM     56  H   UNL A   1      43.942  28.776  28.160  1.00  0.00     0.167 HD
ATOM     57  C   UNL A   1      46.397  30.177  27.892  1.00  0.00     0.074 A 
ATOM     58  C   UNL A   1      47.778  30.473  27.571  1.00  0.00     0.031 C 
ATOM     59  C   UNL A   1      45.527  31.071  28.423  1.00  0.00     0.037 A 
BRANCH  46  60
ATOM     60  C   UNL A   1      39.832  28.831  29.313  1.00  0.00     0.064 A 
ATOM     61  C   UNL A   1      39.411  28.633  30.636  1.00  0.00     0.173 A 
ATOM     62  C   UNL A   1      38.887  29.300  28.388  1.00  0.00     0.173 A 
ATOM     63  F   UNL A   1      40.271  28.175  31.558  1.00  0.00    -0.203 F 
ATOM     64  C   UNL A   1      38.089  28.859  31.010  1.00  0.00     0.198 A 
ATOM     65  C   UNL A   1      37.573  29.556  28.772  1.00  0.00     0.198 A 
ATOM     66  F   UNL A   1      39.237  29.513  27.111  1.00  0.00    -0.203 F 
ATOM     67  F   UNL A   1      37.696  28.606  32.266  1.00  0.00    -0.200 F 
ATOM     68  C   UNL A   1      37.172  29.325  30.080  1.00  0.00     0.200 A 
ATOM     69  F   UNL A   1      36.692  30.020  27.875  1.00  0.00    -0.200 F 
ATOM     70  F   UNL A   1      35.900  29.544  30.441  1.00  0.00    -0.200 F 
ENDBRANCH  46  60
BRANCH  47  71
ATOM     71  C   UNL A   1      49.039  26.739  26.054  1.00  0.00     0.064 A 
ATOM     72  C   UNL A   1      49.370  26.979  24.712  1.00  0.00     0.173 A 
ATOM     73  C   UNL A   1      50.040  26.228  26.892  1.00  0.00     0.173 A 
ATOM     74  F   UNL A   1      48.441  27.450  23.868  1.00  0.00    -0.203 F 
ATOM     75  C   UNL A   1      50.646  26.704  24.226  1.00  0.00     0.198 A 
ATOM     76  C   UNL A   1      51.323  25.979  26.411  1.00  0.00     0.198 A 
ATOM     77  F   UNL A   1      49.775  25.988  28.184  1.00  0.00    -0.203 F 
ATOM     78  F   UNL A   1      50.925  26.908  22.931  1.00  0.00    -0.200 F 
ATOM     79  C   UNL A   1      51.624  26.211  25.077  1.00  0.00     0.200 A 
ATOM     80  F   UNL A   1      52.269  25.517  27.240  1.00  0.00    -0.200 F 
ATOM     81  F   UNL A   1      52.854  25.956  24.611  1.00  0.00    -0.200 F 
ENDBRANCH  47  71
BRANCH  59  82
ATOM     82  C   UNL A   1      46.049  32.446  28.720  1.00  0.00     0.064 A 
ATOM     83  C   UNL A   1      46.653  32.754  29.948  1.00  0.00     0.173 A 
ATOM     84  C   UNL A   1      45.982  33.456  27.749  1.00  0.00     0.173 A 
ATOM     85  F   UNL A   1      46.728  31.828  30.915  1.00  0.00    -0.203 F 
ATOM     86  C   UNL A   1      47.150  34.030  30.200  1.00  0.00     0.198 A 
ATOM     87  C   UNL A   1      46.506  34.722  27.993  1.00  0.00     0.198 A 
ATOM     88  F   UNL A   1      45.419  33.210  26.555  1.00  0.00    -0.203 F 
ATOM     89  F   UNL A   1      47.681  34.316  31.396  1.00  0.00    -0.200 F 
ATOM     90  C   UNL A   1      47.083  35.010  29.220  1.00  0.00     0.200 A 
ATOM     91  F   UNL A   1      46.451  35.663  27.041  1.00  0.00    -0.200 F 
ATOM     92  F   UNL A   1      47.568  36.236  29.462  1.00  0.00    -0.200 F 
ENDBRANCH  59  82
ENDBRANCH  33  34
ENDBRANCH  25  28
ENDBRANCH  23  24
ENDBRANCH  22  23
ENDBRANCH  21  22
ENDBRANCH   1  21
TORSDOF 16
ENDMDL
