MODEL 1
REMARK VINA RESULT:     -10.1      0.000      0.000
REMARK SMILES O=C1[NH+]=C(S)N(c2cccc(Br)c2)C(=O)/C1=C/c1ccc(-c2ccc(C(=O)NCCCCCCNC(=O)c3ccc(-c4c5nc(c(-c6c(F)c(F)c(F)c(F)c6F)c6ccc([nH]6)c(-c6c(F)c(F)c(F)c(F)c6F)c6nc(c(-c7c(F)c(F)c(F)c(F)c7F)c7ccc4[nH]7)C=C6)C=C5)cc3)cc2)o1
REMARK SMILES IDX 31 1 30 2 29 3 28 4 26 5 27 6 25 8 22 9 23 10 102 11 24 12
REMARK SMILES IDX 101 13 21 14 18 15 19 16 103 17 20 18 17 19 1 20 2 21 3 22
REMARK SMILES IDX 16 23 4 24 14 26 6 27 15 28 5 29 7 31 8 32 13 33 9 34 11 35
REMARK SMILES IDX 10 36 12 37 32 38 33 39 34 40 35 41 36 42 37 44 38 45 39 46
REMARK SMILES IDX 100 47 40 48 99 49 41 50 42 51 43 52 93 53 44 54 98 55 92 56
REMARK SMILES IDX 94 57 45 58 97 59 91 60 90 61 46 63 78 64 58 65 77 66 59 67
REMARK SMILES IDX 62 68 76 69 95 70 60 71 61 72 75 74 96 75 63 76 47 77 48 78
REMARK SMILES IDX 56 79 49 80 50 81 54 82 57 83 51 84 52 85 55 86 53 87 79 88
REMARK SMILES IDX 80 89 88 90 81 91 82 92 86 93 89 94 83 95 84 96 87 97 85 98
REMARK SMILES IDX 64 99 65 100 73 101 66 102 67 103 71 104 74 105 68 106
REMARK SMILES IDX 69 107 72 108 70 109
REMARK H PARENT 28 7 3 25 5 30 35 43 94 62 62 73
REMARK Flexibility Score: inf
ROOT
ATOM      1  C   UNL A   1      37.599  32.745  30.438  1.00  0.00     0.002 C 
ENDROOT
BRANCH   1   2
ATOM      2  C   UNL A   1      38.161  33.629  31.558  1.00  0.00     0.021 C 
BRANCH   2   3
ATOM      3  C   UNL A   1      38.300  32.882  32.886  1.00  0.00     0.116 C 
BRANCH   3   4
ATOM      4  N   UNL A   1      37.533  31.651  32.837  1.00  0.00    -0.352 N 
ATOM      5  C   UNL A   1      37.863  30.346  33.098  1.00  0.00     0.251 C 
ATOM      6  O   UNL A   1      36.991  29.492  32.940  1.00  0.00    -0.269 OA
ATOM      7  H   UNL A   1      36.596  31.778  32.563  1.00  0.00     0.163 HD
BRANCH   5   8
ATOM      8  C   UNL A   1      39.191  29.941  33.632  1.00  0.00     0.039 A 
ATOM      9  C   UNL A   1      41.586  28.888  34.655  1.00  0.00     0.017 A 
ATOM     10  C   UNL A   1      41.081  28.417  33.442  1.00  0.00     0.013 A 
ATOM     11  C   UNL A   1      40.941  29.942  35.304  1.00  0.00     0.013 A 
ATOM     12  C   UNL A   1      39.882  28.934  32.940  1.00  0.00     0.014 A 
ATOM     13  C   UNL A   1      39.778  30.496  34.771  1.00  0.00     0.014 A 
BRANCH   9  14
ATOM     14  C   UNL A   1      42.742  28.291  35.282  1.00  0.00     0.134 A 
ATOM     15  C   UNL A   1      44.459  26.906  35.311  1.00  0.00     0.128 A 
ATOM     16  C   UNL A   1      44.545  27.710  36.442  1.00  0.00     0.051 A 
ATOM     17  O   UNL A   1      43.351  27.290  34.597  1.00  0.00    -0.457 OA
ATOM     18  C   UNL A   1      43.437  28.583  36.431  1.00  0.00     0.051 A 
BRANCH  15  19
ATOM     19  C   UNL A   1      45.339  25.888  34.873  1.00  0.00     0.071 C 
ATOM     20  O   UNL A   1      43.667  24.844  37.024  1.00  0.00    -0.241 OA
ATOM     21  C   UNL A   1      44.640  24.230  36.617  1.00  0.00     0.347 C 
ATOM     22  N   UNL A   1      45.014  23.060  37.202  1.00  0.00    -0.200 N 
ATOM     23  C   UNL A   1      45.477  24.694  35.484  1.00  0.00     0.158 C 
ATOM     24  C   UNL A   1      45.941  22.318  36.718  1.00  0.00     0.323 C 
ATOM     25  H   UNL A   1      44.557  22.773  38.025  1.00  0.00     0.316 HD
ATOM     26  C   UNL A   1      46.531  23.806  34.934  1.00  0.00     0.354 C 
ATOM     27  N   UNL A   1      46.694  22.596  35.592  1.00  0.00    -0.151 N 
ATOM     28  O   UNL A   1      47.189  24.158  33.954  1.00  0.00    -0.240 OA
BRANCH  24  29
ATOM     29  S   UNL A   1      46.278  20.893  37.685  1.00  0.00    -0.055 SA
ATOM     30  H   UNL A   1      45.591  19.832  37.185  1.00  0.00     0.116 HD
ENDBRANCH  24  29
BRANCH  27  31
ATOM     31  C   UNL A   1      47.674  21.692  35.076  1.00  0.00     0.138 A 
ATOM     32  C   UNL A   1      47.290  20.655  34.210  1.00  0.00     0.052 A 
ATOM     33  C   UNL A   1      49.019  21.811  35.444  1.00  0.00     0.068 A 
ATOM     34  C   UNL A   1      48.243  19.780  33.687  1.00  0.00     0.006 A 
ATOM     35  C   UNL A   1      49.964  20.927  34.925  1.00  0.00     0.022 A 
ATOM     36  C   UNL A   1      49.584  19.919  34.041  1.00  0.00     0.016 A 
ATOM     37  Br  UNL A   1      51.777  21.096  35.431  1.00  0.00    -0.051 Br
ENDBRANCH  27  31
ENDBRANCH  15  19
ENDBRANCH   9  14
ENDBRANCH   5   8
ENDBRANCH   3   4
ENDBRANCH   2   3
ENDBRANCH   1   2
BRANCH   1  38
ATOM     38  C   UNL A   1      37.304  33.492  29.131  1.00  0.00     0.002 C 
BRANCH  38  39
ATOM     39  C   UNL A   1      35.889  33.283  28.587  1.00  0.00     0.021 C 
BRANCH  39  40
ATOM     40  C   UNL A   1      35.010  32.418  29.481  1.00  0.00     0.116 C 
BRANCH  40  41
ATOM     41  N   UNL A   1      34.269  31.433  28.706  1.00  0.00    -0.352 N 
ATOM     42  C   UNL A   1      34.740  30.351  28.006  1.00  0.00     0.251 C 
ATOM     43  H   UNL A   1      33.294  31.561  28.679  1.00  0.00     0.163 HD
ATOM     44  O   UNL A   1      34.024  29.773  27.195  1.00  0.00    -0.269 OA
BRANCH  42  45
ATOM     45  C   UNL A   1      36.125  29.893  28.229  1.00  0.00     0.039 A 
ATOM     46  C   UNL A   1      37.070  30.062  27.215  1.00  0.00     0.014 A 
ATOM     47  C   UNL A   1      36.487  29.304  29.443  1.00  0.00     0.014 A 
ATOM     48  C   UNL A   1      38.396  29.693  27.443  1.00  0.00     0.010 A 
ATOM     49  C   UNL A   1      37.822  29.014  29.698  1.00  0.00     0.010 A 
ATOM     50  C   UNL A   1      38.789  29.201  28.699  1.00  0.00    -0.014 A 
BRANCH  50  51
ATOM     51  C   UNL A   1      40.209  28.881  28.991  1.00  0.00     0.031 A 
ATOM     52  C   UNL A   1      41.068  29.870  29.726  1.00  0.00     0.074 A 
ATOM     53  C   UNL A   1      40.736  27.729  28.536  1.00  0.00     0.049 A 
ATOM     54  N   UNL A   1      42.344  29.805  30.014  1.00  0.00    -0.248 NA
ATOM     55  C   UNL A   1      40.415  31.109  30.175  1.00  0.00     0.031 C 
ATOM     56  C   UNL A   1      40.011  26.710  27.776  1.00  0.00     0.029 A 
ATOM     57  N   UNL A   1      42.009  27.224  28.637  1.00  0.00    -0.354 N 
ATOM     58  C   UNL A   1      42.644  30.993  30.668  1.00  0.00     0.074 A 
ATOM     59  C   UNL A   1      41.435  31.788  30.677  1.00  0.00     0.031 C 
ATOM     60  C   UNL A   1      40.840  25.690  27.506  1.00  0.00     0.029 A 
ATOM     61  C   UNL A   1      42.166  26.003  28.030  1.00  0.00     0.049 A 
ATOM     62  H   UNL A   1      42.738  27.693  29.103  1.00  0.00     0.167 HD
ATOM     63  C   UNL A   1      43.815  31.374  31.231  1.00  0.00     0.037 A 
ATOM     64  C   UNL A   1      43.261  25.231  27.899  1.00  0.00     0.037 A 
ATOM     65  C   UNL A   1      45.012  30.573  31.226  1.00  0.00     0.049 A 
ATOM     66  C   UNL A   1      44.561  25.698  28.497  1.00  0.00     0.074 A 
ATOM     67  C   UNL A   1      46.236  30.846  31.809  1.00  0.00     0.029 A 
ATOM     68  N   UNL A   1      45.136  29.343  30.594  1.00  0.00    -0.354 N 
ATOM     69  N   UNL A   1      44.818  26.791  29.174  1.00  0.00    -0.248 NA
ATOM     70  C   UNL A   1      45.725  24.819  28.315  1.00  0.00     0.031 C 
ATOM     71  C   UNL A   1      47.118  29.813  31.477  1.00  0.00     0.029 A 
ATOM     72  C   UNL A   1      46.426  28.861  30.746  1.00  0.00     0.049 A 
ATOM     73  H   UNL A   1      44.414  28.881  30.110  1.00  0.00     0.167 HD
ATOM     74  C   UNL A   1      46.158  26.717  29.528  1.00  0.00     0.074 A 
ATOM     75  C   UNL A   1      46.658  25.463  29.003  1.00  0.00     0.031 C 
ATOM     76  C   UNL A   1      46.908  27.606  30.225  1.00  0.00     0.037 A 
BRANCH  63  77
ATOM     77  C   UNL A   1      43.859  32.721  31.896  1.00  0.00     0.064 A 
ATOM     78  C   UNL A   1      44.118  33.896  31.172  1.00  0.00     0.173 A 
ATOM     79  C   UNL A   1      43.613  32.844  33.273  1.00  0.00     0.173 A 
ATOM     80  F   UNL A   1      44.369  33.836  29.856  1.00  0.00    -0.203 F 
ATOM     81  C   UNL A   1      44.165  35.135  31.806  1.00  0.00     0.198 A 
ATOM     82  C   UNL A   1      43.624  34.089  33.896  1.00  0.00     0.198 A 
ATOM     83  F   UNL A   1      43.354  31.756  34.014  1.00  0.00    -0.203 F 
ATOM     84  F   UNL A   1      44.473  36.234  31.103  1.00  0.00    -0.200 F 
ATOM     85  C   UNL A   1      43.911  35.232  33.165  1.00  0.00     0.200 A 
ATOM     86  F   UNL A   1      43.362  34.183  35.207  1.00  0.00    -0.200 F 
ATOM     87  F   UNL A   1      43.950  36.426  33.772  1.00  0.00    -0.200 F 
ENDBRANCH  63  77
BRANCH  64  88
ATOM     88  C   UNL A   1      43.174  23.926  27.189  1.00  0.00     0.064 A 
ATOM     89  C   UNL A   1      42.708  22.779  27.847  1.00  0.00     0.173 A 
ATOM     90  C   UNL A   1      43.564  23.795  25.848  1.00  0.00     0.173 A 
ATOM     91  F   UNL A   1      42.341  22.849  29.136  1.00  0.00    -0.203 F 
ATOM     92  C   UNL A   1      42.661  21.546  27.200  1.00  0.00     0.198 A 
ATOM     93  C   UNL A   1      43.484  22.569  25.192  1.00  0.00     0.198 A 
ATOM     94  F   UNL A   1      44.012  24.862  25.170  1.00  0.00    -0.203 F 
ATOM     95  F   UNL A   1      42.263  20.457  27.870  1.00  0.00    -0.200 F 
ATOM     96  C   UNL A   1      43.043  21.443  25.871  1.00  0.00     0.200 A 
ATOM     97  F   UNL A   1      43.838  22.476  23.904  1.00  0.00    -0.200 F 
ATOM     98  F   UNL A   1      42.995  20.257  25.248  1.00  0.00    -0.200 F 
ENDBRANCH  64  88
BRANCH  76  99
ATOM     99  C   UNL A   1      48.338  27.238  30.501  1.00  0.00     0.064 A 
ATOM    100  C   UNL A   1      49.354  27.454  29.559  1.00  0.00     0.173 A 
ATOM    101  C   UNL A   1      48.702  26.701  31.747  1.00  0.00     0.173 A 
ATOM    102  F   UNL A   1      49.058  27.950  28.348  1.00  0.00    -0.203 F 
ATOM    103  C   UNL A   1      50.676  27.121  29.842  1.00  0.00     0.198 A 
ATOM    104  C   UNL A   1      50.030  26.404  32.040  1.00  0.00     0.198 A 
ATOM    105  F   UNL A   1      47.772  26.481  32.687  1.00  0.00    -0.203 F 
ATOM    106  F   UNL A   1      51.622  27.285  28.907  1.00  0.00    -0.200 F 
ATOM    107  C   UNL A   1      51.014  26.604  31.085  1.00  0.00     0.200 A 
ATOM    108  F   UNL A   1      50.356  25.923  33.247  1.00  0.00    -0.200 F 
ATOM    109  F   UNL A   1      52.289  26.296  31.360  1.00  0.00    -0.200 F 
ENDBRANCH  76  99
ENDBRANCH  50  51
ENDBRANCH  42  45
ENDBRANCH  40  41
ENDBRANCH  39  40
ENDBRANCH  38  39
ENDBRANCH   1  38
TORSDOF 17
ENDMDL
MODEL 2
REMARK VINA RESULT:     -10.1      0.383      6.891
REMARK SMILES O=C1[NH+]=C(S)N(c2cccc(Br)c2)C(=O)/C1=C/c1ccc(-c2ccc(C(=O)NCCCCCCNC(=O)c3ccc(-c4c5nc(c(-c6c(F)c(F)c(F)c(F)c6F)c6ccc([nH]6)c(-c6c(F)c(F)c(F)c(F)c6F)c6nc(c(-c7c(F)c(F)c(F)c(F)c7F)c7ccc4[nH]7)C=C6)C=C5)cc3)cc2)o1
REMARK SMILES IDX 31 1 30 2 29 3 28 4 26 5 27 6 25 8 22 9 23 10 102 11 24 12
REMARK SMILES IDX 101 13 21 14 18 15 19 16 103 17 20 18 17 19 1 20 2 21 3 22
REMARK SMILES IDX 16 23 4 24 14 26 6 27 15 28 5 29 7 31 8 32 13 33 9 34 11 35
REMARK SMILES IDX 10 36 12 37 32 38 33 39 34 40 35 41 36 42 37 44 38 45 39 46
REMARK SMILES IDX 100 47 40 48 99 49 41 50 42 51 43 52 93 53 44 54 98 55 92 56
REMARK SMILES IDX 94 57 45 58 97 59 91 60 90 61 46 63 78 64 58 65 77 66 59 67
REMARK SMILES IDX 62 68 76 69 95 70 60 71 61 72 75 74 96 75 63 76 47 77 48 78
REMARK SMILES IDX 56 79 49 80 50 81 54 82 57 83 51 84 52 85 55 86 53 87 79 88
REMARK SMILES IDX 80 89 88 90 81 91 82 92 86 93 89 94 83 95 84 96 87 97 85 98
REMARK SMILES IDX 64 99 65 100 73 101 66 102 67 103 71 104 74 105 68 106
REMARK SMILES IDX 69 107 72 108 70 109
REMARK H PARENT 28 7 3 25 5 30 35 43 94 62 62 73
REMARK Flexibility Score: inf
ROOT
ATOM      1  C   UNL A   1      37.585  32.781  30.123  1.00  0.00     0.002 C 
ENDROOT
BRANCH   1   2
ATOM      2  C   UNL A   1      37.908  33.754  31.264  1.00  0.00     0.021 C 
BRANCH   2   3
ATOM      3  C   UNL A   1      38.093  33.047  32.608  1.00  0.00     0.116 C 
BRANCH   3   4
ATOM      4  N   UNL A   1      37.270  31.852  32.649  1.00  0.00    -0.352 N 
ATOM      5  C   UNL A   1      37.548  30.550  32.976  1.00  0.00     0.251 C 
ATOM      6  O   UNL A   1      36.634  29.730  32.890  1.00  0.00    -0.269 OA
ATOM      7  H   UNL A   1      36.333  32.007  32.391  1.00  0.00     0.163 HD
BRANCH   5   8
ATOM      8  C   UNL A   1      38.871  30.115  33.500  1.00  0.00     0.039 A 
ATOM      9  C   UNL A   1      41.250  29.006  34.500  1.00  0.00     0.017 A 
ATOM     10  C   UNL A   1      40.728  28.553  33.288  1.00  0.00     0.013 A 
ATOM     11  C   UNL A   1      40.631  30.069  35.160  1.00  0.00     0.013 A 
ATOM     12  C   UNL A   1      39.537  29.097  32.797  1.00  0.00     0.014 A 
ATOM     13  C   UNL A   1      39.476  30.650  34.638  1.00  0.00     0.014 A 
BRANCH   9  14
ATOM     14  C   UNL A   1      42.398  28.381  35.116  1.00  0.00     0.134 A 
ATOM     15  C   UNL A   1      44.092  26.969  35.122  1.00  0.00     0.128 A 
ATOM     16  C   UNL A   1      44.193  27.754  36.264  1.00  0.00     0.051 A 
ATOM     17  O   UNL A   1      42.989  27.382  34.415  1.00  0.00    -0.457 OA
ATOM     18  C   UNL A   1      43.098  28.644  36.268  1.00  0.00     0.051 A 
BRANCH  15  19
ATOM     19  C   UNL A   1      44.956  25.945  34.667  1.00  0.00     0.071 C 
ATOM     20  O   UNL A   1      43.495  24.993  37.006  1.00  0.00    -0.241 OA
ATOM     21  C   UNL A   1      44.445  24.375  36.552  1.00  0.00     0.347 C 
ATOM     22  N   UNL A   1      44.893  23.247  37.166  1.00  0.00    -0.200 N 
ATOM     23  C   UNL A   1      45.172  24.790  35.328  1.00  0.00     0.158 C 
ATOM     24  C   UNL A   1      45.793  22.496  36.646  1.00  0.00     0.323 C 
ATOM     25  H   UNL A   1      44.513  22.998  38.040  1.00  0.00     0.316 HD
ATOM     26  C   UNL A   1      46.196  23.892  34.740  1.00  0.00     0.354 C 
ATOM     27  N   UNL A   1      46.442  22.724  35.447  1.00  0.00    -0.151 N 
ATOM     28  O   UNL A   1      46.762  24.200  33.690  1.00  0.00    -0.240 OA
BRANCH  24  29
ATOM     29  S   UNL A   1      46.243  21.135  37.658  1.00  0.00    -0.055 SA
ATOM     30  H   UNL A   1      45.166  20.322  37.831  1.00  0.00     0.116 HD
ENDBRANCH  24  29
BRANCH  27  31
ATOM     31  C   UNL A   1      47.396  21.810  34.899  1.00  0.00     0.138 A 
ATOM     32  C   UNL A   1      46.964  20.621  34.290  1.00  0.00     0.052 A 
ATOM     33  C   UNL A   1      48.768  22.075  34.984  1.00  0.00     0.068 A 
ATOM     34  C   UNL A   1      47.888  19.733  33.737  1.00  0.00     0.006 A 
ATOM     35  C   UNL A   1      49.685  21.178  34.437  1.00  0.00     0.022 A 
ATOM     36  C   UNL A   1      49.251  20.014  33.806  1.00  0.00     0.016 A 
ATOM     37  Br  UNL A   1      51.534  21.545  34.560  1.00  0.00    -0.051 Br
ENDBRANCH  27  31
ENDBRANCH  15  19
ENDBRANCH   9  14
ENDBRANCH   5   8
ENDBRANCH   3   4
ENDBRANCH   2   3
ENDBRANCH   1   2
BRANCH   1  38
ATOM     38  C   UNL A   1      37.106  33.458  28.832  1.00  0.00     0.002 C 
BRANCH  38  39
ATOM     39  C   UNL A   1      35.605  33.325  28.565  1.00  0.00     0.021 C 
BRANCH  39  40
ATOM     40  C   UNL A   1      34.916  32.288  29.444  1.00  0.00     0.116 C 
BRANCH  40  41
ATOM     41  N   UNL A   1      34.242  31.276  28.644  1.00  0.00    -0.352 N 
ATOM     42  C   UNL A   1      34.781  30.230  27.939  1.00  0.00     0.251 C 
ATOM     43  H   UNL A   1      33.261  31.352  28.603  1.00  0.00     0.163 HD
ATOM     44  O   UNL A   1      34.111  29.626  27.109  1.00  0.00    -0.269 OA
BRANCH  42  45
ATOM     45  C   UNL A   1      36.185  29.844  28.179  1.00  0.00     0.039 A 
ATOM     46  C   UNL A   1      37.136  30.080  27.185  1.00  0.00     0.014 A 
ATOM     47  C   UNL A   1      36.558  29.256  29.391  1.00  0.00     0.014 A 
ATOM     48  C   UNL A   1      38.476  29.779  27.431  1.00  0.00     0.010 A 
ATOM     49  C   UNL A   1      37.902  29.034  29.665  1.00  0.00     0.010 A 
ATOM     50  C   UNL A   1      38.874  29.289  28.686  1.00  0.00    -0.014 A 
BRANCH  50  51
ATOM     51  C   UNL A   1      40.304  29.042  28.998  1.00  0.00     0.031 A 
ATOM     52  C   UNL A   1      40.961  27.764  28.560  1.00  0.00     0.074 A 
ATOM     53  C   UNL A   1      40.988  29.940  29.731  1.00  0.00     0.049 A 
ATOM     54  N   UNL A   1      42.175  27.333  28.796  1.00  0.00    -0.248 NA
ATOM     55  C   UNL A   1      40.136  26.832  27.776  1.00  0.00     0.031 C 
ATOM     56  C   UNL A   1      40.446  31.199  30.246  1.00  0.00     0.029 A 
ATOM     57  N   UNL A   1      42.286  29.930  30.179  1.00  0.00    -0.354 N 
ATOM     58  C   UNL A   1      42.254  26.083  28.197  1.00  0.00     0.074 A 
ATOM     59  C   UNL A   1      40.949  25.794  27.644  1.00  0.00     0.031 C 
ATOM     60  C   UNL A   1      41.410  31.852  30.914  1.00  0.00     0.029 A 
ATOM     61  C   UNL A   1      42.622  31.038  30.916  1.00  0.00     0.049 A 
ATOM     62  H   UNL A   1      42.915  29.197  29.989  1.00  0.00     0.167 HD
ATOM     63  C   UNL A   1      43.327  25.261  28.097  1.00  0.00     0.037 A 
ATOM     64  C   UNL A   1      43.776  31.355  31.534  1.00  0.00     0.037 A 
ATOM     65  C   UNL A   1      44.626  25.560  28.642  1.00  0.00     0.049 A 
ATOM     66  C   UNL A   1      44.940  30.405  31.443  1.00  0.00     0.074 A 
ATOM     67  C   UNL A   1      45.790  24.819  28.554  1.00  0.00     0.029 A 
ATOM     68  N   UNL A   1      44.928  26.691  29.389  1.00  0.00    -0.354 N 
ATOM     69  N   UNL A   1      45.026  29.257  30.816  1.00  0.00    -0.248 NA
ATOM     70  C   UNL A   1      46.169  30.797  32.145  1.00  0.00     0.031 C 
ATOM     71  C   UNL A   1      46.779  25.467  29.300  1.00  0.00     0.029 A 
ATOM     72  C   UNL A   1      46.252  26.649  29.795  1.00  0.00     0.049 A 
ATOM     73  H   UNL A   1      44.295  27.415  29.598  1.00  0.00     0.167 HD
ATOM     74  C   UNL A   1      46.324  28.807  31.016  1.00  0.00     0.074 A 
ATOM     75  C   UNL A   1      46.994  29.814  31.813  1.00  0.00     0.031 C 
ATOM     76  C   UNL A   1      46.909  27.664  30.581  1.00  0.00     0.037 A 
BRANCH  63  77
ATOM     77  C   UNL A   1      43.137  23.958  27.373  1.00  0.00     0.064 A 
ATOM     78  C   UNL A   1      43.449  23.815  26.012  1.00  0.00     0.173 A 
ATOM     79  C   UNL A   1      42.663  22.826  28.056  1.00  0.00     0.173 A 
ATOM     80  F   UNL A   1      43.897  24.866  25.309  1.00  0.00    -0.203 F 
ATOM     81  C   UNL A   1      43.258  22.603  25.354  1.00  0.00     0.198 A 
ATOM     82  C   UNL A   1      42.509  21.606  27.404  1.00  0.00     0.198 A 
ATOM     83  F   UNL A   1      42.355  22.902  29.360  1.00  0.00    -0.203 F 
ATOM     84  F   UNL A   1      43.506  22.510  24.040  1.00  0.00    -0.200 F 
ATOM     85  C   UNL A   1      42.795  21.498  26.051  1.00  0.00     0.200 A 
ATOM     86  F   UNL A   1      42.077  20.535  28.083  1.00  0.00    -0.200 F 
ATOM     87  F   UNL A   1      42.619  20.330  25.418  1.00  0.00    -0.200 F 
ENDBRANCH  63  77
BRANCH  64  88
ATOM     88  C   UNL A   1      43.895  32.638  32.278  1.00  0.00     0.064 A 
ATOM     89  C   UNL A   1      44.203  33.831  31.609  1.00  0.00     0.173 A 
ATOM     90  C   UNL A   1      43.720  32.698  33.668  1.00  0.00     0.173 A 
ATOM     91  F   UNL A   1      44.400  33.823  30.282  1.00  0.00    -0.203 F 
ATOM     92  C   UNL A   1      44.356  35.029  32.305  1.00  0.00     0.198 A 
ATOM     93  C   UNL A   1      43.839  33.902  34.358  1.00  0.00     0.198 A 
ATOM     94  F   UNL A   1      43.419  31.587  34.356  1.00  0.00    -0.203 F 
ATOM     95  F   UNL A   1      44.703  36.142  31.647  1.00  0.00    -0.200 F 
ATOM     96  C   UNL A   1      44.167  35.065  33.678  1.00  0.00     0.200 A 
ATOM     97  F   UNL A   1      43.639  33.936  35.682  1.00  0.00    -0.200 F 
ATOM     98  F   UNL A   1      44.312  36.217  34.346  1.00  0.00    -0.200 F 
ENDBRANCH  64  88
BRANCH  76  99
ATOM     99  C   UNL A   1      48.358  27.458  30.917  1.00  0.00     0.064 A 
ATOM    100  C   UNL A   1      48.769  26.984  32.170  1.00  0.00     0.173 A 
ATOM    101  C   UNL A   1      49.349  27.697  29.950  1.00  0.00     0.173 A 
ATOM    102  F   UNL A   1      47.865  26.754  33.135  1.00  0.00    -0.203 F 
ATOM    103  C   UNL A   1      50.117  26.785  32.455  1.00  0.00     0.198 A 
ATOM    104  C   UNL A   1      50.693  27.462  30.226  1.00  0.00     0.198 A 
ATOM    105  F   UNL A   1      49.012  28.145  28.731  1.00  0.00    -0.203 F 
ATOM    106  F   UNL A   1      50.490  26.383  33.678  1.00  0.00    -0.200 F 
ATOM    107  C   UNL A   1      51.077  27.015  31.480  1.00  0.00     0.200 A 
ATOM    108  F   UNL A   1      51.616  27.667  29.276  1.00  0.00    -0.200 F 
ATOM    109  F   UNL A   1      52.374  26.810  31.752  1.00  0.00    -0.200 F 
ENDBRANCH  76  99
ENDBRANCH  50  51
ENDBRANCH  42  45
ENDBRANCH  40  41
ENDBRANCH  39  40
ENDBRANCH  38  39
ENDBRANCH   1  38
TORSDOF 17
ENDMDL
MODEL 3
REMARK VINA RESULT:     -10.0      1.570      2.507
REMARK SMILES O=C1[NH+]=C(S)N(c2cccc(Br)c2)C(=O)/C1=C/c1ccc(-c2ccc(C(=O)NCCCCCCNC(=O)c3ccc(-c4c5nc(c(-c6c(F)c(F)c(F)c(F)c6F)c6ccc([nH]6)c(-c6c(F)c(F)c(F)c(F)c6F)c6nc(c(-c7c(F)c(F)c(F)c(F)c7F)c7ccc4[nH]7)C=C6)C=C5)cc3)cc2)o1
REMARK SMILES IDX 31 1 30 2 29 3 28 4 26 5 27 6 25 8 22 9 23 10 102 11 24 12
REMARK SMILES IDX 101 13 21 14 18 15 19 16 103 17 20 18 17 19 1 20 2 21 3 22
REMARK SMILES IDX 16 23 4 24 14 26 6 27 15 28 5 29 7 31 8 32 13 33 9 34 11 35
REMARK SMILES IDX 10 36 12 37 32 38 33 39 34 40 35 41 36 42 37 44 38 45 39 46
REMARK SMILES IDX 100 47 40 48 99 49 41 50 42 51 43 52 93 53 44 54 98 55 92 56
REMARK SMILES IDX 94 57 45 58 97 59 91 60 90 61 46 63 78 64 58 65 77 66 59 67
REMARK SMILES IDX 62 68 76 69 95 70 60 71 61 72 75 74 96 75 63 76 47 77 48 78
REMARK SMILES IDX 56 79 49 80 50 81 54 82 57 83 51 84 52 85 55 86 53 87 79 88
REMARK SMILES IDX 80 89 88 90 81 91 82 92 86 93 89 94 83 95 84 96 87 97 85 98
REMARK SMILES IDX 64 99 65 100 73 101 66 102 67 103 71 104 74 105 68 106
REMARK SMILES IDX 69 107 72 108 70 109
REMARK H PARENT 28 7 3 25 5 30 35 43 94 62 62 73
REMARK Flexibility Score: inf
ROOT
ATOM      1  C   UNL A   1      37.284  32.800  31.214  1.00  0.00     0.002 C 
ENDROOT
BRANCH   1   2
ATOM      2  C   UNL A   1      38.352  33.852  31.539  1.00  0.00     0.021 C 
BRANCH   2   3
ATOM      3  C   UNL A   1      39.197  33.478  32.759  1.00  0.00     0.116 C 
BRANCH   3   4
ATOM      4  N   UNL A   1      38.333  33.019  33.830  1.00  0.00    -0.352 N 
ATOM      5  C   UNL A   1      38.284  31.847  34.540  1.00  0.00     0.251 C 
ATOM      6  O   UNL A   1      37.403  31.729  35.391  1.00  0.00    -0.269 OA
ATOM      7  H   UNL A   1      37.650  33.675  34.098  1.00  0.00     0.163 HD
BRANCH   5   8
ATOM      8  C   UNL A   1      39.289  30.762  34.376  1.00  0.00     0.039 A 
ATOM      9  C   UNL A   1      41.391  28.938  33.998  1.00  0.00     0.017 A 
ATOM     10  C   UNL A   1      41.501  29.932  34.972  1.00  0.00     0.013 A 
ATOM     11  C   UNL A   1      40.201  28.806  33.282  1.00  0.00     0.013 A 
ATOM     12  C   UNL A   1      40.458  30.847  35.151  1.00  0.00     0.014 A 
ATOM     13  C   UNL A   1      39.140  29.683  33.504  1.00  0.00     0.014 A 
BRANCH   9  14
ATOM     14  C   UNL A   1      42.493  28.059  33.681  1.00  0.00     0.134 A 
ATOM     15  C   UNL A   1      44.375  27.021  34.174  1.00  0.00     0.128 A 
ATOM     16  C   UNL A   1      43.936  26.538  32.946  1.00  0.00     0.051 A 
ATOM     17  O   UNL A   1      43.464  27.945  34.622  1.00  0.00    -0.457 OA
ATOM     18  C   UNL A   1      42.741  27.217  32.624  1.00  0.00     0.051 A 
BRANCH  15  19
ATOM     19  C   UNL A   1      45.516  26.643  34.921  1.00  0.00     0.071 C 
ATOM     20  O   UNL A   1      43.245  25.011  35.754  1.00  0.00    -0.241 OA
ATOM     21  C   UNL A   1      44.289  25.020  36.385  1.00  0.00     0.347 C 
ATOM     22  N   UNL A   1      44.405  24.311  37.540  1.00  0.00    -0.200 N 
ATOM     23  C   UNL A   1      45.487  25.783  35.960  1.00  0.00     0.158 C 
ATOM     24  C   UNL A   1      45.522  24.183  38.156  1.00  0.00     0.323 C 
ATOM     25  H   UNL A   1      43.603  23.882  37.917  1.00  0.00     0.316 HD
ATOM     26  C   UNL A   1      46.771  25.601  36.681  1.00  0.00     0.354 C 
ATOM     27  N   UNL A   1      46.726  24.746  37.773  1.00  0.00    -0.151 N 
ATOM     28  O   UNL A   1      47.786  26.183  36.298  1.00  0.00    -0.240 OA
BRANCH  24  29
ATOM     29  S   UNL A   1      45.400  23.273  39.651  1.00  0.00    -0.055 SA
ATOM     30  H   UNL A   1      44.137  23.377  40.145  1.00  0.00     0.116 HD
ENDBRANCH  24  29
BRANCH  27  31
ATOM     31  C   UNL A   1      47.947  24.511  38.477  1.00  0.00     0.138 A 
ATOM     32  C   UNL A   1      48.290  25.307  39.582  1.00  0.00     0.052 A 
ATOM     33  C   UNL A   1      48.827  23.503  38.062  1.00  0.00     0.068 A 
ATOM     34  C   UNL A   1      49.472  25.071  40.286  1.00  0.00     0.006 A 
ATOM     35  C   UNL A   1      50.011  23.281  38.765  1.00  0.00     0.022 A 
ATOM     36  C   UNL A   1      50.332  24.053  39.880  1.00  0.00     0.016 A 
ATOM     37  Br  UNL A   1      51.192  21.921  38.195  1.00  0.00    -0.051 Br
ENDBRANCH  27  31
ENDBRANCH  15  19
ENDBRANCH   9  14
ENDBRANCH   5   8
ENDBRANCH   3   4
ENDBRANCH   2   3
ENDBRANCH   1   2
BRANCH   1  38
ATOM     38  C   UNL A   1      35.841  33.292  31.379  1.00  0.00     0.002 C 
BRANCH  38  39
ATOM     39  C   UNL A   1      34.789  32.414  30.697  1.00  0.00     0.021 C 
BRANCH  39  40
ATOM     40  C   UNL A   1      34.861  32.443  29.175  1.00  0.00     0.116 C 
BRANCH  40  41
ATOM     41  N   UNL A   1      34.243  31.262  28.591  1.00  0.00    -0.352 N 
ATOM     42  C   UNL A   1      34.837  30.119  28.120  1.00  0.00     0.251 C 
ATOM     43  H   UNL A   1      33.262  31.286  28.524  1.00  0.00     0.163 HD
ATOM     44  O   UNL A   1      34.208  29.330  27.423  1.00  0.00    -0.269 OA
BRANCH  42  45
ATOM     45  C   UNL A   1      36.251  29.850  28.450  1.00  0.00     0.039 A 
ATOM     46  C   UNL A   1      36.571  29.339  29.708  1.00  0.00     0.014 A 
ATOM     47  C   UNL A   1      37.254  30.099  27.510  1.00  0.00     0.014 A 
ATOM     48  C   UNL A   1      37.897  29.020  30.003  1.00  0.00     0.010 A 
ATOM     49  C   UNL A   1      38.560  29.704  27.774  1.00  0.00     0.010 A 
ATOM     50  C   UNL A   1      38.895  29.165  29.026  1.00  0.00    -0.014 A 
BRANCH  50  51
ATOM     51  C   UNL A   1      40.297  28.753  29.289  1.00  0.00     0.031 A 
ATOM     52  C   UNL A   1      41.228  29.675  30.024  1.00  0.00     0.074 A 
ATOM     53  C   UNL A   1      40.744  27.578  28.808  1.00  0.00     0.049 A 
ATOM     54  N   UNL A   1      42.502  29.528  30.290  1.00  0.00    -0.248 NA
ATOM     55  C   UNL A   1      40.659  30.945  30.502  1.00  0.00     0.031 C 
ATOM     56  C   UNL A   1      39.946  26.618  28.045  1.00  0.00     0.029 A 
ATOM     57  N   UNL A   1      41.985  26.995  28.880  1.00  0.00    -0.354 N 
ATOM     58  C   UNL A   1      42.884  30.684  30.956  1.00  0.00     0.074 A 
ATOM     59  C   UNL A   1      41.728  31.552  30.997  1.00  0.00     0.031 C 
ATOM     60  C   UNL A   1      40.707  25.553  27.745  1.00  0.00     0.029 A 
ATOM     61  C   UNL A   1      42.057  25.776  28.251  1.00  0.00     0.049 A 
ATOM     62  H   UNL A   1      42.750  27.410  29.340  1.00  0.00     0.167 HD
ATOM     63  C   UNL A   1      44.086  30.983  31.504  1.00  0.00     0.037 A 
ATOM     64  C   UNL A   1      43.100  24.940  28.091  1.00  0.00     0.037 A 
ATOM     65  C   UNL A   1      45.230  30.110  31.467  1.00  0.00     0.049 A 
ATOM     66  C   UNL A   1      44.436  25.316  28.673  1.00  0.00     0.074 A 
ATOM     67  C   UNL A   1      46.478  30.297  32.033  1.00  0.00     0.029 A 
ATOM     68  N   UNL A   1      45.268  28.885  30.815  1.00  0.00    -0.354 N 
ATOM     69  N   UNL A   1      44.770  26.380  29.362  1.00  0.00    -0.248 NA
ATOM     70  C   UNL A   1      45.540  24.371  28.459  1.00  0.00     0.031 C 
ATOM     71  C   UNL A   1      47.290  29.218  31.671  1.00  0.00     0.029 A 
ATOM     72  C   UNL A   1      46.528  28.323  30.938  1.00  0.00     0.049 A 
ATOM     73  H   UNL A   1      44.511  28.476  30.337  1.00  0.00     0.167 HD
ATOM     74  C   UNL A   1      46.109  26.218  29.693  1.00  0.00     0.074 A 
ATOM     75  C   UNL A   1      46.522  24.945  29.140  1.00  0.00     0.031 C 
ATOM     76  C   UNL A   1      46.923  27.049  30.390  1.00  0.00     0.037 A 
BRANCH  63  77
ATOM     77  C   UNL A   1      44.224  32.314  32.189  1.00  0.00     0.064 A 
ATOM     78  C   UNL A   1      44.178  32.435  33.587  1.00  0.00     0.173 A 
ATOM     79  C   UNL A   1      44.433  33.483  31.440  1.00  0.00     0.173 A 
ATOM     80  F   UNL A   1      43.973  31.353  34.352  1.00  0.00    -0.203 F 
ATOM     81  C   UNL A   1      44.298  33.677  34.205  1.00  0.00     0.198 A 
ATOM     82  C   UNL A   1      44.589  34.718  32.063  1.00  0.00     0.198 A 
ATOM     83  F   UNL A   1      44.492  33.427  30.100  1.00  0.00    -0.203 F 
ATOM     84  F   UNL A   1      44.190  33.774  35.537  1.00  0.00    -0.200 F 
ATOM     85  C   UNL A   1      44.510  34.816  33.444  1.00  0.00     0.200 A 
ATOM     86  F   UNL A   1      44.811  35.815  31.327  1.00  0.00    -0.200 F 
ATOM     87  F   UNL A   1      44.632  36.010  34.040  1.00  0.00    -0.200 F 
ENDBRANCH  63  77
BRANCH  64  88
ATOM     88  C   UNL A   1      42.921  23.655  27.363  1.00  0.00     0.064 A 
ATOM     89  C   UNL A   1      42.387  22.531  28.008  1.00  0.00     0.173 A 
ATOM     90  C   UNL A   1      43.290  23.518  26.016  1.00  0.00     0.173 A 
ATOM     91  F   UNL A   1      42.037  22.605  29.302  1.00  0.00    -0.203 F 
ATOM     92  C   UNL A   1      42.253  21.313  27.344  1.00  0.00     0.198 A 
ATOM     93  C   UNL A   1      43.124  22.310  25.343  1.00  0.00     0.198 A 
ATOM     94  F   UNL A   1      43.801  24.564  25.349  1.00  0.00    -0.203 F 
ATOM     95  F   UNL A   1      41.791  20.242  28.002  1.00  0.00    -0.200 F 
ATOM     96  C   UNL A   1      42.616  21.205  26.010  1.00  0.00     0.200 A 
ATOM     97  F   UNL A   1      43.460  22.214  24.050  1.00  0.00    -0.200 F 
ATOM     98  F   UNL A   1      42.485  20.035  25.370  1.00  0.00    -0.200 F 
ENDBRANCH  64  88
BRANCH  76  99
ATOM     99  C   UNL A   1      48.332  26.589  30.636  1.00  0.00     0.064 A 
ATOM    100  C   UNL A   1      48.669  25.787  31.736  1.00  0.00     0.173 A 
ATOM    101  C   UNL A   1      49.352  26.919  29.729  1.00  0.00     0.173 A 
ATOM    102  F   UNL A   1      47.736  25.455  32.641  1.00  0.00    -0.203 F 
ATOM    103  C   UNL A   1      49.978  25.358  31.936  1.00  0.00     0.198 A 
ATOM    104  C   UNL A   1      50.653  26.457  29.912  1.00  0.00     0.198 A 
ATOM    105  F   UNL A   1      49.084  27.677  28.656  1.00  0.00    -0.203 F 
ATOM    106  F   UNL A   1      50.287  24.638  33.024  1.00  0.00    -0.200 F 
ATOM    107  C   UNL A   1      50.966  25.685  31.019  1.00  0.00     0.200 A 
ATOM    108  F   UNL A   1      51.601  26.759  29.015  1.00  0.00    -0.200 F 
ATOM    109  F   UNL A   1      52.224  25.260  31.207  1.00  0.00    -0.200 F 
ENDBRANCH  76  99
ENDBRANCH  50  51
ENDBRANCH  42  45
ENDBRANCH  40  41
ENDBRANCH  39  40
ENDBRANCH  38  39
ENDBRANCH   1  38
TORSDOF 17
ENDMDL
