MODEL 1
REMARK VINA RESULT:     -13.2      0.000      0.000
REMARK SMILES C[C@H]1[C@H](C)CC[C@@]2(C(=O)NCCCCCCNC(=O)c3ccc(-c4c5nc(c(-c6c(F)c(F)c(F)c(F)c6F)c6ccc([nH]6)c(-c6c(F)c(F)c(F)c(F)c6F)c6nc(c(-c7c(F)c(F)c(F)c(F)c7F)c7ccc4[nH]7)C=C6)C=C5)cc3)CC[C@@]3(C)C(=CC[C@@H]4[C@@]5(C)CC[C@H](O)C(C)(C)[C@@H]5CC[C@]43C)[C@H]12
REMARK SMILES IDX 14 1 13 2 12 3 11 4 10 5 8 6 9 7 7 9 1 10 2 11 3 12 105 13
REMARK SMILES IDX 4 14 5 15 87 16 6 17 83 18 85 19 88 20 84 21 86 22 103 23
REMARK SMILES IDX 89 24 90 25 102 26 104 27 91 28 101 29 92 30 93 31 100 32
REMARK SMILES IDX 94 33 97 34 95 35 98 36 99 37 96 38 15 40 16 41 17 42 18 43
REMARK SMILES IDX 19 45 20 46 21 47 82 48 22 49 81 50 23 51 24 52 25 53 75 54
REMARK SMILES IDX 26 55 80 56 74 57 76 58 27 59 79 60 73 61 72 62 28 64 60 65
REMARK SMILES IDX 40 66 59 67 41 68 44 69 58 70 77 71 42 72 43 73 57 75 78 76
REMARK SMILES IDX 45 77 29 78 30 79 38 80 31 81 32 82 36 83 39 84 33 85 34 86
REMARK SMILES IDX 37 87 35 88 61 89 62 90 70 91 63 92 64 93 68 94 71 95 65 96
REMARK SMILES IDX 66 97 69 98 67 99 46 100 47 101 55 102 48 103 49 104 53 105
REMARK SMILES IDX 56 106 50 107 51 108 54 109 52 110
REMARK H PARENT 10 8 96 39 17 44 76 63 44 74
REMARK Flexibility Score: inf
ROOT
ATOM      1  C   UNL A   1      39.270  22.152  26.483  1.00  0.00     0.002 C 
ENDROOT
BRANCH   1   2
ATOM      2  C   UNL A   1      38.724  23.402  25.784  1.00  0.00     0.002 C 
BRANCH   2   3
ATOM      3  C   UNL A   1      37.663  24.248  26.501  1.00  0.00     0.021 C 
BRANCH   3   4
ATOM      4  C   UNL A   1      36.195  24.010  26.135  1.00  0.00     0.116 C 
BRANCH   4   5
ATOM      5  N   UNL A   1      35.624  22.812  26.713  1.00  0.00    -0.356 N 
ATOM      6  C   UNL A   1      34.915  21.786  26.160  1.00  0.00     0.226 C 
ATOM      7  O   UNL A   1      34.028  21.351  26.909  1.00  0.00    -0.274 OA
ATOM      8  H   UNL A   1      35.775  22.720  27.682  1.00  0.00     0.163 HD
BRANCH   6   9
ATOM      9  C   UNL A   1      35.167  21.127  24.748  1.00  0.00     0.056 C 
ATOM     10  C   UNL A   1      32.074  18.930  23.627  1.00  0.00     0.008 C 
ATOM     11  C   UNL A   1      33.315  19.303  24.463  1.00  0.00    -0.003 C 
ATOM     12  C   UNL A   1      34.425  18.213  24.357  1.00  0.00    -0.011 C 
ATOM     13  C   UNL A   1      33.870  20.682  24.014  1.00  0.00     0.034 C 
ATOM     14  C   UNL A   1      34.021  16.857  24.959  1.00  0.00     0.008 C 
ATOM     15  C   UNL A   1      35.759  18.598  25.019  1.00  0.00     0.005 C 
ATOM     16  C   UNL A   1      32.955  21.915  24.023  1.00  0.00    -0.063 C 
ATOM     17  C   UNL A   1      36.236  20.021  24.809  1.00  0.00     0.018 C 
ATOM     18  C   UNL A   1      35.795  22.238  23.809  1.00  0.00     0.018 C 
ATOM     19  C   UNL A   1      33.390  23.086  23.092  1.00  0.00    -0.006 C 
ATOM     20  C   UNL A   1      32.027  22.067  24.990  1.00  0.00    -0.027 C 
ATOM     21  C   UNL A   1      34.886  23.420  23.421  1.00  0.00     0.013 C 
ATOM     22  C   UNL A   1      33.328  22.628  21.611  1.00  0.00     0.017 C 
ATOM     23  C   UNL A   1      32.436  24.393  23.304  1.00  0.00    -0.020 C 
ATOM     24  C   UNL A   1      31.473  23.394  25.418  1.00  0.00     0.032 C 
ATOM     25  C   UNL A   1      32.304  24.577  24.861  1.00  0.00     0.006 C 
ATOM     26  C   UNL A   1      33.009  25.670  22.636  1.00  0.00     0.008 C 
ATOM     27  C   UNL A   1      31.043  24.162  22.636  1.00  0.00     0.012 C 
ATOM     28  C   UNL A   1      31.941  26.001  25.456  1.00  0.00    -0.025 C 
ATOM     29  C   UNL A   1      32.316  26.957  23.101  1.00  0.00     0.005 C 
ATOM     30  C   UNL A   1      30.414  26.114  25.645  1.00  0.00     0.012 C 
ATOM     31  C   UNL A   1      32.624  26.119  26.860  1.00  0.00     0.010 C 
ATOM     32  C   UNL A   1      32.580  27.153  24.599  1.00  0.00     0.003 C 
ATOM     33  C   UNL A   1      32.485  27.493  27.510  1.00  0.00     0.033 C 
ATOM     34  C   UNL A   1      32.360  28.614  25.152  1.00  0.00    -0.006 C 
ATOM     35  C   UNL A   1      32.924  28.652  26.608  1.00  0.00     0.120 C 
ATOM     36  C   UNL A   1      30.904  29.122  25.077  1.00  0.00     0.014 C 
ATOM     37  C   UNL A   1      33.183  29.633  24.316  1.00  0.00     0.014 C 
BRANCH  35  38
ATOM     38  O   UNL A   1      32.610  29.885  27.256  1.00  0.00    -0.393 OA
ATOM     39  H   UNL A   1      32.937  30.625  26.719  1.00  0.00     0.210 HD
ENDBRANCH  35  38
ENDBRANCH   6   9
ENDBRANCH   4   5
ENDBRANCH   3   4
ENDBRANCH   2   3
ENDBRANCH   1   2
BRANCH   1  40
ATOM     40  C   UNL A   1      39.513  20.902  25.640  1.00  0.00     0.021 C 
BRANCH  40  41
ATOM     41  C   UNL A   1      39.774  19.586  26.360  1.00  0.00     0.116 C 
BRANCH  41  42
ATOM     42  N   UNL A   1      40.936  18.859  25.894  1.00  0.00    -0.352 N 
ATOM     43  C   UNL A   1      42.259  19.245  25.857  1.00  0.00     0.251 C 
ATOM     44  H   UNL A   1      40.754  17.953  25.553  1.00  0.00     0.163 HD
ATOM     45  O   UNL A   1      43.100  18.484  25.403  1.00  0.00    -0.269 OA
BRANCH  43  46
ATOM     46  C   UNL A   1      42.673  20.599  26.316  1.00  0.00     0.039 A 
ATOM     47  C   UNL A   1      43.120  21.513  25.354  1.00  0.00     0.014 A 
ATOM     48  C   UNL A   1      42.647  20.978  27.661  1.00  0.00     0.014 A 
ATOM     49  C   UNL A   1      43.469  22.816  25.727  1.00  0.00     0.010 A 
ATOM     50  C   UNL A   1      42.926  22.299  28.024  1.00  0.00     0.010 A 
ATOM     51  C   UNL A   1      43.339  23.232  27.061  1.00  0.00    -0.014 A 
BRANCH  51  52
ATOM     52  C   UNL A   1      43.635  24.635  27.461  1.00  0.00     0.031 A 
ATOM     53  C   UNL A   1      45.058  25.109  27.581  1.00  0.00     0.074 A 
ATOM     54  C   UNL A   1      42.624  25.471  27.773  1.00  0.00     0.049 A 
ATOM     55  N   UNL A   1      45.515  26.271  27.977  1.00  0.00    -0.248 NA
ATOM     56  C   UNL A   1      46.109  24.139  27.235  1.00  0.00     0.031 C 
ATOM     57  C   UNL A   1      41.202  25.124  27.747  1.00  0.00     0.029 A 
ATOM     58  N   UNL A   1      42.637  26.781  28.184  1.00  0.00    -0.354 N 
ATOM     59  C   UNL A   1      46.899  26.165  27.944  1.00  0.00     0.074 A 
ATOM     60  C   UNL A   1      47.210  24.813  27.533  1.00  0.00     0.031 C 
ATOM     61  C   UNL A   1      40.480  26.198  28.108  1.00  0.00     0.029 A 
ATOM     62  C   UNL A   1      41.386  27.299  28.423  1.00  0.00     0.049 A 
ATOM     63  H   UNL A   1      43.465  27.302  28.298  1.00  0.00     0.167 HD
ATOM     64  C   UNL A   1      47.828  27.116  28.211  1.00  0.00     0.037 A 
ATOM     65  C   UNL A   1      41.012  28.519  28.852  1.00  0.00     0.037 A 
ATOM     66  C   UNL A   1      47.521  28.472  28.580  1.00  0.00     0.049 A 
ATOM     67  C   UNL A   1      42.063  29.561  29.124  1.00  0.00     0.074 A 
ATOM     68  C   UNL A   1      48.392  29.526  28.800  1.00  0.00     0.029 A 
ATOM     69  N   UNL A   1      46.240  28.965  28.779  1.00  0.00    -0.354 N 
ATOM     70  N   UNL A   1      43.366  29.468  29.022  1.00  0.00    -0.248 NA
ATOM     71  C   UNL A   1      41.591  30.881  29.566  1.00  0.00     0.031 C 
ATOM     72  C   UNL A   1      47.641  30.646  29.170  1.00  0.00     0.029 A 
ATOM     73  C   UNL A   1      46.300  30.302  29.139  1.00  0.00     0.049 A 
ATOM     74  H   UNL A   1      45.411  28.443  28.681  1.00  0.00     0.167 HD
ATOM     75  C   UNL A   1      43.867  30.718  29.357  1.00  0.00     0.074 A 
ATOM     76  C   UNL A   1      42.727  31.560  29.652  1.00  0.00     0.031 C 
ATOM     77  C   UNL A   1      45.156  31.131  29.418  1.00  0.00     0.037 A 
BRANCH  64  78
ATOM     78  C   UNL A   1      49.274  26.728  28.104  1.00  0.00     0.064 A 
ATOM     79  C   UNL A   1      49.941  26.715  26.870  1.00  0.00     0.173 A 
ATOM     80  C   UNL A   1      50.015  26.420  29.255  1.00  0.00     0.173 A 
ATOM     81  F   UNL A   1      49.274  26.993  25.740  1.00  0.00    -0.203 F 
ATOM     82  C   UNL A   1      51.292  26.386  26.790  1.00  0.00     0.198 A 
ATOM     83  C   UNL A   1      51.372  26.118  29.173  1.00  0.00     0.198 A 
ATOM     84  F   UNL A   1      49.427  26.424  30.460  1.00  0.00    -0.203 F 
ATOM     85  F   UNL A   1      51.898  26.343  25.595  1.00  0.00    -0.200 F 
ATOM     86  C   UNL A   1      52.008  26.097  27.941  1.00  0.00     0.200 A 
ATOM     87  F   UNL A   1      52.066  25.850  30.289  1.00  0.00    -0.200 F 
ATOM     88  F   UNL A   1      53.310  25.791  27.863  1.00  0.00    -0.200 F 
ENDBRANCH  64  78
BRANCH  65  89
ATOM     89  C   UNL A   1      39.571  28.836  29.035  1.00  0.00     0.064 A 
ATOM     90  C   UNL A   1      38.793  29.301  27.965  1.00  0.00     0.173 A 
ATOM     91  C   UNL A   1      38.946  28.701  30.283  1.00  0.00     0.173 A 
ATOM     92  F   UNL A   1      39.351  29.470  26.757  1.00  0.00    -0.203 F 
ATOM     93  C   UNL A   1      37.454  29.642  28.141  1.00  0.00     0.198 A 
ATOM     94  C   UNL A   1      37.599  29.015  30.453  1.00  0.00     0.198 A 
ATOM     95  F   UNL A   1      39.644  28.257  31.340  1.00  0.00    -0.203 F 
ATOM     96  F   UNL A   1      36.749  30.133  27.112  1.00  0.00    -0.200 F 
ATOM     97  C   UNL A   1      36.857  29.494  29.384  1.00  0.00     0.200 A 
ATOM     98  F   UNL A   1      37.022  28.860  31.652  1.00  0.00    -0.200 F 
ATOM     99  F   UNL A   1      35.569  29.823  29.553  1.00  0.00    -0.200 F 
ENDBRANCH  65  89
BRANCH  77 100
ATOM    100  C   UNL A   1      45.403  32.564  29.784  1.00  0.00     0.064 A 
ATOM    101  C   UNL A   1      45.425  33.577  28.813  1.00  0.00     0.173 A 
ATOM    102  C   UNL A   1      45.579  32.935  31.126  1.00  0.00     0.173 A 
ATOM    103  F   UNL A   1      45.277  33.271  27.516  1.00  0.00    -0.203 F 
ATOM    104  C   UNL A   1      45.636  34.906  29.172  1.00  0.00     0.198 A 
ATOM    105  C   UNL A   1      45.761  34.268  31.483  1.00  0.00     0.198 A 
ATOM    106  F   UNL A   1      45.560  32.004  32.092  1.00  0.00    -0.203 F 
ATOM    107  F   UNL A   1      45.695  35.852  28.224  1.00  0.00    -0.200 F 
ATOM    108  C   UNL A   1      45.797  35.251  30.505  1.00  0.00     0.200 A 
ATOM    109  F   UNL A   1      45.905  34.600  32.773  1.00  0.00    -0.200 F 
ATOM    110  F   UNL A   1      45.992  36.531  30.849  1.00  0.00    -0.200 F 
ENDBRANCH  77 100
ENDBRANCH  51  52
ENDBRANCH  43  46
ENDBRANCH  41  42
ENDBRANCH  40  41
ENDBRANCH   1  40
TORSDOF 14
ENDMDL
MODEL 2
REMARK VINA RESULT:     -13.2      0.442      6.732
REMARK SMILES C[C@H]1[C@H](C)CC[C@@]2(C(=O)NCCCCCCNC(=O)c3ccc(-c4c5nc(c(-c6c(F)c(F)c(F)c(F)c6F)c6ccc([nH]6)c(-c6c(F)c(F)c(F)c(F)c6F)c6nc(c(-c7c(F)c(F)c(F)c(F)c7F)c7ccc4[nH]7)C=C6)C=C5)cc3)CC[C@@]3(C)C(=CC[C@@H]4[C@@]5(C)CC[C@H](O)C(C)(C)[C@@H]5CC[C@]43C)[C@H]12
REMARK SMILES IDX 14 1 13 2 12 3 11 4 10 5 8 6 9 7 7 9 1 10 2 11 3 12 105 13
REMARK SMILES IDX 4 14 5 15 87 16 6 17 83 18 85 19 88 20 84 21 86 22 103 23
REMARK SMILES IDX 89 24 90 25 102 26 104 27 91 28 101 29 92 30 93 31 100 32
REMARK SMILES IDX 94 33 97 34 95 35 98 36 99 37 96 38 15 40 16 41 17 42 18 43
REMARK SMILES IDX 19 45 20 46 21 47 82 48 22 49 81 50 23 51 24 52 25 53 75 54
REMARK SMILES IDX 26 55 80 56 74 57 76 58 27 59 79 60 73 61 72 62 28 64 60 65
REMARK SMILES IDX 40 66 59 67 41 68 44 69 58 70 77 71 42 72 43 73 57 75 78 76
REMARK SMILES IDX 45 77 29 78 30 79 38 80 31 81 32 82 36 83 39 84 33 85 34 86
REMARK SMILES IDX 37 87 35 88 61 89 62 90 70 91 63 92 64 93 68 94 71 95 65 96
REMARK SMILES IDX 66 97 69 98 67 99 46 100 47 101 55 102 48 103 49 104 53 105
REMARK SMILES IDX 56 106 50 107 51 108 54 109 52 110
REMARK H PARENT 10 8 96 39 17 44 76 63 44 74
REMARK Flexibility Score: inf
ROOT
ATOM      1  C   UNL A   1      39.377  22.298  26.419  1.00  0.00     0.002 C 
ENDROOT
BRANCH   1   2
ATOM      2  C   UNL A   1      38.641  23.474  25.769  1.00  0.00     0.002 C 
BRANCH   2   3
ATOM      3  C   UNL A   1      37.593  24.238  26.591  1.00  0.00     0.021 C 
BRANCH   3   4
ATOM      4  C   UNL A   1      36.118  24.018  26.244  1.00  0.00     0.116 C 
BRANCH   4   5
ATOM      5  N   UNL A   1      35.553  22.802  26.789  1.00  0.00    -0.356 N 
ATOM      6  C   UNL A   1      34.865  21.779  26.205  1.00  0.00     0.226 C 
ATOM      7  O   UNL A   1      33.972  21.318  26.931  1.00  0.00    -0.274 OA
ATOM      8  H   UNL A   1      35.690  22.693  27.758  1.00  0.00     0.163 HD
BRANCH   6   9
ATOM      9  C   UNL A   1      35.148  21.151  24.784  1.00  0.00     0.056 C 
ATOM     10  C   UNL A   1      32.068  19.004  23.537  1.00  0.00     0.008 C 
ATOM     11  C   UNL A   1      33.291  19.348  24.411  1.00  0.00    -0.003 C 
ATOM     12  C   UNL A   1      34.395  18.253  24.306  1.00  0.00    -0.011 C 
ATOM     13  C   UNL A   1      33.866  20.733  24.008  1.00  0.00     0.034 C 
ATOM     14  C   UNL A   1      33.967  16.887  24.866  1.00  0.00     0.008 C 
ATOM     15  C   UNL A   1      35.715  18.612  25.010  1.00  0.00     0.005 C 
ATOM     16  C   UNL A   1      32.960  21.973  24.024  1.00  0.00    -0.063 C 
ATOM     17  C   UNL A   1      36.207  20.037  24.846  1.00  0.00     0.018 C 
ATOM     18  C   UNL A   1      35.806  22.279  23.887  1.00  0.00     0.018 C 
ATOM     19  C   UNL A   1      33.425  23.162  23.132  1.00  0.00    -0.006 C 
ATOM     20  C   UNL A   1      32.009  22.109  24.971  1.00  0.00    -0.027 C 
ATOM     21  C   UNL A   1      34.914  23.477  23.505  1.00  0.00     0.013 C 
ATOM     22  C   UNL A   1      33.397  22.739  21.639  1.00  0.00     0.017 C 
ATOM     23  C   UNL A   1      32.475  24.470  23.351  1.00  0.00    -0.020 C 
ATOM     24  C   UNL A   1      31.453  23.430  25.416  1.00  0.00     0.032 C 
ATOM     25  C   UNL A   1      32.306  24.619  24.908  1.00  0.00     0.006 C 
ATOM     26  C   UNL A   1      33.074  25.759  22.727  1.00  0.00     0.008 C 
ATOM     27  C   UNL A   1      31.098  24.265  22.644  1.00  0.00     0.012 C 
ATOM     28  C   UNL A   1      31.939  26.031  25.527  1.00  0.00    -0.025 C 
ATOM     29  C   UNL A   1      32.378  27.039  23.206  1.00  0.00     0.005 C 
ATOM     30  C   UNL A   1      30.408  26.151  25.681  1.00  0.00     0.012 C 
ATOM     31  C   UNL A   1      32.587  26.111  26.950  1.00  0.00     0.010 C 
ATOM     32  C   UNL A   1      32.606  27.199  24.713  1.00  0.00     0.003 C 
ATOM     33  C   UNL A   1      32.442  27.471  27.629  1.00  0.00     0.033 C 
ATOM     34  C   UNL A   1      32.383  28.648  25.296  1.00  0.00    -0.006 C 
ATOM     35  C   UNL A   1      32.911  28.647  26.765  1.00  0.00     0.120 C 
ATOM     36  C   UNL A   1      30.932  29.168  25.197  1.00  0.00     0.014 C 
ATOM     37  C   UNL A   1      33.233  29.680  24.504  1.00  0.00     0.014 C 
BRANCH  35  38
ATOM     38  O   UNL A   1      32.590  29.868  27.434  1.00  0.00    -0.393 OA
ATOM     39  H   UNL A   1      32.152  29.668  28.277  1.00  0.00     0.210 HD
ENDBRANCH  35  38
ENDBRANCH   6   9
ENDBRANCH   4   5
ENDBRANCH   3   4
ENDBRANCH   2   3
ENDBRANCH   1   2
BRANCH   1  40
ATOM     40  C   UNL A   1      39.541  21.012  25.610  1.00  0.00     0.021 C 
BRANCH  40  41
ATOM     41  C   UNL A   1      39.682  19.698  26.366  1.00  0.00     0.116 C 
BRANCH  41  42
ATOM     42  N   UNL A   1      40.807  18.882  25.961  1.00  0.00    -0.352 N 
ATOM     43  C   UNL A   1      42.154  19.178  25.963  1.00  0.00     0.251 C 
ATOM     44  H   UNL A   1      40.576  17.982  25.635  1.00  0.00     0.163 HD
ATOM     45  O   UNL A   1      42.956  18.350  25.558  1.00  0.00    -0.269 OA
BRANCH  43  46
ATOM     46  C   UNL A   1      42.643  20.512  26.405  1.00  0.00     0.039 A 
ATOM     47  C   UNL A   1      43.212  21.356  25.444  1.00  0.00     0.014 A 
ATOM     48  C   UNL A   1      42.570  20.938  27.733  1.00  0.00     0.014 A 
ATOM     49  C   UNL A   1      43.637  22.642  25.797  1.00  0.00     0.010 A 
ATOM     50  C   UNL A   1      42.927  22.246  28.072  1.00  0.00     0.010 A 
ATOM     51  C   UNL A   1      43.464  23.112  27.108  1.00  0.00    -0.014 A 
BRANCH  51  52
ATOM     52  C   UNL A   1      43.842  24.502  27.482  1.00  0.00     0.031 A 
ATOM     53  C   UNL A   1      42.785  25.506  27.854  1.00  0.00     0.074 A 
ATOM     54  C   UNL A   1      45.135  24.882  27.434  1.00  0.00     0.049 A 
ATOM     55  N   UNL A   1      42.912  26.777  28.145  1.00  0.00    -0.248 NA
ATOM     56  C   UNL A   1      41.394  25.024  27.875  1.00  0.00     0.031 C 
ATOM     57  C   UNL A   1      46.254  24.023  27.043  1.00  0.00     0.029 A 
ATOM     58  N   UNL A   1      45.727  26.091  27.705  1.00  0.00    -0.354 N 
ATOM     59  C   UNL A   1      41.624  27.246  28.365  1.00  0.00     0.074 A 
ATOM     60  C   UNL A   1      40.724  26.138  28.131  1.00  0.00     0.031 C 
ATOM     61  C   UNL A   1      47.396  24.726  27.116  1.00  0.00     0.029 A 
ATOM     62  C   UNL A   1      47.090  26.093  27.527  1.00  0.00     0.049 A 
ATOM     63  H   UNL A   1      45.222  26.884  28.000  1.00  0.00     0.167 HD
ATOM     64  C   UNL A   1      41.228  28.484  28.750  1.00  0.00     0.037 A 
ATOM     65  C   UNL A   1      47.989  27.085  27.672  1.00  0.00     0.037 A 
ATOM     66  C   UNL A   1      42.123  29.577  29.023  1.00  0.00     0.049 A 
ATOM     67  C   UNL A   1      47.524  28.445  28.117  1.00  0.00     0.074 A 
ATOM     68  C   UNL A   1      41.821  30.846  29.487  1.00  0.00     0.029 A 
ATOM     69  N   UNL A   1      43.500  29.528  28.862  1.00  0.00    -0.354 N 
ATOM     70  N   UNL A   1      46.310  28.856  28.389  1.00  0.00    -0.248 NA
ATOM     71  C   UNL A   1      48.556  29.479  28.282  1.00  0.00     0.031 C 
ATOM     72  C   UNL A   1      43.011  31.578  29.570  1.00  0.00     0.029 A 
ATOM     73  C   UNL A   1      44.058  30.751  29.199  1.00  0.00     0.049 A 
ATOM     74  H   UNL A   1      44.006  28.742  28.553  1.00  0.00     0.167 HD
ATOM     75  C   UNL A   1      46.433  30.181  28.783  1.00  0.00     0.074 A 
ATOM     76  C   UNL A   1      47.843  30.503  28.729  1.00  0.00     0.031 C 
ATOM     77  C   UNL A   1      45.464  31.054  29.152  1.00  0.00     0.037 A 
BRANCH  64  78
ATOM     78  C   UNL A   1      39.755  28.727  28.910  1.00  0.00     0.064 A 
ATOM     79  C   UNL A   1      39.107  28.522  30.138  1.00  0.00     0.173 A 
ATOM     80  C   UNL A   1      38.995  29.225  27.841  1.00  0.00     0.173 A 
ATOM     81  F   UNL A   1      39.788  28.039  31.187  1.00  0.00    -0.203 F 
ATOM     82  C   UNL A   1      37.747  28.784  30.282  1.00  0.00     0.198 A 
ATOM     83  C   UNL A   1      37.642  29.511  27.997  1.00  0.00     0.198 A 
ATOM     84  F   UNL A   1      39.567  29.445  26.648  1.00  0.00    -0.203 F 
ATOM     85  F   UNL A   1      37.141  28.543  31.453  1.00  0.00    -0.200 F 
ATOM     86  C   UNL A   1      37.018  29.287  29.215  1.00  0.00     0.200 A 
ATOM     87  F   UNL A   1      36.940  30.008  26.967  1.00  0.00    -0.200 F 
ATOM     88  F   UNL A   1      35.711  29.549  29.358  1.00  0.00    -0.200 F 
ENDBRANCH  64  78
BRANCH  65  89
ATOM     89  C   UNL A   1      49.431  26.828  27.413  1.00  0.00     0.064 A 
ATOM     90  C   UNL A   1      49.962  26.937  26.120  1.00  0.00     0.173 A 
ATOM     91  C   UNL A   1      50.302  26.449  28.445  1.00  0.00     0.173 A 
ATOM     92  F   UNL A   1      49.164  27.273  25.096  1.00  0.00    -0.203 F 
ATOM     93  C   UNL A   1      51.301  26.653  25.865  1.00  0.00     0.198 A 
ATOM     94  C   UNL A   1      51.648  26.193  28.194  1.00  0.00     0.198 A 
ATOM     95  F   UNL A   1      49.845  26.333  29.701  1.00  0.00    -0.203 F 
ATOM     96  F   UNL A   1      51.770  26.717  24.610  1.00  0.00    -0.200 F 
ATOM     97  C   UNL A   1      52.145  26.287  26.903  1.00  0.00     0.200 A 
ATOM     98  F   UNL A   1      52.462  25.850  29.201  1.00  0.00    -0.200 F 
ATOM     99  F   UNL A   1      53.433  26.013  26.656  1.00  0.00    -0.200 F 
ENDBRANCH  65  89
BRANCH  77 100
ATOM    100  C   UNL A   1      45.898  32.430  29.561  1.00  0.00     0.064 A 
ATOM    101  C   UNL A   1      45.967  33.483  28.636  1.00  0.00     0.173 A 
ATOM    102  C   UNL A   1      46.206  32.710  30.901  1.00  0.00     0.173 A 
ATOM    103  F   UNL A   1      45.697  33.262  27.341  1.00  0.00    -0.203 F 
ATOM    104  C   UNL A   1      46.353  34.760  29.036  1.00  0.00     0.198 A 
ATOM    105  C   UNL A   1      46.564  33.994  31.301  1.00  0.00     0.198 A 
ATOM    106  F   UNL A   1      46.148  31.738  31.825  1.00  0.00    -0.203 F 
ATOM    107  F   UNL A   1      46.454  35.741  28.128  1.00  0.00    -0.200 F 
ATOM    108  C   UNL A   1      46.644  35.016  30.367  1.00  0.00     0.200 A 
ATOM    109  F   UNL A   1      46.833  34.242  32.590  1.00  0.00    -0.200 F 
ATOM    110  F   UNL A   1      47.007  36.248  30.751  1.00  0.00    -0.200 F 
ENDBRANCH  77 100
ENDBRANCH  51  52
ENDBRANCH  43  46
ENDBRANCH  41  42
ENDBRANCH  40  41
ENDBRANCH   1  40
TORSDOF 14
ENDMDL
MODEL 3
REMARK VINA RESULT:     -12.8      5.069     10.075
REMARK SMILES C[C@H]1[C@H](C)CC[C@@]2(C(=O)NCCCCCCNC(=O)c3ccc(-c4c5nc(c(-c6c(F)c(F)c(F)c(F)c6F)c6ccc([nH]6)c(-c6c(F)c(F)c(F)c(F)c6F)c6nc(c(-c7c(F)c(F)c(F)c(F)c7F)c7ccc4[nH]7)C=C6)C=C5)cc3)CC[C@@]3(C)C(=CC[C@@H]4[C@@]5(C)CC[C@H](O)C(C)(C)[C@@H]5CC[C@]43C)[C@H]12
REMARK SMILES IDX 14 1 13 2 12 3 11 4 10 5 8 6 9 7 7 9 1 10 2 11 3 12 105 13
REMARK SMILES IDX 4 14 5 15 87 16 6 17 83 18 85 19 88 20 84 21 86 22 103 23
REMARK SMILES IDX 89 24 90 25 102 26 104 27 91 28 101 29 92 30 93 31 100 32
REMARK SMILES IDX 94 33 97 34 95 35 98 36 99 37 96 38 15 40 16 41 17 42 18 43
REMARK SMILES IDX 19 45 20 46 21 47 82 48 22 49 81 50 23 51 24 52 25 53 75 54
REMARK SMILES IDX 26 55 80 56 74 57 76 58 27 59 79 60 73 61 72 62 28 64 60 65
REMARK SMILES IDX 40 66 59 67 41 68 44 69 58 70 77 71 42 72 43 73 57 75 78 76
REMARK SMILES IDX 45 77 29 78 30 79 38 80 31 81 32 82 36 83 39 84 33 85 34 86
REMARK SMILES IDX 37 87 35 88 61 89 62 90 70 91 63 92 64 93 68 94 71 95 65 96
REMARK SMILES IDX 66 97 69 98 67 99 46 100 47 101 55 102 48 103 49 104 53 105
REMARK SMILES IDX 56 106 50 107 51 108 54 109 52 110
REMARK H PARENT 10 8 96 39 17 44 76 63 44 74
REMARK Flexibility Score: inf
ROOT
ATOM      1  C   UNL A   1      34.615  31.565  27.989  1.00  0.00     0.002 C 
ENDROOT
BRANCH   1   2
ATOM      2  C   UNL A   1      33.989  30.180  27.790  1.00  0.00     0.002 C 
BRANCH   2   3
ATOM      3  C   UNL A   1      34.882  29.025  27.316  1.00  0.00     0.021 C 
BRANCH   3   4
ATOM      4  C   UNL A   1      34.354  28.132  26.189  1.00  0.00     0.116 C 
BRANCH   4   5
ATOM      5  N   UNL A   1      33.970  28.849  24.992  1.00  0.00    -0.356 N 
ATOM      6  C   UNL A   1      32.768  28.981  24.359  1.00  0.00     0.226 C 
ATOM      7  O   UNL A   1      32.872  29.012  23.124  1.00  0.00    -0.274 OA
ATOM      8  H   UNL A   1      34.710  29.330  24.555  1.00  0.00     0.163 HD
BRANCH   6   9
ATOM      9  C   UNL A   1      31.358  29.140  25.050  1.00  0.00     0.056 C 
ATOM     10  C   UNL A   1      28.429  28.715  22.426  1.00  0.00     0.008 C 
ATOM     11  C   UNL A   1      29.629  29.403  23.106  1.00  0.00    -0.003 C 
ATOM     12  C   UNL A   1      29.244  30.810  23.658  1.00  0.00    -0.011 C 
ATOM     13  C   UNL A   1      30.183  28.510  24.249  1.00  0.00     0.034 C 
ATOM     14  C   UNL A   1      28.864  31.821  22.564  1.00  0.00     0.008 C 
ATOM     15  C   UNL A   1      30.339  31.482  24.505  1.00  0.00     0.005 C 
ATOM     16  C   UNL A   1      30.623  27.069  23.949  1.00  0.00    -0.063 C 
ATOM     17  C   UNL A   1      31.086  30.593  25.479  1.00  0.00     0.018 C 
ATOM     18  C   UNL A   1      31.397  28.324  26.407  1.00  0.00     0.018 C 
ATOM     19  C   UNL A   1      30.651  26.103  25.170  1.00  0.00    -0.006 C 
ATOM     20  C   UNL A   1      31.221  26.770  22.777  1.00  0.00    -0.027 C 
ATOM     21  C   UNL A   1      31.497  26.789  26.297  1.00  0.00     0.013 C 
ATOM     22  C   UNL A   1      29.211  25.912  25.718  1.00  0.00     0.017 C 
ATOM     23  C   UNL A   1      31.280  24.654  24.762  1.00  0.00    -0.020 C 
ATOM     24  C   UNL A   1      32.140  25.600  22.581  1.00  0.00     0.032 C 
ATOM     25  C   UNL A   1      32.576  24.972  23.928  1.00  0.00     0.006 C 
ATOM     26  C   UNL A   1      31.611  23.774  25.996  1.00  0.00     0.008 C 
ATOM     27  C   UNL A   1      30.250  23.831  23.925  1.00  0.00     0.012 C 
ATOM     28  C   UNL A   1      33.732  23.892  23.831  1.00  0.00    -0.025 C 
ATOM     29  C   UNL A   1      32.500  22.570  25.657  1.00  0.00     0.005 C 
ATOM     30  C   UNL A   1      33.532  23.026  22.570  1.00  0.00     0.012 C 
ATOM     31  C   UNL A   1      35.090  24.659  23.694  1.00  0.00     0.010 C 
ATOM     32  C   UNL A   1      33.862  23.078  25.169  1.00  0.00     0.003 C 
ATOM     33  C   UNL A   1      36.324  23.760  23.728  1.00  0.00     0.033 C 
ATOM     34  C   UNL A   1      35.045  22.035  25.218  1.00  0.00    -0.006 C 
ATOM     35  C   UNL A   1      36.367  22.814  24.934  1.00  0.00     0.120 C 
ATOM     36  C   UNL A   1      34.873  20.817  24.284  1.00  0.00     0.014 C 
ATOM     37  C   UNL A   1      35.167  21.431  26.645  1.00  0.00     0.014 C 
BRANCH  35  38
ATOM     38  O   UNL A   1      37.474  21.925  24.782  1.00  0.00    -0.393 OA
ATOM     39  H   UNL A   1      38.230  22.410  24.414  1.00  0.00     0.210 HD
ENDBRANCH  35  38
ENDBRANCH   6   9
ENDBRANCH   4   5
ENDBRANCH   3   4
ENDBRANCH   2   3
ENDBRANCH   1   2
BRANCH   1  40
ATOM     40  C   UNL A   1      33.982  32.754  27.269  1.00  0.00     0.021 C 
BRANCH  40  41
ATOM     41  C   UNL A   1      32.560  33.150  27.644  1.00  0.00     0.116 C 
BRANCH  41  42
ATOM     42  N   UNL A   1      32.396  34.538  28.021  1.00  0.00    -0.352 N 
ATOM     43  C   UNL A   1      33.151  35.313  28.876  1.00  0.00     0.251 C 
ATOM     44  H   UNL A   1      31.630  34.998  27.605  1.00  0.00     0.163 HD
ATOM     45  O   UNL A   1      32.833  36.475  29.081  1.00  0.00    -0.269 OA
BRANCH  43  46
ATOM     46  C   UNL A   1      34.322  34.740  29.595  1.00  0.00     0.039 A 
ATOM     47  C   UNL A   1      34.089  34.060  30.796  1.00  0.00     0.014 A 
ATOM     48  C   UNL A   1      35.631  34.871  29.124  1.00  0.00     0.014 A 
ATOM     49  C   UNL A   1      35.149  33.455  31.481  1.00  0.00     0.010 A 
ATOM     50  C   UNL A   1      36.678  34.207  29.769  1.00  0.00     0.010 A 
ATOM     51  C   UNL A   1      36.449  33.492  30.954  1.00  0.00    -0.014 A 
BRANCH  51  52
ATOM     52  C   UNL A   1      37.573  32.792  31.632  1.00  0.00     0.031 A 
ATOM     53  C   UNL A   1      38.246  31.617  30.975  1.00  0.00     0.074 A 
ATOM     54  C   UNL A   1      37.956  33.175  32.867  1.00  0.00     0.049 A 
ATOM     55  N   UNL A   1      39.196  30.840  31.435  1.00  0.00    -0.248 NA
ATOM     56  C   UNL A   1      37.769  31.248  29.633  1.00  0.00     0.031 C 
ATOM     57  C   UNL A   1      37.356  34.267  33.637  1.00  0.00     0.029 A 
ATOM     58  N   UNL A   1      38.934  32.685  33.697  1.00  0.00    -0.354 N 
ATOM     59  C   UNL A   1      39.416  29.886  30.450  1.00  0.00     0.074 A 
ATOM     60  C   UNL A   1      38.471  30.151  29.387  1.00  0.00     0.031 C 
ATOM     61  C   UNL A   1      37.989  34.373  34.817  1.00  0.00     0.029 A 
ATOM     62  C   UNL A   1      39.016  33.340  34.903  1.00  0.00     0.049 A 
ATOM     63  H   UNL A   1      39.521  31.933  33.452  1.00  0.00     0.167 HD
ATOM     64  C   UNL A   1      40.337  28.892  30.425  1.00  0.00     0.037 A 
ATOM     65  C   UNL A   1      39.824  33.128  35.960  1.00  0.00     0.037 A 
ATOM     66  C   UNL A   1      41.304  28.652  31.463  1.00  0.00     0.049 A 
ATOM     67  C   UNL A   1      40.849  32.028  35.897  1.00  0.00     0.074 A 
ATOM     68  C   UNL A   1      42.323  27.715  31.494  1.00  0.00     0.029 A 
ATOM     69  N   UNL A   1      41.375  29.359  32.654  1.00  0.00    -0.354 N 
ATOM     70  N   UNL A   1      41.092  31.178  34.930  1.00  0.00    -0.248 NA
ATOM     71  C   UNL A   1      41.718  31.863  37.072  1.00  0.00     0.031 C 
ATOM     72  C   UNL A   1      42.987  27.829  32.720  1.00  0.00     0.029 A 
ATOM     73  C   UNL A   1      42.409  28.866  33.434  1.00  0.00     0.049 A 
ATOM     74  H   UNL A   1      40.780  30.101  32.908  1.00  0.00     0.167 HD
ATOM     75  C   UNL A   1      42.155  30.398  35.365  1.00  0.00     0.074 A 
ATOM     76  C   UNL A   1      42.522  30.885  36.677  1.00  0.00     0.031 C 
ATOM     77  C   UNL A   1      42.770  29.368  34.734  1.00  0.00     0.037 A 
BRANCH  64  78
ATOM     78  C   UNL A   1      40.354  27.987  29.227  1.00  0.00     0.064 A 
ATOM     79  C   UNL A   1      39.585  26.815  29.183  1.00  0.00     0.173 A 
ATOM     80  C   UNL A   1      41.102  28.325  28.090  1.00  0.00     0.173 A 
ATOM     81  F   UNL A   1      38.859  26.443  30.248  1.00  0.00    -0.203 F 
ATOM     82  C   UNL A   1      39.584  26.002  28.053  1.00  0.00     0.198 A 
ATOM     83  C   UNL A   1      41.077  27.524  26.952  1.00  0.00     0.198 A 
ATOM     84  F   UNL A   1      41.849  29.439  28.077  1.00  0.00    -0.203 F 
ATOM     85  F   UNL A   1      38.872  24.865  28.048  1.00  0.00    -0.200 F 
ATOM     86  C   UNL A   1      40.322  26.361  26.935  1.00  0.00     0.200 A 
ATOM     87  F   UNL A   1      41.782  27.879  25.868  1.00  0.00    -0.200 F 
ATOM     88  F   UNL A   1      40.311  25.583  25.844  1.00  0.00    -0.200 F 
ENDBRANCH  64  78
BRANCH  65  89
ATOM     89  C   UNL A   1      39.713  33.988  37.167  1.00  0.00     0.064 A 
ATOM     90  C   UNL A   1      38.925  33.600  38.260  1.00  0.00     0.173 A 
ATOM     91  C   UNL A   1      40.373  35.223  37.247  1.00  0.00     0.173 A 
ATOM     92  F   UNL A   1      38.255  32.438  38.221  1.00  0.00    -0.203 F 
ATOM     93  C   UNL A   1      38.782  34.422  39.374  1.00  0.00     0.198 A 
ATOM     94  C   UNL A   1      40.252  36.033  38.374  1.00  0.00     0.198 A 
ATOM     95  F   UNL A   1      41.142  35.641  36.230  1.00  0.00    -0.203 F 
ATOM     96  F   UNL A   1      37.982  34.048  40.383  1.00  0.00    -0.200 F 
ATOM     97  C   UNL A   1      39.449  35.637  39.433  1.00  0.00     0.200 A 
ATOM     98  F   UNL A   1      40.908  37.200  38.432  1.00  0.00    -0.200 F 
ATOM     99  F   UNL A   1      39.311  36.428  40.505  1.00  0.00    -0.200 F 
ENDBRANCH  65  89
BRANCH  77 100
ATOM    100  C   UNL A   1      43.925  28.721  35.438  1.00  0.00     0.064 A 
ATOM    101  C   UNL A   1      45.244  29.152  35.233  1.00  0.00     0.173 A 
ATOM    102  C   UNL A   1      43.707  27.686  36.360  1.00  0.00     0.173 A 
ATOM    103  F   UNL A   1      45.506  30.127  34.350  1.00  0.00    -0.203 F 
ATOM    104  C   UNL A   1      46.305  28.553  35.909  1.00  0.00     0.198 A 
ATOM    105  C   UNL A   1      44.766  27.110  37.055  1.00  0.00     0.198 A 
ATOM    106  F   UNL A   1      42.462  27.243  36.596  1.00  0.00    -0.203 F 
ATOM    107  F   UNL A   1      47.561  28.952  35.666  1.00  0.00    -0.200 F 
ATOM    108  C   UNL A   1      46.064  27.539  36.824  1.00  0.00     0.200 A 
ATOM    109  F   UNL A   1      44.530  26.138  37.946  1.00  0.00    -0.200 F 
ATOM    110  F   UNL A   1      47.085  26.969  37.479  1.00  0.00    -0.200 F 
ENDBRANCH  77 100
ENDBRANCH  51  52
ENDBRANCH  43  46
ENDBRANCH  41  42
ENDBRANCH  40  41
ENDBRANCH   1  40
TORSDOF 14
ENDMDL
