MODEL 1
REMARK VINA RESULT:     -11.6      0.000      0.000
REMARK SMILES CC[C@H](C)[C@@H](NC(=O)c1csc(NC(C)=O)n1)C(=O)NCCCCCCNC(=O)c1ccc(-c2c3nc(c(-c4c(F)c(F)c(F)c(F)c4F)c4ccc([nH]4)c(-c4c(F)c(F)c(F)c(F)c4F)c4nc(c(-c5c(F)c(F)c(F)c(F)c5F)c5ccc2[nH]5)C=C4)C=C3)cc1
REMARK SMILES IDX 23 1 22 2 21 3 20 4 18 5 19 6 5 8 3 9 4 10 2 11 1 12 6 13
REMARK SMILES IDX 7 14 8 16 9 17 10 18 17 19 11 20 12 21 13 22 14 23 15 25
REMARK SMILES IDX 16 26 24 27 25 28 26 29 27 30 28 31 29 33 30 34 31 35 92 36
REMARK SMILES IDX 32 37 91 38 33 39 34 40 35 41 85 42 36 43 90 44 84 45 86 46
REMARK SMILES IDX 37 47 89 48 83 49 82 50 38 52 70 53 50 54 69 55 51 56 54 57
REMARK SMILES IDX 68 58 87 59 52 60 53 61 67 63 88 64 55 65 39 66 40 67 48 68
REMARK SMILES IDX 41 69 42 70 46 71 49 72 43 73 44 74 47 75 45 76 71 77 72 78
REMARK SMILES IDX 80 79 73 80 74 81 78 82 81 83 75 84 76 85 79 86 77 87 56 88
REMARK SMILES IDX 57 89 65 90 58 91 59 92 63 93 66 94 60 95 61 96 64 97 62 98
REMARK H PARENT 20 7 6 15 13 24 27 32 86 51 54 62
REMARK Flexibility Score: inf
ROOT
ATOM      1  C   UNL A   1      32.507  30.070  27.220  1.00  0.00     0.002 C 
ENDROOT
BRANCH   1   2
ATOM      2  C   UNL A   1      32.496  28.539  27.144  1.00  0.00     0.021 C 
BRANCH   2   3
ATOM      3  C   UNL A   1      33.748  27.992  26.478  1.00  0.00     0.116 C 
BRANCH   3   4
ATOM      4  N   UNL A   1      34.002  28.735  25.261  1.00  0.00    -0.354 N 
ATOM      5  C   UNL A   1      33.611  28.490  23.981  1.00  0.00     0.242 C 
ATOM      6  O   UNL A   1      34.067  29.217  23.091  1.00  0.00    -0.273 OA
ATOM      7  H   UNL A   1      34.547  29.547  25.378  1.00  0.00     0.163 HD
BRANCH   5   8
ATOM      8  C   UNL A   1      32.742  27.261  23.651  1.00  0.00     0.174 C 
BRANCH   8   9
ATOM      9  C   UNL A   1      31.235  27.739  23.717  1.00  0.00     0.018 C 
ATOM     10  C   UNL A   1      30.627  28.129  22.366  1.00  0.00     0.010 C 
BRANCH   9  11
ATOM     11  C   UNL A   1      30.319  26.793  24.539  1.00  0.00     0.002 C 
ATOM     12  C   UNL A   1      28.962  26.476  23.937  1.00  0.00     0.004 C 
ENDBRANCH   9  11
ENDBRANCH   8   9
BRANCH   8  13
ATOM     13  N   UNL A   1      33.057  26.625  22.343  1.00  0.00    -0.339 N 
ATOM     14  C   UNL A   1      32.849  25.361  21.827  1.00  0.00     0.271 C 
ATOM     15  H   UNL A   1      33.507  27.232  21.714  1.00  0.00     0.164 HD
ATOM     16  O   UNL A   1      33.015  25.221  20.614  1.00  0.00    -0.267 OA
BRANCH  14  17
ATOM     17  C   UNL A   1      32.644  24.202  22.698  1.00  0.00     0.141 A 
ATOM     18  C   UNL A   1      33.672  23.329  23.023  1.00  0.00     0.102 A 
ATOM     19  N   UNL A   1      31.439  23.900  23.319  1.00  0.00    -0.215 NA
ATOM     20  S   UNL A   1      33.174  22.277  24.280  1.00  0.00    -0.104 S 
ATOM     21  C   UNL A   1      31.648  23.029  24.279  1.00  0.00     0.190 A 
BRANCH  21  22
ATOM     22  N   UNL A   1      30.684  22.763  25.219  1.00  0.00    -0.302 N 
ATOM     23  C   UNL A   1      30.552  23.380  26.441  1.00  0.00     0.223 C 
ATOM     24  H   UNL A   1      30.025  22.067  24.997  1.00  0.00     0.172 HD
ATOM     25  C   UNL A   1      29.426  22.814  27.270  1.00  0.00     0.114 C 
ATOM     26  O   UNL A   1      31.217  24.320  26.868  1.00  0.00    -0.275 OA
ENDBRANCH  21  22
ENDBRANCH  14  17
ENDBRANCH   8  13
ENDBRANCH   5   8
ENDBRANCH   3   4
ENDBRANCH   2   3
ENDBRANCH   1   2
BRANCH   1  27
ATOM     27  C   UNL A   1      31.412  30.743  26.384  1.00  0.00     0.002 C 
BRANCH  27  28
ATOM     28  C   UNL A   1      31.366  32.265  26.524  1.00  0.00     0.021 C 
BRANCH  28  29
ATOM     29  C   UNL A   1      32.668  32.866  27.028  1.00  0.00     0.116 C 
BRANCH  29  30
ATOM     30  N   UNL A   1      32.465  34.188  27.598  1.00  0.00    -0.352 N 
ATOM     31  C   UNL A   1      33.076  34.756  28.679  1.00  0.00     0.251 C 
ATOM     32  H   UNL A   1      31.795  34.748  27.143  1.00  0.00     0.163 HD
ATOM     33  O   UNL A   1      32.650  35.802  29.163  1.00  0.00    -0.269 OA
BRANCH  31  34
ATOM     34  C   UNL A   1      34.250  34.090  29.270  1.00  0.00     0.039 A 
ATOM     35  C   UNL A   1      34.050  33.029  30.154  1.00  0.00     0.014 A 
ATOM     36  C   UNL A   1      35.544  34.517  28.951  1.00  0.00     0.014 A 
ATOM     37  C   UNL A   1      35.152  32.380  30.703  1.00  0.00     0.010 A 
ATOM     38  C   UNL A   1      36.640  33.808  29.424  1.00  0.00     0.010 A 
ATOM     39  C   UNL A   1      36.454  32.755  30.331  1.00  0.00    -0.014 A 
BRANCH  39  40
ATOM     40  C   UNL A   1      37.636  32.085  30.924  1.00  0.00     0.031 A 
ATOM     41  C   UNL A   1      38.087  32.455  32.310  1.00  0.00     0.074 A 
ATOM     42  C   UNL A   1      38.318  31.175  30.203  1.00  0.00     0.049 A 
ATOM     43  N   UNL A   1      39.099  31.997  33.003  1.00  0.00    -0.248 NA
ATOM     44  C   UNL A   1      37.315  33.502  33.002  1.00  0.00     0.031 C 
ATOM     45  C   UNL A   1      38.003  30.774  28.832  1.00  0.00     0.029 A 
ATOM     46  N   UNL A   1      39.417  30.422  30.528  1.00  0.00    -0.354 N 
ATOM     47  C   UNL A   1      39.094  32.712  34.193  1.00  0.00     0.074 A 
ATOM     48  C   UNL A   1      38.022  33.677  34.106  1.00  0.00     0.031 C 
ATOM     49  C   UNL A   1      38.861  29.815  28.448  1.00  0.00     0.029 A 
ATOM     50  C   UNL A   1      39.809  29.566  29.529  1.00  0.00     0.049 A 
ATOM     51  H   UNL A   1      39.879  30.488  31.394  1.00  0.00     0.167 HD
ATOM     52  C   UNL A   1      39.893  32.555  35.275  1.00  0.00     0.037 A 
ATOM     53  C   UNL A   1      40.819  28.676  29.496  1.00  0.00     0.037 A 
ATOM     54  C   UNL A   1      40.938  31.569  35.364  1.00  0.00     0.049 A 
ATOM     55  C   UNL A   1      41.695  28.524  30.712  1.00  0.00     0.074 A 
ATOM     56  C   UNL A   1      41.761  31.278  36.437  1.00  0.00     0.029 A 
ATOM     57  N   UNL A   1      41.304  30.715  34.333  1.00  0.00    -0.354 N 
ATOM     58  N   UNL A   1      41.631  29.146  31.864  1.00  0.00    -0.248 NA
ATOM     59  C   UNL A   1      42.778  27.537  30.623  1.00  0.00     0.031 C 
ATOM     60  C   UNL A   1      42.667  30.292  36.035  1.00  0.00     0.029 A 
ATOM     61  C   UNL A   1      42.363  29.917  34.735  1.00  0.00     0.049 A 
ATOM     62  H   UNL A   1      40.875  30.681  33.448  1.00  0.00     0.167 HD
ATOM     63  C   UNL A   1      42.637  28.598  32.650  1.00  0.00     0.074 A 
ATOM     64  C   UNL A   1      43.286  27.585  31.845  1.00  0.00     0.031 C 
ATOM     65  C   UNL A   1      42.990  28.905  33.923  1.00  0.00     0.037 A 
BRANCH  52  66
ATOM     66  C   UNL A   1      39.675  33.477  36.442  1.00  0.00     0.064 A 
ATOM     67  C   UNL A   1      40.312  34.725  36.533  1.00  0.00     0.173 A 
ATOM     68  C   UNL A   1      38.798  33.114  37.476  1.00  0.00     0.173 A 
ATOM     69  F   UNL A   1      41.170  35.118  35.579  1.00  0.00    -0.203 F 
ATOM     70  C   UNL A   1      40.108  35.557  37.632  1.00  0.00     0.198 A 
ATOM     71  C   UNL A   1      38.568  33.965  38.554  1.00  0.00     0.198 A 
ATOM     72  F   UNL A   1      38.159  31.936  37.440  1.00  0.00    -0.203 F 
ATOM     73  F   UNL A   1      40.776  36.715  37.725  1.00  0.00    -0.200 F 
ATOM     74  C   UNL A   1      39.231  35.180  38.637  1.00  0.00     0.200 A 
ATOM     75  F   UNL A   1      37.708  33.606  39.517  1.00  0.00    -0.200 F 
ATOM     76  F   UNL A   1      39.032  35.984  39.690  1.00  0.00    -0.200 F 
ENDBRANCH  52  66
BRANCH  53  77
ATOM     77  C   UNL A   1      41.030  27.830  28.292  1.00  0.00     0.064 A 
ATOM     78  C   UNL A   1      40.418  26.573  28.181  1.00  0.00     0.173 A 
ATOM     79  C   UNL A   1      41.852  28.250  27.237  1.00  0.00     0.173 A 
ATOM     80  F   UNL A   1      39.636  26.120  29.172  1.00  0.00    -0.203 F 
ATOM     81  C   UNL A   1      40.643  25.758  27.074  1.00  0.00     0.198 A 
ATOM     82  C   UNL A   1      42.051  27.447  26.116  1.00  0.00     0.198 A 
ATOM     83  F   UNL A   1      42.456  29.446  27.290  1.00  0.00    -0.203 F 
ATOM     84  F   UNL A   1      40.089  24.539  27.020  1.00  0.00    -0.200 F 
ATOM     85  C   UNL A   1      41.455  26.197  26.041  1.00  0.00     0.200 A 
ATOM     86  F   UNL A   1      42.823  27.882  25.112  1.00  0.00    -0.200 F 
ATOM     87  F   UNL A   1      41.671  25.413  24.975  1.00  0.00    -0.200 F 
ENDBRANCH  53  77
BRANCH  65  88
ATOM     88  C   UNL A   1      44.093  28.095  34.544  1.00  0.00     0.064 A 
ATOM     89  C   UNL A   1      45.433  28.512  34.506  1.00  0.00     0.173 A 
ATOM     90  C   UNL A   1      43.799  26.896  35.213  1.00  0.00     0.173 A 
ATOM     91  F   UNL A   1      45.770  29.645  33.870  1.00  0.00    -0.203 F 
ATOM     92  C   UNL A   1      46.440  27.740  35.080  1.00  0.00     0.198 A 
ATOM     93  C   UNL A   1      44.803  26.147  35.818  1.00  0.00     0.198 A 
ATOM     94  F   UNL A   1      42.534  26.455  35.287  1.00  0.00    -0.203 F 
ATOM     95  F   UNL A   1      47.718  28.128  34.977  1.00  0.00    -0.200 F 
ATOM     96  C   UNL A   1      46.123  26.563  35.741  1.00  0.00     0.200 A 
ATOM     97  F   UNL A   1      44.492  25.019  36.473  1.00  0.00    -0.200 F 
ATOM     98  F   UNL A   1      47.093  25.824  36.298  1.00  0.00    -0.200 F 
ENDBRANCH  65  88
ENDBRANCH  39  40
ENDBRANCH  31  34
ENDBRANCH  29  30
ENDBRANCH  28  29
ENDBRANCH  27  28
ENDBRANCH   1  27
TORSDOF 18
ENDMDL
MODEL 2
REMARK VINA RESULT:     -11.5      0.406      2.004
REMARK SMILES CC[C@H](C)[C@@H](NC(=O)c1csc(NC(C)=O)n1)C(=O)NCCCCCCNC(=O)c1ccc(-c2c3nc(c(-c4c(F)c(F)c(F)c(F)c4F)c4ccc([nH]4)c(-c4c(F)c(F)c(F)c(F)c4F)c4nc(c(-c5c(F)c(F)c(F)c(F)c5F)c5ccc2[nH]5)C=C4)C=C3)cc1
REMARK SMILES IDX 23 1 22 2 21 3 20 4 18 5 19 6 5 8 3 9 4 10 2 11 1 12 6 13
REMARK SMILES IDX 7 14 8 16 9 17 10 18 17 19 11 20 12 21 13 22 14 23 15 25
REMARK SMILES IDX 16 26 24 27 25 28 26 29 27 30 28 31 29 33 30 34 31 35 92 36
REMARK SMILES IDX 32 37 91 38 33 39 34 40 35 41 85 42 36 43 90 44 84 45 86 46
REMARK SMILES IDX 37 47 89 48 83 49 82 50 38 52 70 53 50 54 69 55 51 56 54 57
REMARK SMILES IDX 68 58 87 59 52 60 53 61 67 63 88 64 55 65 39 66 40 67 48 68
REMARK SMILES IDX 41 69 42 70 46 71 49 72 43 73 44 74 47 75 45 76 71 77 72 78
REMARK SMILES IDX 80 79 73 80 74 81 78 82 81 83 75 84 76 85 79 86 77 87 56 88
REMARK SMILES IDX 57 89 65 90 58 91 59 92 63 93 66 94 60 95 61 96 64 97 62 98
REMARK H PARENT 20 7 6 15 13 24 27 32 86 51 54 62
REMARK Flexibility Score: inf
ROOT
ATOM      1  C   UNL A   1      31.947  29.817  27.139  1.00  0.00     0.002 C 
ENDROOT
BRANCH   1   2
ATOM      2  C   UNL A   1      33.454  29.539  27.163  1.00  0.00     0.021 C 
BRANCH   2   3
ATOM      3  C   UNL A   1      33.837  28.393  26.239  1.00  0.00     0.116 C 
BRANCH   3   4
ATOM      4  N   UNL A   1      34.028  28.907  24.899  1.00  0.00    -0.354 N 
ATOM      5  C   UNL A   1      33.700  28.368  23.693  1.00  0.00     0.242 C 
ATOM      6  O   UNL A   1      34.084  28.956  22.676  1.00  0.00    -0.273 OA
ATOM      7  H   UNL A   1      34.466  29.788  24.851  1.00  0.00     0.163 HD
BRANCH   5   8
ATOM      8  C   UNL A   1      32.994  27.000  23.615  1.00  0.00     0.174 C 
BRANCH   8   9
ATOM      9  C   UNL A   1      31.442  27.282  23.728  1.00  0.00     0.018 C 
ATOM     10  C   UNL A   1      30.807  26.844  25.052  1.00  0.00     0.010 C 
BRANCH   9  11
ATOM     11  C   UNL A   1      31.042  28.725  23.316  1.00  0.00     0.002 C 
ATOM     12  C   UNL A   1      29.702  28.881  22.620  1.00  0.00     0.004 C 
ENDBRANCH   9  11
ENDBRANCH   8   9
BRANCH   8  13
ATOM     13  N   UNL A   1      33.320  26.215  22.393  1.00  0.00    -0.339 N 
ATOM     14  C   UNL A   1      33.091  24.907  22.015  1.00  0.00     0.271 C 
ATOM     15  H   UNL A   1      33.798  26.739  21.711  1.00  0.00     0.164 HD
ATOM     16  O   UNL A   1      33.278  24.629  20.829  1.00  0.00    -0.267 OA
BRANCH  14  17
ATOM     17  C   UNL A   1      32.838  23.857  23.004  1.00  0.00     0.141 A 
ATOM     18  C   UNL A   1      33.864  23.123  23.582  1.00  0.00     0.102 A 
ATOM     19  N   UNL A   1      31.579  23.537  23.493  1.00  0.00    -0.215 NA
ATOM     20  S   UNL A   1      33.260  22.204  24.895  1.00  0.00    -0.104 S 
ATOM     21  C   UNL A   1      31.704  22.818  24.585  1.00  0.00     0.190 A 
BRANCH  21  22
ATOM     22  N   UNL A   1      30.635  22.596  25.415  1.00  0.00    -0.302 N 
ATOM     23  C   UNL A   1      30.469  23.111  26.680  1.00  0.00     0.223 C 
ATOM     24  H   UNL A   1      29.919  22.014  25.073  1.00  0.00     0.172 HD
ATOM     25  C   UNL A   1      29.212  22.623  27.357  1.00  0.00     0.114 C 
ATOM     26  O   UNL A   1      31.202  23.914  27.250  1.00  0.00    -0.275 OA
ENDBRANCH  21  22
ENDBRANCH  14  17
ENDBRANCH   8  13
ENDBRANCH   5   8
ENDBRANCH   3   4
ENDBRANCH   2   3
ENDBRANCH   1   2
BRANCH   1  27
ATOM     27  C   UNL A   1      31.534  30.923  26.161  1.00  0.00     0.002 C 
BRANCH  27  28
ATOM     28  C   UNL A   1      31.379  32.301  26.805  1.00  0.00     0.021 C 
BRANCH  28  29
ATOM     29  C   UNL A   1      32.705  32.996  27.072  1.00  0.00     0.116 C 
BRANCH  29  30
ATOM     30  N   UNL A   1      32.513  34.314  27.654  1.00  0.00    -0.352 N 
ATOM     31  C   UNL A   1      33.119  34.861  28.750  1.00  0.00     0.251 C 
ATOM     32  H   UNL A   1      31.858  34.889  27.197  1.00  0.00     0.163 HD
ATOM     33  O   UNL A   1      32.701  35.908  29.240  1.00  0.00    -0.269 OA
BRANCH  31  34
ATOM     34  C   UNL A   1      34.276  34.173  29.347  1.00  0.00     0.039 A 
ATOM     35  C   UNL A   1      34.052  33.220  30.343  1.00  0.00     0.014 A 
ATOM     36  C   UNL A   1      35.576  34.471  28.926  1.00  0.00     0.014 A 
ATOM     37  C   UNL A   1      35.137  32.549  30.902  1.00  0.00     0.010 A 
ATOM     38  C   UNL A   1      36.645  33.733  29.415  1.00  0.00     0.010 A 
ATOM     39  C   UNL A   1      36.439  32.789  30.431  1.00  0.00    -0.014 A 
BRANCH  39  40
ATOM     40  C   UNL A   1      37.603  32.097  31.031  1.00  0.00     0.031 A 
ATOM     41  C   UNL A   1      38.052  32.456  32.421  1.00  0.00     0.074 A 
ATOM     42  C   UNL A   1      38.273  31.175  30.314  1.00  0.00     0.049 A 
ATOM     43  N   UNL A   1      39.050  31.978  33.120  1.00  0.00    -0.248 NA
ATOM     44  C   UNL A   1      37.295  33.516  33.109  1.00  0.00     0.031 C 
ATOM     45  C   UNL A   1      37.959  30.781  28.940  1.00  0.00     0.029 A 
ATOM     46  N   UNL A   1      39.354  30.399  30.645  1.00  0.00    -0.354 N 
ATOM     47  C   UNL A   1      39.050  32.690  34.312  1.00  0.00     0.074 A 
ATOM     48  C   UNL A   1      37.998  33.676  34.218  1.00  0.00     0.031 C 
ATOM     49  C   UNL A   1      38.802  29.806  28.560  1.00  0.00     0.029 A 
ATOM     50  C   UNL A   1      39.737  29.537  29.648  1.00  0.00     0.049 A 
ATOM     51  H   UNL A   1      39.812  30.456  31.514  1.00  0.00     0.167 HD
ATOM     52  C   UNL A   1      39.839  32.517  35.398  1.00  0.00     0.037 A 
ATOM     53  C   UNL A   1      40.729  28.628  29.621  1.00  0.00     0.037 A 
ATOM     54  C   UNL A   1      40.864  31.511  35.493  1.00  0.00     0.049 A 
ATOM     55  C   UNL A   1      41.594  28.458  30.842  1.00  0.00     0.074 A 
ATOM     56  C   UNL A   1      41.673  31.203  36.571  1.00  0.00     0.029 A 
ATOM     57  N   UNL A   1      41.221  30.651  34.464  1.00  0.00    -0.354 N 
ATOM     58  N   UNL A   1      41.534  29.080  31.995  1.00  0.00    -0.248 NA
ATOM     59  C   UNL A   1      42.658  27.450  30.759  1.00  0.00     0.031 C 
ATOM     60  C   UNL A   1      42.564  30.200  36.174  1.00  0.00     0.029 A 
ATOM     61  C   UNL A   1      42.261  29.833  34.872  1.00  0.00     0.049 A 
ATOM     62  H   UNL A   1      40.797  30.627  33.575  1.00  0.00     0.167 HD
ATOM     63  C   UNL A   1      42.524  28.511  32.787  1.00  0.00     0.074 A 
ATOM     64  C   UNL A   1      43.159  27.487  31.985  1.00  0.00     0.031 C 
ATOM     65  C   UNL A   1      42.874  28.809  34.063  1.00  0.00     0.037 A 
BRANCH  52  66
ATOM     66  C   UNL A   1      39.630  33.442  36.565  1.00  0.00     0.064 A 
ATOM     67  C   UNL A   1      38.794  33.101  37.642  1.00  0.00     0.173 A 
ATOM     68  C   UNL A   1      40.292  34.677  36.618  1.00  0.00     0.173 A 
ATOM     69  F   UNL A   1      38.126  31.937  37.638  1.00  0.00    -0.203 F 
ATOM     70  C   UNL A   1      38.602  33.979  38.706  1.00  0.00     0.198 A 
ATOM     71  C   UNL A   1      40.126  35.535  37.702  1.00  0.00     0.198 A 
ATOM     72  F   UNL A   1      41.107  35.052  35.620  1.00  0.00    -0.203 F 
ATOM     73  F   UNL A   1      37.750  33.658  39.690  1.00  0.00    -0.200 F 
ATOM     74  C   UNL A   1      39.274  35.191  38.739  1.00  0.00     0.200 A 
ATOM     75  F   UNL A   1      40.789  36.700  37.740  1.00  0.00    -0.200 F 
ATOM     76  F   UNL A   1      39.091  36.032  39.767  1.00  0.00    -0.200 F 
ENDBRANCH  52  66
BRANCH  53  77
ATOM     77  C   UNL A   1      40.933  27.780  28.417  1.00  0.00     0.064 A 
ATOM     78  C   UNL A   1      41.793  28.190  27.387  1.00  0.00     0.173 A 
ATOM     79  C   UNL A   1      40.270  26.555  28.262  1.00  0.00     0.173 A 
ATOM     80  F   UNL A   1      42.437  29.363  27.481  1.00  0.00    -0.203 F 
ATOM     81  C   UNL A   1      41.959  27.421  26.238  1.00  0.00     0.198 A 
ATOM     82  C   UNL A   1      40.461  25.771  27.126  1.00  0.00     0.198 A 
ATOM     83  F   UNL A   1      39.442  26.113  29.220  1.00  0.00    -0.203 F 
ATOM     84  F   UNL A   1      42.743  27.864  25.246  1.00  0.00    -0.200 F 
ATOM     85  C   UNL A   1      41.296  26.210  26.110  1.00  0.00     0.200 A 
ATOM     86  F   UNL A   1      39.832  24.594  27.014  1.00  0.00    -0.200 F 
ATOM     87  F   UNL A   1      41.456  25.470  25.005  1.00  0.00    -0.200 F 
ENDBRANCH  53  77
BRANCH  65  88
ATOM     88  C   UNL A   1      43.957  27.978  34.690  1.00  0.00     0.064 A 
ATOM     89  C   UNL A   1      43.680  26.772  35.352  1.00  0.00     0.173 A 
ATOM     90  C   UNL A   1      45.299  28.383  34.600  1.00  0.00     0.173 A 
ATOM     91  F   UNL A   1      42.414  26.346  35.477  1.00  0.00    -0.203 F 
ATOM     92  C   UNL A   1      44.700  26.024  35.934  1.00  0.00     0.198 A 
ATOM     93  C   UNL A   1      46.320  27.612  35.149  1.00  0.00     0.198 A 
ATOM     94  F   UNL A   1      45.622  29.522  33.969  1.00  0.00    -0.203 F 
ATOM     95  F   UNL A   1      44.404  24.909  36.615  1.00  0.00    -0.200 F 
ATOM     96  C   UNL A   1      46.019  26.440  35.825  1.00  0.00     0.200 A 
ATOM     97  F   UNL A   1      47.595  28.007  35.026  1.00  0.00    -0.200 F 
ATOM     98  F   UNL A   1      47.000  25.716  36.381  1.00  0.00    -0.200 F 
ENDBRANCH  65  88
ENDBRANCH  39  40
ENDBRANCH  31  34
ENDBRANCH  29  30
ENDBRANCH  28  29
ENDBRANCH  27  28
ENDBRANCH   1  27
TORSDOF 18
ENDMDL
MODEL 3
REMARK VINA RESULT:     -11.4      0.736      7.347
REMARK SMILES CC[C@H](C)[C@@H](NC(=O)c1csc(NC(C)=O)n1)C(=O)NCCCCCCNC(=O)c1ccc(-c2c3nc(c(-c4c(F)c(F)c(F)c(F)c4F)c4ccc([nH]4)c(-c4c(F)c(F)c(F)c(F)c4F)c4nc(c(-c5c(F)c(F)c(F)c(F)c5F)c5ccc2[nH]5)C=C4)C=C3)cc1
REMARK SMILES IDX 23 1 22 2 21 3 20 4 18 5 19 6 5 8 3 9 4 10 2 11 1 12 6 13
REMARK SMILES IDX 7 14 8 16 9 17 10 18 17 19 11 20 12 21 13 22 14 23 15 25
REMARK SMILES IDX 16 26 24 27 25 28 26 29 27 30 28 31 29 33 30 34 31 35 92 36
REMARK SMILES IDX 32 37 91 38 33 39 34 40 35 41 85 42 36 43 90 44 84 45 86 46
REMARK SMILES IDX 37 47 89 48 83 49 82 50 38 52 70 53 50 54 69 55 51 56 54 57
REMARK SMILES IDX 68 58 87 59 52 60 53 61 67 63 88 64 55 65 39 66 40 67 48 68
REMARK SMILES IDX 41 69 42 70 46 71 49 72 43 73 44 74 47 75 45 76 71 77 72 78
REMARK SMILES IDX 80 79 73 80 74 81 78 82 81 83 75 84 76 85 79 86 77 87 56 88
REMARK SMILES IDX 57 89 65 90 58 91 59 92 63 93 66 94 60 95 61 96 64 97 62 98
REMARK H PARENT 20 7 6 15 13 24 27 32 86 51 54 62
REMARK Flexibility Score: inf
ROOT
ATOM      1  C   UNL A   1      31.991  29.723  27.235  1.00  0.00     0.002 C 
ENDROOT
BRANCH   1   2
ATOM      2  C   UNL A   1      33.495  29.431  27.265  1.00  0.00     0.021 C 
BRANCH   2   3
ATOM      3  C   UNL A   1      33.888  28.353  26.267  1.00  0.00     0.116 C 
BRANCH   3   4
ATOM      4  N   UNL A   1      34.044  28.953  24.958  1.00  0.00    -0.354 N 
ATOM      5  C   UNL A   1      33.670  28.499  23.730  1.00  0.00     0.242 C 
ATOM      6  O   UNL A   1      34.031  29.149  22.742  1.00  0.00    -0.273 OA
ATOM      7  H   UNL A   1      34.493  29.829  24.954  1.00  0.00     0.163 HD
BRANCH   5   8
ATOM      8  C   UNL A   1      32.942  27.148  23.585  1.00  0.00     0.174 C 
BRANCH   8   9
ATOM      9  C   UNL A   1      31.394  27.449  23.716  1.00  0.00     0.018 C 
ATOM     10  C   UNL A   1      30.747  26.924  25.001  1.00  0.00     0.010 C 
BRANCH   9  11
ATOM     11  C   UNL A   1      31.022  28.926  23.414  1.00  0.00     0.002 C 
ATOM     12  C   UNL A   1      30.148  29.167  22.196  1.00  0.00     0.004 C 
ENDBRANCH   9  11
ENDBRANCH   8   9
BRANCH   8  13
ATOM     13  N   UNL A   1      33.253  26.421  22.324  1.00  0.00    -0.339 N 
ATOM     14  C   UNL A   1      33.004  25.137  21.882  1.00  0.00     0.271 C 
ATOM     15  H   UNL A   1      33.738  26.971  21.668  1.00  0.00     0.164 HD
ATOM     16  O   UNL A   1      33.184  24.916  20.682  1.00  0.00    -0.267 OA
BRANCH  14  17
ATOM     17  C   UNL A   1      32.738  24.043  22.818  1.00  0.00     0.141 A 
ATOM     18  C   UNL A   1      33.738  23.192  23.265  1.00  0.00     0.102 A 
ATOM     19  N   UNL A   1      31.496  23.788  23.383  1.00  0.00    -0.215 NA
ATOM     20  S   UNL A   1      33.158  22.232  24.560  1.00  0.00    -0.104 S 
ATOM     21  C   UNL A   1      31.640  22.986  24.413  1.00  0.00     0.190 A 
BRANCH  21  22
ATOM     22  N   UNL A   1      30.619  22.789  25.307  1.00  0.00    -0.302 N 
ATOM     23  C   UNL A   1      30.557  23.286  26.589  1.00  0.00     0.223 C 
ATOM     24  H   UNL A   1      29.859  22.243  25.004  1.00  0.00     0.172 HD
ATOM     25  C   UNL A   1      29.329  22.834  27.339  1.00  0.00     0.114 C 
ATOM     26  O   UNL A   1      31.358  24.048  27.123  1.00  0.00    -0.275 OA
ENDBRANCH  21  22
ENDBRANCH  14  17
ENDBRANCH   8  13
ENDBRANCH   5   8
ENDBRANCH   3   4
ENDBRANCH   2   3
ENDBRANCH   1   2
BRANCH   1  27
ATOM     27  C   UNL A   1      31.589  30.810  26.231  1.00  0.00     0.002 C 
BRANCH  27  28
ATOM     28  C   UNL A   1      31.396  32.193  26.852  1.00  0.00     0.021 C 
BRANCH  28  29
ATOM     29  C   UNL A   1      32.700  32.947  27.065  1.00  0.00     0.116 C 
BRANCH  29  30
ATOM     30  N   UNL A   1      32.468  34.286  27.582  1.00  0.00    -0.352 N 
ATOM     31  C   UNL A   1      33.019  34.886  28.679  1.00  0.00     0.251 C 
ATOM     32  H   UNL A   1      31.826  34.833  27.074  1.00  0.00     0.163 HD
ATOM     33  O   UNL A   1      32.568  35.946  29.107  1.00  0.00    -0.269 OA
BRANCH  31  34
ATOM     34  C   UNL A   1      34.157  34.238  29.354  1.00  0.00     0.039 A 
ATOM     35  C   UNL A   1      35.453  34.562  28.950  1.00  0.00     0.014 A 
ATOM     36  C   UNL A   1      33.941  33.311  30.379  1.00  0.00     0.014 A 
ATOM     37  C   UNL A   1      36.537  33.970  29.594  1.00  0.00     0.010 A 
ATOM     38  C   UNL A   1      35.022  32.796  31.082  1.00  0.00     0.010 A 
ATOM     39  C   UNL A   1      36.329  33.095  30.674  1.00  0.00    -0.014 A 
BRANCH  39  40
ATOM     40  C   UNL A   1      37.473  32.443  31.353  1.00  0.00     0.031 A 
ATOM     41  C   UNL A   1      38.205  31.320  30.672  1.00  0.00     0.074 A 
ATOM     42  C   UNL A   1      37.828  32.839  32.590  1.00  0.00     0.049 A 
ATOM     43  N   UNL A   1      39.221  30.612  31.100  1.00  0.00    -0.248 NA
ATOM     44  C   UNL A   1      37.713  30.915  29.345  1.00  0.00     0.031 C 
ATOM     45  C   UNL A   1      37.160  33.884  33.367  1.00  0.00     0.029 A 
ATOM     46  N   UNL A   1      38.841  32.410  33.409  1.00  0.00    -0.354 N 
ATOM     47  C   UNL A   1      39.470  29.674  30.107  1.00  0.00     0.074 A 
ATOM     48  C   UNL A   1      38.463  29.856  29.086  1.00  0.00     0.031 C 
ATOM     49  C   UNL A   1      37.808  34.046  34.532  1.00  0.00     0.029 A 
ATOM     50  C   UNL A   1      38.908  33.089  34.600  1.00  0.00     0.049 A 
ATOM     51  H   UNL A   1      39.460  31.684  33.166  1.00  0.00     0.167 HD
ATOM     52  C   UNL A   1      40.468  28.762  30.039  1.00  0.00     0.037 A 
ATOM     53  C   UNL A   1      39.769  32.956  35.627  1.00  0.00     0.037 A 
ATOM     54  C   UNL A   1      41.485  28.610  31.046  1.00  0.00     0.049 A 
ATOM     55  C   UNL A   1      40.868  31.931  35.526  1.00  0.00     0.074 A 
ATOM     56  C   UNL A   1      42.581  27.766  31.045  1.00  0.00     0.029 A 
ATOM     57  N   UNL A   1      41.525  29.319  32.239  1.00  0.00    -0.354 N 
ATOM     58  N   UNL A   1      41.146  31.104  34.548  1.00  0.00    -0.248 NA
ATOM     59  C   UNL A   1      41.779  31.831  36.673  1.00  0.00     0.031 C 
ATOM     60  C   UNL A   1      43.249  27.919  32.264  1.00  0.00     0.029 A 
ATOM     61  C   UNL A   1      42.610  28.909  32.995  1.00  0.00     0.049 A 
ATOM     62  H   UNL A   1      40.878  30.011  32.506  1.00  0.00     0.167 HD
ATOM     63  C   UNL A   1      42.286  30.414  34.942  1.00  0.00     0.074 A 
ATOM     64  C   UNL A   1      42.653  30.931  36.244  1.00  0.00     0.031 C 
ATOM     65  C   UNL A   1      42.967  29.444  34.285  1.00  0.00     0.037 A 
BRANCH  52  66
ATOM     66  C   UNL A   1      40.502  27.854  28.841  1.00  0.00     0.064 A 
ATOM     67  C   UNL A   1      39.778  26.651  28.800  1.00  0.00     0.173 A 
ATOM     68  C   UNL A   1      41.254  28.202  27.710  1.00  0.00     0.173 A 
ATOM     69  F   UNL A   1      39.051  26.262  29.860  1.00  0.00    -0.203 F 
ATOM     70  C   UNL A   1      39.836  25.816  27.687  1.00  0.00     0.198 A 
ATOM     71  C   UNL A   1      41.280  27.382  26.584  1.00  0.00     0.198 A 
ATOM     72  F   UNL A   1      41.962  29.341  27.691  1.00  0.00    -0.203 F 
ATOM     73  F   UNL A   1      39.186  24.644  27.698  1.00  0.00    -0.200 F 
ATOM     74  C   UNL A   1      40.580  26.185  26.578  1.00  0.00     0.200 A 
ATOM     75  F   UNL A   1      41.988  27.749  25.507  1.00  0.00    -0.200 F 
ATOM     76  F   UNL A   1      40.631  25.383  25.506  1.00  0.00    -0.200 F 
ENDBRANCH  52  66
BRANCH  53  77
ATOM     77  C   UNL A   1      39.654  33.839  36.817  1.00  0.00     0.064 A 
ATOM     78  C   UNL A   1      38.865  33.465  37.915  1.00  0.00     0.173 A 
ATOM     79  C   UNL A   1      40.315  35.073  36.880  1.00  0.00     0.173 A 
ATOM     80  F   UNL A   1      38.199  32.301  37.895  1.00  0.00    -0.203 F 
ATOM     81  C   UNL A   1      38.721  34.305  39.017  1.00  0.00     0.198 A 
ATOM     82  C   UNL A   1      40.195  35.898  37.996  1.00  0.00     0.198 A 
ATOM     83  F   UNL A   1      41.088  35.475  35.860  1.00  0.00    -0.203 F 
ATOM     84  F   UNL A   1      37.917  33.947  40.028  1.00  0.00    -0.200 F 
ATOM     85  C   UNL A   1      39.389  35.519  39.059  1.00  0.00     0.200 A 
ATOM     86  F   UNL A   1      40.856  37.062  38.040  1.00  0.00    -0.200 F 
ATOM     87  F   UNL A   1      39.251  36.326  40.119  1.00  0.00    -0.200 F 
ENDBRANCH  53  77
BRANCH  65  88
ATOM     88  C   UNL A   1      44.213  28.916  34.940  1.00  0.00     0.064 A 
ATOM     89  C   UNL A   1      44.191  27.799  35.788  1.00  0.00     0.173 A 
ATOM     90  C   UNL A   1      45.454  29.524  34.689  1.00  0.00     0.173 A 
ATOM     91  F   UNL A   1      43.030  27.188  36.071  1.00  0.00    -0.203 F 
ATOM     92  C   UNL A   1      45.357  27.335  36.392  1.00  0.00     0.198 A 
ATOM     93  C   UNL A   1      46.623  29.033  35.263  1.00  0.00     0.198 A 
ATOM     94  F   UNL A   1      45.534  30.590  33.878  1.00  0.00    -0.203 F 
ATOM     95  F   UNL A   1      45.301  26.305  37.247  1.00  0.00    -0.200 F 
ATOM     96  C   UNL A   1      46.572  27.947  36.122  1.00  0.00     0.200 A 
ATOM     97  F   UNL A   1      47.798  29.615  34.986  1.00  0.00    -0.200 F 
ATOM     98  F   UNL A   1      47.694  27.496  36.699  1.00  0.00    -0.200 F 
ENDBRANCH  65  88
ENDBRANCH  39  40
ENDBRANCH  31  34
ENDBRANCH  29  30
ENDBRANCH  28  29
ENDBRANCH  27  28
ENDBRANCH   1  27
TORSDOF 18
ENDMDL
