MODEL 1
REMARK VINA RESULT:     -11.8      0.000      0.000
REMARK SMILES CC[C@]1(C(=O)NCCCCCCNC(=O)c2ccc(-c3c4nc(c(-c5c(F)c(F)c(F)c(F)c5F)c5ccc([nH]5)c(-c5c(F)c(F)c(F)c(F)c5F)c5nc(c(-c6c(F)c(F)c(F)c(F)c6F)c6ccc3[nH]6)C=C5)C=C4)cc2)CCC[N@@H+]([C@@H]2CCC[C@H](S(C)(=O)=O)C2)C1
REMARK SMILES IDX 9 1 8 2 7 3 6 4 4 5 5 6 3 8 79 9 93 10 80 11 82 12 81 13
REMARK SMILES IDX 2 15 1 16 83 17 84 18 92 19 85 20 87 21 86 22 88 23 89 24
REMARK SMILES IDX 90 25 91 26 10 27 11 28 12 29 13 30 14 31 15 33 16 34 17 35
REMARK SMILES IDX 78 36 18 37 77 38 19 39 20 40 21 41 71 42 22 43 76 44 70 45
REMARK SMILES IDX 72 46 23 47 75 48 69 49 68 50 24 52 56 53 36 54 55 55 37 56
REMARK SMILES IDX 40 57 54 58 73 59 38 60 39 61 53 63 74 64 41 65 25 66 26 67
REMARK SMILES IDX 34 68 27 69 28 70 32 71 35 72 29 73 30 74 33 75 31 76 57 77
REMARK SMILES IDX 58 78 66 79 59 80 60 81 64 82 67 83 61 84 62 85 65 86 63 87
REMARK SMILES IDX 42 88 43 89 51 90 44 91 45 92 49 93 52 94 46 95 47 96 50 97
REMARK SMILES IDX 48 98
REMARK H PARENT 6 7 82 14 13 32 72 51 40 62
REMARK Flexibility Score: inf
ROOT
ATOM      1  C   UNL A   1      35.180  23.667  23.864  1.00  0.00     0.002 C 
ENDROOT
BRANCH   1   2
ATOM      2  C   UNL A   1      34.075  23.401  22.832  1.00  0.00     0.021 C 
BRANCH   2   3
ATOM      3  C   UNL A   1      32.937  24.415  22.850  1.00  0.00     0.116 C 
BRANCH   3   4
ATOM      4  N   UNL A   1      33.416  25.762  23.032  1.00  0.00    -0.355 N 
ATOM      5  C   UNL A   1      33.144  26.693  23.979  1.00  0.00     0.231 C 
ATOM      6  O   UNL A   1      33.941  27.638  23.989  1.00  0.00    -0.274 OA
ATOM      7  H   UNL A   1      34.056  26.059  22.344  1.00  0.00     0.163 HD
BRANCH   5   8
ATOM      8  C   UNL A   1      32.000  26.567  25.027  1.00  0.00     0.098 C 
ATOM      9  C   UNL A   1      30.632  26.155  24.441  1.00  0.00     0.028 C 
ATOM     10  C   UNL A   1      32.484  25.543  26.121  1.00  0.00     0.279 C 
ATOM     11  C   UNL A   1      29.699  25.656  25.544  1.00  0.00     0.063 C 
ATOM     12  N   UNL A   1      31.615  24.448  26.601  1.00  0.00    -0.332 N 
ATOM     13  C   UNL A   1      30.246  24.360  26.115  1.00  0.00     0.262 C 
ATOM     14  H   UNL A   1      31.390  24.804  27.530  1.00  0.00     0.348 HD
BRANCH   8  15
ATOM     15  C   UNL A   1      31.821  27.992  25.686  1.00  0.00     0.019 C 
ATOM     16  C   UNL A   1      32.148  28.092  27.187  1.00  0.00     0.005 C 
ENDBRANCH   8  15
BRANCH  12  17
ATOM     17  C   UNL A   1      32.310  23.169  26.857  1.00  0.00     0.185 C 
ATOM     18  C   UNL A   1      33.811  23.320  27.182  1.00  0.00     0.065 C 
ATOM     19  C   UNL A   1      32.170  22.161  25.698  1.00  0.00     0.084 C 
ATOM     20  C   UNL A   1      34.403  21.994  27.631  1.00  0.00     0.007 C 
ATOM     21  C   UNL A   1      32.813  20.802  26.067  1.00  0.00     0.114 C 
ATOM     22  C   UNL A   1      34.263  20.947  26.543  1.00  0.00     0.020 C 
BRANCH  21  23
ATOM     23  S   UNL A   1      32.710  19.653  24.682  1.00  0.00     0.150 S 
ATOM     24  C   UNL A   1      34.382  19.076  24.461  1.00  0.00     0.158 C 
ATOM     25  O   UNL A   1      31.927  18.510  25.114  1.00  0.00    -0.229 OA
ATOM     26  O   UNL A   1      32.348  20.398  23.494  1.00  0.00    -0.229 OA
ENDBRANCH  21  23
ENDBRANCH  12  17
ENDBRANCH   5   8
ENDBRANCH   3   4
ENDBRANCH   2   3
ENDBRANCH   1   2
BRANCH   1  27
ATOM     27  C   UNL A   1      36.572  23.134  23.507  1.00  0.00     0.002 C 
BRANCH  27  28
ATOM     28  C   UNL A   1      36.984  21.848  24.220  1.00  0.00     0.021 C 
BRANCH  28  29
ATOM     29  C   UNL A   1      37.497  22.010  25.641  1.00  0.00     0.116 C 
BRANCH  29  30
ATOM     30  N   UNL A   1      38.432  20.972  26.026  1.00  0.00    -0.352 N 
ATOM     31  C   UNL A   1      39.713  21.086  26.501  1.00  0.00     0.251 C 
ATOM     32  H   UNL A   1      38.098  20.050  25.932  1.00  0.00     0.163 HD
ATOM     33  O   UNL A   1      40.403  20.079  26.642  1.00  0.00    -0.269 OA
BRANCH  31  34
ATOM     34  C   UNL A   1      40.283  22.416  26.820  1.00  0.00     0.039 A 
ATOM     35  C   UNL A   1      39.839  23.521  26.091  1.00  0.00     0.014 A 
ATOM     36  C   UNL A   1      41.265  22.579  27.801  1.00  0.00     0.014 A 
ATOM     37  C   UNL A   1      40.355  24.789  26.365  1.00  0.00     0.010 A 
ATOM     38  C   UNL A   1      41.710  23.855  28.139  1.00  0.00     0.010 A 
ATOM     39  C   UNL A   1      41.280  24.972  27.406  1.00  0.00    -0.014 A 
BRANCH  39  40
ATOM     40  C   UNL A   1      41.841  26.316  27.700  1.00  0.00     0.031 A 
ATOM     41  C   UNL A   1      43.216  26.683  27.208  1.00  0.00     0.074 A 
ATOM     42  C   UNL A   1      41.127  27.197  28.427  1.00  0.00     0.049 A 
ATOM     43  N   UNL A   1      43.887  27.796  27.373  1.00  0.00    -0.248 NA
ATOM     44  C   UNL A   1      43.948  25.654  26.453  1.00  0.00     0.031 C 
ATOM     45  C   UNL A   1      39.802  26.944  28.996  1.00  0.00     0.029 A 
ATOM     46  N   UNL A   1      41.413  28.482  28.811  1.00  0.00    -0.354 N 
ATOM     47  C   UNL A   1      45.114  27.595  26.753  1.00  0.00     0.074 A 
ATOM     48  C   UNL A   1      45.125  26.232  26.269  1.00  0.00     0.031 C 
ATOM     49  C   UNL A   1      39.376  28.051  29.626  1.00  0.00     0.029 A 
ATOM     50  C   UNL A   1      40.412  29.076  29.540  1.00  0.00     0.049 A 
ATOM     51  H   UNL A   1      42.257  28.937  28.585  1.00  0.00     0.167 HD
ATOM     52  C   UNL A   1      46.128  28.475  26.575  1.00  0.00     0.037 A 
ATOM     53  C   UNL A   1      40.339  30.309  30.078  1.00  0.00     0.037 A 
ATOM     54  C   UNL A   1      46.105  29.837  27.041  1.00  0.00     0.049 A 
ATOM     55  C   UNL A   1      41.486  31.263  29.876  1.00  0.00     0.074 A 
ATOM     56  C   UNL A   1      47.062  30.822  26.875  1.00  0.00     0.029 A 
ATOM     57  N   UNL A   1      45.068  30.404  27.768  1.00  0.00    -0.354 N 
ATOM     58  N   UNL A   1      42.613  31.082  29.231  1.00  0.00    -0.248 NA
ATOM     59  C   UNL A   1      41.342  32.600  30.466  1.00  0.00     0.031 C 
ATOM     60  C   UNL A   1      46.629  31.969  27.550  1.00  0.00     0.029 A 
ATOM     61  C   UNL A   1      45.372  31.720  28.075  1.00  0.00     0.049 A 
ATOM     62  H   UNL A   1      44.239  29.939  28.027  1.00  0.00     0.167 HD
ATOM     63  C   UNL A   1      43.292  32.291  29.301  1.00  0.00     0.074 A 
ATOM     64  C   UNL A   1      42.444  33.202  30.040  1.00  0.00     0.031 C 
ATOM     65  C   UNL A   1      44.509  32.620  28.799  1.00  0.00     0.037 A 
BRANCH  52  66
ATOM     66  C   UNL A   1      47.349  27.991  25.843  1.00  0.00     0.064 A 
ATOM     67  C   UNL A   1      47.382  27.900  24.442  1.00  0.00     0.173 A 
ATOM     68  C   UNL A   1      48.513  27.647  26.547  1.00  0.00     0.173 A 
ATOM     69  F   UNL A   1      46.294  28.204  23.719  1.00  0.00    -0.203 F 
ATOM     70  C   UNL A   1      48.521  27.451  23.778  1.00  0.00     0.198 A 
ATOM     71  C   UNL A   1      49.662  27.233  25.878  1.00  0.00     0.198 A 
ATOM     72  F   UNL A   1      48.540  27.719  27.886  1.00  0.00    -0.203 F 
ATOM     73  F   UNL A   1      48.508  27.318  22.444  1.00  0.00    -0.200 F 
ATOM     74  C   UNL A   1      49.662  27.126  24.495  1.00  0.00     0.200 A 
ATOM     75  F   UNL A   1      50.769  26.935  26.572  1.00  0.00    -0.200 F 
ATOM     76  F   UNL A   1      50.761  26.703  23.855  1.00  0.00    -0.200 F 
ENDBRANCH  52  66
BRANCH  53  77
ATOM     77  C   UNL A   1      39.127  30.723  30.835  1.00  0.00     0.064 A 
ATOM     78  C   UNL A   1      38.055  31.359  30.190  1.00  0.00     0.173 A 
ATOM     79  C   UNL A   1      39.022  30.514  32.217  1.00  0.00     0.173 A 
ATOM     80  F   UNL A   1      38.113  31.598  28.872  1.00  0.00    -0.203 F 
ATOM     81  C   UNL A   1      36.941  31.796  30.904  1.00  0.00     0.198 A 
ATOM     82  C   UNL A   1      37.892  30.921  32.924  1.00  0.00     0.198 A 
ATOM     83  F   UNL A   1      40.013  29.902  32.882  1.00  0.00    -0.203 F 
ATOM     84  F   UNL A   1      35.958  32.452  30.272  1.00  0.00    -0.200 F 
ATOM     85  C   UNL A   1      36.859  31.573  32.270  1.00  0.00     0.200 A 
ATOM     86  F   UNL A   1      37.808  30.684  34.240  1.00  0.00    -0.200 F 
ATOM     87  F   UNL A   1      35.786  31.991  32.956  1.00  0.00    -0.200 F 
ENDBRANCH  53  77
BRANCH  65  88
ATOM     88  C   UNL A   1      44.967  34.040  28.976  1.00  0.00     0.064 A 
ATOM     89  C   UNL A   1      45.736  34.442  30.079  1.00  0.00     0.173 A 
ATOM     90  C   UNL A   1      44.648  35.009  28.011  1.00  0.00     0.173 A 
ATOM     91  F   UNL A   1      46.058  33.560  31.036  1.00  0.00    -0.203 F 
ATOM     92  C   UNL A   1      46.130  35.769  30.229  1.00  0.00     0.198 A 
ATOM     93  C   UNL A   1      45.078  36.326  28.146  1.00  0.00     0.198 A 
ATOM     94  F   UNL A   1      43.924  34.676  26.932  1.00  0.00    -0.203 F 
ATOM     95  F   UNL A   1      46.807  36.145  31.324  1.00  0.00    -0.200 F 
ATOM     96  C   UNL A   1      45.808  36.708  29.261  1.00  0.00     0.200 A 
ATOM     97  F   UNL A   1      44.781  37.226  27.199  1.00  0.00    -0.200 F 
ATOM     98  F   UNL A   1      46.192  37.984  29.405  1.00  0.00    -0.200 F 
ENDBRANCH  65  88
ENDBRANCH  39  40
ENDBRANCH  31  34
ENDBRANCH  29  30
ENDBRANCH  28  29
ENDBRANCH  27  28
ENDBRANCH   1  27
TORSDOF 16
ENDMDL
MODEL 2
REMARK VINA RESULT:     -11.7      2.497      4.569
REMARK SMILES CC[C@]1(C(=O)NCCCCCCNC(=O)c2ccc(-c3c4nc(c(-c5c(F)c(F)c(F)c(F)c5F)c5ccc([nH]5)c(-c5c(F)c(F)c(F)c(F)c5F)c5nc(c(-c6c(F)c(F)c(F)c(F)c6F)c6ccc3[nH]6)C=C5)C=C4)cc2)CCC[N@@H+]([C@@H]2CCC[C@H](S(C)(=O)=O)C2)C1
REMARK SMILES IDX 9 1 8 2 7 3 6 4 4 5 5 6 3 8 79 9 93 10 80 11 82 12 81 13
REMARK SMILES IDX 2 15 1 16 83 17 84 18 92 19 85 20 87 21 86 22 88 23 89 24
REMARK SMILES IDX 90 25 91 26 10 27 11 28 12 29 13 30 14 31 15 33 16 34 17 35
REMARK SMILES IDX 78 36 18 37 77 38 19 39 20 40 21 41 71 42 22 43 76 44 70 45
REMARK SMILES IDX 72 46 23 47 75 48 69 49 68 50 24 52 56 53 36 54 55 55 37 56
REMARK SMILES IDX 40 57 54 58 73 59 38 60 39 61 53 63 74 64 41 65 25 66 26 67
REMARK SMILES IDX 34 68 27 69 28 70 32 71 35 72 29 73 30 74 33 75 31 76 57 77
REMARK SMILES IDX 58 78 66 79 59 80 60 81 64 82 67 83 61 84 62 85 65 86 63 87
REMARK SMILES IDX 42 88 43 89 51 90 44 91 45 92 49 93 52 94 46 95 47 96 50 97
REMARK SMILES IDX 48 98
REMARK H PARENT 6 7 82 14 13 32 72 51 40 62
REMARK Flexibility Score: inf
ROOT
ATOM      1  C   UNL A   1      40.725  22.070  26.441  1.00  0.00     0.002 C 
ENDROOT
BRANCH   1   2
ATOM      2  C   UNL A   1      39.271  22.562  26.454  1.00  0.00     0.021 C 
BRANCH   2   3
ATOM      3  C   UNL A   1      38.285  21.635  25.752  1.00  0.00     0.116 C 
BRANCH   3   4
ATOM      4  N   UNL A   1      37.786  22.207  24.526  1.00  0.00    -0.355 N 
ATOM      5  C   UNL A   1      36.540  22.594  24.156  1.00  0.00     0.231 C 
ATOM      6  O   UNL A   1      36.520  23.298  23.141  1.00  0.00    -0.274 OA
ATOM      7  H   UNL A   1      38.473  22.340  23.833  1.00  0.00     0.163 HD
BRANCH   5   8
ATOM      8  C   UNL A   1      35.249  22.272  24.964  1.00  0.00     0.098 C 
ATOM      9  C   UNL A   1      35.233  22.830  26.404  1.00  0.00     0.028 C 
ATOM     10  C   UNL A   1      34.031  22.818  24.127  1.00  0.00     0.279 C 
ATOM     11  C   UNL A   1      33.812  22.839  26.965  1.00  0.00     0.063 C 
ATOM     12  N   UNL A   1      32.955  23.617  24.750  1.00  0.00    -0.332 N 
ATOM     13  C   UNL A   1      32.972  23.837  26.187  1.00  0.00     0.262 C 
ATOM     14  H   UNL A   1      32.204  22.927  24.742  1.00  0.00     0.348 HD
BRANCH   8  15
ATOM     15  C   UNL A   1      35.150  20.698  25.067  1.00  0.00     0.019 C 
ATOM     16  C   UNL A   1      33.814  20.071  24.629  1.00  0.00     0.005 C 
ENDBRANCH   8  15
BRANCH  12  17
ATOM     17  C   UNL A   1      32.442  24.724  23.916  1.00  0.00     0.185 C 
ATOM     18  C   UNL A   1      33.184  24.902  22.574  1.00  0.00     0.065 C 
ATOM     19  C   UNL A   1      32.442  26.083  24.647  1.00  0.00     0.084 C 
ATOM     20  C   UNL A   1      32.472  25.916  21.694  1.00  0.00     0.007 C 
ATOM     21  C   UNL A   1      31.787  27.181  23.774  1.00  0.00     0.114 C 
ATOM     22  C   UNL A   1      32.408  27.269  22.375  1.00  0.00     0.020 C 
BRANCH  21  23
ATOM     23  S   UNL A   1      31.857  28.779  24.604  1.00  0.00     0.150 S 
ATOM     24  C   UNL A   1      31.770  28.381  26.339  1.00  0.00     0.158 C 
ATOM     25  O   UNL A   1      33.176  29.340  24.369  1.00  0.00    -0.229 OA
ATOM     26  O   UNL A   1      30.661  29.523  24.269  1.00  0.00    -0.229 OA
ENDBRANCH  21  23
ENDBRANCH  12  17
ENDBRANCH   5   8
ENDBRANCH   3   4
ENDBRANCH   2   3
ENDBRANCH   1   2
BRANCH   1  27
ATOM     27  C   UNL A   1      40.974  20.701  27.085  1.00  0.00     0.002 C 
BRANCH  27  28
ATOM     28  C   UNL A   1      41.403  19.593  26.126  1.00  0.00     0.021 C 
BRANCH  28  29
ATOM     29  C   UNL A   1      42.685  18.860  26.488  1.00  0.00     0.116 C 
BRANCH  29  30
ATOM     30  N   UNL A   1      43.522  18.587  25.337  1.00  0.00    -0.352 N 
ATOM     31  C   UNL A   1      44.288  19.447  24.593  1.00  0.00     0.251 C 
ATOM     32  H   UNL A   1      43.544  17.646  25.048  1.00  0.00     0.163 HD
ATOM     33  O   UNL A   1      44.824  19.050  23.562  1.00  0.00    -0.269 OA
BRANCH  31  34
ATOM     34  C   UNL A   1      44.453  20.860  25.007  1.00  0.00     0.039 A 
ATOM     35  C   UNL A   1      45.250  21.138  26.120  1.00  0.00     0.014 A 
ATOM     36  C   UNL A   1      43.811  21.904  24.334  1.00  0.00     0.014 A 
ATOM     37  C   UNL A   1      45.426  22.458  26.538  1.00  0.00     0.010 A 
ATOM     38  C   UNL A   1      44.063  23.226  24.693  1.00  0.00     0.010 A 
ATOM     39  C   UNL A   1      44.852  23.517  25.816  1.00  0.00    -0.014 A 
BRANCH  39  40
ATOM     40  C   UNL A   1      45.027  24.925  26.258  1.00  0.00     0.031 A 
ATOM     41  C   UNL A   1      46.376  25.586  26.150  1.00  0.00     0.074 A 
ATOM     42  C   UNL A   1      43.984  25.600  26.777  1.00  0.00     0.049 A 
ATOM     43  N   UNL A   1      46.736  26.798  26.495  1.00  0.00    -0.248 NA
ATOM     44  C   UNL A   1      47.474  24.771  25.607  1.00  0.00     0.031 C 
ATOM     45  C   UNL A   1      42.640  25.056  26.974  1.00  0.00     0.029 A 
ATOM     46  N   UNL A   1      43.889  26.891  27.233  1.00  0.00    -0.354 N 
ATOM     47  C   UNL A   1      48.095  26.881  26.219  1.00  0.00     0.074 A 
ATOM     48  C   UNL A   1      48.512  25.581  25.745  1.00  0.00     0.031 C 
ATOM     49  C   UNL A   1      41.847  26.016  27.478  1.00  0.00     0.029 A 
ATOM     50  C   UNL A   1      42.634  27.229  27.675  1.00  0.00     0.049 A 
ATOM     51  H   UNL A   1      44.650  27.517  27.241  1.00  0.00     0.167 HD
ATOM     52  C   UNL A   1      48.916  27.954  26.322  1.00  0.00     0.037 A 
ATOM     53  C   UNL A   1      42.172  28.387  28.185  1.00  0.00     0.037 A 
ATOM     54  C   UNL A   1      48.493  29.253  26.775  1.00  0.00     0.049 A 
ATOM     55  C   UNL A   1      43.109  29.560  28.301  1.00  0.00     0.074 A 
ATOM     56  C   UNL A   1      49.235  30.417  26.876  1.00  0.00     0.029 A 
ATOM     57  N   UNL A   1      47.210  29.558  27.207  1.00  0.00    -0.354 N 
ATOM     58  N   UNL A   1      44.376  29.645  27.974  1.00  0.00    -0.248 NA
ATOM     59  C   UNL A   1      42.545  30.803  28.842  1.00  0.00     0.031 C 
ATOM     60  C   UNL A   1      48.416  31.411  27.421  1.00  0.00     0.029 A 
ATOM     61  C   UNL A   1      47.145  30.886  27.594  1.00  0.00     0.049 A 
ATOM     62  H   UNL A   1      46.457  28.923  27.235  1.00  0.00     0.167 HD
ATOM     63  C   UNL A   1      44.749  30.958  28.231  1.00  0.00     0.074 A 
ATOM     64  C   UNL A   1      43.569  31.636  28.727  1.00  0.00     0.031 C 
ATOM     65  C   UNL A   1      45.959  31.551  28.070  1.00  0.00     0.037 A 
BRANCH  52  66
ATOM     66  C   UNL A   1      50.357  27.767  25.935  1.00  0.00     0.064 A 
ATOM     67  C   UNL A   1      50.775  27.823  24.595  1.00  0.00     0.173 A 
ATOM     68  C   UNL A   1      51.339  27.565  26.916  1.00  0.00     0.173 A 
ATOM     69  F   UNL A   1      49.878  28.002  23.614  1.00  0.00    -0.203 F 
ATOM     70  C   UNL A   1      52.114  27.650  24.252  1.00  0.00     0.198 A 
ATOM     71  C   UNL A   1      52.681  27.428  26.573  1.00  0.00     0.198 A 
ATOM     72  F   UNL A   1      50.998  27.507  28.212  1.00  0.00    -0.203 F 
ATOM     73  F   UNL A   1      52.478  27.649  22.962  1.00  0.00    -0.200 F 
ATOM     74  C   UNL A   1      53.066  27.460  25.241  1.00  0.00     0.200 A 
ATOM     75  F   UNL A   1      53.603  27.261  27.532  1.00  0.00    -0.200 F 
ATOM     76  F   UNL A   1      54.356  27.303  24.911  1.00  0.00    -0.200 F 
ENDBRANCH  52  66
BRANCH  53  77
ATOM     77  C   UNL A   1      40.747  28.506  28.598  1.00  0.00     0.064 A 
ATOM     78  C   UNL A   1      39.774  28.978  27.705  1.00  0.00     0.173 A 
ATOM     79  C   UNL A   1      40.333  28.173  29.895  1.00  0.00     0.173 A 
ATOM     80  F   UNL A   1      40.121  29.326  26.457  1.00  0.00    -0.203 F 
ATOM     81  C   UNL A   1      38.448  29.141  28.103  1.00  0.00     0.198 A 
ATOM     82  C   UNL A   1      39.000  28.304  30.282  1.00  0.00     0.198 A 
ATOM     83  F   UNL A   1      41.220  27.707  30.786  1.00  0.00    -0.203 F 
ATOM     84  F   UNL A   1      37.551  29.648  27.247  1.00  0.00    -0.200 F 
ATOM     85  C   UNL A   1      38.062  28.799  29.391  1.00  0.00     0.200 A 
ATOM     86  F   UNL A   1      38.628  27.952  31.520  1.00  0.00    -0.200 F 
ATOM     87  F   UNL A   1      36.787  28.954  29.773  1.00  0.00    -0.200 F 
ENDBRANCH  53  77
BRANCH  65  88
ATOM     88  C   UNL A   1      46.051  33.020  28.373  1.00  0.00     0.064 A 
ATOM     89  C   UNL A   1      46.398  33.498  29.646  1.00  0.00     0.173 A 
ATOM     90  C   UNL A   1      45.810  33.965  27.363  1.00  0.00     0.173 A 
ATOM     91  F   UNL A   1      46.627  32.639  30.651  1.00  0.00    -0.203 F 
ATOM     92  C   UNL A   1      46.458  34.865  29.906  1.00  0.00     0.198 A 
ATOM     93  C   UNL A   1      45.909  35.330  27.617  1.00  0.00     0.198 A 
ATOM     94  F   UNL A   1      45.485  33.563  26.125  1.00  0.00    -0.203 F 
ATOM     95  F   UNL A   1      46.725  35.298  31.146  1.00  0.00    -0.200 F 
ATOM     96  C   UNL A   1      46.220  35.779  28.890  1.00  0.00     0.200 A 
ATOM     97  F   UNL A   1      45.698  36.210  26.628  1.00  0.00    -0.200 F 
ATOM     98  F   UNL A   1      46.282  37.094  29.141  1.00  0.00    -0.200 F 
ENDBRANCH  65  88
ENDBRANCH  39  40
ENDBRANCH  31  34
ENDBRANCH  29  30
ENDBRANCH  28  29
ENDBRANCH  27  28
ENDBRANCH   1  27
TORSDOF 16
ENDMDL
MODEL 3
REMARK VINA RESULT:     -11.7      2.212      3.958
REMARK SMILES CC[C@]1(C(=O)NCCCCCCNC(=O)c2ccc(-c3c4nc(c(-c5c(F)c(F)c(F)c(F)c5F)c5ccc([nH]5)c(-c5c(F)c(F)c(F)c(F)c5F)c5nc(c(-c6c(F)c(F)c(F)c(F)c6F)c6ccc3[nH]6)C=C5)C=C4)cc2)CCC[N@@H+]([C@@H]2CCC[C@H](S(C)(=O)=O)C2)C1
REMARK SMILES IDX 9 1 8 2 7 3 6 4 4 5 5 6 3 8 79 9 93 10 80 11 82 12 81 13
REMARK SMILES IDX 2 15 1 16 83 17 84 18 92 19 85 20 87 21 86 22 88 23 89 24
REMARK SMILES IDX 90 25 91 26 10 27 11 28 12 29 13 30 14 31 15 33 16 34 17 35
REMARK SMILES IDX 78 36 18 37 77 38 19 39 20 40 21 41 71 42 22 43 76 44 70 45
REMARK SMILES IDX 72 46 23 47 75 48 69 49 68 50 24 52 56 53 36 54 55 55 37 56
REMARK SMILES IDX 40 57 54 58 73 59 38 60 39 61 53 63 74 64 41 65 25 66 26 67
REMARK SMILES IDX 34 68 27 69 28 70 32 71 35 72 29 73 30 74 33 75 31 76 57 77
REMARK SMILES IDX 58 78 66 79 59 80 60 81 64 82 67 83 61 84 62 85 65 86 63 87
REMARK SMILES IDX 42 88 43 89 51 90 44 91 45 92 49 93 52 94 46 95 47 96 50 97
REMARK SMILES IDX 48 98
REMARK H PARENT 6 7 82 14 13 32 72 51 40 62
REMARK Flexibility Score: inf
ROOT
ATOM      1  C   UNL A   1      37.121  21.796  24.369  1.00  0.00     0.002 C 
ENDROOT
BRANCH   1   2
ATOM      2  C   UNL A   1      37.137  22.970  25.358  1.00  0.00     0.021 C 
BRANCH   2   3
ATOM      3  C   UNL A   1      36.012  23.979  25.158  1.00  0.00     0.116 C 
BRANCH   3   4
ATOM      4  N   UNL A   1      34.970  23.828  26.142  1.00  0.00    -0.355 N 
ATOM      5  C   UNL A   1      33.660  23.501  26.021  1.00  0.00     0.231 C 
ATOM      6  O   UNL A   1      33.125  23.188  27.091  1.00  0.00    -0.274 OA
ATOM      7  H   UNL A   1      35.262  23.992  27.069  1.00  0.00     0.163 HD
BRANCH   5   8
ATOM      8  C   UNL A   1      32.897  23.429  24.666  1.00  0.00     0.098 C 
ATOM      9  C   UNL A   1      31.417  23.005  24.781  1.00  0.00     0.028 C 
ATOM     10  C   UNL A   1      33.036  24.840  23.981  1.00  0.00     0.279 C 
ATOM     11  C   UNL A   1      30.653  23.358  23.505  1.00  0.00     0.063 C 
ATOM     12  N   UNL A   1      31.873  25.536  23.391  1.00  0.00    -0.332 N 
ATOM     13  C   UNL A   1      30.581  24.869  23.365  1.00  0.00     0.262 C 
ATOM     14  H   UNL A   1      32.088  25.420  22.401  1.00  0.00     0.348 HD
BRANCH   8  15
ATOM     15  C   UNL A   1      33.632  22.343  23.782  1.00  0.00     0.019 C 
ATOM     16  C   UNL A   1      33.445  20.877  24.214  1.00  0.00     0.005 C 
ENDBRANCH   8  15
BRANCH  12  17
ATOM     17  C   UNL A   1      31.858  27.001  23.592  1.00  0.00     0.185 C 
ATOM     18  C   UNL A   1      32.085  27.441  25.054  1.00  0.00     0.065 C 
ATOM     19  C   UNL A   1      30.561  27.667  23.087  1.00  0.00     0.084 C 
ATOM     20  C   UNL A   1      32.260  28.948  25.143  1.00  0.00     0.007 C 
ATOM     21  C   UNL A   1      30.647  29.208  23.212  1.00  0.00     0.114 C 
ATOM     22  C   UNL A   1      31.027  29.664  24.626  1.00  0.00     0.020 C 
BRANCH  21  23
ATOM     23  S   UNL A   1      29.103  29.975  22.690  1.00  0.00     0.150 S 
ATOM     24  C   UNL A   1      27.853  28.766  23.084  1.00  0.00     0.158 C 
ATOM     25  O   UNL A   1      28.864  31.119  23.552  1.00  0.00    -0.229 OA
ATOM     26  O   UNL A   1      29.126  30.121  21.250  1.00  0.00    -0.229 OA
ENDBRANCH  21  23
ENDBRANCH  12  17
ENDBRANCH   5   8
ENDBRANCH   3   4
ENDBRANCH   2   3
ENDBRANCH   1   2
BRANCH   1  27
ATOM     27  C   UNL A   1      37.040  20.398  24.992  1.00  0.00     0.002 C 
BRANCH  27  28
ATOM     28  C   UNL A   1      38.345  19.606  24.999  1.00  0.00     0.021 C 
BRANCH  28  29
ATOM     29  C   UNL A   1      39.360  20.006  26.058  1.00  0.00     0.116 C 
BRANCH  29  30
ATOM     30  N   UNL A   1      40.561  19.196  26.022  1.00  0.00    -0.352 N 
ATOM     31  C   UNL A   1      41.874  19.579  26.132  1.00  0.00     0.251 C 
ATOM     32  H   UNL A   1      40.413  18.231  25.901  1.00  0.00     0.163 HD
ATOM     33  O   UNL A   1      42.766  18.759  25.938  1.00  0.00    -0.269 OA
BRANCH  31  34
ATOM     34  C   UNL A   1      42.224  20.982  26.457  1.00  0.00     0.039 A 
ATOM     35  C   UNL A   1      42.353  21.895  25.407  1.00  0.00     0.014 A 
ATOM     36  C   UNL A   1      42.455  21.397  27.771  1.00  0.00     0.014 A 
ATOM     37  C   UNL A   1      42.683  23.224  25.677  1.00  0.00     0.010 A 
ATOM     38  C   UNL A   1      42.690  22.742  28.048  1.00  0.00     0.010 A 
ATOM     39  C   UNL A   1      42.834  23.665  27.002  1.00  0.00    -0.014 A 
BRANCH  39  40
ATOM     40  C   UNL A   1      43.193  25.076  27.298  1.00  0.00     0.031 A 
ATOM     41  C   UNL A   1      44.567  25.591  26.960  1.00  0.00     0.074 A 
ATOM     42  C   UNL A   1      42.295  25.887  27.892  1.00  0.00     0.049 A 
ATOM     43  N   UNL A   1      45.078  26.783  27.153  1.00  0.00    -0.248 NA
ATOM     44  C   UNL A   1      45.503  24.636  26.348  1.00  0.00     0.031 C 
ATOM     45  C   UNL A   1      40.948  25.493  28.307  1.00  0.00     0.029 A 
ATOM     46  N   UNL A   1      42.379  27.209  28.247  1.00  0.00    -0.354 N 
ATOM     47  C   UNL A   1      46.387  26.712  26.696  1.00  0.00     0.074 A 
ATOM     48  C   UNL A   1      46.618  25.347  26.282  1.00  0.00     0.031 C 
ATOM     49  C   UNL A   1      40.320  26.560  28.829  1.00  0.00     0.029 A 
ATOM     50  C   UNL A   1      41.232  27.700  28.820  1.00  0.00     0.049 A 
ATOM     51  H   UNL A   1      43.186  27.756  28.104  1.00  0.00     0.167 HD
ATOM     52  C   UNL A   1      47.307  27.703  26.602  1.00  0.00     0.037 A 
ATOM     53  C   UNL A   1      40.949  28.931  29.288  1.00  0.00     0.037 A 
ATOM     54  C   UNL A   1      47.066  29.066  26.997  1.00  0.00     0.049 A 
ATOM     55  C   UNL A   1      41.993  30.011  29.182  1.00  0.00     0.074 A 
ATOM     56  C   UNL A   1      47.915  30.155  26.903  1.00  0.00     0.029 A 
ATOM     57  N   UNL A   1      45.887  29.526  27.566  1.00  0.00    -0.354 N 
ATOM     58  N   UNL A   1      43.206  29.947  28.687  1.00  0.00    -0.248 NA
ATOM     59  C   UNL A   1      41.621  31.339  29.687  1.00  0.00     0.031 C 
ATOM     60  C   UNL A   1      47.271  31.261  27.466  1.00  0.00     0.029 A 
ATOM     61  C   UNL A   1      45.995  30.879  27.846  1.00  0.00     0.049 A 
ATOM     62  H   UNL A   1      45.092  28.973  27.744  1.00  0.00     0.167 HD
ATOM     63  C   UNL A   1      43.725  31.232  28.783  1.00  0.00     0.074 A 
ATOM     64  C   UNL A   1      42.690  32.056  29.370  1.00  0.00     0.031 C 
ATOM     65  C   UNL A   1      44.948  31.689  28.417  1.00  0.00     0.037 A 
BRANCH  52  66
ATOM     66  C   UNL A   1      48.658  27.348  26.046  1.00  0.00     0.064 A 
ATOM     67  C   UNL A   1      49.703  26.905  26.873  1.00  0.00     0.173 A 
ATOM     68  C   UNL A   1      48.902  27.418  24.667  1.00  0.00     0.173 A 
ATOM     69  F   UNL A   1      49.529  26.831  28.201  1.00  0.00    -0.203 F 
ATOM     70  C   UNL A   1      50.949  26.578  26.343  1.00  0.00     0.198 A 
ATOM     71  C   UNL A   1      50.138  27.056  24.136  1.00  0.00     0.198 A 
ATOM     72  F   UNL A   1      47.940  27.830  23.829  1.00  0.00    -0.203 F 
ATOM     73  F   UNL A   1      51.948  26.214  27.160  1.00  0.00    -0.200 F 
ATOM     74  C   UNL A   1      51.163  26.646  24.975  1.00  0.00     0.200 A 
ATOM     75  F   UNL A   1      50.338  27.108  22.812  1.00  0.00    -0.200 F 
ATOM     76  F   UNL A   1      52.360  26.323  24.465  1.00  0.00    -0.200 F 
ENDBRANCH  52  66
BRANCH  53  77
ATOM     77  C   UNL A   1      39.611  29.219  29.872  1.00  0.00     0.064 A 
ATOM     78  C   UNL A   1      38.529  29.583  29.056  1.00  0.00     0.173 A 
ATOM     79  C   UNL A   1      39.390  29.159  31.255  1.00  0.00     0.173 A 
ATOM     80  F   UNL A   1      38.693  29.671  27.727  1.00  0.00    -0.203 F 
ATOM     81  C   UNL A   1      37.289  29.905  29.603  1.00  0.00     0.198 A 
ATOM     82  C   UNL A   1      38.140  29.448  31.799  1.00  0.00     0.198 A 
ATOM     83  F   UNL A   1      40.386  28.808  32.081  1.00  0.00    -0.203 F 
ATOM     84  F   UNL A   1      36.290  30.304  28.804  1.00  0.00    -0.200 F 
ATOM     85  C   UNL A   1      37.094  29.833  30.974  1.00  0.00     0.200 A 
ATOM     86  F   UNL A   1      37.950  29.357  33.122  1.00  0.00    -0.200 F 
ATOM     87  F   UNL A   1      35.901  30.140  31.500  1.00  0.00    -0.200 F 
ENDBRANCH  53  77
BRANCH  65  88
ATOM     88  C   UNL A   1      45.212  33.160  28.582  1.00  0.00     0.064 A 
ATOM     89  C   UNL A   1      45.916  33.671  29.682  1.00  0.00     0.173 A 
ATOM     90  C   UNL A   1      44.770  34.069  27.607  1.00  0.00     0.173 A 
ATOM     91  F   UNL A   1      46.350  32.848  30.648  1.00  0.00    -0.203 F 
ATOM     92  C   UNL A   1      46.129  35.040  29.821  1.00  0.00     0.198 A 
ATOM     93  C   UNL A   1      45.019  35.432  27.731  1.00  0.00     0.198 A 
ATOM     94  F   UNL A   1      44.100  33.632  26.529  1.00  0.00    -0.203 F 
ATOM     95  F   UNL A   1      46.746  35.513  30.914  1.00  0.00    -0.200 F 
ATOM     96  C   UNL A   1      45.687  35.919  28.843  1.00  0.00     0.200 A 
ATOM     97  F   UNL A   1      44.607  36.276  26.774  1.00  0.00    -0.200 F 
ATOM     98  F   UNL A   1      45.897  37.236  28.977  1.00  0.00    -0.200 F 
ENDBRANCH  65  88
ENDBRANCH  39  40
ENDBRANCH  31  34
ENDBRANCH  29  30
ENDBRANCH  28  29
ENDBRANCH  27  28
ENDBRANCH   1  27
TORSDOF 16
ENDMDL
