MODEL 1
REMARK VINA RESULT:     -12.1      0.000      0.000
REMARK SMILES COc1ccc(C[N@@H+]2C[C@@H](C(=O)NCCCCCCNC(=O)c3ccc(-c4c5nc(c(-c6c(F)c(F)c(F)c(F)c6F)c6ccc([nH]6)c(-c6c(F)c(F)c(F)c(F)c6F)c6nc(c(-c7c(F)c(F)c(F)c(F)c7F)c7ccc4[nH]7)C=C6)C=C5)cc3)[C@H](c3ccccc3OC)C2)c(OC)c1
REMARK SMILES IDX 16 1 15 2 14 3 13 4 11 5 12 6 10 8 8 9 9 10 95 11 86 13 7 14
REMARK SMILES IDX 6 15 3 16 4 17 99 18 5 19 96 20 2 21 1 22 97 23 98 24 87 25
REMARK SMILES IDX 88 26 92 27 89 28 91 29 90 30 93 31 94 32 17 33 18 34 19 35
REMARK SMILES IDX 20 36 21 37 22 39 23 40 24 41 85 42 25 43 84 44 26 45 27 46
REMARK SMILES IDX 28 47 78 48 29 49 83 50 77 51 79 52 30 53 82 54 76 55 75 56
REMARK SMILES IDX 31 58 63 59 43 60 62 61 44 62 47 63 61 64 80 65 45 66 46 67
REMARK SMILES IDX 60 69 81 70 48 71 32 72 33 73 41 74 34 75 35 76 39 77 42 78
REMARK SMILES IDX 36 79 37 80 40 81 38 82 64 83 65 84 73 85 66 86 67 87 71 88
REMARK SMILES IDX 74 89 68 90 69 91 72 92 70 93 49 94 50 95 58 96 51 97 52 98
REMARK SMILES IDX 56 99 59 100 53 101 54 102 57 103 55 104
REMARK H PARENT 13 7 8 12 20 38 79 57 47 68
REMARK Flexibility Score: inf
ROOT
ATOM      1  C   UNL A   1      36.126  21.065  24.847  1.00  0.00     0.002 C 
ENDROOT
BRANCH   1   2
ATOM      2  C   UNL A   1      35.848  22.487  24.344  1.00  0.00     0.021 C 
BRANCH   2   3
ATOM      3  C   UNL A   1      36.019  23.561  25.416  1.00  0.00     0.116 C 
BRANCH   3   4
ATOM      4  N   UNL A   1      35.476  23.127  26.690  1.00  0.00    -0.356 N 
ATOM      5  C   UNL A   1      34.197  23.005  27.133  1.00  0.00     0.229 C 
ATOM      6  O   UNL A   1      34.057  22.610  28.296  1.00  0.00    -0.275 OA
ATOM      7  H   UNL A   1      36.159  22.874  27.353  1.00  0.00     0.163 HD
BRANCH   5   8
ATOM      8  C   UNL A   1      32.981  23.213  26.249  1.00  0.00     0.146 C 
ATOM      9  N   UNL A   1      30.865  24.308  26.613  1.00  0.00    -0.330 N 
ATOM     10  C   UNL A   1      32.265  24.378  26.954  1.00  0.00     0.276 C 
ATOM     11  C   UNL A   1      30.674  23.133  25.774  1.00  0.00     0.272 C 
ATOM     12  H   UNL A   1      30.325  24.200  27.471  1.00  0.00     0.348 HD
ATOM     13  C   UNL A   1      31.888  22.153  25.948  1.00  0.00     0.096 C 
BRANCH   9  14
ATOM     14  C   UNL A   1      30.261  25.554  26.104  1.00  0.00     0.303 C 
BRANCH  14  15
ATOM     15  C   UNL A   1      31.105  26.828  26.075  1.00  0.00     0.048 A 
ATOM     16  C   UNL A   1      32.560  29.243  26.107  1.00  0.00     0.122 A 
ATOM     17  C   UNL A   1      32.007  28.760  27.282  1.00  0.00     0.047 A 
ATOM     18  C   UNL A   1      32.419  28.526  24.918  1.00  0.00     0.093 A 
ATOM     19  C   UNL A   1      31.257  27.585  27.257  1.00  0.00     0.017 A 
ATOM     20  C   UNL A   1      31.691  27.324  24.891  1.00  0.00     0.131 A 
BRANCH  16  21
ATOM     21  O   UNL A   1      33.282  30.402  26.186  1.00  0.00    -0.497 OA
ATOM     22  C   UNL A   1      33.726  30.664  27.517  1.00  0.00     0.278 C 
ENDBRANCH  16  21
BRANCH  20  23
ATOM     23  O   UNL A   1      31.492  26.577  23.756  1.00  0.00    -0.496 OA
ATOM     24  C   UNL A   1      31.987  27.111  22.533  1.00  0.00     0.278 C 
ENDBRANCH  20  23
ENDBRANCH  14  15
ENDBRANCH   9  14
BRANCH  13  25
ATOM     25  C   UNL A   1      31.998  21.152  24.757  1.00  0.00     0.004 A 
ATOM     26  C   UNL A   1      32.470  19.832  25.010  1.00  0.00     0.008 A 
ATOM     27  C   UNL A   1      31.869  21.460  23.384  1.00  0.00     0.122 A 
ATOM     28  C   UNL A   1      32.717  18.879  24.013  1.00  0.00     0.001 A 
ATOM     29  C   UNL A   1      32.073  20.482  22.381  1.00  0.00     0.047 A 
ATOM     30  C   UNL A   1      32.489  19.193  22.691  1.00  0.00     0.004 A 
BRANCH  27  31
ATOM     31  O   UNL A   1      31.856  22.718  22.841  1.00  0.00    -0.496 OA
ATOM     32  C   UNL A   1      33.094  23.195  22.364  1.00  0.00     0.278 C 
ENDBRANCH  27  31
ENDBRANCH  13  25
ENDBRANCH   5   8
ENDBRANCH   3   4
ENDBRANCH   2   3
ENDBRANCH   1   2
BRANCH   1  33
ATOM     33  C   UNL A   1      37.440  20.459  24.344  1.00  0.00     0.002 C 
BRANCH  33  34
ATOM     34  C   UNL A   1      38.154  19.562  25.357  1.00  0.00     0.021 C 
BRANCH  34  35
ATOM     35  C   UNL A   1      39.522  20.077  25.781  1.00  0.00     0.116 C 
BRANCH  35  36
ATOM     36  N   UNL A   1      40.479  18.993  25.943  1.00  0.00    -0.352 N 
ATOM     37  C   UNL A   1      41.835  19.071  26.128  1.00  0.00     0.251 C 
ATOM     38  H   UNL A   1      40.103  18.084  25.915  1.00  0.00     0.163 HD
ATOM     39  O   UNL A   1      42.542  18.070  26.026  1.00  0.00    -0.269 OA
BRANCH  37  40
ATOM     40  C   UNL A   1      42.443  20.379  26.431  1.00  0.00     0.039 A 
ATOM     41  C   UNL A   1      43.049  21.106  25.405  1.00  0.00     0.014 A 
ATOM     42  C   UNL A   1      42.378  20.897  27.728  1.00  0.00     0.014 A 
ATOM     43  C   UNL A   1      43.535  22.387  25.667  1.00  0.00     0.010 A 
ATOM     44  C   UNL A   1      42.791  22.202  27.967  1.00  0.00     0.010 A 
ATOM     45  C   UNL A   1      43.376  22.959  26.940  1.00  0.00    -0.014 A 
BRANCH  45  46
ATOM     46  C   UNL A   1      43.813  24.347  27.228  1.00  0.00     0.031 A 
ATOM     47  C   UNL A   1      42.810  25.364  27.690  1.00  0.00     0.074 A 
ATOM     48  C   UNL A   1      45.090  24.708  26.995  1.00  0.00     0.049 A 
ATOM     49  N   UNL A   1      42.962  26.650  27.885  1.00  0.00    -0.248 NA
ATOM     50  C   UNL A   1      41.442  24.878  27.936  1.00  0.00     0.031 C 
ATOM     51  C   UNL A   1      46.146  23.819  26.510  1.00  0.00     0.029 A 
ATOM     52  N   UNL A   1      45.711  25.925  27.118  1.00  0.00    -0.354 N 
ATOM     53  C   UNL A   1      41.712  27.125  28.258  1.00  0.00     0.074 A 
ATOM     54  C   UNL A   1      40.800  26.004  28.209  1.00  0.00     0.031 C 
ATOM     55  C   UNL A   1      47.287  24.516  26.391  1.00  0.00     0.029 A 
ATOM     56  C   UNL A   1      47.033  25.909  26.745  1.00  0.00     0.049 A 
ATOM     57  H   UNL A   1      45.254  26.734  27.442  1.00  0.00     0.167 HD
ATOM     58  C   UNL A   1      41.362  28.380  28.629  1.00  0.00     0.037 A 
ATOM     59  C   UNL A   1      47.934  26.908  26.680  1.00  0.00     0.037 A 
ATOM     60  C   UNL A   1      42.281  29.486  28.695  1.00  0.00     0.049 A 
ATOM     61  C   UNL A   1      47.514  28.300  27.073  1.00  0.00     0.074 A 
ATOM     62  C   UNL A   1      42.040  30.782  29.115  1.00  0.00     0.029 A 
ATOM     63  N   UNL A   1      43.617  29.425  28.325  1.00  0.00    -0.354 N 
ATOM     64  N   UNL A   1      46.345  28.725  27.489  1.00  0.00    -0.248 NA
ATOM     65  C   UNL A   1      48.537  29.351  26.990  1.00  0.00     0.031 C 
ATOM     66  C   UNL A   1      43.214  31.521  28.944  1.00  0.00     0.029 A 
ATOM     67  C   UNL A   1      44.205  30.671  28.480  1.00  0.00     0.049 A 
ATOM     68  H   UNL A   1      44.078  28.619  28.000  1.00  0.00     0.167 HD
ATOM     69  C   UNL A   1      46.502  30.080  27.750  1.00  0.00     0.074 A 
ATOM     70  C   UNL A   1      47.882  30.405  27.453  1.00  0.00     0.031 C 
ATOM     71  C   UNL A   1      45.585  30.974  28.195  1.00  0.00     0.037 A 
BRANCH  58  72
ATOM     72  C   UNL A   1      39.925  28.625  28.989  1.00  0.00     0.064 A 
ATOM     73  C   UNL A   1      39.443  28.412  30.291  1.00  0.00     0.173 A 
ATOM     74  C   UNL A   1      39.026  29.115  28.030  1.00  0.00     0.173 A 
ATOM     75  F   UNL A   1      40.259  27.934  31.243  1.00  0.00    -0.203 F 
ATOM     76  C   UNL A   1      38.109  28.650  30.609  1.00  0.00     0.198 A 
ATOM     77  C   UNL A   1      37.700  29.385  28.362  1.00  0.00     0.198 A 
ATOM     78  F   UNL A   1      39.434  29.343  26.773  1.00  0.00    -0.203 F 
ATOM     79  F   UNL A   1      37.661  28.388  31.845  1.00  0.00    -0.200 F 
ATOM     80  C   UNL A   1      37.241  29.144  29.647  1.00  0.00     0.200 A 
ATOM     81  F   UNL A   1      36.867  29.878  27.435  1.00  0.00    -0.200 F 
ATOM     82  F   UNL A   1      35.960  29.382  29.958  1.00  0.00    -0.200 F 
ENDBRANCH  58  72
BRANCH  59  83
ATOM     83  C   UNL A   1      49.325  26.630  26.234  1.00  0.00     0.064 A 
ATOM     84  C   UNL A   1      50.286  26.148  27.134  1.00  0.00     0.173 A 
ATOM     85  C   UNL A   1      49.726  26.845  24.907  1.00  0.00     0.173 A 
ATOM     86  F   UNL A   1      49.958  25.945  28.419  1.00  0.00    -0.203 F 
ATOM     87  C   UNL A   1      51.600  25.917  26.730  1.00  0.00     0.198 A 
ATOM     88  C   UNL A   1      51.031  26.582  24.497  1.00  0.00     0.198 A 
ATOM     89  F   UNL A   1      48.844  27.300  24.005  1.00  0.00    -0.203 F 
ATOM     90  F   UNL A   1      52.510  25.507  27.624  1.00  0.00    -0.200 F 
ATOM     91  C   UNL A   1      51.970  26.128  25.411  1.00  0.00     0.200 A 
ATOM     92  F   UNL A   1      51.380  26.773  23.218  1.00  0.00    -0.200 F 
ATOM     93  F   UNL A   1      53.232  25.902  25.022  1.00  0.00    -0.200 F 
ENDBRANCH  59  83
BRANCH  71  94
ATOM     94  C   UNL A   1      46.049  32.381  28.438  1.00  0.00     0.064 A 
ATOM     95  C   UNL A   1      46.605  32.776  29.663  1.00  0.00     0.173 A 
ATOM     96  C   UNL A   1      45.994  33.330  27.405  1.00  0.00     0.173 A 
ATOM     97  F   UNL A   1      46.667  31.911  30.687  1.00  0.00    -0.203 F 
ATOM     98  C   UNL A   1      47.070  34.075  29.852  1.00  0.00     0.198 A 
ATOM     99  C   UNL A   1      46.490  34.618  27.587  1.00  0.00     0.198 A 
ATOM    100  F   UNL A   1      45.479  33.002  26.211  1.00  0.00    -0.203 F 
ATOM    101  F   UNL A   1      47.556  34.444  31.045  1.00  0.00    -0.200 F 
ATOM    102  C   UNL A   1      47.022  34.991  28.811  1.00  0.00     0.200 A 
ATOM    103  F   UNL A   1      46.459  35.496  26.574  1.00  0.00    -0.200 F 
ATOM    104  F   UNL A   1      47.484  36.236  28.991  1.00  0.00    -0.200 F 
ENDBRANCH  71  94
ENDBRANCH  45  46
ENDBRANCH  37  40
ENDBRANCH  35  36
ENDBRANCH  34  35
ENDBRANCH  33  34
ENDBRANCH   1  33
TORSDOF 19
ENDMDL
MODEL 2
REMARK VINA RESULT:     -12.1      4.992     10.779
REMARK SMILES COc1ccc(C[N@@H+]2C[C@@H](C(=O)NCCCCCCNC(=O)c3ccc(-c4c5nc(c(-c6c(F)c(F)c(F)c(F)c6F)c6ccc([nH]6)c(-c6c(F)c(F)c(F)c(F)c6F)c6nc(c(-c7c(F)c(F)c(F)c(F)c7F)c7ccc4[nH]7)C=C6)C=C5)cc3)[C@H](c3ccccc3OC)C2)c(OC)c1
REMARK SMILES IDX 16 1 15 2 14 3 13 4 11 5 12 6 10 8 8 9 9 10 95 11 86 13 7 14
REMARK SMILES IDX 6 15 3 16 4 17 99 18 5 19 96 20 2 21 1 22 97 23 98 24 87 25
REMARK SMILES IDX 88 26 92 27 89 28 91 29 90 30 93 31 94 32 17 33 18 34 19 35
REMARK SMILES IDX 20 36 21 37 22 39 23 40 24 41 85 42 25 43 84 44 26 45 27 46
REMARK SMILES IDX 28 47 78 48 29 49 83 50 77 51 79 52 30 53 82 54 76 55 75 56
REMARK SMILES IDX 31 58 63 59 43 60 62 61 44 62 47 63 61 64 80 65 45 66 46 67
REMARK SMILES IDX 60 69 81 70 48 71 32 72 33 73 41 74 34 75 35 76 39 77 42 78
REMARK SMILES IDX 36 79 37 80 40 81 38 82 64 83 65 84 73 85 66 86 67 87 71 88
REMARK SMILES IDX 74 89 68 90 69 91 72 92 70 93 49 94 50 95 58 96 51 97 52 98
REMARK SMILES IDX 56 99 59 100 53 101 54 102 57 103 55 104
REMARK H PARENT 13 7 8 12 20 38 79 57 47 68
REMARK Flexibility Score: inf
ROOT
ATOM      1  C   UNL A   1      30.044  30.449  24.365  1.00  0.00     0.002 C 
ENDROOT
BRANCH   1   2
ATOM      2  C   UNL A   1      30.389  29.577  23.152  1.00  0.00     0.021 C 
BRANCH   2   3
ATOM      3  C   UNL A   1      29.893  28.138  23.268  1.00  0.00     0.116 C 
BRANCH   3   4
ATOM      4  N   UNL A   1      30.545  27.275  22.301  1.00  0.00    -0.356 N 
ATOM      5  C   UNL A   1      31.369  26.205  22.456  1.00  0.00     0.229 C 
ATOM      6  O   UNL A   1      31.777  25.676  21.416  1.00  0.00    -0.275 OA
ATOM      7  H   UNL A   1      30.356  27.506  21.363  1.00  0.00     0.163 HD
BRANCH   5   8
ATOM      8  C   UNL A   1      31.696  25.587  23.803  1.00  0.00     0.146 C 
ATOM      9  N   UNL A   1      30.639  23.857  25.106  1.00  0.00    -0.330 N 
ATOM     10  C   UNL A   1      30.913  24.264  23.749  1.00  0.00     0.276 C 
ATOM     11  C   UNL A   1      31.171  24.885  25.990  1.00  0.00     0.272 C 
ATOM     12  H   UNL A   1      29.629  23.796  25.231  1.00  0.00     0.348 HD
ATOM     13  C   UNL A   1      31.387  26.216  25.187  1.00  0.00     0.096 C 
BRANCH   9  14
ATOM     14  C   UNL A   1      31.009  22.471  25.452  1.00  0.00     0.303 C 
BRANCH  14  15
ATOM     15  C   UNL A   1      32.489  22.099  25.533  1.00  0.00     0.048 A 
ATOM     16  C   UNL A   1      35.252  21.555  25.675  1.00  0.00     0.122 A 
ATOM     17  C   UNL A   1      34.716  22.586  26.431  1.00  0.00     0.047 A 
ATOM     18  C   UNL A   1      34.425  20.774  24.867  1.00  0.00     0.093 A 
ATOM     19  C   UNL A   1      33.356  22.876  26.331  1.00  0.00     0.017 A 
ATOM     20  C   UNL A   1      33.048  21.040  24.785  1.00  0.00     0.131 A 
BRANCH  16  21
ATOM     21  O   UNL A   1      36.593  21.315  25.807  1.00  0.00    -0.497 OA
ATOM     22  C   UNL A   1      37.294  21.520  24.580  1.00  0.00     0.278 C 
ENDBRANCH  16  21
BRANCH  20  23
ATOM     23  O   UNL A   1      32.178  20.330  23.996  1.00  0.00    -0.496 OA
ATOM     24  C   UNL A   1      32.564  19.010  23.629  1.00  0.00     0.278 C 
ENDBRANCH  20  23
ENDBRANCH  14  15
ENDBRANCH   9  14
BRANCH  13  25
ATOM     25  C   UNL A   1      32.382  27.174  25.912  1.00  0.00     0.004 A 
ATOM     26  C   UNL A   1      31.986  27.775  27.140  1.00  0.00     0.008 A 
ATOM     27  C   UNL A   1      33.590  27.687  25.387  1.00  0.00     0.122 A 
ATOM     28  C   UNL A   1      32.741  28.734  27.829  1.00  0.00     0.001 A 
ATOM     29  C   UNL A   1      34.375  28.620  26.107  1.00  0.00     0.047 A 
ATOM     30  C   UNL A   1      33.959  29.139  27.326  1.00  0.00     0.004 A 
BRANCH  27  31
ATOM     31  O   UNL A   1      33.986  27.626  24.077  1.00  0.00    -0.496 OA
ATOM     32  C   UNL A   1      33.849  28.818  23.337  1.00  0.00     0.278 C 
ENDBRANCH  27  31
ENDBRANCH  13  25
ENDBRANCH   5   8
ENDBRANCH   3   4
ENDBRANCH   2   3
ENDBRANCH   1   2
BRANCH   1  33
ATOM     33  C   UNL A   1      31.218  30.710  25.315  1.00  0.00     0.002 C 
BRANCH  33  34
ATOM     34  C   UNL A   1      31.031  31.915  26.237  1.00  0.00     0.021 C 
BRANCH  34  35
ATOM     35  C   UNL A   1      32.325  32.421  26.861  1.00  0.00     0.116 C 
BRANCH  35  36
ATOM     36  N   UNL A   1      32.198  33.793  27.328  1.00  0.00    -0.352 N 
ATOM     37  C   UNL A   1      32.927  34.440  28.291  1.00  0.00     0.251 C 
ATOM     38  H   UNL A   1      31.494  34.328  26.895  1.00  0.00     0.163 HD
ATOM     39  O   UNL A   1      32.561  35.526  28.734  1.00  0.00    -0.269 OA
BRANCH  37  40
ATOM     40  C   UNL A   1      34.152  33.804  28.809  1.00  0.00     0.039 A 
ATOM     41  C   UNL A   1      35.392  34.382  28.532  1.00  0.00     0.014 A 
ATOM     42  C   UNL A   1      34.064  32.653  29.598  1.00  0.00     0.014 A 
ATOM     43  C   UNL A   1      36.544  33.841  29.102  1.00  0.00     0.010 A 
ATOM     44  C   UNL A   1      35.201  32.165  30.228  1.00  0.00     0.010 A 
ATOM     45  C   UNL A   1      36.453  32.752  29.984  1.00  0.00    -0.014 A 
BRANCH  45  46
ATOM     46  C   UNL A   1      37.651  32.203  30.667  1.00  0.00     0.031 A 
ATOM     47  C   UNL A   1      38.438  31.099  30.022  1.00  0.00     0.074 A 
ATOM     48  C   UNL A   1      37.977  32.640  31.900  1.00  0.00     0.049 A 
ATOM     49  N   UNL A   1      39.441  30.406  30.499  1.00  0.00    -0.248 NA
ATOM     50  C   UNL A   1      38.022  30.696  28.668  1.00  0.00     0.031 C 
ATOM     51  C   UNL A   1      37.266  33.680  32.644  1.00  0.00     0.029 A 
ATOM     52  N   UNL A   1      38.980  32.249  32.750  1.00  0.00    -0.354 N 
ATOM     53  C   UNL A   1      39.762  29.481  29.516  1.00  0.00     0.074 A 
ATOM     54  C   UNL A   1      38.814  29.660  28.439  1.00  0.00     0.031 C 
ATOM     55  C   UNL A   1      37.864  33.855  33.833  1.00  0.00     0.029 A 
ATOM     56  C   UNL A   1      38.970  32.910  33.954  1.00  0.00     0.049 A 
ATOM     57  H   UNL A   1      39.645  31.561  32.520  1.00  0.00     0.167 HD
ATOM     58  C   UNL A   1      40.771  28.577  29.505  1.00  0.00     0.037 A 
ATOM     59  C   UNL A   1      39.752  32.758  35.040  1.00  0.00     0.037 A 
ATOM     60  C   UNL A   1      41.722  28.419  30.573  1.00  0.00     0.049 A 
ATOM     61  C   UNL A   1      40.851  31.727  35.013  1.00  0.00     0.074 A 
ATOM     62  C   UNL A   1      42.816  27.574  30.634  1.00  0.00     0.029 A 
ATOM     63  N   UNL A   1      41.688  29.119  31.771  1.00  0.00    -0.354 N 
ATOM     64  N   UNL A   1      41.188  30.903  34.051  1.00  0.00    -0.248 NA
ATOM     65  C   UNL A   1      41.679  31.608  36.221  1.00  0.00     0.031 C 
ATOM     66  C   UNL A   1      43.410  27.720  31.892  1.00  0.00     0.029 A 
ATOM     67  C   UNL A   1      42.726  28.702  32.589  1.00  0.00     0.049 A 
ATOM     68  H   UNL A   1      41.026  29.807  32.005  1.00  0.00     0.167 HD
ATOM     69  C   UNL A   1      42.285  30.195  34.522  1.00  0.00     0.074 A 
ATOM     70  C   UNL A   1      42.563  30.693  35.853  1.00  0.00     0.031 C 
ATOM     71  C   UNL A   1      42.998  29.220  33.907  1.00  0.00     0.037 A 
BRANCH  58  72
ATOM     72  C   UNL A   1      40.896  27.687  28.302  1.00  0.00     0.064 A 
ATOM     73  C   UNL A   1      40.241  26.447  28.230  1.00  0.00     0.173 A 
ATOM     74  C   UNL A   1      41.648  28.096  27.190  1.00  0.00     0.173 A 
ATOM     75  F   UNL A   1      39.516  26.005  29.269  1.00  0.00    -0.203 F 
ATOM     76  C   UNL A   1      40.362  25.637  27.104  1.00  0.00     0.198 A 
ATOM     77  C   UNL A   1      41.739  27.298  26.053  1.00  0.00     0.198 A 
ATOM     78  F   UNL A   1      42.289  29.274  27.202  1.00  0.00    -0.203 F 
ATOM     79  F   UNL A   1      39.771  24.434  27.080  1.00  0.00    -0.200 F 
ATOM     80  C   UNL A   1      41.103  26.067  26.014  1.00  0.00     0.200 A 
ATOM     81  F   UNL A   1      42.442  27.722  24.993  1.00  0.00    -0.200 F 
ATOM     82  F   UNL A   1      41.210  25.289  24.927  1.00  0.00    -0.200 F 
ENDBRANCH  58  72
BRANCH  59  83
ATOM     83  C   UNL A   1      39.533  33.606  36.241  1.00  0.00     0.064 A 
ATOM     84  C   UNL A   1      38.748  33.152  37.310  1.00  0.00     0.173 A 
ATOM     85  C   UNL A   1      40.093  34.888  36.344  1.00  0.00     0.173 A 
ATOM     86  F   UNL A   1      38.173  31.941  37.252  1.00  0.00    -0.203 F 
ATOM     87  C   UNL A   1      38.512  33.955  38.424  1.00  0.00     0.198 A 
ATOM     88  C   UNL A   1      39.884  35.678  37.472  1.00  0.00     0.198 A 
ATOM     89  F   UNL A   1      40.857  35.369  35.352  1.00  0.00    -0.203 F 
ATOM     90  F   UNL A   1      37.716  33.516  39.408  1.00  0.00    -0.200 F 
ATOM     91  C   UNL A   1      39.085  35.215  38.507  1.00  0.00     0.200 A 
ATOM     92  F   UNL A   1      40.452  36.888  37.556  1.00  0.00    -0.200 F 
ATOM     93  F   UNL A   1      38.862  35.987  39.580  1.00  0.00    -0.200 F 
ENDBRANCH  59  83
BRANCH  71  94
ATOM     94  C   UNL A   1      44.180  28.656  34.642  1.00  0.00     0.064 A 
ATOM     95  C   UNL A   1      45.445  29.256  34.581  1.00  0.00     0.173 A 
ATOM     96  C   UNL A   1      44.025  27.532  35.470  1.00  0.00     0.173 A 
ATOM     97  F   UNL A   1      45.650  30.323  33.793  1.00  0.00    -0.203 F 
ATOM     98  C   UNL A   1      46.517  28.742  35.306  1.00  0.00     0.198 A 
ATOM     99  C   UNL A   1      45.090  27.040  36.219  1.00  0.00     0.198 A 
ATOM    100  F   UNL A   1      42.834  26.924  35.569  1.00  0.00    -0.203 F 
ATOM    101  F   UNL A   1      47.728  29.305  35.199  1.00  0.00    -0.200 F 
ATOM    102  C   UNL A   1      46.337  27.642  36.132  1.00  0.00     0.200 A 
ATOM    103  F   UNL A   1      44.908  25.989  37.029  1.00  0.00    -0.200 F 
ATOM    104  F   UNL A   1      47.366  27.158  36.841  1.00  0.00    -0.200 F 
ENDBRANCH  71  94
ENDBRANCH  45  46
ENDBRANCH  37  40
ENDBRANCH  35  36
ENDBRANCH  34  35
ENDBRANCH  33  34
ENDBRANCH   1  33
TORSDOF 19
ENDMDL
MODEL 3
REMARK VINA RESULT:     -12.1      5.322     11.192
REMARK SMILES COc1ccc(C[N@@H+]2C[C@@H](C(=O)NCCCCCCNC(=O)c3ccc(-c4c5nc(c(-c6c(F)c(F)c(F)c(F)c6F)c6ccc([nH]6)c(-c6c(F)c(F)c(F)c(F)c6F)c6nc(c(-c7c(F)c(F)c(F)c(F)c7F)c7ccc4[nH]7)C=C6)C=C5)cc3)[C@H](c3ccccc3OC)C2)c(OC)c1
REMARK SMILES IDX 16 1 15 2 14 3 13 4 11 5 12 6 10 8 8 9 9 10 95 11 86 13 7 14
REMARK SMILES IDX 6 15 3 16 4 17 99 18 5 19 96 20 2 21 1 22 97 23 98 24 87 25
REMARK SMILES IDX 88 26 92 27 89 28 91 29 90 30 93 31 94 32 17 33 18 34 19 35
REMARK SMILES IDX 20 36 21 37 22 39 23 40 24 41 85 42 25 43 84 44 26 45 27 46
REMARK SMILES IDX 28 47 78 48 29 49 83 50 77 51 79 52 30 53 82 54 76 55 75 56
REMARK SMILES IDX 31 58 63 59 43 60 62 61 44 62 47 63 61 64 80 65 45 66 46 67
REMARK SMILES IDX 60 69 81 70 48 71 32 72 33 73 41 74 34 75 35 76 39 77 42 78
REMARK SMILES IDX 36 79 37 80 40 81 38 82 64 83 65 84 73 85 66 86 67 87 71 88
REMARK SMILES IDX 74 89 68 90 69 91 72 92 70 93 49 94 50 95 58 96 51 97 52 98
REMARK SMILES IDX 56 99 59 100 53 101 54 102 57 103 55 104
REMARK H PARENT 13 7 8 12 20 38 79 57 47 68
REMARK Flexibility Score: inf
ROOT
ATOM      1  C   UNL A   1      31.067  29.447  25.793  1.00  0.00     0.002 C 
ENDROOT
BRANCH   1   2
ATOM      2  C   UNL A   1      31.394  28.087  26.422  1.00  0.00     0.021 C 
BRANCH   2   3
ATOM      3  C   UNL A   1      30.661  26.917  25.770  1.00  0.00     0.116 C 
BRANCH   3   4
ATOM      4  N   UNL A   1      30.711  25.732  26.606  1.00  0.00    -0.356 N 
ATOM      5  C   UNL A   1      31.153  24.470  26.360  1.00  0.00     0.229 C 
ATOM      6  O   UNL A   1      31.051  23.665  27.291  1.00  0.00    -0.275 OA
ATOM      7  H   UNL A   1      30.361  25.867  27.516  1.00  0.00     0.163 HD
BRANCH   5   8
ATOM      8  C   UNL A   1      31.851  24.063  25.075  1.00  0.00     0.146 C 
ATOM      9  N   UNL A   1      32.960  22.035  24.391  1.00  0.00    -0.330 N 
ATOM     10  C   UNL A   1      31.862  22.528  25.187  1.00  0.00     0.276 C 
ATOM     11  C   UNL A   1      33.653  23.188  23.834  1.00  0.00     0.272 C 
ATOM     12  H   UNL A   1      33.598  21.520  24.998  1.00  0.00     0.348 HD
ATOM     13  C   UNL A   1      33.286  24.476  24.653  1.00  0.00     0.096 C 
BRANCH   9  14
ATOM     14  C   UNL A   1      32.630  20.968  23.427  1.00  0.00     0.303 C 
BRANCH  14  15
ATOM     15  C   UNL A   1      33.050  19.533  23.739  1.00  0.00     0.048 A 
ATOM     16  C   UNL A   1      33.683  16.848  24.326  1.00  0.00     0.122 A 
ATOM     17  C   UNL A   1      32.674  17.133  23.419  1.00  0.00     0.047 A 
ATOM     18  C   UNL A   1      34.399  17.884  24.927  1.00  0.00     0.093 A 
ATOM     19  C   UNL A   1      32.339  18.461  23.159  1.00  0.00     0.017 A 
ATOM     20  C   UNL A   1      34.088  19.226  24.646  1.00  0.00     0.131 A 
BRANCH  16  21
ATOM     21  O   UNL A   1      33.969  15.529  24.549  1.00  0.00    -0.497 OA
ATOM     22  C   UNL A   1      32.969  14.894  25.345  1.00  0.00     0.278 C 
ENDBRANCH  16  21
BRANCH  20  23
ATOM     23  O   UNL A   1      34.733  20.295  25.215  1.00  0.00    -0.496 OA
ATOM     24  C   UNL A   1      36.121  20.439  24.937  1.00  0.00     0.278 C 
ENDBRANCH  20  23
ENDBRANCH  14  15
ENDBRANCH   9  14
BRANCH  13  25
ATOM     25  C   UNL A   1      33.580  25.778  23.847  1.00  0.00     0.004 A 
ATOM     26  C   UNL A   1      33.938  26.960  24.555  1.00  0.00     0.008 A 
ATOM     27  C   UNL A   1      33.338  25.987  22.470  1.00  0.00     0.122 A 
ATOM     28  C   UNL A   1      34.118  28.214  23.957  1.00  0.00     0.001 A 
ATOM     29  C   UNL A   1      33.566  27.244  21.859  1.00  0.00     0.047 A 
ATOM     30  C   UNL A   1      33.961  28.353  22.595  1.00  0.00     0.004 A 
BRANCH  27  31
ATOM     31  O   UNL A   1      32.594  25.177  21.653  1.00  0.00    -0.496 OA
ATOM     32  C   UNL A   1      32.425  25.628  20.328  1.00  0.00     0.278 C 
ENDBRANCH  27  31
ENDBRANCH  13  25
ENDBRANCH   5   8
ENDBRANCH   3   4
ENDBRANCH   2   3
ENDBRANCH   1   2
BRANCH   1  33
ATOM     33  C   UNL A   1      32.182  30.491  25.919  1.00  0.00     0.002 C 
BRANCH  33  34
ATOM     34  C   UNL A   1      31.756  31.795  26.594  1.00  0.00     0.021 C 
BRANCH  34  35
ATOM     35  C   UNL A   1      32.887  32.512  27.320  1.00  0.00     0.116 C 
BRANCH  35  36
ATOM     36  N   UNL A   1      32.554  33.900  27.598  1.00  0.00    -0.352 N 
ATOM     37  C   UNL A   1      33.052  34.719  28.579  1.00  0.00     0.251 C 
ATOM     38  H   UNL A   1      31.882  34.305  27.004  1.00  0.00     0.163 HD
ATOM     39  O   UNL A   1      32.515  35.796  28.831  1.00  0.00    -0.269 OA
BRANCH  37  40
ATOM     40  C   UNL A   1      34.232  34.281  29.346  1.00  0.00     0.039 A 
ATOM     41  C   UNL A   1      34.052  33.675  30.590  1.00  0.00     0.014 A 
ATOM     42  C   UNL A   1      35.513  34.441  28.811  1.00  0.00     0.014 A 
ATOM     43  C   UNL A   1      35.158  33.170  31.274  1.00  0.00     0.010 A 
ATOM     44  C   UNL A   1      36.602  33.867  29.454  1.00  0.00     0.010 A 
ATOM     45  C   UNL A   1      36.436  33.228  30.694  1.00  0.00    -0.014 A 
BRANCH  45  46
ATOM     46  C   UNL A   1      37.620  32.631  31.360  1.00  0.00     0.031 A 
ATOM     47  C   UNL A   1      38.344  31.487  30.709  1.00  0.00     0.074 A 
ATOM     48  C   UNL A   1      37.987  33.061  32.582  1.00  0.00     0.049 A 
ATOM     49  N   UNL A   1      39.324  30.754  31.174  1.00  0.00    -0.248 NA
ATOM     50  C   UNL A   1      37.886  31.094  29.367  1.00  0.00     0.031 C 
ATOM     51  C   UNL A   1      37.338  34.137  33.331  1.00  0.00     0.029 A 
ATOM     52  N   UNL A   1      38.988  32.632  33.418  1.00  0.00    -0.354 N 
ATOM     53  C   UNL A   1      39.585  29.808  30.193  1.00  0.00     0.074 A 
ATOM     54  C   UNL A   1      38.627  30.022  29.131  1.00  0.00     0.031 C 
ATOM     55  C   UNL A   1      37.964  34.295  34.507  1.00  0.00     0.029 A 
ATOM     56  C   UNL A   1      39.029  33.301  34.617  1.00  0.00     0.049 A 
ATOM     57  H   UNL A   1      39.616  31.912  33.181  1.00  0.00     0.167 HD
ATOM     58  C   UNL A   1      40.552  28.860  30.171  1.00  0.00     0.037 A 
ATOM     59  C   UNL A   1      39.823  33.122  35.689  1.00  0.00     0.037 A 
ATOM     60  C   UNL A   1      41.515  28.666  31.223  1.00  0.00     0.049 A 
ATOM     61  C   UNL A   1      40.874  32.043  35.651  1.00  0.00     0.074 A 
ATOM     62  C   UNL A   1      42.570  27.773  31.271  1.00  0.00     0.029 A 
ATOM     63  N   UNL A   1      41.534  29.376  32.416  1.00  0.00    -0.354 N 
ATOM     64  N   UNL A   1      41.156  31.197  34.690  1.00  0.00    -0.248 NA
ATOM     65  C   UNL A   1      41.718  31.895  36.845  1.00  0.00     0.031 C 
ATOM     66  C   UNL A   1      43.193  27.901  32.517  1.00  0.00     0.029 A 
ATOM     67  C   UNL A   1      42.567  28.919  33.219  1.00  0.00     0.049 A 
ATOM     68  H   UNL A   1      40.907  30.095  32.656  1.00  0.00     0.167 HD
ATOM     69  C   UNL A   1      42.229  30.443  35.147  1.00  0.00     0.074 A 
ATOM     70  C   UNL A   1      42.552  30.938  36.469  1.00  0.00     0.031 C 
ATOM     71  C   UNL A   1      42.886  29.433  34.527  1.00  0.00     0.037 A 
BRANCH  58  72
ATOM     72  C   UNL A   1      40.614  27.956  28.973  1.00  0.00     0.064 A 
ATOM     73  C   UNL A   1      39.805  26.814  28.867  1.00  0.00     0.173 A 
ATOM     74  C   UNL A   1      41.467  28.256  27.900  1.00  0.00     0.173 A 
ATOM     75  F   UNL A   1      38.979  26.475  29.869  1.00  0.00    -0.203 F 
ATOM     76  C   UNL A   1      39.871  25.990  27.746  1.00  0.00     0.198 A 
ATOM     77  C   UNL A   1      41.505  27.449  26.766  1.00  0.00     0.198 A 
ATOM     78  F   UNL A   1      42.257  29.339  27.945  1.00  0.00    -0.203 F 
ATOM     79  F   UNL A   1      39.127  24.877  27.691  1.00  0.00    -0.200 F 
ATOM     80  C   UNL A   1      40.714  26.313  26.694  1.00  0.00     0.200 A 
ATOM     81  F   UNL A   1      42.308  27.772  25.743  1.00  0.00    -0.200 F 
ATOM     82  F   UNL A   1      40.769  25.524  25.611  1.00  0.00    -0.200 F 
ENDBRANCH  58  72
BRANCH  59  83
ATOM     83  C   UNL A   1      39.665  33.988  36.887  1.00  0.00     0.064 A 
ATOM     84  C   UNL A   1      40.300  35.236  36.962  1.00  0.00     0.173 A 
ATOM     85  C   UNL A   1      38.885  33.588  37.983  1.00  0.00     0.173 A 
ATOM     86  F   UNL A   1      41.073  35.655  35.949  1.00  0.00    -0.203 F 
ATOM     87  C   UNL A   1      40.182  36.038  38.096  1.00  0.00     0.198 A 
ATOM     88  C   UNL A   1      38.741  34.405  39.102  1.00  0.00     0.198 A 
ATOM     89  F   UNL A   1      38.252  32.406  37.961  1.00  0.00    -0.203 F 
ATOM     90  F   UNL A   1      40.843  37.202  38.161  1.00  0.00    -0.200 F 
ATOM     91  C   UNL A   1      39.399  35.625  39.162  1.00  0.00     0.200 A 
ATOM     92  F   UNL A   1      37.971  34.009  40.124  1.00  0.00    -0.200 F 
ATOM     93  F   UNL A   1      39.282  36.397  40.251  1.00  0.00    -0.200 F 
ENDBRANCH  59  83
BRANCH  71  94
ATOM     94  C   UNL A   1      44.054  28.821  35.245  1.00  0.00     0.064 A 
ATOM     95  C   UNL A   1      45.337  29.383  35.184  1.00  0.00     0.173 A 
ATOM     96  C   UNL A   1      43.869  27.692  36.059  1.00  0.00     0.173 A 
ATOM     97  F   UNL A   1      45.570  30.453  34.409  1.00  0.00    -0.203 F 
ATOM     98  C   UNL A   1      46.397  28.824  35.894  1.00  0.00     0.198 A 
ATOM     99  C   UNL A   1      44.924  27.156  36.793  1.00  0.00     0.198 A 
ATOM    100  F   UNL A   1      42.661  27.120  36.158  1.00  0.00    -0.203 F 
ATOM    101  F   UNL A   1      47.625  29.351  35.785  1.00  0.00    -0.200 F 
ATOM    102  C   UNL A   1      46.188  27.719  36.705  1.00  0.00     0.200 A 
ATOM    103  F   UNL A   1      44.714  26.099  37.590  1.00  0.00    -0.200 F 
ATOM    104  F   UNL A   1      47.206  27.193  37.400  1.00  0.00    -0.200 F 
ENDBRANCH  71  94
ENDBRANCH  45  46
ENDBRANCH  37  40
ENDBRANCH  35  36
ENDBRANCH  34  35
ENDBRANCH  33  34
ENDBRANCH   1  33
TORSDOF 19
ENDMDL
