MODEL 1
REMARK VINA RESULT:     -12.3      0.000      0.000
REMARK SMILES O=C(NCCCCCCNC(=O)c1c(F)cccc1NS(=O)(=O)C(F)(F)F)c1ccc(-c2c3nc(c(-c4c(F)c(F)c(F)c(F)c4F)c4ccc([nH]4)c(-c4c(F)c(F)c(F)c(F)c4F)c4nc(c(-c5c(F)c(F)c(F)c(F)c5F)c5ccc2[nH]5)C=C4)C=C3)cc1
REMARK SMILES IDX 7 1 6 2 5 3 4 4 3 5 1 6 2 7 28 9 29 10 90 11 30 12 89 13
REMARK SMILES IDX 31 14 32 15 33 16 83 17 34 18 88 19 82 20 84 21 35 22 87 23
REMARK SMILES IDX 81 24 80 25 36 27 68 28 48 29 67 30 49 31 52 32 66 33 85 34
REMARK SMILES IDX 50 35 51 36 65 38 86 39 53 40 37 41 38 42 46 43 39 44 40 45
REMARK SMILES IDX 44 46 47 47 41 48 42 49 45 50 43 51 69 52 70 53 78 54 71 55
REMARK SMILES IDX 72 56 76 57 79 58 73 59 74 60 77 61 75 62 54 63 55 64 63 65
REMARK SMILES IDX 56 66 57 67 61 68 64 69 58 70 59 71 62 72 60 73 8 74 9 75
REMARK SMILES IDX 10 76 11 77 12 79 13 80 14 81 19 82 15 83 16 84 18 85 17 86
REMARK SMILES IDX 20 87 21 89 22 90 23 91 24 92 25 93 26 94 27 95
REMARK H PARENT 3 8 84 26 52 37 10 78 20 88
REMARK Flexibility Score: inf
ROOT
ATOM      1  C   UNL A   1      32.270  29.731  27.045  1.00  0.00     0.002 C 
ENDROOT
BRANCH   1   2
ATOM      2  C   UNL A   1      31.538  30.785  26.209  1.00  0.00     0.002 C 
BRANCH   2   3
ATOM      3  C   UNL A   1      31.403  32.159  26.868  1.00  0.00     0.021 C 
BRANCH   3   4
ATOM      4  C   UNL A   1      32.725  32.874  27.125  1.00  0.00     0.116 C 
BRANCH   4   5
ATOM      5  N   UNL A   1      32.530  34.203  27.680  1.00  0.00    -0.352 N 
ATOM      6  O   UNL A   1      32.723  35.859  29.202  1.00  0.00    -0.269 OA
ATOM      7  C   UNL A   1      33.147  34.796  28.750  1.00  0.00     0.251 C 
ATOM      8  H   UNL A   1      31.859  34.758  27.220  1.00  0.00     0.163 HD
BRANCH   7   9
ATOM      9  C   UNL A   1      34.316  34.148  29.377  1.00  0.00     0.039 A 
ATOM     10  C   UNL A   1      34.151  33.206  30.398  1.00  0.00     0.014 A 
ATOM     11  C   UNL A   1      35.594  34.468  28.913  1.00  0.00     0.014 A 
ATOM     12  C   UNL A   1      35.268  32.669  31.032  1.00  0.00     0.010 A 
ATOM     13  C   UNL A   1      36.710  33.873  29.500  1.00  0.00     0.010 A 
ATOM     14  C   UNL A   1      36.556  32.983  30.576  1.00  0.00    -0.014 A 
BRANCH  14  15
ATOM     15  C   UNL A   1      37.744  32.326  31.173  1.00  0.00     0.031 A 
ATOM     16  C   UNL A   1      38.464  31.232  30.445  1.00  0.00     0.074 A 
ATOM     17  C   UNL A   1      38.139  32.695  32.405  1.00  0.00     0.049 A 
ATOM     18  N   UNL A   1      39.453  30.480  30.855  1.00  0.00    -0.248 NA
ATOM     19  C   UNL A   1      38.009  30.935  29.078  1.00  0.00     0.031 C 
ATOM     20  C   UNL A   1      37.514  33.749  33.205  1.00  0.00     0.029 A 
ATOM     21  N   UNL A   1      39.146  32.220  33.207  1.00  0.00    -0.354 N 
ATOM     22  C   UNL A   1      39.721  29.604  29.812  1.00  0.00     0.074 A 
ATOM     23  C   UNL A   1      38.779  29.904  28.756  1.00  0.00     0.031 C 
ATOM     24  C   UNL A   1      38.156  33.851  34.376  1.00  0.00     0.029 A 
ATOM     25  C   UNL A   1      39.192  32.825  34.438  1.00  0.00     0.049 A 
ATOM     26  H   UNL A   1      39.774  31.516  32.925  1.00  0.00     0.167 HD
ATOM     27  C   UNL A   1      40.671  28.641  29.751  1.00  0.00     0.037 A 
ATOM     28  C   UNL A   1      39.955  32.560  35.516  1.00  0.00     0.037 A 
ATOM     29  C   UNL A   1      41.609  28.365  30.808  1.00  0.00     0.049 A 
ATOM     30  C   UNL A   1      40.967  31.455  35.445  1.00  0.00     0.074 A 
ATOM     31  C   UNL A   1      42.651  27.454  30.816  1.00  0.00     0.029 A 
ATOM     32  N   UNL A   1      41.611  28.984  32.051  1.00  0.00    -0.354 N 
ATOM     33  N   UNL A   1      41.244  30.659  34.440  1.00  0.00    -0.248 NA
ATOM     34  C   UNL A   1      41.768  31.202  36.650  1.00  0.00     0.031 C 
ATOM     35  C   UNL A   1      43.233  27.468  32.085  1.00  0.00     0.029 A 
ATOM     36  C   UNL A   1      42.606  28.442  32.847  1.00  0.00     0.049 A 
ATOM     37  H   UNL A   1      40.995  29.701  32.325  1.00  0.00     0.167 HD
ATOM     38  C   UNL A   1      42.263  29.826  34.880  1.00  0.00     0.074 A 
ATOM     39  C   UNL A   1      42.558  30.213  36.246  1.00  0.00     0.031 C 
ATOM     40  C   UNL A   1      42.895  28.838  34.205  1.00  0.00     0.037 A 
BRANCH  27  41
ATOM     41  C   UNL A   1      40.730  27.786  28.516  1.00  0.00     0.064 A 
ATOM     42  C   UNL A   1      41.480  28.205  27.404  1.00  0.00     0.173 A 
ATOM     43  C   UNL A   1      40.007  26.591  28.403  1.00  0.00     0.173 A 
ATOM     44  F   UNL A   1      42.184  29.345  27.453  1.00  0.00    -0.203 F 
ATOM     45  C   UNL A   1      41.498  27.461  26.227  1.00  0.00     0.198 A 
ATOM     46  C   UNL A   1      40.053  25.832  27.236  1.00  0.00     0.198 A 
ATOM     47  F   UNL A   1      39.279  26.141  29.436  1.00  0.00    -0.203 F 
ATOM     48  F   UNL A   1      42.197  27.898  25.171  1.00  0.00    -0.200 F 
ATOM     49  C   UNL A   1      40.791  26.270  26.147  1.00  0.00     0.200 A 
ATOM     50  F   UNL A   1      39.391  24.668  27.168  1.00  0.00    -0.200 F 
ATOM     51  F   UNL A   1      40.826  25.545  25.021  1.00  0.00    -0.200 F 
ENDBRANCH  27  41
BRANCH  28  52
ATOM     52  C   UNL A   1      39.764  33.380  36.738  1.00  0.00     0.064 A 
ATOM     53  C   UNL A   1      38.840  33.006  37.726  1.00  0.00     0.173 A 
ATOM     54  C   UNL A   1      40.417  34.610  36.884  1.00  0.00     0.173 A 
ATOM     55  F   UNL A   1      38.181  31.842  37.622  1.00  0.00    -0.203 F 
ATOM     56  C   UNL A   1      38.544  33.853  38.791  1.00  0.00     0.198 A 
ATOM     57  C   UNL A   1      40.139  35.445  37.964  1.00  0.00     0.198 A 
ATOM     58  F   UNL A   1      41.317  35.003  35.972  1.00  0.00    -0.203 F 
ATOM     59  F   UNL A   1      37.611  33.500  39.686  1.00  0.00    -0.200 F 
ATOM     60  C   UNL A   1      39.193  35.073  38.908  1.00  0.00     0.200 A 
ATOM     61  F   UNL A   1      40.777  36.616  38.084  1.00  0.00    -0.200 F 
ATOM     62  F   UNL A   1      38.899  35.894  39.926  1.00  0.00    -0.200 F 
ENDBRANCH  28  52
BRANCH  40  63
ATOM     63  C   UNL A   1      44.000  28.098  34.902  1.00  0.00     0.064 A 
ATOM     64  C   UNL A   1      45.320  28.567  34.820  1.00  0.00     0.173 A 
ATOM     65  C   UNL A   1      43.777  26.860  35.518  1.00  0.00     0.173 A 
ATOM     66  F   UNL A   1      45.584  29.744  34.232  1.00  0.00    -0.203 F 
ATOM     67  C   UNL A   1      46.382  27.803  35.294  1.00  0.00     0.198 A 
ATOM     68  C   UNL A   1      44.839  26.111  36.017  1.00  0.00     0.198 A 
ATOM     69  F   UNL A   1      42.531  26.377  35.633  1.00  0.00    -0.203 F 
ATOM     70  F   UNL A   1      47.639  28.244  35.150  1.00  0.00    -0.200 F 
ATOM     71  C   UNL A   1      46.142  26.574  35.889  1.00  0.00     0.200 A 
ATOM     72  F   UNL A   1      44.607  24.931  36.609  1.00  0.00    -0.200 F 
ATOM     73  F   UNL A   1      47.166  25.831  36.332  1.00  0.00    -0.200 F 
ENDBRANCH  40  63
ENDBRANCH  14  15
ENDBRANCH   7   9
ENDBRANCH   4   5
ENDBRANCH   3   4
ENDBRANCH   2   3
ENDBRANCH   1   2
BRANCH   1  74
ATOM     74  C   UNL A   1      31.407  28.553  27.510  1.00  0.00     0.021 C 
BRANCH  74  75
ATOM     75  C   UNL A   1      31.836  27.194  26.961  1.00  0.00     0.116 C 
BRANCH  75  76
ATOM     76  N   UNL A   1      30.756  26.554  26.231  1.00  0.00    -0.352 N 
ATOM     77  C   UNL A   1      30.502  26.581  24.885  1.00  0.00     0.256 C 
ATOM     78  H   UNL A   1      30.125  26.030  26.774  1.00  0.00     0.163 HD
ATOM     79  O   UNL A   1      29.413  26.217  24.451  1.00  0.00    -0.269 OA
BRANCH  77  80
ATOM     80  C   UNL A   1      31.491  27.143  23.953  1.00  0.00     0.099 A 
ATOM     81  C   UNL A   1      32.634  26.391  23.656  1.00  0.00     0.138 A 
ATOM     82  C   UNL A   1      31.306  28.422  23.394  1.00  0.00     0.065 A 
ATOM     83  F   UNL A   1      32.806  25.164  24.169  1.00  0.00    -0.206 F 
ATOM     84  C   UNL A   1      33.651  26.921  22.875  1.00  0.00     0.040 A 
ATOM     85  C   UNL A   1      32.360  28.953  22.642  1.00  0.00     0.028 A 
ATOM     86  C   UNL A   1      33.518  28.210  22.375  1.00  0.00     0.005 A 
BRANCH  82  87
ATOM     87  N   UNL A   1      30.204  29.264  23.815  1.00  0.00    -0.275 N 
ATOM     88  H   UNL A   1      30.189  29.601  24.740  1.00  0.00     0.180 HD
BRANCH  87  89
ATOM     89  S   UNL A   1      28.935  29.689  22.759  1.00  0.00     0.333 S 
ATOM     90  O   UNL A   1      29.521  29.799  21.436  1.00  0.00    -0.197 OA
ATOM     91  O   UNL A   1      27.940  28.656  23.003  1.00  0.00    -0.197 OA
BRANCH  89  92
ATOM     92  C   UNL A   1      28.238  31.332  23.296  1.00  0.00     0.516 C 
ATOM     93  F   UNL A   1      27.271  31.201  24.251  1.00  0.00    -0.155 F 
ATOM     94  F   UNL A   1      29.199  32.147  23.825  1.00  0.00    -0.155 F 
ATOM     95  F   UNL A   1      27.677  32.023  22.264  1.00  0.00    -0.155 F 
ENDBRANCH  89  92
ENDBRANCH  87  89
ENDBRANCH  82  87
ENDBRANCH  77  80
ENDBRANCH  75  76
ENDBRANCH  74  75
ENDBRANCH   1  74
TORSDOF 16
ENDMDL
MODEL 2
REMARK VINA RESULT:     -12.2      0.708      1.781
REMARK SMILES O=C(NCCCCCCNC(=O)c1c(F)cccc1NS(=O)(=O)C(F)(F)F)c1ccc(-c2c3nc(c(-c4c(F)c(F)c(F)c(F)c4F)c4ccc([nH]4)c(-c4c(F)c(F)c(F)c(F)c4F)c4nc(c(-c5c(F)c(F)c(F)c(F)c5F)c5ccc2[nH]5)C=C4)C=C3)cc1
REMARK SMILES IDX 7 1 6 2 5 3 4 4 3 5 1 6 2 7 28 9 29 10 90 11 30 12 89 13
REMARK SMILES IDX 31 14 32 15 33 16 83 17 34 18 88 19 82 20 84 21 35 22 87 23
REMARK SMILES IDX 81 24 80 25 36 27 68 28 48 29 67 30 49 31 52 32 66 33 85 34
REMARK SMILES IDX 50 35 51 36 65 38 86 39 53 40 37 41 38 42 46 43 39 44 40 45
REMARK SMILES IDX 44 46 47 47 41 48 42 49 45 50 43 51 69 52 70 53 78 54 71 55
REMARK SMILES IDX 72 56 76 57 79 58 73 59 74 60 77 61 75 62 54 63 55 64 63 65
REMARK SMILES IDX 56 66 57 67 61 68 64 69 58 70 59 71 62 72 60 73 8 74 9 75
REMARK SMILES IDX 10 76 11 77 12 79 13 80 14 81 19 82 15 83 16 84 18 85 17 86
REMARK SMILES IDX 20 87 21 89 22 90 23 91 24 92 25 93 26 94 27 95
REMARK H PARENT 3 8 84 26 52 37 10 78 20 88
REMARK Flexibility Score: inf
ROOT
ATOM      1  C   UNL A   1      32.310  29.705  26.967  1.00  0.00     0.002 C 
ENDROOT
BRANCH   1   2
ATOM      2  C   UNL A   1      31.573  30.770  26.149  1.00  0.00     0.002 C 
BRANCH   2   3
ATOM      3  C   UNL A   1      31.405  32.122  26.843  1.00  0.00     0.021 C 
BRANCH   3   4
ATOM      4  C   UNL A   1      32.712  32.844  27.153  1.00  0.00     0.116 C 
BRANCH   4   5
ATOM      5  N   UNL A   1      32.490  34.200  27.628  1.00  0.00    -0.352 N 
ATOM      6  O   UNL A   1      32.620  35.936  29.064  1.00  0.00    -0.269 OA
ATOM      7  C   UNL A   1      33.067  34.854  28.685  1.00  0.00     0.251 C 
ATOM      8  H   UNL A   1      31.831  34.723  27.118  1.00  0.00     0.163 HD
BRANCH   7   9
ATOM      9  C   UNL A   1      34.218  34.252  29.385  1.00  0.00     0.039 A 
ATOM     10  C   UNL A   1      34.030  33.449  30.514  1.00  0.00     0.014 A 
ATOM     11  C   UNL A   1      35.503  34.470  28.881  1.00  0.00     0.014 A 
ATOM     12  C   UNL A   1      35.133  32.958  31.207  1.00  0.00     0.010 A 
ATOM     13  C   UNL A   1      36.603  33.915  29.534  1.00  0.00     0.010 A 
ATOM     14  C   UNL A   1      36.428  33.171  30.712  1.00  0.00    -0.014 A 
BRANCH  14  15
ATOM     15  C   UNL A   1      37.597  32.554  31.383  1.00  0.00     0.031 A 
ATOM     16  C   UNL A   1      38.319  31.397  30.760  1.00  0.00     0.074 A 
ATOM     17  C   UNL A   1      37.975  33.020  32.588  1.00  0.00     0.049 A 
ATOM     18  N   UNL A   1      39.293  30.673  31.249  1.00  0.00    -0.248 NA
ATOM     19  C   UNL A   1      37.885  30.993  29.415  1.00  0.00     0.031 C 
ATOM     20  C   UNL A   1      37.347  34.141  33.288  1.00  0.00     0.029 A 
ATOM     21  N   UNL A   1      38.962  32.603  33.445  1.00  0.00    -0.354 N 
ATOM     22  C   UNL A   1      39.569  29.712  30.287  1.00  0.00     0.074 A 
ATOM     23  C   UNL A   1      38.649  29.933  29.192  1.00  0.00     0.031 C 
ATOM     24  C   UNL A   1      37.969  34.333  34.458  1.00  0.00     0.029 A 
ATOM     25  C   UNL A   1      38.993  33.306  34.623  1.00  0.00     0.049 A 
ATOM     26  H   UNL A   1      39.588  31.872  33.233  1.00  0.00     0.167 HD
ATOM     27  C   UNL A   1      40.510  28.738  30.322  1.00  0.00     0.037 A 
ATOM     28  C   UNL A   1      39.734  33.123  35.732  1.00  0.00     0.037 A 
ATOM     29  C   UNL A   1      41.427  28.542  31.415  1.00  0.00     0.049 A 
ATOM     30  C   UNL A   1      40.735  32.007  35.771  1.00  0.00     0.074 A 
ATOM     31  C   UNL A   1      42.459  27.625  31.517  1.00  0.00     0.029 A 
ATOM     32  N   UNL A   1      41.413  29.260  32.603  1.00  0.00    -0.354 N 
ATOM     33  N   UNL A   1      41.021  31.129  34.840  1.00  0.00    -0.248 NA
ATOM     34  C   UNL A   1      41.512  31.847  37.007  1.00  0.00     0.031 C 
ATOM     35  C   UNL A   1      43.018  27.737  32.792  1.00  0.00     0.029 A 
ATOM     36  C   UNL A   1      42.388  28.776  33.459  1.00  0.00     0.049 A 
ATOM     37  H   UNL A   1      40.799  30.003  32.806  1.00  0.00     0.167 HD
ATOM     38  C   UNL A   1      42.023  30.326  35.366  1.00  0.00     0.074 A 
ATOM     39  C   UNL A   1      42.298  30.821  36.700  1.00  0.00     0.031 C 
ATOM     40  C   UNL A   1      42.657  29.280  34.785  1.00  0.00     0.037 A 
BRANCH  27  41
ATOM     41  C   UNL A   1      40.582  27.785  29.163  1.00  0.00     0.064 A 
ATOM     42  C   UNL A   1      41.457  28.039  28.093  1.00  0.00     0.173 A 
ATOM     43  C   UNL A   1      39.753  26.657  29.074  1.00  0.00     0.173 A 
ATOM     44  F   UNL A   1      42.266  29.109  28.120  1.00  0.00    -0.203 F 
ATOM     45  C   UNL A   1      41.495  27.204  26.980  1.00  0.00     0.198 A 
ATOM     46  C   UNL A   1      39.817  25.805  27.974  1.00  0.00     0.198 A 
ATOM     47  F   UNL A   1      38.904  26.363  30.069  1.00  0.00    -0.203 F 
ATOM     48  F   UNL A   1      42.317  27.486  25.959  1.00  0.00    -0.200 F 
ATOM     49  C   UNL A   1      40.680  26.083  26.924  1.00  0.00     0.200 A 
ATOM     50  F   UNL A   1      39.049  24.707  27.933  1.00  0.00    -0.200 F 
ATOM     51  F   UNL A   1      40.732  25.269  25.862  1.00  0.00    -0.200 F 
ENDBRANCH  27  41
BRANCH  28  52
ATOM     52  C   UNL A   1      39.530  34.043  36.879  1.00  0.00     0.064 A 
ATOM     53  C   UNL A   1      40.225  35.259  36.968  1.00  0.00     0.173 A 
ATOM     54  C   UNL A   1      38.726  33.669  37.963  1.00  0.00     0.173 A 
ATOM     55  F   UNL A   1      41.018  35.652  35.959  1.00  0.00    -0.203 F 
ATOM     56  C   UNL A   1      40.157  36.044  38.115  1.00  0.00     0.198 A 
ATOM     57  C   UNL A   1      38.638  34.469  39.100  1.00  0.00     0.198 A 
ATOM     58  F   UNL A   1      38.033  32.523  37.918  1.00  0.00    -0.203 F 
ATOM     59  F   UNL A   1      40.882  37.169  38.199  1.00  0.00    -0.200 F 
ATOM     60  C   UNL A   1      39.365  35.648  39.181  1.00  0.00     0.200 A 
ATOM     61  F   UNL A   1      37.861  34.092  40.124  1.00  0.00    -0.200 F 
ATOM     62  F   UNL A   1      39.310  36.397  40.291  1.00  0.00    -0.200 F 
ENDBRANCH  28  52
BRANCH  40  63
ATOM     63  C   UNL A   1      43.741  28.590  35.561  1.00  0.00     0.064 A 
ATOM     64  C   UNL A   1      43.417  27.562  36.461  1.00  0.00     0.173 A 
ATOM     65  C   UNL A   1      45.067  29.040  35.525  1.00  0.00     0.173 A 
ATOM     66  F   UNL A   1      42.159  27.102  36.536  1.00  0.00    -0.203 F 
ATOM     67  C   UNL A   1      44.373  27.039  37.325  1.00  0.00     0.198 A 
ATOM     68  C   UNL A   1      46.028  28.495  36.373  1.00  0.00     0.198 A 
ATOM     69  F   UNL A   1      45.428  30.010  34.672  1.00  0.00    -0.203 F 
ATOM     70  F   UNL A   1      44.026  26.102  38.218  1.00  0.00    -0.200 F 
ATOM     71  C   UNL A   1      45.677  27.508  37.284  1.00  0.00     0.200 A 
ATOM     72  F   UNL A   1      47.294  28.934  36.320  1.00  0.00    -0.200 F 
ATOM     73  F   UNL A   1      46.595  27.015  38.127  1.00  0.00    -0.200 F 
ENDBRANCH  40  63
ENDBRANCH  14  15
ENDBRANCH   7   9
ENDBRANCH   4   5
ENDBRANCH   3   4
ENDBRANCH   2   3
ENDBRANCH   1   2
BRANCH   1  74
ATOM     74  C   UNL A   1      31.442  28.540  27.454  1.00  0.00     0.021 C 
BRANCH  74  75
ATOM     75  C   UNL A   1      31.897  27.163  26.975  1.00  0.00     0.116 C 
BRANCH  75  76
ATOM     76  N   UNL A   1      30.834  26.472  26.266  1.00  0.00    -0.352 N 
ATOM     77  C   UNL A   1      30.560  26.475  24.923  1.00  0.00     0.256 C 
ATOM     78  H   UNL A   1      30.232  25.928  26.823  1.00  0.00     0.163 HD
ATOM     79  O   UNL A   1      29.481  26.062  24.509  1.00  0.00    -0.269 OA
BRANCH  77  80
ATOM     80  C   UNL A   1      31.513  27.067  23.973  1.00  0.00     0.099 A 
ATOM     81  C   UNL A   1      32.667  26.346  23.645  1.00  0.00     0.138 A 
ATOM     82  C   UNL A   1      31.281  28.344  23.424  1.00  0.00     0.065 A 
ATOM     83  F   UNL A   1      32.883  25.122  24.148  1.00  0.00    -0.206 F 
ATOM     84  C   UNL A   1      33.652  26.907  22.844  1.00  0.00     0.040 A 
ATOM     85  C   UNL A   1      32.303  28.905  22.652  1.00  0.00     0.028 A 
ATOM     86  C   UNL A   1      33.473  28.194  22.354  1.00  0.00     0.005 A 
BRANCH  82  87
ATOM     87  N   UNL A   1      30.168  29.154  23.875  1.00  0.00    -0.275 N 
ATOM     88  H   UNL A   1      30.136  29.438  24.817  1.00  0.00     0.180 HD
BRANCH  87  89
ATOM     89  S   UNL A   1      28.912  29.631  22.825  1.00  0.00     0.333 S 
ATOM     90  O   UNL A   1      29.499  29.729  21.502  1.00  0.00    -0.197 OA
ATOM     91  O   UNL A   1      27.881  28.632  23.065  1.00  0.00    -0.197 OA
BRANCH  89  92
ATOM     92  C   UNL A   1      28.274  31.294  23.375  1.00  0.00     0.516 C 
ATOM     93  F   UNL A   1      27.992  32.117  22.324  1.00  0.00    -0.155 F 
ATOM     94  F   UNL A   1      27.124  31.184  24.104  1.00  0.00    -0.155 F 
ATOM     95  F   UNL A   1      29.165  31.958  24.164  1.00  0.00    -0.155 F 
ENDBRANCH  89  92
ENDBRANCH  87  89
ENDBRANCH  82  87
ENDBRANCH  77  80
ENDBRANCH  75  76
ENDBRANCH  74  75
ENDBRANCH   1  74
TORSDOF 16
ENDMDL
MODEL 3
REMARK VINA RESULT:     -12.1      6.408     11.523
REMARK SMILES O=C(NCCCCCCNC(=O)c1c(F)cccc1NS(=O)(=O)C(F)(F)F)c1ccc(-c2c3nc(c(-c4c(F)c(F)c(F)c(F)c4F)c4ccc([nH]4)c(-c4c(F)c(F)c(F)c(F)c4F)c4nc(c(-c5c(F)c(F)c(F)c(F)c5F)c5ccc2[nH]5)C=C4)C=C3)cc1
REMARK SMILES IDX 7 1 6 2 5 3 4 4 3 5 1 6 2 7 28 9 29 10 90 11 30 12 89 13
REMARK SMILES IDX 31 14 32 15 33 16 83 17 34 18 88 19 82 20 84 21 35 22 87 23
REMARK SMILES IDX 81 24 80 25 36 27 68 28 48 29 67 30 49 31 52 32 66 33 85 34
REMARK SMILES IDX 50 35 51 36 65 38 86 39 53 40 37 41 38 42 46 43 39 44 40 45
REMARK SMILES IDX 44 46 47 47 41 48 42 49 45 50 43 51 69 52 70 53 78 54 71 55
REMARK SMILES IDX 72 56 76 57 79 58 73 59 74 60 77 61 75 62 54 63 55 64 63 65
REMARK SMILES IDX 56 66 57 67 61 68 64 69 58 70 59 71 62 72 60 73 8 74 9 75
REMARK SMILES IDX 10 76 11 77 12 79 13 80 14 81 19 82 15 83 16 84 18 85 17 86
REMARK SMILES IDX 20 87 21 89 22 90 23 91 24 92 25 93 26 94 27 95
REMARK H PARENT 3 8 84 26 52 37 10 78 20 88
REMARK Flexibility Score: inf
ROOT
ATOM      1  C   UNL A   1      37.752  22.079  25.198  1.00  0.00     0.002 C 
ENDROOT
BRANCH   1   2
ATOM      2  C   UNL A   1      37.366  20.707  24.637  1.00  0.00     0.002 C 
BRANCH   2   3
ATOM      3  C   UNL A   1      38.333  19.572  24.973  1.00  0.00     0.021 C 
BRANCH   3   4
ATOM      4  C   UNL A   1      39.388  19.922  26.016  1.00  0.00     0.116 C 
BRANCH   4   5
ATOM      5  N   UNL A   1      40.554  19.060  25.928  1.00  0.00    -0.352 N 
ATOM      6  O   UNL A   1      42.742  18.556  25.697  1.00  0.00    -0.269 OA
ATOM      7  C   UNL A   1      41.884  19.389  25.982  1.00  0.00     0.251 C 
ATOM      8  H   UNL A   1      40.362  18.101  25.813  1.00  0.00     0.163 HD
BRANCH   7   9
ATOM      9  C   UNL A   1      42.288  20.755  26.367  1.00  0.00     0.039 A 
ATOM     10  C   UNL A   1      42.507  21.087  27.708  1.00  0.00     0.014 A 
ATOM     11  C   UNL A   1      42.480  21.710  25.365  1.00  0.00     0.014 A 
ATOM     12  C   UNL A   1      42.807  22.400  28.058  1.00  0.00     0.010 A 
ATOM     13  C   UNL A   1      42.853  23.008  25.712  1.00  0.00     0.010 A 
ATOM     14  C   UNL A   1      43.002  23.367  27.061  1.00  0.00    -0.014 A 
BRANCH  14  15
ATOM     15  C   UNL A   1      43.433  24.739  27.422  1.00  0.00     0.031 A 
ATOM     16  C   UNL A   1      42.456  25.729  27.982  1.00  0.00     0.074 A 
ATOM     17  C   UNL A   1      44.709  25.100  27.194  1.00  0.00     0.049 A 
ATOM     18  N   UNL A   1      42.632  26.996  28.259  1.00  0.00    -0.248 NA
ATOM     19  C   UNL A   1      41.100  25.235  28.262  1.00  0.00     0.031 C 
ATOM     20  C   UNL A   1      45.745  24.220  26.654  1.00  0.00     0.029 A 
ATOM     21  N   UNL A   1      45.350  26.301  27.371  1.00  0.00    -0.354 N 
ATOM     22  C   UNL A   1      41.406  27.458  28.716  1.00  0.00     0.074 A 
ATOM     23  C   UNL A   1      40.488  26.340  28.665  1.00  0.00     0.031 C 
ATOM     24  C   UNL A   1      46.894  24.902  26.556  1.00  0.00     0.029 A 
ATOM     25  C   UNL A   1      46.658  26.285  26.958  1.00  0.00     0.049 A 
ATOM     26  H   UNL A   1      44.913  27.094  27.758  1.00  0.00     0.167 HD
ATOM     27  C   UNL A   1      41.086  28.703  29.142  1.00  0.00     0.037 A 
ATOM     28  C   UNL A   1      47.562  27.280  26.873  1.00  0.00     0.037 A 
ATOM     29  C   UNL A   1      42.017  29.800  29.199  1.00  0.00     0.049 A 
ATOM     30  C   UNL A   1      47.172  28.664  27.301  1.00  0.00     0.074 A 
ATOM     31  C   UNL A   1      41.807  31.082  29.675  1.00  0.00     0.029 A 
ATOM     32  N   UNL A   1      43.331  29.751  28.750  1.00  0.00    -0.354 N 
ATOM     33  N   UNL A   1      46.023  29.083  27.773  1.00  0.00    -0.248 NA
ATOM     34  C   UNL A   1      48.193  29.714  27.181  1.00  0.00     0.031 C 
ATOM     35  C   UNL A   1      42.965  31.828  29.446  1.00  0.00     0.029 A 
ATOM     36  C   UNL A   1      43.926  30.993  28.898  1.00  0.00     0.049 A 
ATOM     37  H   UNL A   1      43.772  28.952  28.381  1.00  0.00     0.167 HD
ATOM     38  C   UNL A   1      46.185  30.438  28.028  1.00  0.00     0.074 A 
ATOM     39  C   UNL A   1      47.546  30.772  27.658  1.00  0.00     0.031 C 
ATOM     40  C   UNL A   1      45.284  31.315  28.530  1.00  0.00     0.037 A 
BRANCH  27  41
ATOM     41  C   UNL A   1      39.664  28.965  29.550  1.00  0.00     0.064 A 
ATOM     42  C   UNL A   1      39.248  28.703  30.866  1.00  0.00     0.173 A 
ATOM     43  C   UNL A   1      38.699  29.416  28.638  1.00  0.00     0.173 A 
ATOM     44  F   UNL A   1      40.127  28.261  31.778  1.00  0.00    -0.203 F 
ATOM     45  C   UNL A   1      37.921  28.879  31.250  1.00  0.00     0.198 A 
ATOM     46  C   UNL A   1      37.379  29.622  29.034  1.00  0.00     0.198 A 
ATOM     47  F   UNL A   1      39.041  29.687  27.370  1.00  0.00    -0.203 F 
ATOM     48  F   UNL A   1      37.544  28.592  32.504  1.00  0.00    -0.200 F 
ATOM     49  C   UNL A   1      36.989  29.345  30.335  1.00  0.00     0.200 A 
ATOM     50  F   UNL A   1      36.485  30.098  28.156  1.00  0.00    -0.200 F 
ATOM     51  F   UNL A   1      35.717  29.533  30.711  1.00  0.00    -0.200 F 
ENDBRANCH  27  41
BRANCH  28  52
ATOM     52  C   UNL A   1      48.917  26.964  26.359  1.00  0.00     0.064 A 
ATOM     53  C   UNL A   1      49.232  27.117  24.999  1.00  0.00     0.173 A 
ATOM     54  C   UNL A   1      49.886  26.394  27.194  1.00  0.00     0.173 A 
ATOM     55  F   UNL A   1      48.331  27.647  24.158  1.00  0.00    -0.203 F 
ATOM     56  C   UNL A   1      50.448  26.671  24.488  1.00  0.00     0.198 A 
ATOM     57  C   UNL A   1      51.112  25.972  26.686  1.00  0.00     0.198 A 
ATOM     58  F   UNL A   1      49.635  26.240  28.502  1.00  0.00    -0.203 F 
ATOM     59  F   UNL A   1      50.698  26.771  23.175  1.00  0.00    -0.200 F 
ATOM     60  C   UNL A   1      51.386  26.097  25.332  1.00  0.00     0.200 A 
ATOM     61  F   UNL A   1      52.024  25.430  27.505  1.00  0.00    -0.200 F 
ATOM     62  F   UNL A   1      52.551  25.655  24.837  1.00  0.00    -0.200 F 
ENDBRANCH  28  52
BRANCH  40  63
ATOM     63  C   UNL A   1      45.722  32.735  28.745  1.00  0.00     0.064 A 
ATOM     64  C   UNL A   1      45.571  33.681  27.719  1.00  0.00     0.173 A 
ATOM     65  C   UNL A   1      46.420  33.119  29.897  1.00  0.00     0.173 A 
ATOM     66  F   UNL A   1      44.916  33.357  26.593  1.00  0.00    -0.203 F 
ATOM     67  C   UNL A   1      46.136  34.947  27.822  1.00  0.00     0.198 A 
ATOM     68  C   UNL A   1      46.962  34.397  30.010  1.00  0.00     0.198 A 
ATOM     69  F   UNL A   1      46.579  32.255  30.910  1.00  0.00    -0.203 F 
ATOM     70  F   UNL A   1      46.030  35.812  26.805  1.00  0.00    -0.200 F 
ATOM     71  C   UNL A   1      46.835  35.304  28.966  1.00  0.00     0.200 A 
ATOM     72  F   UNL A   1      47.621  34.749  31.122  1.00  0.00    -0.200 F 
ATOM     73  F   UNL A   1      47.393  36.519  29.060  1.00  0.00    -0.200 F 
ENDBRANCH  40  63
ENDBRANCH  14  15
ENDBRANCH   7   9
ENDBRANCH   4   5
ENDBRANCH   3   4
ENDBRANCH   2   3
ENDBRANCH   1   2
BRANCH   1  74
ATOM     74  C   UNL A   1      36.756  23.207  24.908  1.00  0.00     0.021 C 
BRANCH  74  75
ATOM     75  C   UNL A   1      35.920  23.642  26.110  1.00  0.00     0.116 C 
BRANCH  75  76
ATOM     76  N   UNL A   1      35.355  22.497  26.803  1.00  0.00    -0.352 N 
ATOM     77  C   UNL A   1      34.116  21.931  26.648  1.00  0.00     0.256 C 
ATOM     78  H   UNL A   1      35.939  22.071  27.471  1.00  0.00     0.163 HD
ATOM     79  O   UNL A   1      33.686  21.141  27.484  1.00  0.00    -0.269 OA
BRANCH  77  80
ATOM     80  C   UNL A   1      33.247  22.340  25.535  1.00  0.00     0.099 A 
ATOM     81  C   UNL A   1      32.468  23.494  25.682  1.00  0.00     0.138 A 
ATOM     82  C   UNL A   1      33.179  21.571  24.357  1.00  0.00     0.065 A 
ATOM     83  F   UNL A   1      32.544  24.241  26.793  1.00  0.00    -0.206 F 
ATOM     84  C   UNL A   1      31.548  23.859  24.710  1.00  0.00     0.040 A 
ATOM     85  C   UNL A   1      32.218  21.934  23.408  1.00  0.00     0.028 A 
ATOM     86  C   UNL A   1      31.415  23.071  23.575  1.00  0.00     0.005 A 
BRANCH  82  87
ATOM     87  N   UNL A   1      33.866  20.299  24.261  1.00  0.00    -0.275 N 
ATOM     88  H   UNL A   1      34.850  20.290  24.224  1.00  0.00     0.180 HD
BRANCH  87  89
ATOM     89  S   UNL A   1      33.024  18.816  24.210  1.00  0.00     0.333 S 
ATOM     90  O   UNL A   1      32.222  18.759  25.419  1.00  0.00    -0.197 OA
ATOM     91  O   UNL A   1      32.349  18.862  22.921  1.00  0.00    -0.197 OA
BRANCH  89  92
ATOM     92  C   UNL A   1      34.265  17.426  24.190  1.00  0.00     0.516 C 
ATOM     93  F   UNL A   1      34.001  16.479  25.136  1.00  0.00    -0.155 F 
ATOM     94  F   UNL A   1      34.287  16.779  22.987  1.00  0.00    -0.155 F 
ATOM     95  F   UNL A   1      35.537  17.860  24.414  1.00  0.00    -0.155 F 
ENDBRANCH  89  92
ENDBRANCH  87  89
ENDBRANCH  82  87
ENDBRANCH  77  80
ENDBRANCH  75  76
ENDBRANCH  74  75
ENDBRANCH   1  74
TORSDOF 16
ENDMDL
