MODEL 1
REMARK VINA RESULT:     -11.0      0.000      0.000
REMARK SMILES O=C(/C=C/c1ccc(O)c(O)c1)NCCCCCCNC(=O)c1ccc(-c2c3nc(c(-c4c(F)c(F)c(F)c(F)c4F)c4ccc([nH]4)c(-c4c(F)c(F)c(F)c(F)c4F)c4nc(c(-c5c(F)c(F)c(F)c(F)c5F)c5ccc2[nH]5)C=C4)C=C3)cc1
REMARK SMILES IDX 16 1 15 2 14 3 13 4 1 5 2 6 3 8 4 9 5 10 6 11 12 12 7 13
REMARK SMILES IDX 10 14 8 15 11 16 9 18 17 20 18 21 19 22 20 23 21 24 22 26
REMARK SMILES IDX 23 27 24 28 85 29 25 30 84 31 26 32 27 33 28 34 78 35 29 36
REMARK SMILES IDX 83 37 77 38 79 39 30 40 82 41 76 42 75 43 31 45 63 46 43 47
REMARK SMILES IDX 62 48 44 49 47 50 61 51 80 52 45 53 46 54 60 56 81 57 48 58
REMARK SMILES IDX 32 59 33 60 41 61 34 62 35 63 39 64 42 65 36 66 37 67 40 68
REMARK SMILES IDX 38 69 64 70 65 71 73 72 66 73 67 74 71 75 74 76 68 77 69 78
REMARK SMILES IDX 72 79 70 80 49 81 50 82 58 83 51 84 52 85 56 86 59 87 53 88
REMARK SMILES IDX 54 89 57 90 55 91
REMARK H PARENT 13 7 11 17 9 19 20 25 79 44 47 55
REMARK Flexibility Score: inf
ROOT
ATOM      1  C   UNL A   1      34.290  32.435  29.029  1.00  0.00     0.002 C 
ENDROOT
BRANCH   1   2
ATOM      2  C   UNL A   1      34.966  31.766  27.823  1.00  0.00     0.021 C 
BRANCH   2   3
ATOM      3  C   UNL A   1      35.412  30.323  28.063  1.00  0.00     0.116 C 
BRANCH   3   4
ATOM      4  N   UNL A   1      35.159  29.491  26.906  1.00  0.00    -0.353 N 
ATOM      5  O   UNL A   1      32.963  29.044  27.394  1.00  0.00    -0.270 OA
ATOM      6  C   UNL A   1      33.958  28.869  26.700  1.00  0.00     0.243 C 
ATOM      7  H   UNL A   1      35.877  29.369  26.243  1.00  0.00     0.163 HD
BRANCH   6   8
ATOM      8  C   UNL A   1      33.883  27.935  25.547  1.00  0.00     0.072 C 
ATOM      9  C   UNL A   1      33.798  26.596  25.610  1.00  0.00     0.014 C 
BRANCH   9  10
ATOM     10  C   UNL A   1      33.596  25.764  24.416  1.00  0.00    -0.022 A 
ATOM     11  C   UNL A   1      33.489  24.365  24.485  1.00  0.00     0.012 A 
ATOM     12  C   UNL A   1      33.492  26.396  23.169  1.00  0.00     0.058 A 
ATOM     13  C   UNL A   1      33.321  23.600  23.324  1.00  0.00     0.051 A 
ATOM     14  C   UNL A   1      33.328  25.629  22.023  1.00  0.00     0.157 A 
ATOM     15  C   UNL A   1      33.249  24.242  22.095  1.00  0.00     0.157 A 
BRANCH  14  16
ATOM     16  O   UNL A   1      33.253  26.255  20.811  1.00  0.00    -0.504 OA
ATOM     17  H   UNL A   1      33.774  27.015  20.644  1.00  0.00     0.293 HD
ENDBRANCH  14  16
BRANCH  15  18
ATOM     18  O   UNL A   1      33.104  23.552  20.924  1.00  0.00    -0.504 OA
ATOM     19  H   UNL A   1      33.373  23.941  20.115  1.00  0.00     0.293 HD
ENDBRANCH  15  18
ENDBRANCH   9  10
ENDBRANCH   6   8
ENDBRANCH   3   4
ENDBRANCH   2   3
ENDBRANCH   1   2
BRANCH   1  20
ATOM     20  C   UNL A   1      34.563  33.933  29.190  1.00  0.00     0.002 C 
BRANCH  20  21
ATOM     21  C   UNL A   1      33.345  34.840  29.006  1.00  0.00     0.021 C 
BRANCH  21  22
ATOM     22  C   UNL A   1      33.458  36.208  29.671  1.00  0.00     0.116 C 
BRANCH  22  23
ATOM     23  N   UNL A   1      32.471  36.401  30.723  1.00  0.00    -0.352 N 
ATOM     24  C   UNL A   1      32.452  35.896  31.999  1.00  0.00     0.251 C 
ATOM     25  H   UNL A   1      31.707  36.976  30.485  1.00  0.00     0.163 HD
ATOM     26  O   UNL A   1      31.456  36.028  32.707  1.00  0.00    -0.269 OA
BRANCH  24  27
ATOM     27  C   UNL A   1      33.628  35.165  32.515  1.00  0.00     0.039 A 
ATOM     28  C   UNL A   1      33.467  33.856  32.977  1.00  0.00     0.014 A 
ATOM     29  C   UNL A   1      34.891  35.764  32.532  1.00  0.00     0.014 A 
ATOM     30  C   UNL A   1      34.583  33.122  33.386  1.00  0.00     0.010 A 
ATOM     31  C   UNL A   1      36.010  35.009  32.870  1.00  0.00     0.010 A 
ATOM     32  C   UNL A   1      35.870  33.679  33.298  1.00  0.00    -0.014 A 
BRANCH  32  33
ATOM     33  C   UNL A   1      37.084  32.894  33.643  1.00  0.00     0.031 A 
ATOM     34  C   UNL A   1      37.828  33.187  34.918  1.00  0.00     0.074 A 
ATOM     35  C   UNL A   1      37.564  31.984  32.774  1.00  0.00     0.049 A 
ATOM     36  N   UNL A   1      38.968  32.701  35.342  1.00  0.00    -0.248 NA
ATOM     37  C   UNL A   1      37.225  34.176  35.827  1.00  0.00     0.031 C 
ATOM     38  C   UNL A   1      36.955  31.635  31.489  1.00  0.00     0.029 A 
ATOM     39  N   UNL A   1      38.689  31.196  32.830  1.00  0.00    -0.354 N 
ATOM     40  C   UNL A   1      39.229  33.343  36.545  1.00  0.00     0.074 A 
ATOM     41  C   UNL A   1      38.150  34.280  36.769  1.00  0.00     0.031 C 
ATOM     42  C   UNL A   1      37.705  30.697  30.886  1.00  0.00     0.029 A 
ATOM     43  C   UNL A   1      38.870  30.411  31.716  1.00  0.00     0.049 A 
ATOM     44  H   UNL A   1      39.307  31.194  33.596  1.00  0.00     0.167 HD
ATOM     45  C   UNL A   1      40.268  33.155  37.393  1.00  0.00     0.037 A 
ATOM     46  C   UNL A   1      39.875  29.573  31.391  1.00  0.00     0.037 A 
ATOM     47  C   UNL A   1      41.316  32.190  37.188  1.00  0.00     0.049 A 
ATOM     48  C   UNL A   1      41.023  29.398  32.353  1.00  0.00     0.074 A 
ATOM     49  C   UNL A   1      42.364  31.867  38.032  1.00  0.00     0.029 A 
ATOM     50  N   UNL A   1      41.451  31.398  36.059  1.00  0.00    -0.354 N 
ATOM     51  N   UNL A   1      41.215  29.949  33.526  1.00  0.00    -0.248 NA
ATOM     52  C   UNL A   1      42.096  28.478  31.944  1.00  0.00     0.031 C 
ATOM     53  C   UNL A   1      43.168  30.923  37.389  1.00  0.00     0.029 A 
ATOM     54  C   UNL A   1      42.585  30.610  36.172  1.00  0.00     0.049 A 
ATOM     55  H   UNL A   1      40.834  31.395  35.291  1.00  0.00     0.167 HD
ATOM     56  C   UNL A   1      42.400  29.412  34.012  1.00  0.00     0.074 A 
ATOM     57  C   UNL A   1      42.881  28.484  33.012  1.00  0.00     0.031 C 
ATOM     58  C   UNL A   1      43.034  29.666  35.182  1.00  0.00     0.037 A 
BRANCH  45  59
ATOM     59  C   UNL A   1      40.337  34.005  38.628  1.00  0.00     0.064 A 
ATOM     60  C   UNL A   1      39.727  33.617  39.829  1.00  0.00     0.173 A 
ATOM     61  C   UNL A   1      41.100  35.184  38.630  1.00  0.00     0.173 A 
ATOM     62  F   UNL A   1      38.979  32.503  39.877  1.00  0.00    -0.203 F 
ATOM     63  C   UNL A   1      39.867  34.382  40.984  1.00  0.00     0.198 A 
ATOM     64  C   UNL A   1      41.263  35.930  39.794  1.00  0.00     0.198 A 
ATOM     65  F   UNL A   1      41.711  35.598  37.509  1.00  0.00    -0.203 F 
ATOM     66  F   UNL A   1      39.250  34.007  42.112  1.00  0.00    -0.200 F 
ATOM     67  C   UNL A   1      40.644  35.531  40.969  1.00  0.00     0.200 A 
ATOM     68  F   UNL A   1      42.027  37.031  39.781  1.00  0.00    -0.200 F 
ATOM     69  F   UNL A   1      40.796  36.253  42.087  1.00  0.00    -0.200 F 
ENDBRANCH  45  59
BRANCH  46  70
ATOM     70  C   UNL A   1      39.855  28.829  30.103  1.00  0.00     0.064 A 
ATOM     71  C   UNL A   1      39.305  27.540  30.025  1.00  0.00     0.173 A 
ATOM     72  C   UNL A   1      40.433  29.359  28.941  1.00  0.00     0.173 A 
ATOM     73  F   UNL A   1      38.760  26.978  31.113  1.00  0.00    -0.203 F 
ATOM     74  C   UNL A   1      39.373  26.797  28.847  1.00  0.00     0.198 A 
ATOM     75  C   UNL A   1      40.468  28.629  27.754  1.00  0.00     0.198 A 
ATOM     76  F   UNL A   1      40.970  30.588  28.958  1.00  0.00    -0.203 F 
ATOM     77  F   UNL A   1      38.905  25.541  28.823  1.00  0.00    -0.200 F 
ATOM     78  C   UNL A   1      39.952  27.343  27.713  1.00  0.00     0.200 A 
ATOM     79  F   UNL A   1      41.015  29.166  26.655  1.00  0.00    -0.200 F 
ATOM     80  F   UNL A   1      40.026  26.625  26.584  1.00  0.00    -0.200 F 
ENDBRANCH  46  70
BRANCH  58  81
ATOM     81  C   UNL A   1      44.281  28.886  35.482  1.00  0.00     0.064 A 
ATOM     82  C   UNL A   1      44.243  27.654  36.152  1.00  0.00     0.173 A 
ATOM     83  C   UNL A   1      45.529  29.355  35.041  1.00  0.00     0.173 A 
ATOM     84  F   UNL A   1      43.077  27.169  36.607  1.00  0.00    -0.203 F 
ATOM     85  C   UNL A   1      45.408  26.932  36.388  1.00  0.00     0.198 A 
ATOM     86  C   UNL A   1      46.689  28.613  35.248  1.00  0.00     0.198 A 
ATOM     87  F   UNL A   1      45.620  30.524  34.389  1.00  0.00    -0.203 F 
ATOM     88  F   UNL A   1      45.354  25.780  37.069  1.00  0.00    -0.200 F 
ATOM     89  C   UNL A   1      46.629  27.406  35.927  1.00  0.00     0.200 A 
ATOM     90  F   UNL A   1      47.862  29.066  34.786  1.00  0.00    -0.200 F 
ATOM     91  F   UNL A   1      47.748  26.701  36.143  1.00  0.00    -0.200 F 
ENDBRANCH  58  81
ENDBRANCH  32  33
ENDBRANCH  24  27
ENDBRANCH  22  23
ENDBRANCH  21  22
ENDBRANCH  20  21
ENDBRANCH   1  20
TORSDOF 16
ENDMDL
MODEL 2
REMARK VINA RESULT:     -10.9      4.728      7.253
REMARK SMILES O=C(/C=C/c1ccc(O)c(O)c1)NCCCCCCNC(=O)c1ccc(-c2c3nc(c(-c4c(F)c(F)c(F)c(F)c4F)c4ccc([nH]4)c(-c4c(F)c(F)c(F)c(F)c4F)c4nc(c(-c5c(F)c(F)c(F)c(F)c5F)c5ccc2[nH]5)C=C4)C=C3)cc1
REMARK SMILES IDX 16 1 15 2 14 3 13 4 1 5 2 6 3 8 4 9 5 10 6 11 12 12 7 13
REMARK SMILES IDX 10 14 8 15 11 16 9 18 17 20 18 21 19 22 20 23 21 24 22 26
REMARK SMILES IDX 23 27 24 28 85 29 25 30 84 31 26 32 27 33 28 34 78 35 29 36
REMARK SMILES IDX 83 37 77 38 79 39 30 40 82 41 76 42 75 43 31 45 63 46 43 47
REMARK SMILES IDX 62 48 44 49 47 50 61 51 80 52 45 53 46 54 60 56 81 57 48 58
REMARK SMILES IDX 32 59 33 60 41 61 34 62 35 63 39 64 42 65 36 66 37 67 40 68
REMARK SMILES IDX 38 69 64 70 65 71 73 72 66 73 67 74 71 75 74 76 68 77 69 78
REMARK SMILES IDX 72 79 70 80 49 81 50 82 58 83 51 84 52 85 56 86 59 87 53 88
REMARK SMILES IDX 54 89 57 90 55 91
REMARK H PARENT 13 7 11 17 9 19 20 25 79 44 47 55
REMARK Flexibility Score: inf
ROOT
ATOM      1  C   UNL A   1      32.965  25.839  25.614  1.00  0.00     0.002 C 
ENDROOT
BRANCH   1   2
ATOM      2  C   UNL A   1      31.649  25.846  26.405  1.00  0.00     0.021 C 
BRANCH   2   3
ATOM      3  C   UNL A   1      30.436  25.333  25.627  1.00  0.00     0.116 C 
BRANCH   3   4
ATOM      4  N   UNL A   1      29.765  26.406  24.924  1.00  0.00    -0.353 N 
ATOM      5  O   UNL A   1      30.719  26.002  22.878  1.00  0.00    -0.270 OA
ATOM      6  C   UNL A   1      30.013  26.687  23.609  1.00  0.00     0.243 C 
ATOM      7  H   UNL A   1      29.107  26.953  25.411  1.00  0.00     0.163 HD
BRANCH   6   8
ATOM      8  C   UNL A   1      29.359  27.901  23.054  1.00  0.00     0.072 C 
ATOM      9  C   UNL A   1      29.738  29.173  23.256  1.00  0.00     0.014 C 
BRANCH   9  10
ATOM     10  C   UNL A   1      29.107  30.302  22.559  1.00  0.00    -0.022 A 
ATOM     11  C   UNL A   1      28.466  30.154  21.318  1.00  0.00     0.012 A 
ATOM     12  C   UNL A   1      29.136  31.565  23.166  1.00  0.00     0.058 A 
ATOM     13  C   UNL A   1      27.895  31.256  20.669  1.00  0.00     0.051 A 
ATOM     14  C   UNL A   1      28.570  32.653  22.515  1.00  0.00     0.157 A 
ATOM     15  C   UNL A   1      27.959  32.505  21.274  1.00  0.00     0.157 A 
BRANCH  14  16
ATOM     16  O   UNL A   1      28.626  33.883  23.106  1.00  0.00    -0.504 OA
ATOM     17  H   UNL A   1      29.427  34.182  23.488  1.00  0.00     0.293 HD
ENDBRANCH  14  16
BRANCH  15  18
ATOM     18  O   UNL A   1      27.437  33.623  20.685  1.00  0.00    -0.504 OA
ATOM     19  H   UNL A   1      27.567  33.774  19.769  1.00  0.00     0.293 HD
ENDBRANCH  15  18
ENDBRANCH   9  10
ENDBRANCH   6   8
ENDBRANCH   3   4
ENDBRANCH   2   3
ENDBRANCH   1   2
BRANCH   1  20
ATOM     20  C   UNL A   1      33.353  27.174  24.971  1.00  0.00     0.002 C 
BRANCH  20  21
ATOM     21  C   UNL A   1      32.998  28.418  25.787  1.00  0.00     0.021 C 
BRANCH  21  22
ATOM     22  C   UNL A   1      33.850  28.633  27.033  1.00  0.00     0.116 C 
BRANCH  22  23
ATOM     23  N   UNL A   1      33.771  29.996  27.536  1.00  0.00    -0.352 N 
ATOM     24  C   UNL A   1      34.685  30.703  28.278  1.00  0.00     0.251 C 
ATOM     25  H   UNL A   1      32.943  30.481  27.313  1.00  0.00     0.163 HD
ATOM     26  O   UNL A   1      34.387  31.793  28.759  1.00  0.00    -0.269 OA
BRANCH  24  27
ATOM     27  C   UNL A   1      36.027  30.134  28.522  1.00  0.00     0.039 A 
ATOM     28  C   UNL A   1      36.983  30.185  27.503  1.00  0.00     0.014 A 
ATOM     29  C   UNL A   1      36.349  29.564  29.757  1.00  0.00     0.014 A 
ATOM     30  C   UNL A   1      38.281  29.731  27.747  1.00  0.00     0.010 A 
ATOM     31  C   UNL A   1      37.660  29.181  30.021  1.00  0.00     0.010 A 
ATOM     32  C   UNL A   1      38.642  29.262  29.021  1.00  0.00    -0.014 A 
BRANCH  32  33
ATOM     33  C   UNL A   1      40.036  28.854  29.336  1.00  0.00     0.031 A 
ATOM     34  C   UNL A   1      40.937  29.789  30.094  1.00  0.00     0.074 A 
ATOM     35  C   UNL A   1      40.515  27.685  28.867  1.00  0.00     0.049 A 
ATOM     36  N   UNL A   1      42.214  29.673  30.364  1.00  0.00    -0.248 NA
ATOM     37  C   UNL A   1      40.332  31.035  30.595  1.00  0.00     0.031 C 
ATOM     38  C   UNL A   1      39.752  26.707  28.089  1.00  0.00     0.029 A 
ATOM     39  N   UNL A   1      41.767  27.126  28.960  1.00  0.00    -0.354 N 
ATOM     40  C   UNL A   1      42.566  30.836  31.036  1.00  0.00     0.074 A 
ATOM     41  C   UNL A   1      41.382  31.663  31.104  1.00  0.00     0.031 C 
ATOM     42  C   UNL A   1      40.547  25.667  27.786  1.00  0.00     0.029 A 
ATOM     43  C   UNL A   1      41.886  25.923  28.307  1.00  0.00     0.049 A 
ATOM     44  H   UNL A   1      42.510  27.550  29.449  1.00  0.00     0.167 HD
ATOM     45  C   UNL A   1      43.767  31.173  31.563  1.00  0.00     0.037 A 
ATOM     46  C   UNL A   1      42.959  25.126  28.130  1.00  0.00     0.037 A 
ATOM     47  C   UNL A   1      44.932  30.328  31.533  1.00  0.00     0.049 A 
ATOM     48  C   UNL A   1      44.284  25.540  28.719  1.00  0.00     0.074 A 
ATOM     49  C   UNL A   1      46.168  30.548  32.114  1.00  0.00     0.029 A 
ATOM     50  N   UNL A   1      45.005  29.106  30.883  1.00  0.00    -0.354 N 
ATOM     51  N   UNL A   1      44.583  26.602  29.426  1.00  0.00    -0.248 NA
ATOM     52  C   UNL A   1      45.423  24.638  28.488  1.00  0.00     0.031 C 
ATOM     53  C   UNL A   1      47.008  29.487  31.766  1.00  0.00     0.029 A 
ATOM     54  C   UNL A   1      46.277  28.576  31.023  1.00  0.00     0.049 A 
ATOM     55  H   UNL A   1      44.263  28.679  30.395  1.00  0.00     0.167 HD
ATOM     56  C   UNL A   1      45.925  26.475  29.758  1.00  0.00     0.074 A 
ATOM     57  C   UNL A   1      46.383  25.229  29.185  1.00  0.00     0.031 C 
ATOM     58  C   UNL A   1      46.710  27.317  30.474  1.00  0.00     0.037 A 
BRANCH  45  59
ATOM     59  C   UNL A   1      43.899  32.515  32.222  1.00  0.00     0.064 A 
ATOM     60  C   UNL A   1      44.158  33.679  31.485  1.00  0.00     0.173 A 
ATOM     61  C   UNL A   1      43.674  32.648  33.602  1.00  0.00     0.173 A 
ATOM     62  F   UNL A   1      44.388  33.605  30.165  1.00  0.00    -0.203 F 
ATOM     63  C   UNL A   1      44.199  34.926  32.106  1.00  0.00     0.198 A 
ATOM     64  C   UNL A   1      43.687  33.898  34.213  1.00  0.00     0.198 A 
ATOM     65  F   UNL A   1      43.415  31.566  34.353  1.00  0.00    -0.203 F 
ATOM     66  F   UNL A   1      44.479  36.021  31.386  1.00  0.00    -0.200 F 
ATOM     67  C   UNL A   1      43.953  35.036  33.465  1.00  0.00     0.200 A 
ATOM     68  F   UNL A   1      43.432  34.004  35.525  1.00  0.00    -0.200 F 
ATOM     69  F   UNL A   1      43.971  36.238  34.056  1.00  0.00    -0.200 F 
ENDBRANCH  45  59
BRANCH  46  70
ATOM     70  C   UNL A   1      42.842  23.855  27.365  1.00  0.00     0.064 A 
ATOM     71  C   UNL A   1      42.401  22.678  27.988  1.00  0.00     0.173 A 
ATOM     72  C   UNL A   1      43.221  23.774  26.018  1.00  0.00     0.173 A 
ATOM     73  F   UNL A   1      42.048  22.697  29.282  1.00  0.00    -0.203 F 
ATOM     74  C   UNL A   1      42.385  21.463  27.305  1.00  0.00     0.198 A 
ATOM     75  C   UNL A   1      43.170  22.565  25.325  1.00  0.00     0.198 A 
ATOM     76  F   UNL A   1      43.647  24.869  25.371  1.00  0.00    -0.203 F 
ATOM     77  F   UNL A   1      42.030  20.341  27.947  1.00  0.00    -0.200 F 
ATOM     78  C   UNL A   1      42.767  21.408  25.974  1.00  0.00     0.200 A 
ATOM     79  F   UNL A   1      43.526  22.519  24.034  1.00  0.00    -0.200 F 
ATOM     80  F   UNL A   1      42.761  20.238  25.321  1.00  0.00    -0.200 F 
ENDBRANCH  46  70
BRANCH  58  81
ATOM     81  C   UNL A   1      48.125  26.894  30.739  1.00  0.00     0.064 A 
ATOM     82  C   UNL A   1      49.187  27.298  29.916  1.00  0.00     0.173 A 
ATOM     83  C   UNL A   1      48.428  26.117  31.869  1.00  0.00     0.173 A 
ATOM     84  F   UNL A   1      48.949  28.029  28.817  1.00  0.00    -0.203 F 
ATOM     85  C   UNL A   1      50.496  26.922  30.202  1.00  0.00     0.198 A 
ATOM     86  C   UNL A   1      49.743  25.771  32.170  1.00  0.00     0.198 A 
ATOM     87  F   UNL A   1      47.451  25.710  32.692  1.00  0.00    -0.203 F 
ATOM     88  F   UNL A   1      51.489  27.280  29.377  1.00  0.00    -0.200 F 
ATOM     89  C   UNL A   1      50.774  26.168  31.333  1.00  0.00     0.200 A 
ATOM     90  F   UNL A   1      50.010  25.059  33.273  1.00  0.00    -0.200 F 
ATOM     91  F   UNL A   1      52.038  25.819  31.614  1.00  0.00    -0.200 F 
ENDBRANCH  58  81
ENDBRANCH  32  33
ENDBRANCH  24  27
ENDBRANCH  22  23
ENDBRANCH  21  22
ENDBRANCH  20  21
ENDBRANCH   1  20
TORSDOF 16
ENDMDL
MODEL 3
REMARK VINA RESULT:     -10.9      1.863      2.243
REMARK SMILES O=C(/C=C/c1ccc(O)c(O)c1)NCCCCCCNC(=O)c1ccc(-c2c3nc(c(-c4c(F)c(F)c(F)c(F)c4F)c4ccc([nH]4)c(-c4c(F)c(F)c(F)c(F)c4F)c4nc(c(-c5c(F)c(F)c(F)c(F)c5F)c5ccc2[nH]5)C=C4)C=C3)cc1
REMARK SMILES IDX 16 1 15 2 14 3 13 4 1 5 2 6 3 8 4 9 5 10 6 11 12 12 7 13
REMARK SMILES IDX 10 14 8 15 11 16 9 18 17 20 18 21 19 22 20 23 21 24 22 26
REMARK SMILES IDX 23 27 24 28 85 29 25 30 84 31 26 32 27 33 28 34 78 35 29 36
REMARK SMILES IDX 83 37 77 38 79 39 30 40 82 41 76 42 75 43 31 45 63 46 43 47
REMARK SMILES IDX 62 48 44 49 47 50 61 51 80 52 45 53 46 54 60 56 81 57 48 58
REMARK SMILES IDX 32 59 33 60 41 61 34 62 35 63 39 64 42 65 36 66 37 67 40 68
REMARK SMILES IDX 38 69 64 70 65 71 73 72 66 73 67 74 71 75 74 76 68 77 69 78
REMARK SMILES IDX 72 79 70 80 49 81 50 82 58 83 51 84 52 85 56 86 59 87 53 88
REMARK SMILES IDX 54 89 57 90 55 91
REMARK H PARENT 13 7 11 17 9 19 20 25 79 44 47 55
REMARK Flexibility Score: inf
ROOT
ATOM      1  C   UNL A   1      35.346  33.599  28.466  1.00  0.00     0.002 C 
ENDROOT
BRANCH   1   2
ATOM      2  C   UNL A   1      35.507  32.209  27.834  1.00  0.00     0.021 C 
BRANCH   2   3
ATOM      3  C   UNL A   1      34.532  31.154  28.359  1.00  0.00     0.116 C 
BRANCH   3   4
ATOM      4  N   UNL A   1      33.523  30.827  27.374  1.00  0.00    -0.353 N 
ATOM      5  O   UNL A   1      34.557  28.944  26.570  1.00  0.00    -0.270 OA
ATOM      6  C   UNL A   1      33.654  29.771  26.514  1.00  0.00     0.243 C 
ATOM      7  H   UNL A   1      32.713  31.385  27.320  1.00  0.00     0.163 HD
BRANCH   6   8
ATOM      8  C   UNL A   1      32.611  29.636  25.464  1.00  0.00     0.072 C 
ATOM      9  C   UNL A   1      31.404  30.224  25.459  1.00  0.00     0.014 C 
BRANCH   9  10
ATOM     10  C   UNL A   1      30.490  30.134  24.312  1.00  0.00    -0.022 A 
ATOM     11  C   UNL A   1      30.545  29.076  23.389  1.00  0.00     0.012 A 
ATOM     12  C   UNL A   1      29.523  31.134  24.147  1.00  0.00     0.058 A 
ATOM     13  C   UNL A   1      29.675  29.034  22.293  1.00  0.00     0.051 A 
ATOM     14  C   UNL A   1      28.665  31.086  23.056  1.00  0.00     0.157 A 
ATOM     15  C   UNL A   1      28.742  30.049  22.131  1.00  0.00     0.157 A 
BRANCH  14  16
ATOM     16  O   UNL A   1      27.743  32.080  22.892  1.00  0.00    -0.504 OA
ATOM     17  H   UNL A   1      27.464  32.586  23.630  1.00  0.00     0.293 HD
ENDBRANCH  14  16
BRANCH  15  18
ATOM     18  O   UNL A   1      27.876  30.076  21.073  1.00  0.00    -0.504 OA
ATOM     19  H   UNL A   1      27.168  30.690  21.063  1.00  0.00     0.293 HD
ENDBRANCH  15  18
ENDBRANCH   9  10
ENDBRANCH   6   8
ENDBRANCH   3   4
ENDBRANCH   2   3
ENDBRANCH   1   2
BRANCH   1  20
ATOM     20  C   UNL A   1      33.973  33.888  29.080  1.00  0.00     0.002 C 
BRANCH  20  21
ATOM     21  C   UNL A   1      33.340  35.217  28.661  1.00  0.00     0.021 C 
BRANCH  21  22
ATOM     22  C   UNL A   1      33.560  36.368  29.636  1.00  0.00     0.116 C 
BRANCH  22  23
ATOM     23  N   UNL A   1      32.514  36.453  30.645  1.00  0.00    -0.352 N 
ATOM     24  C   UNL A   1      32.445  35.852  31.877  1.00  0.00     0.251 C 
ATOM     25  H   UNL A   1      31.745  37.022  30.409  1.00  0.00     0.163 HD
ATOM     26  O   UNL A   1      31.410  35.902  32.538  1.00  0.00    -0.269 OA
BRANCH  24  27
ATOM     27  C   UNL A   1      33.616  35.117  32.401  1.00  0.00     0.039 A 
ATOM     28  C   UNL A   1      33.444  33.814  32.877  1.00  0.00     0.014 A 
ATOM     29  C   UNL A   1      34.883  35.706  32.410  1.00  0.00     0.014 A 
ATOM     30  C   UNL A   1      34.555  33.076  33.293  1.00  0.00     0.010 A 
ATOM     31  C   UNL A   1      35.996  34.946  32.756  1.00  0.00     0.010 A 
ATOM     32  C   UNL A   1      35.846  33.622  33.199  1.00  0.00    -0.014 A 
BRANCH  32  33
ATOM     33  C   UNL A   1      37.054  32.832  33.552  1.00  0.00     0.031 A 
ATOM     34  C   UNL A   1      37.789  33.118  34.833  1.00  0.00     0.074 A 
ATOM     35  C   UNL A   1      37.537  31.921  32.684  1.00  0.00     0.049 A 
ATOM     36  N   UNL A   1      38.924  32.627  35.265  1.00  0.00    -0.248 NA
ATOM     37  C   UNL A   1      37.183  34.108  35.739  1.00  0.00     0.031 C 
ATOM     38  C   UNL A   1      36.937  31.577  31.394  1.00  0.00     0.029 A 
ATOM     39  N   UNL A   1      38.658  31.128  32.747  1.00  0.00    -0.354 N 
ATOM     40  C   UNL A   1      39.178  33.266  36.471  1.00  0.00     0.074 A 
ATOM     41  C   UNL A   1      38.101  34.207  36.689  1.00  0.00     0.031 C 
ATOM     42  C   UNL A   1      37.687  30.637  30.795  1.00  0.00     0.029 A 
ATOM     43  C   UNL A   1      38.845  30.345  31.634  1.00  0.00     0.049 A 
ATOM     44  H   UNL A   1      39.270  31.122  33.519  1.00  0.00     0.167 HD
ATOM     45  C   UNL A   1      40.210  33.071  37.327  1.00  0.00     0.037 A 
ATOM     46  C   UNL A   1      39.848  29.503  31.315  1.00  0.00     0.037 A 
ATOM     47  C   UNL A   1      41.255  32.103  37.128  1.00  0.00     0.049 A 
ATOM     48  C   UNL A   1      40.988  29.321  32.285  1.00  0.00     0.074 A 
ATOM     49  C   UNL A   1      42.295  31.774  37.980  1.00  0.00     0.029 A 
ATOM     50  N   UNL A   1      41.396  31.312  35.999  1.00  0.00    -0.354 N 
ATOM     51  N   UNL A   1      41.173  29.869  33.461  1.00  0.00    -0.248 NA
ATOM     52  C   UNL A   1      42.060  28.398  31.883  1.00  0.00     0.031 C 
ATOM     53  C   UNL A   1      43.100  30.827  37.341  1.00  0.00     0.029 A 
ATOM     54  C   UNL A   1      42.525  30.519  36.119  1.00  0.00     0.049 A 
ATOM     55  H   UNL A   1      40.784  31.313  35.226  1.00  0.00     0.167 HD
ATOM     56  C   UNL A   1      42.352  29.327  33.955  1.00  0.00     0.074 A 
ATOM     57  C   UNL A   1      42.837  28.399  32.957  1.00  0.00     0.031 C 
ATOM     58  C   UNL A   1      42.978  29.575  35.131  1.00  0.00     0.037 A 
BRANCH  45  59
ATOM     59  C   UNL A   1      40.272  33.919  38.564  1.00  0.00     0.064 A 
ATOM     60  C   UNL A   1      39.657  33.527  39.761  1.00  0.00     0.173 A 
ATOM     61  C   UNL A   1      41.035  35.098  38.572  1.00  0.00     0.173 A 
ATOM     62  F   UNL A   1      38.910  32.412  39.804  1.00  0.00    -0.203 F 
ATOM     63  C   UNL A   1      39.792  34.290  40.919  1.00  0.00     0.198 A 
ATOM     64  C   UNL A   1      41.192  35.842  39.739  1.00  0.00     0.198 A 
ATOM     65  F   UNL A   1      41.649  35.515  37.455  1.00  0.00    -0.203 F 
ATOM     66  F   UNL A   1      39.170  33.912  42.044  1.00  0.00    -0.200 F 
ATOM     67  C   UNL A   1      40.567  35.439  40.910  1.00  0.00     0.200 A 
ATOM     68  F   UNL A   1      41.955  36.943  39.731  1.00  0.00    -0.200 F 
ATOM     69  F   UNL A   1      40.714  36.159  42.030  1.00  0.00    -0.200 F 
ENDBRANCH  45  59
BRANCH  46  70
ATOM     70  C   UNL A   1      39.836  28.761  30.025  1.00  0.00     0.064 A 
ATOM     71  C   UNL A   1      39.291  27.471  29.942  1.00  0.00     0.173 A 
ATOM     72  C   UNL A   1      40.416  29.297  28.867  1.00  0.00     0.173 A 
ATOM     73  F   UNL A   1      38.744  26.904  31.028  1.00  0.00    -0.203 F 
ATOM     74  C   UNL A   1      39.365  26.731  28.764  1.00  0.00     0.198 A 
ATOM     75  C   UNL A   1      40.457  28.569  27.678  1.00  0.00     0.198 A 
ATOM     76  F   UNL A   1      40.948  30.528  28.887  1.00  0.00    -0.203 F 
ATOM     77  F   UNL A   1      38.903  25.473  28.735  1.00  0.00    -0.200 F 
ATOM     78  C   UNL A   1      39.946  27.282  27.632  1.00  0.00     0.200 A 
ATOM     79  F   UNL A   1      41.006  29.111  26.582  1.00  0.00    -0.200 F 
ATOM     80  F   UNL A   1      40.027  26.566  26.502  1.00  0.00    -0.200 F 
ENDBRANCH  46  70
BRANCH  58  81
ATOM     81  C   UNL A   1      44.220  28.789  35.439  1.00  0.00     0.064 A 
ATOM     82  C   UNL A   1      44.170  27.554  36.101  1.00  0.00     0.173 A 
ATOM     83  C   UNL A   1      45.473  29.256  35.013  1.00  0.00     0.173 A 
ATOM     84  F   UNL A   1      42.999  27.071  36.542  1.00  0.00    -0.203 F 
ATOM     85  C   UNL A   1      45.331  26.826  36.345  1.00  0.00     0.198 A 
ATOM     86  C   UNL A   1      46.628  28.510  35.228  1.00  0.00     0.198 A 
ATOM     87  F   UNL A   1      45.575  30.429  34.368  1.00  0.00    -0.203 F 
ATOM     88  F   UNL A   1      45.266  25.671  37.020  1.00  0.00    -0.200 F 
ATOM     89  C   UNL A   1      46.558  27.299  35.899  1.00  0.00     0.200 A 
ATOM     90  F   UNL A   1      47.808  28.960  34.780  1.00  0.00    -0.200 F 
ATOM     91  F   UNL A   1      47.672  26.589  36.122  1.00  0.00    -0.200 F 
ENDBRANCH  58  81
ENDBRANCH  32  33
ENDBRANCH  24  27
ENDBRANCH  22  23
ENDBRANCH  21  22
ENDBRANCH  20  21
ENDBRANCH   1  20
TORSDOF 16
ENDMDL
