MODEL 1
REMARK VINA RESULT:     -10.0      0.000      0.000
REMARK SMILES CCCC#C[C@](C)(O)C[NH2+][C@H](C)C(=O)NCCCCCCNC(=O)c1ccc(-c2c3nc(c(-c4c(F)c(F)c(F)c(F)c4F)c4ccc([nH]4)c(-c4c(F)c(F)c(F)c(F)c4F)c4nc(c(-c5c(F)c(F)c(F)c(F)c5F)c5ccc2[nH]5)C=C4)C=C3)cc1
REMARK SMILES IDX 16 1 15 2 13 3 14 4 11 6 12 7 10 8 9 11 6 12 7 13 5 14 4 15
REMARK SMILES IDX 3 16 2 17 1 18 8 19 17 21 18 22 19 23 20 24 21 25 22 26
REMARK SMILES IDX 23 27 24 29 25 30 26 31 87 32 27 33 86 34 28 35 29 36 30 37
REMARK SMILES IDX 80 38 31 39 85 40 79 41 81 42 32 43 84 44 78 45 77 46 33 48
REMARK SMILES IDX 65 49 45 50 64 51 46 52 49 53 63 54 82 55 47 56 48 57 62 59
REMARK SMILES IDX 83 60 50 61 34 62 35 63 43 64 36 65 37 66 41 67 44 68 38 69
REMARK SMILES IDX 39 70 42 71 40 72 66 73 67 74 75 75 68 76 69 77 73 78 76 79
REMARK SMILES IDX 70 80 71 81 74 82 72 83 51 84 52 85 60 86 53 87 54 88 58 89
REMARK SMILES IDX 61 90 55 91 56 92 59 93 57 94
REMARK H PARENT 15 5 10 9 10 10 8 20 22 28 81 47 49 58
REMARK Flexibility Score: inf
ROOT
ATOM      1  C   UNL A   1      36.008  23.559  25.736  1.00  0.00     0.116 C 
ENDROOT
BRANCH   1   2
ATOM      2  N   UNL A   1      35.405  24.517  24.829  1.00  0.00    -0.351 N 
ATOM      3  C   UNL A   1      34.118  24.935  24.677  1.00  0.00     0.277 C 
ATOM      4  O   UNL A   1      33.886  25.728  23.759  1.00  0.00    -0.268 OA
ATOM      5  H   UNL A   1      36.043  24.943  24.211  1.00  0.00     0.163 HD
BRANCH   3   6
ATOM      6  C   UNL A   1      32.988  24.478  25.623  1.00  0.00     0.269 C 
ATOM      7  C   UNL A   1      32.269  25.648  26.286  1.00  0.00     0.086 C 
BRANCH   6   8
ATOM      8  N   UNL A   1      32.040  23.569  24.939  1.00  0.00    -0.333 N 
ATOM      9  H   UNL A   1      31.335  23.258  25.607  1.00  0.00     0.347 HD
ATOM     10  H   UNL A   1      31.603  24.075  24.168  1.00  0.00     0.347 HD
BRANCH   8  11
ATOM     11  C   UNL A   1      32.741  22.387  24.390  1.00  0.00     0.310 C 
BRANCH  11  12
ATOM     12  C   UNL A   1      32.534  21.107  25.250  1.00  0.00     0.171 C 
ATOM     13  C   UNL A   1      33.576  20.988  26.365  1.00  0.00     0.063 C 
BRANCH  12  14
ATOM     14  C   UNL A   1      32.596  19.924  24.375  1.00  0.00    -0.063 C 
ATOM     15  C   UNL A   1      32.688  18.812  23.699  1.00  0.00    -0.100 C 
BRANCH  15  16
ATOM     16  C   UNL A   1      32.795  17.518  22.910  1.00  0.00     0.089 C 
BRANCH  16  17
ATOM     17  C   UNL A   1      34.134  16.824  23.153  1.00  0.00     0.010 C 
ATOM     18  C   UNL A   1      34.512  16.753  24.628  1.00  0.00     0.005 C 
ENDBRANCH  16  17
ENDBRANCH  15  16
ENDBRANCH  12  14
BRANCH  12  19
ATOM     19  O   UNL A   1      31.236  21.175  25.859  1.00  0.00    -0.372 OA
ATOM     20  H   UNL A   1      30.725  20.387  25.617  1.00  0.00     0.212 HD
ENDBRANCH  12  19
ENDBRANCH  11  12
ENDBRANCH   8  11
ENDBRANCH   6   8
ENDBRANCH   3   6
ENDBRANCH   1   2
BRANCH   1  21
ATOM     21  C   UNL A   1      37.523  23.739  25.801  1.00  0.00     0.021 C 
BRANCH  21  22
ATOM     22  C   UNL A   1      38.316  22.428  25.816  1.00  0.00     0.002 C 
BRANCH  22  23
ATOM     23  C   UNL A   1      37.790  21.331  24.884  1.00  0.00     0.002 C 
BRANCH  23  24
ATOM     24  C   UNL A   1      38.520  19.988  24.969  1.00  0.00     0.021 C 
BRANCH  24  25
ATOM     25  C   UNL A   1      39.327  19.760  26.246  1.00  0.00     0.116 C 
BRANCH  25  26
ATOM     26  N   UNL A   1      40.469  18.888  26.038  1.00  0.00    -0.352 N 
ATOM     27  C   UNL A   1      41.806  19.184  25.986  1.00  0.00     0.251 C 
ATOM     28  H   UNL A   1      40.249  17.937  25.914  1.00  0.00     0.163 HD
ATOM     29  O   UNL A   1      42.610  18.315  25.655  1.00  0.00    -0.269 OA
BRANCH  27  30
ATOM     30  C   UNL A   1      42.295  20.546  26.298  1.00  0.00     0.039 A 
ATOM     31  C   UNL A   1      42.590  21.403  25.233  1.00  0.00     0.014 A 
ATOM     32  C   UNL A   1      42.507  20.972  27.613  1.00  0.00     0.014 A 
ATOM     33  C   UNL A   1      43.046  22.698  25.485  1.00  0.00     0.010 A 
ATOM     34  C   UNL A   1      42.908  22.285  27.866  1.00  0.00     0.010 A 
ATOM     35  C   UNL A   1      43.184  23.159  26.804  1.00  0.00    -0.014 A 
BRANCH  35  36
ATOM     36  C   UNL A   1      43.598  24.559  27.068  1.00  0.00     0.031 A 
ATOM     37  C   UNL A   1      42.617  25.567  27.596  1.00  0.00     0.074 A 
ATOM     38  C   UNL A   1      44.865  24.931  26.799  1.00  0.00     0.049 A 
ATOM     39  N   UNL A   1      42.814  26.822  27.915  1.00  0.00    -0.248 NA
ATOM     40  C   UNL A   1      41.228  25.116  27.763  1.00  0.00     0.031 C 
ATOM     41  C   UNL A   1      45.892  24.065  26.217  1.00  0.00     0.029 A 
ATOM     42  N   UNL A   1      45.503  26.133  26.977  1.00  0.00    -0.354 N 
ATOM     43  C   UNL A   1      41.577  27.311  28.311  1.00  0.00     0.074 A 
ATOM     44  C   UNL A   1      40.626  26.232  28.149  1.00  0.00     0.031 C 
ATOM     45  C   UNL A   1      47.038  24.755  26.111  1.00  0.00     0.029 A 
ATOM     46  C   UNL A   1      46.823  26.113  26.603  1.00  0.00     0.049 A 
ATOM     47  H   UNL A   1      45.057  26.931  27.340  1.00  0.00     0.167 HD
ATOM     48  C   UNL A   1      41.266  28.541  28.787  1.00  0.00     0.037 A 
ATOM     49  C   UNL A   1      47.759  27.078  26.661  1.00  0.00     0.037 A 
ATOM     50  C   UNL A   1      42.218  29.606  28.974  1.00  0.00     0.049 A 
ATOM     51  C   UNL A   1      47.402  28.417  27.243  1.00  0.00     0.074 A 
ATOM     52  C   UNL A   1      42.014  30.863  29.518  1.00  0.00     0.029 A 
ATOM     53  N   UNL A   1      43.557  29.539  28.618  1.00  0.00    -0.354 N 
ATOM     54  N   UNL A   1      46.249  28.839  27.698  1.00  0.00    -0.248 NA
ATOM     55  C   UNL A   1      48.484  29.406  27.337  1.00  0.00     0.031 C 
ATOM     56  C   UNL A   1      43.223  31.568  29.460  1.00  0.00     0.029 A 
ATOM     57  C   UNL A   1      44.188  30.737  28.915  1.00  0.00     0.049 A 
ATOM     58  H   UNL A   1      43.995  28.755  28.214  1.00  0.00     0.167 HD
ATOM     59  C   UNL A   1      46.467  30.134  28.147  1.00  0.00     0.074 A 
ATOM     60  C   UNL A   1      47.871  30.420  27.931  1.00  0.00     0.031 C 
ATOM     61  C   UNL A   1      45.583  31.009  28.686  1.00  0.00     0.037 A 
BRANCH  48  62
ATOM     62  C   UNL A   1      39.833  28.802  29.147  1.00  0.00     0.064 A 
ATOM     63  C   UNL A   1      39.347  28.565  30.441  1.00  0.00     0.173 A 
ATOM     64  C   UNL A   1      38.944  29.327  28.198  1.00  0.00     0.173 A 
ATOM     65  F   UNL A   1      40.155  28.052  31.382  1.00  0.00    -0.203 F 
ATOM     66  C   UNL A   1      38.017  28.819  30.766  1.00  0.00     0.198 A 
ATOM     67  C   UNL A   1      37.621  29.606  28.532  1.00  0.00     0.198 A 
ATOM     68  F   UNL A   1      39.360  29.578  26.947  1.00  0.00    -0.203 F 
ATOM     69  F   UNL A   1      37.564  28.544  31.996  1.00  0.00    -0.200 F 
ATOM     70  C   UNL A   1      37.157  29.345  29.813  1.00  0.00     0.200 A 
ATOM     71  F   UNL A   1      36.793  30.124  27.614  1.00  0.00    -0.200 F 
ATOM     72  F   UNL A   1      35.878  29.593  30.128  1.00  0.00    -0.200 F 
ENDBRANCH  48  62
BRANCH  49  73
ATOM     73  C   UNL A   1      49.140  26.792  26.197  1.00  0.00     0.064 A 
ATOM     74  C   UNL A   1      49.535  27.092  24.887  1.00  0.00     0.173 A 
ATOM     75  C   UNL A   1      50.092  26.224  27.055  1.00  0.00     0.173 A 
ATOM     76  F   UNL A   1      48.651  27.619  24.026  1.00  0.00    -0.203 F 
ATOM     77  C   UNL A   1      50.828  26.821  24.446  1.00  0.00     0.198 A 
ATOM     78  C   UNL A   1      51.392  25.975  26.620  1.00  0.00     0.198 A 
ATOM     79  F   UNL A   1      49.764  25.925  28.320  1.00  0.00    -0.203 F 
ATOM     80  F   UNL A   1      51.170  27.084  23.177  1.00  0.00    -0.200 F 
ATOM     81  C   UNL A   1      51.757  26.268  25.314  1.00  0.00     0.200 A 
ATOM     82  F   UNL A   1      52.291  25.453  27.465  1.00  0.00    -0.200 F 
ATOM     83  F   UNL A   1      53.003  26.013  24.891  1.00  0.00    -0.200 F 
ENDBRANCH  49  73
BRANCH  61  84
ATOM     84  C   UNL A   1      46.118  32.351  29.090  1.00  0.00     0.064 A 
ATOM     85  C   UNL A   1      46.643  32.574  30.372  1.00  0.00     0.173 A 
ATOM     86  C   UNL A   1      46.114  33.422  28.185  1.00  0.00     0.173 A 
ATOM     87  F   UNL A   1      46.655  31.583  31.278  1.00  0.00    -0.203 F 
ATOM     88  C   UNL A   1      47.115  33.830  30.743  1.00  0.00     0.198 A 
ATOM     89  C   UNL A   1      46.610  34.670  28.552  1.00  0.00     0.198 A 
ATOM     90  F   UNL A   1      45.627  33.259  26.946  1.00  0.00    -0.203 F 
ATOM     91  F   UNL A   1      47.562  34.034  31.990  1.00  0.00    -0.200 F 
ATOM     92  C   UNL A   1      47.101  34.875  29.832  1.00  0.00     0.200 A 
ATOM     93  F   UNL A   1      46.603  35.678  27.668  1.00  0.00    -0.200 F 
ATOM     94  F   UNL A   1      47.551  36.085  30.193  1.00  0.00    -0.200 F 
ENDBRANCH  61  84
ENDBRANCH  35  36
ENDBRANCH  27  30
ENDBRANCH  25  26
ENDBRANCH  24  25
ENDBRANCH  23  24
ENDBRANCH  22  23
ENDBRANCH  21  22
ENDBRANCH   1  21
TORSDOF 20
ENDMDL
MODEL 2
REMARK VINA RESULT:     -10.0      4.806      8.366
REMARK SMILES CCCC#C[C@](C)(O)C[NH2+][C@H](C)C(=O)NCCCCCCNC(=O)c1ccc(-c2c3nc(c(-c4c(F)c(F)c(F)c(F)c4F)c4ccc([nH]4)c(-c4c(F)c(F)c(F)c(F)c4F)c4nc(c(-c5c(F)c(F)c(F)c(F)c5F)c5ccc2[nH]5)C=C4)C=C3)cc1
REMARK SMILES IDX 16 1 15 2 13 3 14 4 11 6 12 7 10 8 9 11 6 12 7 13 5 14 4 15
REMARK SMILES IDX 3 16 2 17 1 18 8 19 17 21 18 22 19 23 20 24 21 25 22 26
REMARK SMILES IDX 23 27 24 29 25 30 26 31 87 32 27 33 86 34 28 35 29 36 30 37
REMARK SMILES IDX 80 38 31 39 85 40 79 41 81 42 32 43 84 44 78 45 77 46 33 48
REMARK SMILES IDX 65 49 45 50 64 51 46 52 49 53 63 54 82 55 47 56 48 57 62 59
REMARK SMILES IDX 83 60 50 61 34 62 35 63 43 64 36 65 37 66 41 67 44 68 38 69
REMARK SMILES IDX 39 70 42 71 40 72 66 73 67 74 75 75 68 76 69 77 73 78 76 79
REMARK SMILES IDX 70 80 71 81 74 82 72 83 51 84 52 85 60 86 53 87 54 88 58 89
REMARK SMILES IDX 61 90 55 91 56 92 59 93 57 94
REMARK H PARENT 15 5 10 9 10 10 8 20 22 28 81 47 49 58
REMARK Flexibility Score: inf
ROOT
ATOM      1  C   UNL A   1      32.976  27.707  22.814  1.00  0.00     0.116 C 
ENDROOT
BRANCH   1   2
ATOM      2  N   UNL A   1      33.107  26.671  21.807  1.00  0.00    -0.351 N 
ATOM      3  C   UNL A   1      32.931  25.322  21.866  1.00  0.00     0.277 C 
ATOM      4  O   UNL A   1      33.185  24.674  20.845  1.00  0.00    -0.268 OA
ATOM      5  H   UNL A   1      33.373  27.005  20.919  1.00  0.00     0.163 HD
BRANCH   3   6
ATOM      6  C   UNL A   1      32.404  24.616  23.132  1.00  0.00     0.269 C 
ATOM      7  C   UNL A   1      30.881  24.548  23.175  1.00  0.00     0.086 C 
BRANCH   6   8
ATOM      8  N   UNL A   1      33.017  23.279  23.305  1.00  0.00    -0.333 N 
ATOM      9  H   UNL A   1      33.375  22.958  22.406  1.00  0.00     0.347 HD
ATOM     10  H   UNL A   1      33.775  23.354  23.985  1.00  0.00     0.347 HD
BRANCH   8  11
ATOM     11  C   UNL A   1      32.027  22.302  23.810  1.00  0.00     0.310 C 
BRANCH  11  12
ATOM     12  C   UNL A   1      32.402  21.727  25.205  1.00  0.00     0.171 C 
ATOM     13  C   UNL A   1      31.941  22.636  26.347  1.00  0.00     0.063 C 
BRANCH  12  14
ATOM     14  C   UNL A   1      33.862  21.536  25.270  1.00  0.00    -0.063 C 
ATOM     15  C   UNL A   1      35.142  21.291  25.232  1.00  0.00    -0.100 C 
BRANCH  15  16
ATOM     16  C   UNL A   1      36.634  21.006  25.187  1.00  0.00     0.089 C 
BRANCH  16  17
ATOM     17  C   UNL A   1      37.403  22.155  24.536  1.00  0.00     0.010 C 
ATOM     18  C   UNL A   1      36.654  22.794  23.373  1.00  0.00     0.005 C 
ENDBRANCH  16  17
ENDBRANCH  15  16
ENDBRANCH  12  14
BRANCH  12  19
ATOM     19  O   UNL A   1      31.755  20.455  25.360  1.00  0.00    -0.372 OA
ATOM     20  H   UNL A   1      31.619  20.054  24.487  1.00  0.00     0.212 HD
ENDBRANCH  12  19
ENDBRANCH  11  12
ENDBRANCH   8  11
ENDBRANCH   6   8
ENDBRANCH   3   6
ENDBRANCH   1   2
BRANCH   1  21
ATOM     21  C   UNL A   1      31.624  28.408  22.711  1.00  0.00     0.021 C 
BRANCH  21  22
ATOM     22  C   UNL A   1      30.750  28.284  23.964  1.00  0.00     0.002 C 
BRANCH  22  23
ATOM     23  C   UNL A   1      31.477  27.815  25.229  1.00  0.00     0.002 C 
BRANCH  23  24
ATOM     24  C   UNL A   1      31.775  28.907  26.261  1.00  0.00     0.021 C 
BRANCH  24  25
ATOM     25  C   UNL A   1      32.938  29.834  25.915  1.00  0.00     0.116 C 
BRANCH  25  26
ATOM     26  N   UNL A   1      32.705  31.205  26.337  1.00  0.00    -0.352 N 
ATOM     27  C   UNL A   1      33.353  31.958  27.280  1.00  0.00     0.251 C 
ATOM     28  H   UNL A   1      31.967  31.662  25.875  1.00  0.00     0.163 HD
ATOM     29  O   UNL A   1      32.906  33.061  27.590  1.00  0.00    -0.269 OA
BRANCH  27  30
ATOM     30  C   UNL A   1      34.571  31.452  27.951  1.00  0.00     0.039 A 
ATOM     31  C   UNL A   1      35.645  32.332  28.124  1.00  0.00     0.014 A 
ATOM     32  C   UNL A   1      34.687  30.123  28.370  1.00  0.00     0.014 A 
ATOM     33  C   UNL A   1      36.809  31.896  28.760  1.00  0.00     0.010 A 
ATOM     34  C   UNL A   1      35.828  29.704  29.056  1.00  0.00     0.010 A 
ATOM     35  C   UNL A   1      36.901  30.585  29.254  1.00  0.00    -0.014 A 
BRANCH  35  36
ATOM     36  C   UNL A   1      38.110  30.147  29.994  1.00  0.00     0.031 A 
ATOM     37  C   UNL A   1      38.365  30.613  31.399  1.00  0.00     0.074 A 
ATOM     38  C   UNL A   1      39.001  29.346  29.379  1.00  0.00     0.049 A 
ATOM     39  N   UNL A   1      39.350  30.304  32.205  1.00  0.00    -0.248 NA
ATOM     40  C   UNL A   1      37.404  31.570  31.965  1.00  0.00     0.031 C 
ATOM     41  C   UNL A   1      38.904  28.884  27.993  1.00  0.00     0.029 A 
ATOM     42  N   UNL A   1      40.165  28.781  29.838  1.00  0.00    -0.354 N 
ATOM     43  C   UNL A   1      39.133  31.033  33.367  1.00  0.00     0.074 A 
ATOM     44  C   UNL A   1      37.949  31.835  33.144  1.00  0.00     0.031 C 
ATOM     45  C   UNL A   1      39.949  28.085  27.723  1.00  0.00     0.029 A 
ATOM     46  C   UNL A   1      40.795  27.991  28.910  1.00  0.00     0.049 A 
ATOM     47  H   UNL A   1      40.513  28.928  30.747  1.00  0.00     0.167 HD
ATOM     48  C   UNL A   1      39.843  31.018  34.520  1.00  0.00     0.037 A 
ATOM     49  C   UNL A   1      41.922  27.262  29.007  1.00  0.00     0.037 A 
ATOM     50  C   UNL A   1      41.006  30.200  34.750  1.00  0.00     0.049 A 
ATOM     51  C   UNL A   1      42.661  27.220  30.315  1.00  0.00     0.074 A 
ATOM     52  C   UNL A   1      41.751  30.060  35.909  1.00  0.00     0.029 A 
ATOM     53  N   UNL A   1      41.596  29.381  33.797  1.00  0.00    -0.354 N 
ATOM     54  N   UNL A   1      42.395  27.845  31.435  1.00  0.00    -0.248 NA
ATOM     55  C   UNL A   1      43.848  26.356  30.375  1.00  0.00     0.031 C 
ATOM     56  C   UNL A   1      42.811  29.184  35.647  1.00  0.00     0.029 A 
ATOM     57  C   UNL A   1      42.704  28.747  34.337  1.00  0.00     0.049 A 
ATOM     58  H   UNL A   1      41.274  29.268  32.874  1.00  0.00     0.167 HD
ATOM     59  C   UNL A   1      43.368  27.440  32.338  1.00  0.00     0.074 A 
ATOM     60  C   UNL A   1      44.217  26.495  31.641  1.00  0.00     0.031 C 
ATOM     61  C   UNL A   1      43.544  27.817  33.628  1.00  0.00     0.037 A 
BRANCH  48  62
ATOM     62  C   UNL A   1      39.379  31.914  35.630  1.00  0.00     0.064 A 
ATOM     63  C   UNL A   1      38.444  31.479  36.581  1.00  0.00     0.173 A 
ATOM     64  C   UNL A   1      39.899  33.210  35.766  1.00  0.00     0.173 A 
ATOM     65  F   UNL A   1      37.908  30.252  36.489  1.00  0.00    -0.203 F 
ATOM     66  C   UNL A   1      38.026  32.317  37.612  1.00  0.00     0.198 A 
ATOM     67  C   UNL A   1      39.499  34.036  36.814  1.00  0.00     0.198 A 
ATOM     68  F   UNL A   1      40.800  33.673  34.887  1.00  0.00    -0.203 F 
ATOM     69  F   UNL A   1      37.100  31.895  38.483  1.00  0.00    -0.200 F 
ATOM     70  C   UNL A   1      38.558  33.592  37.731  1.00  0.00     0.200 A 
ATOM     71  F   UNL A   1      40.022  35.265  36.934  1.00  0.00    -0.200 F 
ATOM     72  F   UNL A   1      38.159  34.395  38.727  1.00  0.00    -0.200 F 
ENDBRANCH  48  62
BRANCH  49  73
ATOM     73  C   UNL A   1      42.388  26.471  27.841  1.00  0.00     0.064 A 
ATOM     74  C   UNL A   1      41.874  25.193  27.588  1.00  0.00     0.173 A 
ATOM     75  C   UNL A   1      43.347  26.980  26.953  1.00  0.00     0.173 A 
ATOM     76  F   UNL A   1      40.970  24.658  28.422  1.00  0.00    -0.203 F 
ATOM     77  C   UNL A   1      42.312  24.445  26.497  1.00  0.00     0.198 A 
ATOM     78  C   UNL A   1      43.767  26.241  25.850  1.00  0.00     0.198 A 
ATOM     79  F   UNL A   1      43.863  28.202  27.150  1.00  0.00    -0.203 F 
ATOM     80  F   UNL A   1      41.832  23.210  26.298  1.00  0.00    -0.200 F 
ATOM     81  C   UNL A   1      43.254  24.972  25.627  1.00  0.00     0.200 A 
ATOM     82  F   UNL A   1      44.667  26.758  25.003  1.00  0.00    -0.200 F 
ATOM     83  F   UNL A   1      43.671  24.254  24.574  1.00  0.00    -0.200 F 
ENDBRANCH  49  73
BRANCH  61  84
ATOM     84  C   UNL A   1      44.692  27.196  34.366  1.00  0.00     0.064 A 
ATOM     85  C   UNL A   1      44.548  25.981  35.053  1.00  0.00     0.173 A 
ATOM     86  C   UNL A   1      45.950  27.815  34.380  1.00  0.00     0.173 A 
ATOM     87  F   UNL A   1      43.359  25.358  35.081  1.00  0.00    -0.203 F 
ATOM     88  C   UNL A   1      45.615  25.425  35.755  1.00  0.00     0.198 A 
ATOM     89  C   UNL A   1      47.021  27.243  35.061  1.00  0.00     0.198 A 
ATOM     90  F   UNL A   1      46.140  28.975  33.734  1.00  0.00    -0.203 F 
ATOM     91  F   UNL A   1      45.440  24.292  36.449  1.00  0.00    -0.200 F 
ATOM     92  C   UNL A   1      46.850  26.055  35.755  1.00  0.00     0.200 A 
ATOM     93  F   UNL A   1      48.217  27.848  35.055  1.00  0.00    -0.200 F 
ATOM     94  F   UNL A   1      47.874  25.521  36.436  1.00  0.00    -0.200 F 
ENDBRANCH  61  84
ENDBRANCH  35  36
ENDBRANCH  27  30
ENDBRANCH  25  26
ENDBRANCH  24  25
ENDBRANCH  23  24
ENDBRANCH  22  23
ENDBRANCH  21  22
ENDBRANCH   1  21
TORSDOF 20
ENDMDL
MODEL 3
REMARK VINA RESULT:      -9.9      0.701      7.598
REMARK SMILES CCCC#C[C@](C)(O)C[NH2+][C@H](C)C(=O)NCCCCCCNC(=O)c1ccc(-c2c3nc(c(-c4c(F)c(F)c(F)c(F)c4F)c4ccc([nH]4)c(-c4c(F)c(F)c(F)c(F)c4F)c4nc(c(-c5c(F)c(F)c(F)c(F)c5F)c5ccc2[nH]5)C=C4)C=C3)cc1
REMARK SMILES IDX 16 1 15 2 13 3 14 4 11 6 12 7 10 8 9 11 6 12 7 13 5 14 4 15
REMARK SMILES IDX 3 16 2 17 1 18 8 19 17 21 18 22 19 23 20 24 21 25 22 26
REMARK SMILES IDX 23 27 24 29 25 30 26 31 87 32 27 33 86 34 28 35 29 36 30 37
REMARK SMILES IDX 80 38 31 39 85 40 79 41 81 42 32 43 84 44 78 45 77 46 33 48
REMARK SMILES IDX 65 49 45 50 64 51 46 52 49 53 63 54 82 55 47 56 48 57 62 59
REMARK SMILES IDX 83 60 50 61 34 62 35 63 43 64 36 65 37 66 41 67 44 68 38 69
REMARK SMILES IDX 39 70 42 71 40 72 66 73 67 74 75 75 68 76 69 77 73 78 76 79
REMARK SMILES IDX 70 80 71 81 74 82 72 83 51 84 52 85 60 86 53 87 54 88 58 89
REMARK SMILES IDX 61 90 55 91 56 92 59 93 57 94
REMARK H PARENT 15 5 10 9 10 10 8 20 22 28 81 47 49 58
REMARK Flexibility Score: inf
ROOT
ATOM      1  C   UNL A   1      36.099  23.471  25.869  1.00  0.00     0.116 C 
ENDROOT
BRANCH   1   2
ATOM      2  N   UNL A   1      35.508  24.541  25.088  1.00  0.00    -0.351 N 
ATOM      3  C   UNL A   1      34.214  24.931  24.918  1.00  0.00     0.277 C 
ATOM      4  O   UNL A   1      34.002  25.854  24.125  1.00  0.00    -0.268 OA
ATOM      5  H   UNL A   1      36.162  25.084  24.590  1.00  0.00     0.163 HD
BRANCH   3   6
ATOM      6  C   UNL A   1      33.052  24.287  25.701  1.00  0.00     0.269 C 
ATOM      7  C   UNL A   1      32.235  25.308  26.485  1.00  0.00     0.086 C 
BRANCH   6   8
ATOM      8  N   UNL A   1      32.195  23.460  24.819  1.00  0.00    -0.333 N 
ATOM      9  H   UNL A   1      31.369  23.164  25.339  1.00  0.00     0.347 HD
ATOM     10  H   UNL A   1      31.925  24.020  24.009  1.00  0.00     0.347 HD
BRANCH   8  11
ATOM     11  C   UNL A   1      32.923  22.262  24.343  1.00  0.00     0.310 C 
BRANCH  11  12
ATOM     12  C   UNL A   1      32.676  21.011  25.234  1.00  0.00     0.171 C 
ATOM     13  C   UNL A   1      33.641  20.948  26.420  1.00  0.00     0.063 C 
BRANCH  12  14
ATOM     14  C   UNL A   1      32.812  19.798  24.407  1.00  0.00    -0.063 C 
ATOM     15  C   UNL A   1      32.878  18.664  23.768  1.00  0.00    -0.100 C 
BRANCH  15  16
ATOM     16  C   UNL A   1      32.955  17.342  23.022  1.00  0.00     0.089 C 
BRANCH  16  17
ATOM     17  C   UNL A   1      34.133  16.496  23.503  1.00  0.00     0.010 C 
ATOM     18  C   UNL A   1      34.178  16.338  25.018  1.00  0.00     0.005 C 
ENDBRANCH  16  17
ENDBRANCH  15  16
ENDBRANCH  12  14
BRANCH  12  19
ATOM     19  O   UNL A   1      31.339  21.079  25.750  1.00  0.00    -0.372 OA
ATOM     20  H   UNL A   1      31.367  21.332  26.687  1.00  0.00     0.212 HD
ENDBRANCH  12  19
ENDBRANCH  11  12
ENDBRANCH   8  11
ENDBRANCH   6   8
ENDBRANCH   3   6
ENDBRANCH   1   2
BRANCH   1  21
ATOM     21  C   UNL A   1      37.598  23.688  26.058  1.00  0.00     0.021 C 
BRANCH  21  22
ATOM     22  C   UNL A   1      38.450  22.429  25.862  1.00  0.00     0.002 C 
BRANCH  22  23
ATOM     23  C   UNL A   1      37.887  21.403  24.872  1.00  0.00     0.002 C 
BRANCH  23  24
ATOM     24  C   UNL A   1      38.451  19.985  25.001  1.00  0.00     0.021 C 
BRANCH  24  25
ATOM     25  C   UNL A   1      39.173  19.684  26.313  1.00  0.00     0.116 C 
BRANCH  25  26
ATOM     26  N   UNL A   1      40.404  18.938  26.115  1.00  0.00    -0.352 N 
ATOM     27  C   UNL A   1      41.700  19.376  26.057  1.00  0.00     0.251 C 
ATOM     28  H   UNL A   1      40.288  17.967  26.006  1.00  0.00     0.163 HD
ATOM     29  O   UNL A   1      42.593  18.594  25.738  1.00  0.00    -0.269 OA
BRANCH  27  30
ATOM     30  C   UNL A   1      42.039  20.787  26.349  1.00  0.00     0.039 A 
ATOM     31  C   UNL A   1      42.276  21.149  27.679  1.00  0.00     0.014 A 
ATOM     32  C   UNL A   1      42.083  21.759  25.345  1.00  0.00     0.014 A 
ATOM     33  C   UNL A   1      42.607  22.468  27.995  1.00  0.00     0.010 A 
ATOM     34  C   UNL A   1      42.470  23.065  25.653  1.00  0.00     0.010 A 
ATOM     35  C   UNL A   1      42.731  23.432  26.981  1.00  0.00    -0.014 A 
BRANCH  35  36
ATOM     36  C   UNL A   1      43.155  24.815  27.312  1.00  0.00     0.031 A 
ATOM     37  C   UNL A   1      44.555  25.281  27.031  1.00  0.00     0.074 A 
ATOM     38  C   UNL A   1      42.275  25.648  27.900  1.00  0.00     0.049 A 
ATOM     39  N   UNL A   1      45.086  26.463  27.223  1.00  0.00    -0.248 NA
ATOM     40  C   UNL A   1      45.489  24.285  26.487  1.00  0.00     0.031 C 
ATOM     41  C   UNL A   1      40.909  25.292  28.291  1.00  0.00     0.029 A 
ATOM     42  N   UNL A   1      42.397  26.962  28.275  1.00  0.00    -0.354 N 
ATOM     43  C   UNL A   1      46.414  26.351  26.834  1.00  0.00     0.074 A 
ATOM     44  C   UNL A   1      46.620  24.973  26.437  1.00  0.00     0.031 C 
ATOM     45  C   UNL A   1      40.312  26.369  28.825  1.00  0.00     0.029 A 
ATOM     46  C   UNL A   1      41.255  27.484  28.828  1.00  0.00     0.049 A 
ATOM     47  H   UNL A   1      43.226  27.481  28.157  1.00  0.00     0.167 HD
ATOM     48  C   UNL A   1      47.367  27.312  26.790  1.00  0.00     0.037 A 
ATOM     49  C   UNL A   1      40.992  28.725  29.277  1.00  0.00     0.037 A 
ATOM     50  C   UNL A   1      47.153  28.688  27.158  1.00  0.00     0.049 A 
ATOM     51  C   UNL A   1      42.050  29.787  29.166  1.00  0.00     0.074 A 
ATOM     52  C   UNL A   1      48.036  29.752  27.079  1.00  0.00     0.029 A 
ATOM     53  N   UNL A   1      45.970  29.190  27.680  1.00  0.00    -0.354 N 
ATOM     54  N   UNL A   1      43.275  29.690  28.712  1.00  0.00    -0.248 NA
ATOM     55  C   UNL A   1      41.680  31.137  29.615  1.00  0.00     0.031 C 
ATOM     56  C   UNL A   1      47.397  30.891  27.585  1.00  0.00     0.029 A 
ATOM     57  C   UNL A   1      46.104  30.544  27.943  1.00  0.00     0.049 A 
ATOM     58  H   UNL A   1      45.155  28.662  27.840  1.00  0.00     0.167 HD
ATOM     59  C   UNL A   1      43.817  30.964  28.803  1.00  0.00     0.074 A 
ATOM     60  C   UNL A   1      42.779  31.823  29.335  1.00  0.00     0.031 C 
ATOM     61  C   UNL A   1      45.065  31.384  28.479  1.00  0.00     0.037 A 
BRANCH  48  62
ATOM     62  C   UNL A   1      48.734  26.910  26.319  1.00  0.00     0.064 A 
ATOM     63  C   UNL A   1      49.105  27.013  24.970  1.00  0.00     0.173 A 
ATOM     64  C   UNL A   1      49.695  26.449  27.231  1.00  0.00     0.173 A 
ATOM     65  F   UNL A   1      48.218  27.436  24.057  1.00  0.00    -0.203 F 
ATOM     66  C   UNL A   1      50.379  26.644  24.546  1.00  0.00     0.198 A 
ATOM     67  C   UNL A   1      50.978  26.108  26.809  1.00  0.00     0.198 A 
ATOM     68  F   UNL A   1      49.394  26.338  28.533  1.00  0.00    -0.203 F 
ATOM     69  F   UNL A   1      50.697  26.710  23.247  1.00  0.00    -0.200 F 
ATOM     70  C   UNL A   1      51.316  26.198  25.466  1.00  0.00     0.200 A 
ATOM     71  F   UNL A   1      51.886  25.686  27.700  1.00  0.00    -0.200 F 
ATOM     72  F   UNL A   1      52.544  25.849  25.058  1.00  0.00    -0.200 F 
ENDBRANCH  48  62
BRANCH  49  73
ATOM     73  C   UNL A   1      39.649  29.040  29.825  1.00  0.00     0.064 A 
ATOM     74  C   UNL A   1      39.372  28.873  31.188  1.00  0.00     0.173 A 
ATOM     75  C   UNL A   1      38.622  29.523  29.001  1.00  0.00     0.173 A 
ATOM     76  F   UNL A   1      40.319  28.395  32.009  1.00  0.00    -0.203 F 
ATOM     77  C   UNL A   1      38.113  29.163  31.706  1.00  0.00     0.198 A 
ATOM     78  C   UNL A   1      37.370  29.835  29.525  1.00  0.00     0.198 A 
ATOM     79  F   UNL A   1      38.842  29.706  27.691  1.00  0.00    -0.203 F 
ATOM     80  F   UNL A   1      37.862  28.959  33.007  1.00  0.00    -0.200 F 
ATOM     81  C   UNL A   1      37.114  29.648  30.875  1.00  0.00     0.200 A 
ATOM     82  F   UNL A   1      36.411  30.317  28.723  1.00  0.00    -0.200 F 
ATOM     83  F   UNL A   1      35.903  29.933  31.376  1.00  0.00    -0.200 F 
ENDBRANCH  49  73
BRANCH  61  84
ATOM     84  C   UNL A   1      45.364  32.840  28.681  1.00  0.00     0.064 A 
ATOM     85  C   UNL A   1      45.114  33.784  27.674  1.00  0.00     0.173 A 
ATOM     86  C   UNL A   1      45.898  33.297  29.894  1.00  0.00     0.173 A 
ATOM     87  F   UNL A   1      44.617  33.392  26.490  1.00  0.00    -0.203 F 
ATOM     88  C   UNL A   1      45.418  35.130  27.863  1.00  0.00     0.198 A 
ATOM     89  C   UNL A   1      46.177  34.647  30.089  1.00  0.00     0.198 A 
ATOM     90  F   UNL A   1      46.151  32.435  30.890  1.00  0.00    -0.203 F 
ATOM     91  F   UNL A   1      45.220  36.005  26.868  1.00  0.00    -0.200 F 
ATOM     92  C   UNL A   1      45.945  35.559  29.071  1.00  0.00     0.200 A 
ATOM     93  F   UNL A   1      46.679  35.064  31.259  1.00  0.00    -0.200 F 
ATOM     94  F   UNL A   1      46.242  36.855  29.250  1.00  0.00    -0.200 F 
ENDBRANCH  61  84
ENDBRANCH  35  36
ENDBRANCH  27  30
ENDBRANCH  25  26
ENDBRANCH  24  25
ENDBRANCH  23  24
ENDBRANCH  22  23
ENDBRANCH  21  22
ENDBRANCH   1  21
TORSDOF 20
ENDMDL
