MODEL 1
REMARK VINA RESULT:     -13.6      0.000      0.000
REMARK SMILES O=C(C[C@H]1C(=O)N[NH+]=C2c3ccc(F)cc3N=CN21)NCCCCCCNC(=O)c1ccc(-c2c3nc(c(-c4c(F)c(F)c(F)c(F)c4F)c4ccc([nH]4)c(-c4c(F)c(F)c(F)c(F)c4F)c4nc(c(-c5c(F)c(F)c(F)c(F)c5F)c5ccc2[nH]5)C=C4)C=C3)cc1
REMARK SMILES IDX 24 1 23 2 22 3 21 4 20 5 1 6 2 7 3 9 4 10 5 11 19 12 6 13
REMARK SMILES IDX 7 14 9 15 18 16 8 17 10 19 17 20 11 22 16 23 12 24 15 25
REMARK SMILES IDX 13 26 14 27 25 28 26 29 27 30 28 31 29 33 30 34 31 35 92 36
REMARK SMILES IDX 32 37 91 38 33 39 34 40 35 41 85 42 36 43 90 44 84 45 86 46
REMARK SMILES IDX 37 47 89 48 83 49 82 50 38 52 70 53 50 54 69 55 51 56 54 57
REMARK SMILES IDX 68 58 87 59 52 60 53 61 67 63 88 64 55 65 39 66 40 67 48 68
REMARK SMILES IDX 41 69 42 70 46 71 49 72 43 73 44 74 47 75 45 76 71 77 72 78
REMARK SMILES IDX 80 79 73 80 74 81 78 82 81 83 75 84 76 85 79 86 77 87 56 88
REMARK SMILES IDX 57 89 65 90 58 91 59 92 63 93 66 94 60 95 61 96 64 97 62 98
REMARK H PARENT 20 8 7 18 8 21 27 32 86 51 54 62
REMARK Flexibility Score: inf
ROOT
ATOM      1  C   UNL A   1      31.864  30.607  26.272  1.00  0.00     0.002 C 
ENDROOT
BRANCH   1   2
ATOM      2  C   UNL A   1      31.103  30.203  25.007  1.00  0.00     0.002 C 
BRANCH   2   3
ATOM      3  C   UNL A   1      31.685  29.006  24.236  1.00  0.00     0.021 C 
BRANCH   3   4
ATOM      4  C   UNL A   1      33.205  28.850  24.331  1.00  0.00     0.116 C 
BRANCH   4   5
ATOM      5  N   UNL A   1      33.592  27.493  24.018  1.00  0.00    -0.356 N 
ATOM      6  O   UNL A   1      33.490  26.608  26.128  1.00  0.00    -0.275 OA
ATOM      7  C   UNL A   1      33.708  26.479  24.929  1.00  0.00     0.224 C 
ATOM      8  H   UNL A   1      33.789  27.282  23.076  1.00  0.00     0.163 HD
BRANCH   7   9
ATOM      9  C   UNL A   1      34.141  25.154  24.329  1.00  0.00     0.160 C 
BRANCH   9  10
ATOM     10  C   UNL A   1      32.955  24.464  23.628  1.00  0.00     0.284 C 
ATOM     11  C   UNL A   1      33.185  24.544  22.110  1.00  0.00     0.300 C 
ATOM     12  N   UNL A   1      32.769  23.068  24.069  1.00  0.00    -0.203 N 
ATOM     13  O   UNL A   1      33.663  25.535  21.555  1.00  0.00    -0.267 OA
ATOM     14  N   UNL A   1      32.781  23.489  21.347  1.00  0.00    -0.193 N 
ATOM     15  C   UNL A   1      32.572  22.086  23.107  1.00  0.00     0.309 C 
ATOM     16  C   UNL A   1      32.669  22.767  25.412  1.00  0.00     0.317 C 
ATOM     17  N   UNL A   1      32.520  22.256  21.821  1.00  0.00    -0.169 N 
ATOM     18  H   UNL A   1      32.671  23.640  20.381  1.00  0.00     0.216 HD
ATOM     19  C   UNL A   1      32.464  20.691  23.616  1.00  0.00     0.092 A 
ATOM     20  N   UNL A   1      32.574  21.582  25.923  1.00  0.00    -0.216 NA
ATOM     21  H   UNL A   1      32.299  21.513  21.215  1.00  0.00     0.340 HD
ATOM     22  C   UNL A   1      32.408  19.603  22.735  1.00  0.00     0.022 A 
ATOM     23  C   UNL A   1      32.559  20.507  25.007  1.00  0.00     0.085 A 
ATOM     24  C   UNL A   1      32.506  18.312  23.244  1.00  0.00     0.040 A 
ATOM     25  C   UNL A   1      32.658  19.206  25.497  1.00  0.00     0.068 A 
ATOM     26  C   UNL A   1      32.650  18.128  24.616  1.00  0.00     0.125 A 
ATOM     27  F   UNL A   1      32.797  16.885  25.095  1.00  0.00    -0.207 F 
ENDBRANCH   9  10
ENDBRANCH   7   9
ENDBRANCH   4   5
ENDBRANCH   3   4
ENDBRANCH   2   3
ENDBRANCH   1   2
BRANCH   1  28
ATOM     28  C   UNL A   1      31.512  31.992  26.810  1.00  0.00     0.021 C 
BRANCH  28  29
ATOM     29  C   UNL A   1      32.694  32.781  27.363  1.00  0.00     0.116 C 
BRANCH  29  30
ATOM     30  N   UNL A   1      32.367  34.170  27.656  1.00  0.00    -0.352 N 
ATOM     31  C   UNL A   1      32.948  35.031  28.561  1.00  0.00     0.251 C 
ATOM     32  H   UNL A   1      31.625  34.547  27.131  1.00  0.00     0.163 HD
ATOM     33  O   UNL A   1      32.463  36.132  28.773  1.00  0.00    -0.269 OA
BRANCH  31  34
ATOM     34  C   UNL A   1      34.146  34.592  29.311  1.00  0.00     0.039 A 
ATOM     35  C   UNL A   1      35.416  34.670  28.735  1.00  0.00     0.014 A 
ATOM     36  C   UNL A   1      33.987  34.052  30.590  1.00  0.00     0.014 A 
ATOM     37  C   UNL A   1      36.490  34.042  29.354  1.00  0.00     0.010 A 
ATOM     38  C   UNL A   1      35.089  33.501  31.251  1.00  0.00     0.010 A 
ATOM     39  C   UNL A   1      36.337  33.439  30.614  1.00  0.00    -0.014 A 
BRANCH  39  40
ATOM     40  C   UNL A   1      37.489  32.729  31.228  1.00  0.00     0.031 A 
ATOM     41  C   UNL A   1      37.954  33.076  32.618  1.00  0.00     0.074 A 
ATOM     42  C   UNL A   1      38.080  31.723  30.556  1.00  0.00     0.049 A 
ATOM     43  N   UNL A   1      38.928  32.550  33.320  1.00  0.00    -0.248 NA
ATOM     44  C   UNL A   1      37.233  34.155  33.314  1.00  0.00     0.031 C 
ATOM     45  C   UNL A   1      37.709  31.280  29.212  1.00  0.00     0.029 A 
ATOM     46  N   UNL A   1      39.096  30.874  30.917  1.00  0.00    -0.354 N 
ATOM     47  C   UNL A   1      38.947  33.241  34.525  1.00  0.00     0.074 A 
ATOM     48  C   UNL A   1      37.910  34.246  34.452  1.00  0.00     0.031 C 
ATOM     49  C   UNL A   1      38.447  30.210  28.883  1.00  0.00     0.029 A 
ATOM     50  C   UNL A   1      39.387  29.931  29.964  1.00  0.00     0.049 A 
ATOM     51  H   UNL A   1      39.570  30.936  31.778  1.00  0.00     0.167 HD
ATOM     52  C   UNL A   1      39.744  33.041  35.602  1.00  0.00     0.037 A 
ATOM     53  C   UNL A   1      40.316  28.956  29.952  1.00  0.00     0.037 A 
ATOM     54  C   UNL A   1      40.760  32.023  35.683  1.00  0.00     0.049 A 
ATOM     55  C   UNL A   1      41.224  28.793  31.137  1.00  0.00     0.074 A 
ATOM     56  C   UNL A   1      41.604  31.732  36.741  1.00  0.00     0.029 A 
ATOM     57  N   UNL A   1      41.067  31.129  34.669  1.00  0.00    -0.354 N 
ATOM     58  N   UNL A   1      41.227  29.448  32.272  1.00  0.00    -0.248 NA
ATOM     59  C   UNL A   1      42.265  27.762  31.037  1.00  0.00     0.031 C 
ATOM     60  C   UNL A   1      42.452  30.691  36.350  1.00  0.00     0.029 A 
ATOM     61  C   UNL A   1      42.104  30.300  35.068  1.00  0.00     0.049 A 
ATOM     62  H   UNL A   1      40.615  31.088  33.795  1.00  0.00     0.167 HD
ATOM     63  C   UNL A   1      42.258  28.904  33.025  1.00  0.00     0.074 A 
ATOM     64  C   UNL A   1      42.845  27.848  32.227  1.00  0.00     0.031 C 
ATOM     65  C   UNL A   1      42.680  29.252  34.264  1.00  0.00     0.037 A 
BRANCH  52  66
ATOM     66  C   UNL A   1      39.562  33.941  36.789  1.00  0.00     0.064 A 
ATOM     67  C   UNL A   1      38.781  33.556  37.890  1.00  0.00     0.173 A 
ATOM     68  C   UNL A   1      40.235  35.170  36.862  1.00  0.00     0.173 A 
ATOM     69  F   UNL A   1      38.108  32.396  37.867  1.00  0.00    -0.203 F 
ATOM     70  C   UNL A   1      38.671  34.374  39.012  1.00  0.00     0.198 A 
ATOM     71  C   UNL A   1      40.144  35.973  37.996  1.00  0.00     0.198 A 
ATOM     72  F   UNL A   1      41.000  35.583  35.841  1.00  0.00    -0.203 F 
ATOM     73  F   UNL A   1      37.894  34.000  40.038  1.00  0.00    -0.200 F 
ATOM     74  C   UNL A   1      39.360  35.576  39.068  1.00  0.00     0.200 A 
ATOM     75  F   UNL A   1      40.824  37.128  38.054  1.00  0.00    -0.200 F 
ATOM     76  F   UNL A   1      39.266  36.354  40.155  1.00  0.00    -0.200 F 
ENDBRANCH  52  66
BRANCH  53  77
ATOM     77  C   UNL A   1      40.422  28.060  28.772  1.00  0.00     0.064 A 
ATOM     78  C   UNL A   1      39.740  26.836  28.735  1.00  0.00     0.173 A 
ATOM     79  C   UNL A   1      41.181  28.420  27.648  1.00  0.00     0.173 A 
ATOM     80  F   UNL A   1      39.019  26.439  29.795  1.00  0.00    -0.203 F 
ATOM     81  C   UNL A   1      39.815  26.006  27.620  1.00  0.00     0.198 A 
ATOM     82  C   UNL A   1      41.230  27.602  26.522  1.00  0.00     0.198 A 
ATOM     83  F   UNL A   1      41.850  29.581  27.634  1.00  0.00    -0.203 F 
ATOM     84  F   UNL A   1      39.177  24.827  27.621  1.00  0.00    -0.200 F 
ATOM     85  C   UNL A   1      40.551  26.394  26.510  1.00  0.00     0.200 A 
ATOM     86  F   UNL A   1      41.929  27.990  25.446  1.00  0.00    -0.200 F 
ATOM     87  F   UNL A   1      40.609  25.602  25.430  1.00  0.00    -0.200 F 
ENDBRANCH  53  77
BRANCH  65  88
ATOM     88  C   UNL A   1      43.828  28.482  34.847  1.00  0.00     0.064 A 
ATOM     89  C   UNL A   1      45.151  28.922  34.704  1.00  0.00     0.173 A 
ATOM     90  C   UNL A   1      43.596  27.330  35.614  1.00  0.00     0.173 A 
ATOM     91  F   UNL A   1      45.425  30.010  33.968  1.00  0.00    -0.203 F 
ATOM     92  C   UNL A   1      46.203  28.229  35.297  1.00  0.00     0.198 A 
ATOM     93  C   UNL A   1      44.647  26.656  36.229  1.00  0.00     0.198 A 
ATOM     94  F   UNL A   1      42.347  26.872  35.787  1.00  0.00    -0.203 F 
ATOM     95  F   UNL A   1      47.463  28.648  35.119  1.00  0.00    -0.200 F 
ATOM     96  C   UNL A   1      45.950  27.103  36.067  1.00  0.00     0.200 A 
ATOM     97  F   UNL A   1      44.400  25.577  36.985  1.00  0.00    -0.200 F 
ATOM     98  F   UNL A   1      46.962  26.448  36.651  1.00  0.00    -0.200 F 
ENDBRANCH  65  88
ENDBRANCH  39  40
ENDBRANCH  31  34
ENDBRANCH  29  30
ENDBRANCH  28  29
ENDBRANCH   1  28
TORSDOF 14
ENDMDL
MODEL 2
REMARK VINA RESULT:     -13.5      5.713     11.270
REMARK SMILES O=C(C[C@H]1C(=O)N[NH+]=C2c3ccc(F)cc3N=CN21)NCCCCCCNC(=O)c1ccc(-c2c3nc(c(-c4c(F)c(F)c(F)c(F)c4F)c4ccc([nH]4)c(-c4c(F)c(F)c(F)c(F)c4F)c4nc(c(-c5c(F)c(F)c(F)c(F)c5F)c5ccc2[nH]5)C=C4)C=C3)cc1
REMARK SMILES IDX 24 1 23 2 22 3 21 4 20 5 1 6 2 7 3 9 4 10 5 11 19 12 6 13
REMARK SMILES IDX 7 14 9 15 18 16 8 17 10 19 17 20 11 22 16 23 12 24 15 25
REMARK SMILES IDX 13 26 14 27 25 28 26 29 27 30 28 31 29 33 30 34 31 35 92 36
REMARK SMILES IDX 32 37 91 38 33 39 34 40 35 41 85 42 36 43 90 44 84 45 86 46
REMARK SMILES IDX 37 47 89 48 83 49 82 50 38 52 70 53 50 54 69 55 51 56 54 57
REMARK SMILES IDX 68 58 87 59 52 60 53 61 67 63 88 64 55 65 39 66 40 67 48 68
REMARK SMILES IDX 41 69 42 70 46 71 49 72 43 73 44 74 47 75 45 76 71 77 72 78
REMARK SMILES IDX 80 79 73 80 74 81 78 82 81 83 75 84 76 85 79 86 77 87 56 88
REMARK SMILES IDX 57 89 65 90 58 91 59 92 63 93 66 94 60 95 61 96 64 97 62 98
REMARK H PARENT 20 8 7 18 8 21 27 32 86 51 54 62
REMARK Flexibility Score: inf
ROOT
ATOM      1  C   UNL A   1      36.932  20.881  25.028  1.00  0.00     0.002 C 
ENDROOT
BRANCH   1   2
ATOM      2  C   UNL A   1      35.503  20.337  24.974  1.00  0.00     0.002 C 
BRANCH   2   3
ATOM      3  C   UNL A   1      34.450  21.161  25.735  1.00  0.00     0.021 C 
BRANCH   3   4
ATOM      4  C   UNL A   1      35.006  22.335  26.544  1.00  0.00     0.116 C 
BRANCH   4   5
ATOM      5  N   UNL A   1      34.087  23.451  26.507  1.00  0.00    -0.356 N 
ATOM      6  O   UNL A   1      35.153  24.723  24.929  1.00  0.00    -0.275 OA
ATOM      7  C   UNL A   1      34.225  24.555  25.711  1.00  0.00     0.224 C 
ATOM      8  H   UNL A   1      33.303  23.414  27.101  1.00  0.00     0.163 HD
BRANCH   7   9
ATOM      9  C   UNL A   1      33.119  25.582  25.881  1.00  0.00     0.160 C 
BRANCH   9  10
ATOM     10  C   UNL A   1      31.860  25.152  25.106  1.00  0.00     0.284 C 
ATOM     11  C   UNL A   1      30.794  24.722  26.128  1.00  0.00     0.300 C 
ATOM     12  N   UNL A   1      31.351  26.214  24.216  1.00  0.00    -0.203 N 
ATOM     13  O   UNL A   1      31.063  24.092  27.152  1.00  0.00    -0.267 OA
ATOM     14  N   UNL A   1      29.490  25.002  25.846  1.00  0.00    -0.193 N 
ATOM     15  C   UNL A   1      29.991  26.496  24.225  1.00  0.00     0.309 C 
ATOM     16  C   UNL A   1      32.190  26.824  23.306  1.00  0.00     0.317 C 
ATOM     17  N   UNL A   1      29.080  25.911  24.941  1.00  0.00    -0.169 N 
ATOM     18  H   UNL A   1      28.799  24.503  26.338  1.00  0.00     0.216 HD
ATOM     19  C   UNL A   1      29.557  27.627  23.358  1.00  0.00     0.092 A 
ATOM     20  N   UNL A   1      31.881  27.809  22.525  1.00  0.00    -0.216 NA
ATOM     21  H   UNL A   1      28.125  26.123  24.827  1.00  0.00     0.340 HD
ATOM     22  C   UNL A   1      28.238  28.097  23.391  1.00  0.00     0.022 A 
ATOM     23  C   UNL A   1      30.554  28.282  22.614  1.00  0.00     0.085 A 
ATOM     24  C   UNL A   1      27.920  29.272  22.719  1.00  0.00     0.040 A 
ATOM     25  C   UNL A   1      30.215  29.459  21.948  1.00  0.00     0.068 A 
ATOM     26  C   UNL A   1      28.914  29.951  22.022  1.00  0.00     0.125 A 
ATOM     27  F   UNL A   1      28.614  31.109  21.420  1.00  0.00    -0.207 F 
ENDBRANCH   9  10
ENDBRANCH   7   9
ENDBRANCH   4   5
ENDBRANCH   3   4
ENDBRANCH   2   3
ENDBRANCH   1   2
BRANCH   1  28
ATOM     28  C   UNL A   1      38.022  19.812  24.991  1.00  0.00     0.021 C 
BRANCH  28  29
ATOM     29  C   UNL A   1      39.290  20.165  25.759  1.00  0.00     0.116 C 
BRANCH  29  30
ATOM     30  N   UNL A   1      40.233  19.059  25.848  1.00  0.00    -0.352 N 
ATOM     31  C   UNL A   1      41.586  19.083  26.105  1.00  0.00     0.251 C 
ATOM     32  H   UNL A   1      39.847  18.165  25.704  1.00  0.00     0.163 HD
ATOM     33  O   UNL A   1      42.256  18.066  26.015  1.00  0.00    -0.269 OA
BRANCH  31  34
ATOM     34  C   UNL A   1      42.233  20.369  26.451  1.00  0.00     0.039 A 
ATOM     35  C   UNL A   1      42.241  20.831  27.768  1.00  0.00     0.014 A 
ATOM     36  C   UNL A   1      42.799  21.141  25.433  1.00  0.00     0.014 A 
ATOM     37  C   UNL A   1      42.640  22.136  28.036  1.00  0.00     0.010 A 
ATOM     38  C   UNL A   1      43.284  22.420  25.721  1.00  0.00     0.010 A 
ATOM     39  C   UNL A   1      43.154  22.950  27.014  1.00  0.00    -0.014 A 
BRANCH  39  40
ATOM     40  C   UNL A   1      43.524  24.358  27.317  1.00  0.00     0.031 A 
ATOM     41  C   UNL A   1      44.913  24.866  27.034  1.00  0.00     0.074 A 
ATOM     42  C   UNL A   1      42.585  25.199  27.791  1.00  0.00     0.049 A 
ATOM     43  N   UNL A   1      45.407  26.066  27.217  1.00  0.00    -0.248 NA
ATOM     44  C   UNL A   1      45.876  23.904  26.473  1.00  0.00     0.031 C 
ATOM     45  C   UNL A   1      41.201  24.831  28.088  1.00  0.00     0.029 A 
ATOM     46  N   UNL A   1      42.643  26.539  28.081  1.00  0.00    -0.354 N 
ATOM     47  C   UNL A   1      46.734  25.998  26.812  1.00  0.00     0.074 A 
ATOM     48  C   UNL A   1      46.981  24.633  26.403  1.00  0.00     0.031 C 
ATOM     49  C   UNL A   1      40.527  25.927  28.465  1.00  0.00     0.029 A 
ATOM     50  C   UNL A   1      41.445  27.062  28.500  1.00  0.00     0.049 A 
ATOM     51  H   UNL A   1      43.465  27.075  27.995  1.00  0.00     0.167 HD
ATOM     52  C   UNL A   1      47.656  26.990  26.767  1.00  0.00     0.037 A 
ATOM     53  C   UNL A   1      41.121  28.311  28.883  1.00  0.00     0.037 A 
ATOM     54  C   UNL A   1      47.402  28.355  27.151  1.00  0.00     0.049 A 
ATOM     55  C   UNL A   1      42.178  29.378  28.876  1.00  0.00     0.074 A 
ATOM     56  C   UNL A   1      48.269  29.434  27.121  1.00  0.00     0.029 A 
ATOM     57  N   UNL A   1      46.190  28.829  27.632  1.00  0.00    -0.354 N 
ATOM     58  N   UNL A   1      43.426  29.302  28.485  1.00  0.00    -0.248 NA
ATOM     59  C   UNL A   1      41.784  30.703  29.374  1.00  0.00     0.031 C 
ATOM     60  C   UNL A   1      47.595  30.550  27.626  1.00  0.00     0.029 A 
ATOM     61  C   UNL A   1      46.294  30.179  27.924  1.00  0.00     0.049 A 
ATOM     62  H   UNL A   1      45.377  28.286  27.749  1.00  0.00     0.167 HD
ATOM     63  C   UNL A   1      43.964  30.567  28.677  1.00  0.00     0.074 A 
ATOM     64  C   UNL A   1      42.900  31.399  29.199  1.00  0.00     0.031 C 
ATOM     65  C   UNL A   1      45.228  30.996  28.444  1.00  0.00     0.037 A 
BRANCH  52  66
ATOM     66  C   UNL A   1      49.037  26.645  26.289  1.00  0.00     0.064 A 
ATOM     67  C   UNL A   1      49.434  26.876  24.963  1.00  0.00     0.173 A 
ATOM     68  C   UNL A   1      49.998  26.150  27.183  1.00  0.00     0.173 A 
ATOM     69  F   UNL A   1      48.551  27.339  24.065  1.00  0.00    -0.203 F 
ATOM     70  C   UNL A   1      50.736  26.611  24.548  1.00  0.00     0.198 A 
ATOM     71  C   UNL A   1      51.306  25.911  26.772  1.00  0.00     0.198 A 
ATOM     72  F   UNL A   1      49.673  25.918  28.464  1.00  0.00    -0.203 F 
ATOM     73  F   UNL A   1      51.084  26.809  23.268  1.00  0.00    -0.200 F 
ATOM     74  C   UNL A   1      51.674  26.138  25.454  1.00  0.00     0.200 A 
ATOM     75  F   UNL A   1      52.215  25.468  27.654  1.00  0.00    -0.200 F 
ATOM     76  F   UNL A   1      52.931  25.899  25.057  1.00  0.00    -0.200 F 
ENDBRANCH  52  66
BRANCH  53  77
ATOM     77  C   UNL A   1      39.727  28.611  29.300  1.00  0.00     0.064 A 
ATOM     78  C   UNL A   1      39.315  28.416  30.625  1.00  0.00     0.173 A 
ATOM     79  C   UNL A   1      38.790  29.127  28.392  1.00  0.00     0.173 A 
ATOM     80  F   UNL A   1      40.169  27.904  31.523  1.00  0.00    -0.203 F 
ATOM     81  C   UNL A   1      38.016  28.722  31.025  1.00  0.00     0.198 A 
ATOM     82  C   UNL A   1      37.501  29.462  28.802  1.00  0.00     0.198 A 
ATOM     83  F   UNL A   1      39.136  29.335  27.114  1.00  0.00    -0.203 F 
ATOM     84  F   UNL A   1      37.638  28.498  32.291  1.00  0.00    -0.200 F 
ATOM     85  C   UNL A   1      37.114  29.254  30.117  1.00  0.00     0.200 A 
ATOM     86  F   UNL A   1      36.638  29.991  27.923  1.00  0.00    -0.200 F 
ATOM     87  F   UNL A   1      35.870  29.565  30.507  1.00  0.00    -0.200 F 
ENDBRANCH  53  77
BRANCH  65  88
ATOM     88  C   UNL A   1      45.536  32.435  28.741  1.00  0.00     0.064 A 
ATOM     89  C   UNL A   1      46.079  32.826  29.972  1.00  0.00     0.173 A 
ATOM     90  C   UNL A   1      45.351  33.420  27.759  1.00  0.00     0.173 A 
ATOM     91  F   UNL A   1      46.261  31.923  30.948  1.00  0.00    -0.203 F 
ATOM     92  C   UNL A   1      46.414  34.155  30.216  1.00  0.00     0.198 A 
ATOM     93  C   UNL A   1      45.713  34.743  27.995  1.00  0.00     0.198 A 
ATOM     94  F   UNL A   1      44.842  33.094  26.561  1.00  0.00    -0.203 F 
ATOM     95  F   UNL A   1      46.900  34.513  31.412  1.00  0.00    -0.200 F 
ATOM     96  C   UNL A   1      46.240  35.110  29.225  1.00  0.00     0.200 A 
ATOM     97  F   UNL A   1      45.559  35.661  27.032  1.00  0.00    -0.200 F 
ATOM     98  F   UNL A   1      46.579  36.386  29.455  1.00  0.00    -0.200 F 
ENDBRANCH  65  88
ENDBRANCH  39  40
ENDBRANCH  31  34
ENDBRANCH  29  30
ENDBRANCH  28  29
ENDBRANCH   1  28
TORSDOF 14
ENDMDL
MODEL 3
REMARK VINA RESULT:     -13.5      0.363      1.644
REMARK SMILES O=C(C[C@H]1C(=O)N[NH+]=C2c3ccc(F)cc3N=CN21)NCCCCCCNC(=O)c1ccc(-c2c3nc(c(-c4c(F)c(F)c(F)c(F)c4F)c4ccc([nH]4)c(-c4c(F)c(F)c(F)c(F)c4F)c4nc(c(-c5c(F)c(F)c(F)c(F)c5F)c5ccc2[nH]5)C=C4)C=C3)cc1
REMARK SMILES IDX 24 1 23 2 22 3 21 4 20 5 1 6 2 7 3 9 4 10 5 11 19 12 6 13
REMARK SMILES IDX 7 14 9 15 18 16 8 17 10 19 17 20 11 22 16 23 12 24 15 25
REMARK SMILES IDX 13 26 14 27 25 28 26 29 27 30 28 31 29 33 30 34 31 35 92 36
REMARK SMILES IDX 32 37 91 38 33 39 34 40 35 41 85 42 36 43 90 44 84 45 86 46
REMARK SMILES IDX 37 47 89 48 83 49 82 50 38 52 70 53 50 54 69 55 51 56 54 57
REMARK SMILES IDX 68 58 87 59 52 60 53 61 67 63 88 64 55 65 39 66 40 67 48 68
REMARK SMILES IDX 41 69 42 70 46 71 49 72 43 73 44 74 47 75 45 76 71 77 72 78
REMARK SMILES IDX 80 79 73 80 74 81 78 82 81 83 75 84 76 85 79 86 77 87 56 88
REMARK SMILES IDX 57 89 65 90 58 91 59 92 63 93 66 94 60 95 61 96 64 97 62 98
REMARK H PARENT 20 8 7 18 8 21 27 32 86 51 54 62
REMARK Flexibility Score: inf
ROOT
ATOM      1  C   UNL A   1      31.790  30.465  26.584  1.00  0.00     0.002 C 
ENDROOT
BRANCH   1   2
ATOM      2  C   UNL A   1      33.121  29.971  27.157  1.00  0.00     0.002 C 
BRANCH   2   3
ATOM      3  C   UNL A   1      34.024  29.207  26.174  1.00  0.00     0.021 C 
BRANCH   3   4
ATOM      4  C   UNL A   1      33.384  28.888  24.820  1.00  0.00     0.116 C 
BRANCH   4   5
ATOM      5  N   UNL A   1      33.736  27.549  24.400  1.00  0.00    -0.356 N 
ATOM      6  O   UNL A   1      32.980  26.402  26.233  1.00  0.00    -0.275 OA
ATOM      7  C   UNL A   1      33.513  26.414  25.130  1.00  0.00     0.224 C 
ATOM      8  H   UNL A   1      34.171  27.448  23.522  1.00  0.00     0.163 HD
BRANCH   7   9
ATOM      9  C   UNL A   1      33.991  25.141  24.454  1.00  0.00     0.160 C 
BRANCH   9  10
ATOM     10  C   UNL A   1      32.841  24.480  23.672  1.00  0.00     0.284 C 
ATOM     11  C   UNL A   1      33.137  24.627  22.170  1.00  0.00     0.300 C 
ATOM     12  N   UNL A   1      32.643  23.064  24.041  1.00  0.00    -0.203 N 
ATOM     13  O   UNL A   1      33.634  25.644  21.682  1.00  0.00    -0.267 OA
ATOM     14  N   UNL A   1      32.773  23.607  21.344  1.00  0.00    -0.193 N 
ATOM     15  C   UNL A   1      32.494  22.126  23.029  1.00  0.00     0.309 C 
ATOM     16  C   UNL A   1      32.485  22.704  25.364  1.00  0.00     0.317 C 
ATOM     17  N   UNL A   1      32.498  22.353  21.750  1.00  0.00    -0.169 N 
ATOM     18  H   UNL A   1      32.705  23.800  20.381  1.00  0.00     0.216 HD
ATOM     19  C   UNL A   1      32.371  20.708  23.470  1.00  0.00     0.092 A 
ATOM     20  N   UNL A   1      32.374  21.496  25.816  1.00  0.00    -0.216 NA
ATOM     21  H   UNL A   1      32.308  21.636  21.103  1.00  0.00     0.340 HD
ATOM     22  C   UNL A   1      32.360  19.661  22.540  1.00  0.00     0.022 A 
ATOM     23  C   UNL A   1      32.406  20.464  24.854  1.00  0.00     0.085 A 
ATOM     24  C   UNL A   1      32.443  18.349  22.995  1.00  0.00     0.040 A 
ATOM     25  C   UNL A   1      32.490  19.142  25.290  1.00  0.00     0.068 A 
ATOM     26  C   UNL A   1      32.526  18.104  24.362  1.00  0.00     0.125 A 
ATOM     27  F   UNL A   1      32.659  16.842  24.791  1.00  0.00    -0.207 F 
ENDBRANCH   9  10
ENDBRANCH   7   9
ENDBRANCH   4   5
ENDBRANCH   3   4
ENDBRANCH   2   3
ENDBRANCH   1   2
BRANCH   1  28
ATOM     28  C   UNL A   1      31.545  31.963  26.749  1.00  0.00     0.021 C 
BRANCH  28  29
ATOM     29  C   UNL A   1      32.715  32.742  27.339  1.00  0.00     0.116 C 
BRANCH  29  30
ATOM     30  N   UNL A   1      32.378  34.119  27.670  1.00  0.00    -0.352 N 
ATOM     31  C   UNL A   1      32.953  34.960  28.597  1.00  0.00     0.251 C 
ATOM     32  H   UNL A   1      31.632  34.504  27.156  1.00  0.00     0.163 HD
ATOM     33  O   UNL A   1      32.460  36.050  28.839  1.00  0.00    -0.269 OA
BRANCH  31  34
ATOM     34  C   UNL A   1      34.156  34.511  29.333  1.00  0.00     0.039 A 
ATOM     35  C   UNL A   1      35.429  34.661  28.778  1.00  0.00     0.014 A 
ATOM     36  C   UNL A   1      34.001  33.889  30.574  1.00  0.00     0.014 A 
ATOM     37  C   UNL A   1      36.515  34.028  29.370  1.00  0.00     0.010 A 
ATOM     38  C   UNL A   1      35.112  33.330  31.213  1.00  0.00     0.010 A 
ATOM     39  C   UNL A   1      36.368  33.344  30.588  1.00  0.00    -0.014 A 
BRANCH  39  40
ATOM     40  C   UNL A   1      37.534  32.631  31.172  1.00  0.00     0.031 A 
ATOM     41  C   UNL A   1      38.019  32.958  32.559  1.00  0.00     0.074 A 
ATOM     42  C   UNL A   1      38.120  31.641  30.472  1.00  0.00     0.049 A 
ATOM     43  N   UNL A   1      39.008  32.427  33.235  1.00  0.00    -0.248 NA
ATOM     44  C   UNL A   1      37.304  34.020  33.285  1.00  0.00     0.031 C 
ATOM     45  C   UNL A   1      37.730  31.218  29.127  1.00  0.00     0.029 A 
ATOM     46  N   UNL A   1      39.147  30.792  30.802  1.00  0.00    -0.354 N 
ATOM     47  C   UNL A   1      39.043  33.097  34.452  1.00  0.00     0.074 A 
ATOM     48  C   UNL A   1      37.998  34.097  34.413  1.00  0.00     0.031 C 
ATOM     49  C   UNL A   1      38.469  30.159  28.768  1.00  0.00     0.029 A 
ATOM     50  C   UNL A   1      39.429  29.867  29.828  1.00  0.00     0.049 A 
ATOM     51  H   UNL A   1      39.635  30.843  31.657  1.00  0.00     0.167 HD
ATOM     52  C   UNL A   1      39.859  32.884  35.512  1.00  0.00     0.037 A 
ATOM     53  C   UNL A   1      40.363  28.899  29.785  1.00  0.00     0.037 A 
ATOM     54  C   UNL A   1      40.883  31.872  35.560  1.00  0.00     0.049 A 
ATOM     55  C   UNL A   1      41.292  28.722  30.952  1.00  0.00     0.074 A 
ATOM     56  C   UNL A   1      41.746  31.568  36.598  1.00  0.00     0.029 A 
ATOM     57  N   UNL A   1      41.179  30.996  34.525  1.00  0.00    -0.354 N 
ATOM     58  N   UNL A   1      41.310  29.358  32.098  1.00  0.00    -0.248 NA
ATOM     59  C   UNL A   1      42.338  27.699  30.818  1.00  0.00     0.031 C 
ATOM     60  C   UNL A   1      42.594  30.540  36.176  1.00  0.00     0.029 A 
ATOM     61  C   UNL A   1      42.227  30.168  34.893  1.00  0.00     0.049 A 
ATOM     62  H   UNL A   1      40.713  30.967  33.658  1.00  0.00     0.167 HD
ATOM     63  C   UNL A   1      42.356  28.807  32.824  1.00  0.00     0.074 A 
ATOM     64  C   UNL A   1      42.936  27.769  31.999  1.00  0.00     0.031 C 
ATOM     65  C   UNL A   1      42.796  29.138  34.062  1.00  0.00     0.037 A 
BRANCH  52  66
ATOM     66  C   UNL A   1      39.691  33.763  36.718  1.00  0.00     0.064 A 
ATOM     67  C   UNL A   1      40.294  35.027  36.795  1.00  0.00     0.173 A 
ATOM     68  C   UNL A   1      38.855  33.370  37.774  1.00  0.00     0.173 A 
ATOM     69  F   UNL A   1      41.111  35.447  35.817  1.00  0.00    -0.203 F 
ATOM     70  C   UNL A   1      40.080  35.858  37.892  1.00  0.00     0.198 A 
ATOM     71  C   UNL A   1      38.621  34.214  38.856  1.00  0.00     0.198 A 
ATOM     72  F   UNL A   1      38.248  32.175  37.747  1.00  0.00    -0.203 F 
ATOM     73  F   UNL A   1      40.693  37.048  37.959  1.00  0.00    -0.200 F 
ATOM     74  C   UNL A   1      39.236  35.455  38.917  1.00  0.00     0.200 A 
ATOM     75  F   UNL A   1      37.793  33.829  39.838  1.00  0.00    -0.200 F 
ATOM     76  F   UNL A   1      39.017  36.263  39.963  1.00  0.00    -0.200 F 
ENDBRANCH  52  66
BRANCH  53  77
ATOM     77  C   UNL A   1      40.456  28.023  28.589  1.00  0.00     0.064 A 
ATOM     78  C   UNL A   1      41.212  28.407  27.473  1.00  0.00     0.173 A 
ATOM     79  C   UNL A   1      39.817  26.774  28.548  1.00  0.00     0.173 A 
ATOM     80  F   UNL A   1      41.822  29.601  27.457  1.00  0.00    -0.203 F 
ATOM     81  C   UNL A   1      41.323  27.576  26.361  1.00  0.00     0.198 A 
ATOM     82  C   UNL A   1      39.955  25.932  27.448  1.00  0.00     0.198 A 
ATOM     83  F   UNL A   1      39.084  26.360  29.592  1.00  0.00    -0.203 F 
ATOM     84  F   UNL A   1      42.028  27.980  25.295  1.00  0.00    -0.200 F 
ATOM     85  C   UNL A   1      40.704  26.335  26.353  1.00  0.00     0.200 A 
ATOM     86  F   UNL A   1      39.368  24.727  27.452  1.00  0.00    -0.200 F 
ATOM     87  F   UNL A   1      40.825  25.529  25.289  1.00  0.00    -0.200 F 
ENDBRANCH  53  77
BRANCH  65  88
ATOM     88  C   UNL A   1      43.959  28.365  34.613  1.00  0.00     0.064 A 
ATOM     89  C   UNL A   1      45.272  28.841  34.499  1.00  0.00     0.173 A 
ATOM     90  C   UNL A   1      43.748  27.172  35.321  1.00  0.00     0.173 A 
ATOM     91  F   UNL A   1      45.525  29.969  33.818  1.00  0.00    -0.203 F 
ATOM     92  C   UNL A   1      46.337  28.143  35.063  1.00  0.00     0.198 A 
ATOM     93  C   UNL A   1      44.812  26.492  35.909  1.00  0.00     0.198 A 
ATOM     94  F   UNL A   1      42.509  26.679  35.465  1.00  0.00    -0.203 F 
ATOM     95  F   UNL A   1      47.588  28.598  34.913  1.00  0.00    -0.200 F 
ATOM     96  C   UNL A   1      46.105  26.975  35.776  1.00  0.00     0.200 A 
ATOM     97  F   UNL A   1      44.585  25.373  36.609  1.00  0.00    -0.200 F 
ATOM     98  F   UNL A   1      47.129  26.315  36.332  1.00  0.00    -0.200 F 
ENDBRANCH  65  88
ENDBRANCH  39  40
ENDBRANCH  31  34
ENDBRANCH  29  30
ENDBRANCH  28  29
ENDBRANCH   1  28
TORSDOF 14
ENDMDL
