MODEL 1
REMARK VINA RESULT:     -10.6      0.000      0.000
REMARK SMILES CC(C)c1ncc(SC[C@H](O)CO)c(C(=O)NCCCCCCNC(=O)c2ccc(-c3c4nc(c(-c5c(F)c(F)c(F)c(F)c5F)c5ccc([nH]5)c(-c5c(F)c(F)c(F)c(F)c5F)c5nc(c(-c6c(F)c(F)c(F)c(F)c6F)c6ccc3[nH]6)C=C5)C=C4)cc2)n1
REMARK SMILES IDX 19 1 18 2 17 3 15 4 16 5 14 7 4 8 5 9 90 10 6 11 7 12 2 13
REMARK SMILES IDX 1 14 3 15 8 16 9 17 10 18 12 19 13 20 11 22 20 24 21 25
REMARK SMILES IDX 22 26 23 27 24 28 25 29 26 31 27 32 28 33 89 34 29 35 88 36
REMARK SMILES IDX 30 37 31 38 32 39 82 40 33 41 87 42 81 43 83 44 34 45 86 46
REMARK SMILES IDX 80 47 79 48 35 50 67 51 47 52 66 53 48 54 51 55 65 56 84 57
REMARK SMILES IDX 49 58 50 59 64 61 85 62 52 63 36 64 37 65 45 66 38 67 39 68
REMARK SMILES IDX 43 69 46 70 40 71 41 72 44 73 42 74 68 75 69 76 77 77 70 78
REMARK SMILES IDX 71 79 75 80 78 81 72 82 73 83 76 84 74 85 53 86 54 87 62 88
REMARK SMILES IDX 55 89 56 90 60 91 63 92 57 93 58 94 61 95 59 96
REMARK H PARENT 17 6 13 21 11 23 24 30 83 49 51 60
REMARK Flexibility Score: inf
ROOT
ATOM      1  C   UNL A   1      32.898  28.985  26.997  1.00  0.00     0.021 C 
ENDROOT
BRANCH   1   2
ATOM      2  C   UNL A   1      34.006  28.082  26.442  1.00  0.00     0.116 C 
BRANCH   2   3
ATOM      3  N   UNL A   1      33.858  27.982  25.013  1.00  0.00    -0.351 N 
ATOM      4  C   UNL A   1      33.672  26.936  24.148  1.00  0.00     0.271 C 
ATOM      5  O   UNL A   1      33.785  27.230  22.952  1.00  0.00    -0.267 OA
ATOM      6  H   UNL A   1      33.898  28.854  24.559  1.00  0.00     0.163 HD
BRANCH   4   7
ATOM      7  C   UNL A   1      33.251  25.528  24.496  1.00  0.00     0.145 A 
ATOM      8  C   UNL A   1      34.290  23.509  25.037  1.00  0.00     0.131 A 
ATOM      9  N   UNL A   1      33.158  22.986  25.520  1.00  0.00    -0.240 NA
ATOM     10  N   UNL A   1      34.362  24.730  24.496  1.00  0.00    -0.226 NA
ATOM     11  C   UNL A   1      32.073  23.782  25.477  1.00  0.00     0.130 A 
ATOM     12  C   UNL A   1      32.021  25.070  24.955  1.00  0.00     0.057 A 
BRANCH   8  13
ATOM     13  C   UNL A   1      35.578  22.766  25.311  1.00  0.00     0.051 C 
ATOM     14  C   UNL A   1      35.548  21.342  24.763  1.00  0.00     0.016 C 
ATOM     15  C   UNL A   1      36.755  23.553  24.727  1.00  0.00     0.016 C 
ENDBRANCH   8  13
BRANCH  12  16
ATOM     16  S   UNL A   1      30.501  25.918  25.250  1.00  0.00    -0.119 SA
BRANCH  16  17
ATOM     17  C   UNL A   1      29.804  26.393  23.600  1.00  0.00     0.109 C 
BRANCH  17  18
ATOM     18  C   UNL A   1      30.029  27.681  22.787  1.00  0.00     0.150 C 
BRANCH  18  19
ATOM     19  C   UNL A   1      30.374  28.979  23.514  1.00  0.00     0.188 C 
BRANCH  19  20
ATOM     20  O   UNL A   1      31.711  29.361  23.181  1.00  0.00    -0.394 OA
ATOM     21  H   UNL A   1      31.776  30.329  23.163  1.00  0.00     0.210 HD
ENDBRANCH  19  20
ENDBRANCH  18  19
BRANCH  18  22
ATOM     22  O   UNL A   1      30.977  27.468  21.732  1.00  0.00    -0.390 OA
ATOM     23  H   UNL A   1      31.556  26.725  21.962  1.00  0.00     0.211 HD
ENDBRANCH  18  22
ENDBRANCH  17  18
ENDBRANCH  16  17
ENDBRANCH  12  16
ENDBRANCH   4   7
ENDBRANCH   2   3
ENDBRANCH   1   2
BRANCH   1  24
ATOM     24  C   UNL A   1      32.822  30.360  26.325  1.00  0.00     0.002 C 
BRANCH  24  25
ATOM     25  C   UNL A   1      31.417  30.972  26.279  1.00  0.00     0.002 C 
BRANCH  25  26
ATOM     26  C   UNL A   1      31.329  32.447  26.685  1.00  0.00     0.021 C 
BRANCH  26  27
ATOM     27  C   UNL A   1      32.617  33.032  27.258  1.00  0.00     0.116 C 
BRANCH  27  28
ATOM     28  N   UNL A   1      32.437  34.402  27.707  1.00  0.00    -0.352 N 
ATOM     29  C   UNL A   1      33.028  35.064  28.755  1.00  0.00     0.251 C 
ATOM     30  H   UNL A   1      31.796  34.934  27.183  1.00  0.00     0.163 HD
ATOM     31  O   UNL A   1      32.591  36.148  29.123  1.00  0.00    -0.269 OA
BRANCH  29  32
ATOM     32  C   UNL A   1      34.188  34.467  29.451  1.00  0.00     0.039 A 
ATOM     33  C   UNL A   1      33.973  33.763  30.638  1.00  0.00     0.014 A 
ATOM     34  C   UNL A   1      35.487  34.633  28.958  1.00  0.00     0.014 A 
ATOM     35  C   UNL A   1      35.053  33.180  31.305  1.00  0.00     0.010 A 
ATOM     36  C   UNL A   1      36.554  33.999  29.589  1.00  0.00     0.010 A 
ATOM     37  C   UNL A   1      36.349  33.272  30.772  1.00  0.00    -0.014 A 
BRANCH  37  38
ATOM     38  C   UNL A   1      37.502  32.620  31.442  1.00  0.00     0.031 A 
ATOM     39  C   UNL A   1      38.198  31.458  30.791  1.00  0.00     0.074 A 
ATOM     40  C   UNL A   1      37.883  33.036  32.665  1.00  0.00     0.049 A 
ATOM     41  N   UNL A   1      39.175  30.714  31.247  1.00  0.00    -0.248 NA
ATOM     42  C   UNL A   1      37.713  31.061  29.460  1.00  0.00     0.031 C 
ATOM     43  C   UNL A   1      37.261  34.125  33.418  1.00  0.00     0.029 A 
ATOM     44  N   UNL A   1      38.879  32.585  33.494  1.00  0.00    -0.354 N 
ATOM     45  C   UNL A   1      39.409  29.757  30.269  1.00  0.00     0.074 A 
ATOM     46  C   UNL A   1      38.442  29.982  29.216  1.00  0.00     0.031 C 
ATOM     47  C   UNL A   1      37.899  34.269  34.590  1.00  0.00     0.029 A 
ATOM     48  C   UNL A   1      38.952  33.262  34.686  1.00  0.00     0.049 A 
ATOM     49  H   UNL A   1      39.484  31.845  33.256  1.00  0.00     0.167 HD
ATOM     50  C   UNL A   1      40.360  28.793  30.242  1.00  0.00     0.037 A 
ATOM     51  C   UNL A   1      39.771  33.086  35.740  1.00  0.00     0.037 A 
ATOM     52  C   UNL A   1      41.339  28.590  31.278  1.00  0.00     0.049 A 
ATOM     53  C   UNL A   1      40.818  32.007  35.685  1.00  0.00     0.074 A 
ATOM     54  C   UNL A   1      42.383  27.683  31.314  1.00  0.00     0.029 A 
ATOM     55  N   UNL A   1      41.392  29.308  32.464  1.00  0.00    -0.354 N 
ATOM     56  N   UNL A   1      41.073  31.150  34.727  1.00  0.00    -0.248 NA
ATOM     57  C   UNL A   1      41.694  31.875  36.857  1.00  0.00     0.031 C 
ATOM     58  C   UNL A   1      43.042  27.822  32.541  1.00  0.00     0.029 A 
ATOM     59  C   UNL A   1      42.437  28.848  33.249  1.00  0.00     0.049 A 
ATOM     60  H   UNL A   1      40.778  30.036  32.711  1.00  0.00     0.167 HD
ATOM     61  C   UNL A   1      42.151  30.395  35.167  1.00  0.00     0.074 A 
ATOM     62  C   UNL A   1      42.513  30.906  36.474  1.00  0.00     0.031 C 
ATOM     63  C   UNL A   1      42.785  29.371  34.546  1.00  0.00     0.037 A 
BRANCH  50  64
ATOM     64  C   UNL A   1      40.390  27.881  29.049  1.00  0.00     0.064 A 
ATOM     65  C   UNL A   1      39.618  26.711  28.998  1.00  0.00     0.173 A 
ATOM     66  C   UNL A   1      41.174  28.198  27.930  1.00  0.00     0.173 A 
ATOM     67  F   UNL A   1      38.859  26.357  30.047  1.00  0.00    -0.203 F 
ATOM     68  C   UNL A   1      39.653  25.876  27.884  1.00  0.00     0.198 A 
ATOM     69  C   UNL A   1      41.184  27.377  26.806  1.00  0.00     0.198 A 
ATOM     70  F   UNL A   1      41.927  29.308  27.924  1.00  0.00    -0.203 F 
ATOM     71  F   UNL A   1      38.944  24.739  27.879  1.00  0.00    -0.200 F 
ATOM     72  C   UNL A   1      40.430  26.213  26.786  1.00  0.00     0.200 A 
ATOM     73  F   UNL A   1      41.927  27.710  25.741  1.00  0.00    -0.200 F 
ATOM     74  F   UNL A   1      40.458  25.412  25.713  1.00  0.00    -0.200 F 
ENDBRANCH  50  64
BRANCH  51  75
ATOM     75  C   UNL A   1      39.650  33.970  36.927  1.00  0.00     0.064 A 
ATOM     76  C   UNL A   1      40.309  35.206  36.972  1.00  0.00     0.173 A 
ATOM     77  C   UNL A   1      38.875  33.602  38.037  1.00  0.00     0.173 A 
ATOM     78  F   UNL A   1      41.079  35.592  35.943  1.00  0.00    -0.203 F 
ATOM     79  C   UNL A   1      40.213  36.034  38.089  1.00  0.00     0.198 A 
ATOM     80  C   UNL A   1      38.758  34.442  39.142  1.00  0.00     0.198 A 
ATOM     81  F   UNL A   1      38.220  32.432  38.039  1.00  0.00    -0.203 F 
ATOM     82  F   UNL A   1      40.887  37.190  38.123  1.00  0.00    -0.200 F 
ATOM     83  C   UNL A   1      39.432  35.653  39.171  1.00  0.00     0.200 A 
ATOM     84  F   UNL A   1      37.991  34.077  40.178  1.00  0.00    -0.200 F 
ATOM     85  F   UNL A   1      39.335  36.451  40.243  1.00  0.00    -0.200 F 
ENDBRANCH  51  75
BRANCH  63  86
ATOM     86  C   UNL A   1      43.951  28.751  35.259  1.00  0.00     0.064 A 
ATOM     87  C   UNL A   1      45.260  29.221  35.070  1.00  0.00     0.173 A 
ATOM     88  C   UNL A   1      43.753  27.702  36.169  1.00  0.00     0.173 A 
ATOM     89  F   UNL A   1      45.502  30.212  34.198  1.00  0.00    -0.203 F 
ATOM     90  C   UNL A   1      46.330  28.647  35.750  1.00  0.00     0.198 A 
ATOM     91  C   UNL A   1      44.822  27.150  36.868  1.00  0.00     0.198 A 
ATOM     92  F   UNL A   1      42.521  27.221  36.389  1.00  0.00    -0.203 F 
ATOM     93  F   UNL A   1      47.578  29.081  35.521  1.00  0.00    -0.200 F 
ATOM     94  C   UNL A   1      46.110  27.617  36.653  1.00  0.00     0.200 A 
ATOM     95  F   UNL A   1      44.607  26.163  37.749  1.00  0.00    -0.200 F 
ATOM     96  F   UNL A   1      47.141  27.070  37.312  1.00  0.00    -0.200 F 
ENDBRANCH  63  86
ENDBRANCH  37  38
ENDBRANCH  29  32
ENDBRANCH  27  28
ENDBRANCH  26  27
ENDBRANCH  25  26
ENDBRANCH  24  25
ENDBRANCH   1  24
TORSDOF 20
ENDMDL
MODEL 2
REMARK VINA RESULT:     -10.5      1.363      3.155
REMARK SMILES CC(C)c1ncc(SC[C@H](O)CO)c(C(=O)NCCCCCCNC(=O)c2ccc(-c3c4nc(c(-c5c(F)c(F)c(F)c(F)c5F)c5ccc([nH]5)c(-c5c(F)c(F)c(F)c(F)c5F)c5nc(c(-c6c(F)c(F)c(F)c(F)c6F)c6ccc3[nH]6)C=C5)C=C4)cc2)n1
REMARK SMILES IDX 19 1 18 2 17 3 15 4 16 5 14 7 4 8 5 9 90 10 6 11 7 12 2 13
REMARK SMILES IDX 1 14 3 15 8 16 9 17 10 18 12 19 13 20 11 22 20 24 21 25
REMARK SMILES IDX 22 26 23 27 24 28 25 29 26 31 27 32 28 33 89 34 29 35 88 36
REMARK SMILES IDX 30 37 31 38 32 39 82 40 33 41 87 42 81 43 83 44 34 45 86 46
REMARK SMILES IDX 80 47 79 48 35 50 67 51 47 52 66 53 48 54 51 55 65 56 84 57
REMARK SMILES IDX 49 58 50 59 64 61 85 62 52 63 36 64 37 65 45 66 38 67 39 68
REMARK SMILES IDX 43 69 46 70 40 71 41 72 44 73 42 74 68 75 69 76 77 77 70 78
REMARK SMILES IDX 71 79 75 80 78 81 72 82 73 83 76 84 74 85 53 86 54 87 62 88
REMARK SMILES IDX 55 89 56 90 60 91 63 92 57 93 58 94 61 95 59 96
REMARK H PARENT 17 6 13 21 11 23 24 30 83 49 51 60
REMARK Flexibility Score: inf
ROOT
ATOM      1  C   UNL A   1      32.869  29.195  27.273  1.00  0.00     0.021 C 
ENDROOT
BRANCH   1   2
ATOM      2  C   UNL A   1      33.225  27.819  26.698  1.00  0.00     0.116 C 
BRANCH   2   3
ATOM      3  N   UNL A   1      32.072  26.960  26.787  1.00  0.00    -0.351 N 
ATOM      4  C   UNL A   1      31.065  26.630  25.920  1.00  0.00     0.271 C 
ATOM      5  O   UNL A   1      30.131  25.998  26.431  1.00  0.00    -0.267 OA
ATOM      6  H   UNL A   1      31.991  26.513  27.660  1.00  0.00     0.163 HD
BRANCH   4   7
ATOM      7  C   UNL A   1      31.032  26.860  24.428  1.00  0.00     0.145 A 
ATOM      8  C   UNL A   1      29.769  28.105  22.910  1.00  0.00     0.131 A 
ATOM      9  N   UNL A   1      30.681  27.964  21.943  1.00  0.00    -0.240 NA
ATOM     10  N   UNL A   1      29.890  27.548  24.119  1.00  0.00    -0.226 NA
ATOM     11  C   UNL A   1      31.780  27.255  22.264  1.00  0.00     0.130 A 
ATOM     12  C   UNL A   1      32.031  26.640  23.487  1.00  0.00     0.057 A 
BRANCH   8  13
ATOM     13  C   UNL A   1      28.661  29.110  22.688  1.00  0.00     0.051 C 
ATOM     14  C   UNL A   1      27.316  28.605  23.206  1.00  0.00     0.016 C 
ATOM     15  C   UNL A   1      29.038  30.439  23.347  1.00  0.00     0.016 C 
ENDBRANCH   8  13
BRANCH  12  16
ATOM     16  S   UNL A   1      33.658  25.975  23.651  1.00  0.00    -0.119 SA
BRANCH  16  17
ATOM     17  C   UNL A   1      33.482  24.161  23.991  1.00  0.00     0.109 C 
BRANCH  17  18
ATOM     18  C   UNL A   1      32.429  23.173  23.456  1.00  0.00     0.150 C 
BRANCH  18  19
ATOM     19  C   UNL A   1      31.013  23.199  24.026  1.00  0.00     0.188 C 
BRANCH  19  20
ATOM     20  O   UNL A   1      30.127  23.762  23.055  1.00  0.00    -0.394 OA
ATOM     21  H   UNL A   1      30.223  23.285  22.216  1.00  0.00     0.210 HD
ENDBRANCH  19  20
ENDBRANCH  18  19
BRANCH  18  22
ATOM     22  O   UNL A   1      32.360  23.216  22.024  1.00  0.00    -0.390 OA
ATOM     23  H   UNL A   1      32.780  22.424  21.655  1.00  0.00     0.211 HD
ENDBRANCH  18  22
ENDBRANCH  17  18
ENDBRANCH  16  17
ENDBRANCH  12  16
ENDBRANCH   4   7
ENDBRANCH   2   3
ENDBRANCH   1   2
BRANCH   1  24
ATOM     24  C   UNL A   1      32.747  30.298  26.216  1.00  0.00     0.002 C 
BRANCH  24  25
ATOM     25  C   UNL A   1      31.359  30.944  26.124  1.00  0.00     0.002 C 
BRANCH  25  26
ATOM     26  C   UNL A   1      31.296  32.423  26.520  1.00  0.00     0.021 C 
BRANCH  26  27
ATOM     27  C   UNL A   1      32.533  32.947  27.245  1.00  0.00     0.116 C 
BRANCH  27  28
ATOM     28  N   UNL A   1      32.377  34.332  27.652  1.00  0.00    -0.352 N 
ATOM     29  C   UNL A   1      32.993  35.022  28.666  1.00  0.00     0.251 C 
ATOM     30  H   UNL A   1      31.733  34.855  27.121  1.00  0.00     0.163 HD
ATOM     31  O   UNL A   1      32.575  36.123  29.006  1.00  0.00    -0.269 OA
BRANCH  29  32
ATOM     32  C   UNL A   1      34.159  34.434  29.361  1.00  0.00     0.039 A 
ATOM     33  C   UNL A   1      33.952  33.741  30.556  1.00  0.00     0.014 A 
ATOM     34  C   UNL A   1      35.454  34.599  28.860  1.00  0.00     0.014 A 
ATOM     35  C   UNL A   1      35.037  33.167  31.223  1.00  0.00     0.010 A 
ATOM     36  C   UNL A   1      36.526  33.974  29.491  1.00  0.00     0.010 A 
ATOM     37  C   UNL A   1      36.330  33.257  30.682  1.00  0.00    -0.014 A 
BRANCH  37  38
ATOM     38  C   UNL A   1      37.488  32.615  31.352  1.00  0.00     0.031 A 
ATOM     39  C   UNL A   1      38.204  31.469  30.693  1.00  0.00     0.074 A 
ATOM     40  C   UNL A   1      37.856  33.023  32.581  1.00  0.00     0.049 A 
ATOM     41  N   UNL A   1      39.188  30.735  31.147  1.00  0.00    -0.248 NA
ATOM     42  C   UNL A   1      37.732  31.079  29.355  1.00  0.00     0.031 C 
ATOM     43  C   UNL A   1      37.214  34.095  33.342  1.00  0.00     0.029 A 
ATOM     44  N   UNL A   1      38.854  32.577  33.411  1.00  0.00    -0.354 N 
ATOM     45  C   UNL A   1      39.442  29.791  30.160  1.00  0.00     0.074 A 
ATOM     46  C   UNL A   1      38.477  30.013  29.104  1.00  0.00     0.031 C 
ATOM     47  C   UNL A   1      37.844  34.236  34.520  1.00  0.00     0.029 A 
ATOM     48  C   UNL A   1      38.910  33.243  34.611  1.00  0.00     0.049 A 
ATOM     49  H   UNL A   1      39.470  31.848  33.170  1.00  0.00     0.167 HD
ATOM     50  C   UNL A   1      40.406  28.841  30.129  1.00  0.00     0.037 A 
ATOM     51  C   UNL A   1      39.726  33.067  35.668  1.00  0.00     0.037 A 
ATOM     52  C   UNL A   1      41.382  28.641  31.169  1.00  0.00     0.049 A 
ATOM     53  C   UNL A   1      40.788  32.004  35.608  1.00  0.00     0.074 A 
ATOM     54  C   UNL A   1      42.439  27.748  31.201  1.00  0.00     0.029 A 
ATOM     55  N   UNL A   1      41.418  29.347  32.363  1.00  0.00    -0.354 N 
ATOM     56  N   UNL A   1      41.061  31.160  34.642  1.00  0.00    -0.248 NA
ATOM     57  C   UNL A   1      41.659  31.872  36.783  1.00  0.00     0.031 C 
ATOM     58  C   UNL A   1      43.088  27.884  32.433  1.00  0.00     0.029 A 
ATOM     59  C   UNL A   1      42.465  28.894  33.149  1.00  0.00     0.049 A 
ATOM     60  H   UNL A   1      40.792  30.064  32.614  1.00  0.00     0.167 HD
ATOM     61  C   UNL A   1      42.146  30.416  35.081  1.00  0.00     0.074 A 
ATOM     62  C   UNL A   1      42.493  30.918  36.395  1.00  0.00     0.031 C 
ATOM     63  C   UNL A   1      42.798  29.407  34.453  1.00  0.00     0.037 A 
BRANCH  50  64
ATOM     64  C   UNL A   1      40.455  27.942  28.927  1.00  0.00     0.064 A 
ATOM     65  C   UNL A   1      41.233  28.258  27.804  1.00  0.00     0.173 A 
ATOM     66  C   UNL A   1      39.743  26.733  28.912  1.00  0.00     0.173 A 
ATOM     67  F   UNL A   1      41.924  29.407  27.764  1.00  0.00    -0.203 F 
ATOM     68  C   UNL A   1      41.272  27.413  26.697  1.00  0.00     0.198 A 
ATOM     69  C   UNL A   1      39.808  25.876  27.816  1.00  0.00     0.198 A 
ATOM     70  F   UNL A   1      38.988  26.379  29.963  1.00  0.00    -0.203 F 
ATOM     71  F   UNL A   1      41.984  27.761  25.616  1.00  0.00    -0.200 F 
ATOM     72  C   UNL A   1      40.566  26.220  26.707  1.00  0.00     0.200 A 
ATOM     73  F   UNL A   1      39.134  24.718  27.832  1.00  0.00    -0.200 F 
ATOM     74  F   UNL A   1      40.609  25.405  25.645  1.00  0.00    -0.200 F 
ENDBRANCH  50  64
BRANCH  51  75
ATOM     75  C   UNL A   1      39.585  33.937  36.863  1.00  0.00     0.064 A 
ATOM     76  C   UNL A   1      38.806  33.535  37.957  1.00  0.00     0.173 A 
ATOM     77  C   UNL A   1      40.225  35.183  36.939  1.00  0.00     0.173 A 
ATOM     78  F   UNL A   1      38.159  32.361  37.921  1.00  0.00    -0.203 F 
ATOM     79  C   UNL A   1      38.657  34.354  39.075  1.00  0.00     0.198 A 
ATOM     80  C   UNL A   1      40.098  35.989  38.068  1.00  0.00     0.198 A 
ATOM     81  F   UNL A   1      40.986  35.610  35.921  1.00  0.00    -0.203 F 
ATOM     82  F   UNL A   1      37.873  33.964  40.088  1.00  0.00    -0.200 F 
ATOM     83  C   UNL A   1      39.308  35.578  39.132  1.00  0.00     0.200 A 
ATOM     84  F   UNL A   1      40.739  37.163  38.126  1.00  0.00    -0.200 F 
ATOM     85  F   UNL A   1      39.170  36.363  40.209  1.00  0.00    -0.200 F 
ENDBRANCH  51  75
BRANCH  63  86
ATOM     86  C   UNL A   1      43.969  28.797  35.166  1.00  0.00     0.064 A 
ATOM     87  C   UNL A   1      45.270  29.295  35.000  1.00  0.00     0.173 A 
ATOM     88  C   UNL A   1      43.782  27.727  36.054  1.00  0.00     0.173 A 
ATOM     89  F   UNL A   1      45.501  30.307  34.150  1.00  0.00    -0.203 F 
ATOM     90  C   UNL A   1      46.344  28.728  35.680  1.00  0.00     0.198 A 
ATOM     91  C   UNL A   1      44.855  27.181  36.753  1.00  0.00     0.198 A 
ATOM     92  F   UNL A   1      42.557  27.218  36.251  1.00  0.00    -0.203 F 
ATOM     93  F   UNL A   1      47.585  29.191  35.472  1.00  0.00    -0.200 F 
ATOM     94  C   UNL A   1      46.135  27.677  36.561  1.00  0.00     0.200 A 
ATOM     95  F   UNL A   1      44.650  26.174  37.613  1.00  0.00    -0.200 F 
ATOM     96  F   UNL A   1      47.170  27.138  37.220  1.00  0.00    -0.200 F 
ENDBRANCH  63  86
ENDBRANCH  37  38
ENDBRANCH  29  32
ENDBRANCH  27  28
ENDBRANCH  26  27
ENDBRANCH  25  26
ENDBRANCH  24  25
ENDBRANCH   1  24
TORSDOF 20
ENDMDL
MODEL 3
REMARK VINA RESULT:     -10.3      5.867     11.292
REMARK SMILES CC(C)c1ncc(SC[C@H](O)CO)c(C(=O)NCCCCCCNC(=O)c2ccc(-c3c4nc(c(-c5c(F)c(F)c(F)c(F)c5F)c5ccc([nH]5)c(-c5c(F)c(F)c(F)c(F)c5F)c5nc(c(-c6c(F)c(F)c(F)c(F)c6F)c6ccc3[nH]6)C=C5)C=C4)cc2)n1
REMARK SMILES IDX 19 1 18 2 17 3 15 4 16 5 14 7 4 8 5 9 90 10 6 11 7 12 2 13
REMARK SMILES IDX 1 14 3 15 8 16 9 17 10 18 12 19 13 20 11 22 20 24 21 25
REMARK SMILES IDX 22 26 23 27 24 28 25 29 26 31 27 32 28 33 89 34 29 35 88 36
REMARK SMILES IDX 30 37 31 38 32 39 82 40 33 41 87 42 81 43 83 44 34 45 86 46
REMARK SMILES IDX 80 47 79 48 35 50 67 51 47 52 66 53 48 54 51 55 65 56 84 57
REMARK SMILES IDX 49 58 50 59 64 61 85 62 52 63 36 64 37 65 45 66 38 67 39 68
REMARK SMILES IDX 43 69 46 70 40 71 41 72 44 73 42 74 68 75 69 76 77 77 70 78
REMARK SMILES IDX 71 79 75 80 78 81 72 82 73 83 76 84 74 85 53 86 54 87 62 88
REMARK SMILES IDX 55 89 56 90 60 91 63 92 57 93 58 94 61 95 59 96
REMARK H PARENT 17 6 13 21 11 23 24 30 83 49 51 60
REMARK Flexibility Score: inf
ROOT
ATOM      1  C   UNL A   1      37.857  23.701  26.256  1.00  0.00     0.021 C 
ENDROOT
BRANCH   1   2
ATOM      2  C   UNL A   1      36.557  23.714  25.444  1.00  0.00     0.116 C 
BRANCH   2   3
ATOM      3  N   UNL A   1      35.487  23.203  26.261  1.00  0.00    -0.351 N 
ATOM      4  C   UNL A   1      34.141  23.449  26.327  1.00  0.00     0.271 C 
ATOM      5  O   UNL A   1      33.573  22.948  27.306  1.00  0.00    -0.267 OA
ATOM      6  H   UNL A   1      35.788  22.530  26.914  1.00  0.00     0.163 HD
BRANCH   4   7
ATOM      7  C   UNL A   1      33.291  24.158  25.300  1.00  0.00     0.145 A 
ATOM      8  C   UNL A   1      32.856  26.359  24.654  1.00  0.00     0.131 A 
ATOM      9  N   UNL A   1      32.315  25.976  23.494  1.00  0.00    -0.240 NA
ATOM     10  N   UNL A   1      33.306  25.498  25.574  1.00  0.00    -0.226 NA
ATOM     11  C   UNL A   1      32.284  24.649  23.265  1.00  0.00     0.130 A 
ATOM     12  C   UNL A   1      32.731  23.656  24.130  1.00  0.00     0.057 A 
BRANCH   8  13
ATOM     13  C   UNL A   1      33.161  27.828  24.835  1.00  0.00     0.051 C 
ATOM     14  C   UNL A   1      33.938  28.100  26.121  1.00  0.00     0.016 C 
ATOM     15  C   UNL A   1      33.924  28.346  23.613  1.00  0.00     0.016 C 
ENDBRANCH   8  13
BRANCH  12  16
ATOM     16  S   UNL A   1      32.746  22.033  23.437  1.00  0.00    -0.119 SA
BRANCH  16  17
ATOM     17  C   UNL A   1      32.139  20.868  24.745  1.00  0.00     0.109 C 
BRANCH  17  18
ATOM     18  C   UNL A   1      32.858  19.661  25.377  1.00  0.00     0.150 C 
BRANCH  18  19
ATOM     19  C   UNL A   1      34.007  18.992  24.626  1.00  0.00     0.188 C 
BRANCH  19  20
ATOM     20  O   UNL A   1      35.238  19.612  25.007  1.00  0.00    -0.394 OA
ATOM     21  H   UNL A   1      35.363  20.425  24.494  1.00  0.00     0.210 HD
ENDBRANCH  19  20
ENDBRANCH  18  19
BRANCH  18  22
ATOM     22  O   UNL A   1      33.278  19.953  26.717  1.00  0.00    -0.390 OA
ATOM     23  H   UNL A   1      32.521  20.275  27.230  1.00  0.00     0.211 HD
ENDBRANCH  18  22
ENDBRANCH  17  18
ENDBRANCH  16  17
ENDBRANCH  12  16
ENDBRANCH   4   7
ENDBRANCH   2   3
ENDBRANCH   1   2
BRANCH   1  24
ATOM     24  C   UNL A   1      38.723  22.459  26.023  1.00  0.00     0.002 C 
BRANCH  24  25
ATOM     25  C   UNL A   1      38.156  21.467  25.001  1.00  0.00     0.002 C 
BRANCH  25  26
ATOM     26  C   UNL A   1      38.767  20.062  25.041  1.00  0.00     0.021 C 
BRANCH  26  27
ATOM     27  C   UNL A   1      39.474  19.706  26.347  1.00  0.00     0.116 C 
BRANCH  27  28
ATOM     28  N   UNL A   1      40.610  18.828  26.126  1.00  0.00    -0.352 N 
ATOM     29  C   UNL A   1      41.936  19.138  25.957  1.00  0.00     0.251 C 
ATOM     30  H   UNL A   1      40.396  17.868  26.092  1.00  0.00     0.163 HD
ATOM     31  O   UNL A   1      42.722  18.286  25.559  1.00  0.00    -0.269 OA
BRANCH  29  32
ATOM     32  C   UNL A   1      42.421  20.505  26.244  1.00  0.00     0.039 A 
ATOM     33  C   UNL A   1      42.689  21.364  25.175  1.00  0.00     0.014 A 
ATOM     34  C   UNL A   1      42.649  20.928  27.558  1.00  0.00     0.014 A 
ATOM     35  C   UNL A   1      43.135  22.664  25.424  1.00  0.00     0.010 A 
ATOM     36  C   UNL A   1      43.034  22.242  27.807  1.00  0.00     0.010 A 
ATOM     37  C   UNL A   1      43.287  23.122  26.743  1.00  0.00    -0.014 A 
BRANCH  37  38
ATOM     38  C   UNL A   1      43.716  24.514  27.027  1.00  0.00     0.031 A 
ATOM     39  C   UNL A   1      42.728  25.519  27.548  1.00  0.00     0.074 A 
ATOM     40  C   UNL A   1      44.981  24.888  26.756  1.00  0.00     0.049 A 
ATOM     41  N   UNL A   1      42.893  26.795  27.790  1.00  0.00    -0.248 NA
ATOM     42  C   UNL A   1      41.365  25.031  27.807  1.00  0.00     0.031 C 
ATOM     43  C   UNL A   1      46.021  24.017  26.209  1.00  0.00     0.029 A 
ATOM     44  N   UNL A   1      45.605  26.103  26.896  1.00  0.00    -0.354 N 
ATOM     45  C   UNL A   1      41.655  27.262  28.214  1.00  0.00     0.074 A 
ATOM     46  C   UNL A   1      40.737  26.146  28.150  1.00  0.00     0.031 C 
ATOM     47  C   UNL A   1      47.157  24.719  26.075  1.00  0.00     0.029 A 
ATOM     48  C   UNL A   1      46.918  26.097  26.494  1.00  0.00     0.049 A 
ATOM     49  H   UNL A   1      45.153  26.903  27.251  1.00  0.00     0.167 HD
ATOM     50  C   UNL A   1      41.322  28.504  28.638  1.00  0.00     0.037 A 
ATOM     51  C   UNL A   1      47.823  27.093  26.461  1.00  0.00     0.037 A 
ATOM     52  C   UNL A   1      42.245  29.606  28.728  1.00  0.00     0.049 A 
ATOM     53  C   UNL A   1      47.427  28.463  26.938  1.00  0.00     0.074 A 
ATOM     54  C   UNL A   1      42.020  30.885  29.207  1.00  0.00     0.029 A 
ATOM     55  N   UNL A   1      43.573  29.557  28.328  1.00  0.00    -0.354 N 
ATOM     56  N   UNL A   1      46.272  28.877  27.398  1.00  0.00    -0.248 NA
ATOM     57  C   UNL A   1      48.463  29.503  26.895  1.00  0.00     0.031 C 
ATOM     58  C   UNL A   1      43.199  31.622  29.056  1.00  0.00     0.029 A 
ATOM     59  C   UNL A   1      44.172  30.790  28.527  1.00  0.00     0.049 A 
ATOM     60  H   UNL A   1      44.021  28.763  27.957  1.00  0.00     0.167 HD
ATOM     61  C   UNL A   1      46.447  30.215  27.722  1.00  0.00     0.074 A 
ATOM     62  C   UNL A   1      47.826  30.540  27.420  1.00  0.00     0.031 C 
ATOM     63  C   UNL A   1      45.547  31.095  28.224  1.00  0.00     0.037 A 
BRANCH  50  64
ATOM     64  C   UNL A   1      39.895  28.740  29.043  1.00  0.00     0.064 A 
ATOM     65  C   UNL A   1      38.930  29.170  28.120  1.00  0.00     0.173 A 
ATOM     66  C   UNL A   1      39.480  28.499  30.361  1.00  0.00     0.173 A 
ATOM     67  F   UNL A   1      39.278  29.424  26.850  1.00  0.00    -0.203 F 
ATOM     68  C   UNL A   1      37.610  29.381  28.509  1.00  0.00     0.198 A 
ATOM     69  C   UNL A   1      38.152  28.682  30.740  1.00  0.00     0.198 A 
ATOM     70  F   UNL A   1      40.361  28.080  31.283  1.00  0.00    -0.203 F 
ATOM     71  F   UNL A   1      36.717  29.839  27.621  1.00  0.00    -0.200 F 
ATOM     72  C   UNL A   1      37.220  29.130  29.816  1.00  0.00     0.200 A 
ATOM     73  F   UNL A   1      37.775  28.428  32.000  1.00  0.00    -0.200 F 
ATOM     74  F   UNL A   1      35.948  29.327  30.187  1.00  0.00    -0.200 F 
ENDBRANCH  50  64
BRANCH  51  75
ATOM     75  C   UNL A   1      49.203  26.822  25.982  1.00  0.00     0.064 A 
ATOM     76  C   UNL A   1      49.553  27.038  24.642  1.00  0.00     0.173 A 
ATOM     77  C   UNL A   1      50.198  26.346  26.849  1.00  0.00     0.173 A 
ATOM     78  F   UNL A   1      48.630  27.473  23.771  1.00  0.00    -0.203 F 
ATOM     79  C   UNL A   1      50.841  26.770  24.182  1.00  0.00     0.198 A 
ATOM     80  C   UNL A   1      51.492  26.105  26.394  1.00  0.00     0.198 A 
ATOM     81  F   UNL A   1      49.913  26.129  28.141  1.00  0.00    -0.203 F 
ATOM     82  F   UNL A   1      51.138  26.945  22.888  1.00  0.00    -0.200 F 
ATOM     83  C   UNL A   1      51.812  26.310  25.060  1.00  0.00     0.200 A 
ATOM     84  F   UNL A   1      52.430  25.673  27.248  1.00  0.00    -0.200 F 
ATOM     85  F   UNL A   1      53.051  26.058  24.620  1.00  0.00    -0.200 F 
ENDBRANCH  51  75
BRANCH  63  86
ATOM     86  C   UNL A   1      46.032  32.488  28.504  1.00  0.00     0.064 A 
ATOM     87  C   UNL A   1      46.608  32.830  29.737  1.00  0.00     0.173 A 
ATOM     88  C   UNL A   1      45.954  33.480  27.516  1.00  0.00     0.173 A 
ATOM     89  F   UNL A   1      46.689  31.919  30.719  1.00  0.00    -0.203 F 
ATOM     90  C   UNL A   1      47.066  34.121  29.977  1.00  0.00     0.198 A 
ATOM     91  C   UNL A   1      46.440  34.763  27.751  1.00  0.00     0.198 A 
ATOM     92  F   UNL A   1      45.418  33.202  26.319  1.00  0.00    -0.203 F 
ATOM     93  F   UNL A   1      47.572  34.438  31.178  1.00  0.00    -0.200 F 
ATOM     94  C   UNL A   1      46.989  35.085  28.982  1.00  0.00     0.200 A 
ATOM     95  F   UNL A   1      46.376  35.690  26.784  1.00  0.00    -0.200 F 
ATOM     96  F   UNL A   1      47.438  36.327  29.214  1.00  0.00    -0.200 F 
ENDBRANCH  63  86
ENDBRANCH  37  38
ENDBRANCH  29  32
ENDBRANCH  27  28
ENDBRANCH  26  27
ENDBRANCH  25  26
ENDBRANCH  24  25
ENDBRANCH   1  24
TORSDOF 20
ENDMDL
