MODEL 1
REMARK VINA RESULT:     -11.1      0.000      0.000
REMARK SMILES CCCC1(CCC)SC[C@@H]2C(=O)N(Cc3ccc(C(=O)NCCCCCCNC(=O)c4ccc(-c5c6nc(c(-c7c(F)c(F)c(F)c(F)c7F)c7ccc([nH]7)c(-c7c(F)c(F)c(F)c(F)c7F)c7nc(c(-c8c(F)c(F)c(F)c(F)c8F)c8ccc5[nH]8)C=C7)C=C6)cc4)cc3)CC(=O)N21
REMARK SMILES IDX 23 1 22 2 21 3 19 4 20 5 18 7 15 8 16 9 95 10 17 11 94 12
REMARK SMILES IDX 14 13 13 14 4 15 8 16 99 17 9 18 10 19 97 20 11 21 96 22
REMARK SMILES IDX 98 23 12 24 3 25 2 26 1 27 5 28 6 29 7 30 24 31 25 32 26 33
REMARK SMILES IDX 27 34 28 35 29 36 30 38 31 39 32 40 93 41 33 42 92 43 34 44
REMARK SMILES IDX 35 45 36 46 86 47 37 48 91 49 85 50 87 51 38 52 90 53 84 54
REMARK SMILES IDX 83 55 39 57 71 58 51 59 70 60 52 61 55 62 69 63 88 64 53 65
REMARK SMILES IDX 54 66 68 68 89 69 56 70 40 71 41 72 49 73 42 74 43 75 47 76
REMARK SMILES IDX 50 77 44 78 45 79 48 80 46 81 72 82 73 83 81 84 74 85 75 86
REMARK SMILES IDX 79 87 82 88 76 89 77 90 80 91 78 92 57 93 58 94 66 95 59 96
REMARK SMILES IDX 60 97 64 98 67 99 61 100 62 101 65 102 63 103
REMARK H PARENT 21 6 28 37 87 56 55 67
REMARK Flexibility Score: inf
ROOT
ATOM      1  C   UNL A   1      41.384  21.796  26.122  1.00  0.00     0.021 C 
ENDROOT
BRANCH   1   2
ATOM      2  C   UNL A   1      39.898  22.067  26.369  1.00  0.00     0.116 C 
BRANCH   2   3
ATOM      3  N   UNL A   1      39.686  23.435  26.813  1.00  0.00    -0.352 N 
ATOM      4  C   UNL A   1      38.581  24.244  26.724  1.00  0.00     0.251 C 
ATOM      5  O   UNL A   1      38.598  25.342  27.277  1.00  0.00    -0.269 OA
ATOM      6  H   UNL A   1      40.465  23.849  27.250  1.00  0.00     0.163 HD
BRANCH   4   7
ATOM      7  C   UNL A   1      37.351  23.803  26.026  1.00  0.00     0.039 A 
ATOM      8  C   UNL A   1      35.063  23.016  24.590  1.00  0.00    -0.029 A 
ATOM      9  C   UNL A   1      36.298  23.135  23.940  1.00  0.00     0.006 A 
ATOM     10  C   UNL A   1      34.999  23.251  25.971  1.00  0.00     0.006 A 
ATOM     11  C   UNL A   1      37.435  23.524  24.656  1.00  0.00     0.014 A 
ATOM     12  C   UNL A   1      36.138  23.617  26.689  1.00  0.00     0.014 A 
BRANCH   8  13
ATOM     13  C   UNL A   1      33.813  22.629  23.839  1.00  0.00     0.155 C 
BRANCH  13  14
ATOM     14  N   UNL A   1      32.826  23.697  23.736  1.00  0.00    -0.327 N 
ATOM     15  C   UNL A   1      30.237  27.172  24.027  1.00  0.00     0.090 C 
ATOM     16  S   UNL A   1      30.806  28.049  22.385  1.00  0.00    -0.131 SA
ATOM     17  N   UNL A   1      30.954  25.873  23.904  1.00  0.00    -0.314 N 
ATOM     18  C   UNL A   1      31.813  26.676  21.801  1.00  0.00     0.107 C 
ATOM     19  C   UNL A   1      32.166  25.952  23.079  1.00  0.00     0.186 C 
ATOM     20  C   UNL A   1      30.859  24.835  24.816  1.00  0.00     0.244 C 
ATOM     21  C   UNL A   1      32.951  24.675  22.763  1.00  0.00     0.247 C 
ATOM     22  C   UNL A   1      31.541  23.530  24.391  1.00  0.00     0.220 C 
ATOM     23  O   UNL A   1      30.118  24.840  25.793  1.00  0.00    -0.273 OA
ATOM     24  O   UNL A   1      33.814  24.651  21.886  1.00  0.00    -0.272 OA
BRANCH  15  25
ATOM     25  C   UNL A   1      30.859  28.095  25.122  1.00  0.00     0.040 C 
BRANCH  25  26
ATOM     26  C   UNL A   1      31.794  29.247  24.769  1.00  0.00    -0.000 C 
ATOM     27  C   UNL A   1      31.993  30.289  25.851  1.00  0.00     0.004 C 
ENDBRANCH  25  26
ENDBRANCH  15  25
BRANCH  15  28
ATOM     28  C   UNL A   1      28.696  27.168  23.794  1.00  0.00     0.040 C 
BRANCH  28  29
ATOM     29  C   UNL A   1      27.966  28.145  22.859  1.00  0.00    -0.000 C 
ATOM     30  C   UNL A   1      27.568  29.477  23.484  1.00  0.00     0.004 C 
ENDBRANCH  28  29
ENDBRANCH  15  28
ENDBRANCH  13  14
ENDBRANCH   8  13
ENDBRANCH   4   7
ENDBRANCH   2   3
ENDBRANCH   1   2
BRANCH   1  31
ATOM     31  C   UNL A   1      42.134  21.271  27.353  1.00  0.00     0.002 C 
BRANCH  31  32
ATOM     32  C   UNL A   1      41.919  19.785  27.661  1.00  0.00     0.002 C 
BRANCH  32  33
ATOM     33  C   UNL A   1      42.664  18.808  26.748  1.00  0.00     0.021 C 
BRANCH  33  34
ATOM     34  C   UNL A   1      42.655  19.173  25.265  1.00  0.00     0.116 C 
BRANCH  34  35
ATOM     35  N   UNL A   1      43.876  18.766  24.592  1.00  0.00    -0.352 N 
ATOM     36  C   UNL A   1      44.957  19.518  24.208  1.00  0.00     0.251 C 
ATOM     37  H   UNL A   1      43.936  17.807  24.378  1.00  0.00     0.163 HD
ATOM     38  O   UNL A   1      45.819  19.029  23.484  1.00  0.00    -0.269 OA
BRANCH  36  39
ATOM     39  C   UNL A   1      45.091  20.923  24.652  1.00  0.00     0.039 A 
ATOM     40  C   UNL A   1      45.535  21.174  25.954  1.00  0.00     0.014 A 
ATOM     41  C   UNL A   1      44.734  21.986  23.817  1.00  0.00     0.014 A 
ATOM     42  C   UNL A   1      45.660  22.491  26.405  1.00  0.00     0.010 A 
ATOM     43  C   UNL A   1      44.909  23.300  24.249  1.00  0.00     0.010 A 
ATOM     44  C   UNL A   1      45.365  23.563  25.550  1.00  0.00    -0.014 A 
BRANCH  44  45
ATOM     45  C   UNL A   1      45.513  24.967  26.010  1.00  0.00     0.031 A 
ATOM     46  C   UNL A   1      46.852  25.646  25.949  1.00  0.00     0.074 A 
ATOM     47  C   UNL A   1      44.452  25.613  26.529  1.00  0.00     0.049 A 
ATOM     48  N   UNL A   1      47.191  26.846  26.346  1.00  0.00    -0.248 NA
ATOM     49  C   UNL A   1      47.964  24.862  25.390  1.00  0.00     0.031 C 
ATOM     50  C   UNL A   1      43.113  25.047  26.686  1.00  0.00     0.029 A 
ATOM     51  N   UNL A   1      44.338  26.886  27.031  1.00  0.00    -0.354 N 
ATOM     52  C   UNL A   1      48.554  26.955  26.103  1.00  0.00     0.074 A 
ATOM     53  C   UNL A   1      48.989  25.685  25.560  1.00  0.00     0.031 C 
ATOM     54  C   UNL A   1      42.307  25.972  27.233  1.00  0.00     0.029 A 
ATOM     55  C   UNL A   1      43.078  27.186  27.485  1.00  0.00     0.049 A 
ATOM     56  H   UNL A   1      45.089  27.521  27.063  1.00  0.00     0.167 HD
ATOM     57  C   UNL A   1      49.365  28.022  26.297  1.00  0.00     0.037 A 
ATOM     58  C   UNL A   1      42.600  28.315  28.041  1.00  0.00     0.037 A 
ATOM     59  C   UNL A   1      48.926  29.295  26.804  1.00  0.00     0.049 A 
ATOM     60  C   UNL A   1      43.514  29.496  28.215  1.00  0.00     0.074 A 
ATOM     61  C   UNL A   1      49.659  30.457  26.975  1.00  0.00     0.029 A 
ATOM     62  N   UNL A   1      47.632  29.574  27.217  1.00  0.00    -0.354 N 
ATOM     63  N   UNL A   1      44.786  29.608  27.922  1.00  0.00    -0.248 NA
ATOM     64  C   UNL A   1      42.921  30.713  28.788  1.00  0.00     0.031 C 
ATOM     65  C   UNL A   1      48.815  31.430  27.520  1.00  0.00     0.029 A 
ATOM     66  C   UNL A   1      47.548  30.886  27.656  1.00  0.00     0.049 A 
ATOM     67  H   UNL A   1      46.884  28.935  27.202  1.00  0.00     0.167 HD
ATOM     68  C   UNL A   1      45.141  30.908  28.252  1.00  0.00     0.074 A 
ATOM     69  C   UNL A   1      43.946  31.553  28.756  1.00  0.00     0.031 C 
ATOM     70  C   UNL A   1      46.349  31.513  28.147  1.00  0.00     0.037 A 
BRANCH  57  71
ATOM     71  C   UNL A   1      50.816  27.858  25.955  1.00  0.00     0.064 A 
ATOM     72  C   UNL A   1      51.771  27.559  26.940  1.00  0.00     0.173 A 
ATOM     73  C   UNL A   1      51.252  27.968  24.627  1.00  0.00     0.173 A 
ATOM     74  F   UNL A   1      51.406  27.456  28.225  1.00  0.00    -0.203 F 
ATOM     75  C   UNL A   1      53.115  27.404  26.608  1.00  0.00     0.198 A 
ATOM     76  C   UNL A   1      52.593  27.787  24.296  1.00  0.00     0.198 A 
ATOM     77  F   UNL A   1      50.378  28.248  23.649  1.00  0.00    -0.203 F 
ATOM     78  F   UNL A   1      54.016  27.162  27.569  1.00  0.00    -0.200 F 
ATOM     79  C   UNL A   1      53.524  27.511  25.287  1.00  0.00     0.200 A 
ATOM     80  F   UNL A   1      52.985  27.881  23.018  1.00  0.00    -0.200 F 
ATOM     81  F   UNL A   1      54.817  27.356  24.970  1.00  0.00    -0.200 F 
ENDBRANCH  57  71
BRANCH  58  82
ATOM     82  C   UNL A   1      41.172  28.392  28.440  1.00  0.00     0.064 A 
ATOM     83  C   UNL A   1      40.211  28.914  27.564  1.00  0.00     0.173 A 
ATOM     84  C   UNL A   1      40.741  27.943  29.695  1.00  0.00     0.173 A 
ATOM     85  F   UNL A   1      40.582  29.375  26.361  1.00  0.00    -0.203 F 
ATOM     86  C   UNL A   1      38.871  28.997  27.936  1.00  0.00     0.198 A 
ATOM     87  C   UNL A   1      39.398  28.006  30.057  1.00  0.00     0.198 A 
ATOM     88  F   UNL A   1      41.624  27.432  30.565  1.00  0.00    -0.203 F 
ATOM     89  F   UNL A   1      37.977  29.534  27.093  1.00  0.00    -0.200 F 
ATOM     90  C   UNL A   1      38.465  28.539  29.180  1.00  0.00     0.200 A 
ATOM     91  F   UNL A   1      39.005  27.551  31.255  1.00  0.00    -0.200 F 
ATOM     92  F   UNL A   1      37.174  28.615  29.535  1.00  0.00    -0.200 F 
ENDBRANCH  58  82
BRANCH  70  93
ATOM     93  C   UNL A   1      46.432  32.952  28.560  1.00  0.00     0.064 A 
ATOM     94  C   UNL A   1      46.186  33.989  27.650  1.00  0.00     0.173 A 
ATOM     95  C   UNL A   1      46.726  33.295  29.888  1.00  0.00     0.173 A 
ATOM     96  F   UNL A   1      45.916  33.710  26.365  1.00  0.00    -0.203 F 
ATOM     97  C   UNL A   1      46.254  35.321  28.049  1.00  0.00     0.198 A 
ATOM     98  C   UNL A   1      46.771  34.626  30.288  1.00  0.00     0.198 A 
ATOM     99  F   UNL A   1      46.965  32.337  30.796  1.00  0.00    -0.203 F 
ATOM    100  F   UNL A   1      46.056  36.298  27.154  1.00  0.00    -0.200 F 
ATOM    101  C   UNL A   1      46.541  35.638  29.369  1.00  0.00     0.200 A 
ATOM    102  F   UNL A   1      47.040  34.932  31.566  1.00  0.00    -0.200 F 
ATOM    103  F   UNL A   1      46.604  36.921  29.752  1.00  0.00    -0.200 F 
ENDBRANCH  70  93
ENDBRANCH  44  45
ENDBRANCH  36  39
ENDBRANCH  34  35
ENDBRANCH  33  34
ENDBRANCH  32  33
ENDBRANCH  31  32
ENDBRANCH   1  31
TORSDOF 19
ENDMDL
MODEL 2
REMARK VINA RESULT:     -10.8      5.569     12.111
REMARK SMILES CCCC1(CCC)SC[C@@H]2C(=O)N(Cc3ccc(C(=O)NCCCCCCNC(=O)c4ccc(-c5c6nc(c(-c7c(F)c(F)c(F)c(F)c7F)c7ccc([nH]7)c(-c7c(F)c(F)c(F)c(F)c7F)c7nc(c(-c8c(F)c(F)c(F)c(F)c8F)c8ccc5[nH]8)C=C7)C=C6)cc4)cc3)CC(=O)N21
REMARK SMILES IDX 23 1 22 2 21 3 19 4 20 5 18 7 15 8 16 9 95 10 17 11 94 12
REMARK SMILES IDX 14 13 13 14 4 15 8 16 99 17 9 18 10 19 97 20 11 21 96 22
REMARK SMILES IDX 98 23 12 24 3 25 2 26 1 27 5 28 6 29 7 30 24 31 25 32 26 33
REMARK SMILES IDX 27 34 28 35 29 36 30 38 31 39 32 40 93 41 33 42 92 43 34 44
REMARK SMILES IDX 35 45 36 46 86 47 37 48 91 49 85 50 87 51 38 52 90 53 84 54
REMARK SMILES IDX 83 55 39 57 71 58 51 59 70 60 52 61 55 62 69 63 88 64 53 65
REMARK SMILES IDX 54 66 68 68 89 69 56 70 40 71 41 72 49 73 42 74 43 75 47 76
REMARK SMILES IDX 50 77 44 78 45 79 48 80 46 81 72 82 73 83 81 84 74 85 75 86
REMARK SMILES IDX 79 87 82 88 76 89 77 90 80 91 78 92 57 93 58 94 66 95 59 96
REMARK SMILES IDX 60 97 64 98 67 99 61 100 62 101 65 102 63 103
REMARK H PARENT 21 6 28 37 87 56 55 67
REMARK Flexibility Score: inf
ROOT
ATOM      1  C   UNL A   1      37.157  33.269  31.400  1.00  0.00     0.021 C 
ENDROOT
BRANCH   1   2
ATOM      2  C   UNL A   1      38.146  33.656  32.502  1.00  0.00     0.116 C 
BRANCH   2   3
ATOM      3  N   UNL A   1      37.651  33.255  33.808  1.00  0.00    -0.352 N 
ATOM      4  C   UNL A   1      37.947  32.159  34.580  1.00  0.00     0.251 C 
ATOM      5  O   UNL A   1      37.484  32.084  35.716  1.00  0.00    -0.269 OA
ATOM      6  H   UNL A   1      36.995  33.871  34.206  1.00  0.00     0.163 HD
BRANCH   4   7
ATOM      7  C   UNL A   1      38.856  31.092  34.096  1.00  0.00     0.039 A 
ATOM      8  C   UNL A   1      40.677  29.154  33.180  1.00  0.00    -0.029 A 
ATOM      9  C   UNL A   1      41.120  30.221  33.971  1.00  0.00     0.006 A 
ATOM     10  C   UNL A   1      39.309  29.047  32.892  1.00  0.00     0.006 A 
ATOM     11  C   UNL A   1      40.213  31.182  34.429  1.00  0.00     0.014 A 
ATOM     12  C   UNL A   1      38.401  29.994  33.366  1.00  0.00     0.014 A 
BRANCH   8  13
ATOM     13  C   UNL A   1      41.637  28.120  32.645  1.00  0.00     0.155 C 
BRANCH  13  14
ATOM     14  N   UNL A   1      42.360  27.389  33.679  1.00  0.00    -0.327 N 
ATOM     15  C   UNL A   1      44.506  24.640  36.268  1.00  0.00     0.090 C 
ATOM     16  S   UNL A   1      46.224  25.554  36.238  1.00  0.00    -0.131 SA
ATOM     17  N   UNL A   1      43.659  25.628  35.544  1.00  0.00    -0.314 N 
ATOM     18  C   UNL A   1      45.626  27.008  35.364  1.00  0.00     0.107 C 
ATOM     19  C   UNL A   1      44.419  26.481  34.622  1.00  0.00     0.186 C 
ATOM     20  C   UNL A   1      42.301  25.482  35.320  1.00  0.00     0.244 C 
ATOM     21  C   UNL A   1      43.709  27.624  33.889  1.00  0.00     0.247 C 
ATOM     22  C   UNL A   1      41.605  26.706  34.715  1.00  0.00     0.220 C 
ATOM     23  O   UNL A   1      41.625  24.554  35.752  1.00  0.00    -0.273 OA
ATOM     24  O   UNL A   1      44.340  28.507  33.311  1.00  0.00    -0.272 OA
BRANCH  15  25
ATOM     25  C   UNL A   1      44.798  23.366  35.415  1.00  0.00     0.040 C 
BRANCH  25  26
ATOM     26  C   UNL A   1      45.345  22.086  36.039  1.00  0.00    -0.000 C 
ATOM     27  C   UNL A   1      46.796  22.135  36.476  1.00  0.00     0.004 C 
ENDBRANCH  25  26
ENDBRANCH  15  25
BRANCH  15  28
ATOM     28  C   UNL A   1      44.309  24.517  37.810  1.00  0.00     0.040 C 
BRANCH  28  29
ATOM     29  C   UNL A   1      45.426  24.750  38.840  1.00  0.00    -0.000 C 
ATOM     30  C   UNL A   1      45.643  23.619  39.838  1.00  0.00     0.004 C 
ENDBRANCH  28  29
ENDBRANCH  15  28
ENDBRANCH  13  14
ENDBRANCH   8  13
ENDBRANCH   4   7
ENDBRANCH   2   3
ENDBRANCH   1   2
BRANCH   1  31
ATOM     31  C   UNL A   1      35.717  33.081  31.894  1.00  0.00     0.002 C 
BRANCH  31  32
ATOM     32  C   UNL A   1      34.757  32.451  30.879  1.00  0.00     0.002 C 
BRANCH  32  33
ATOM     33  C   UNL A   1      34.333  33.359  29.721  1.00  0.00     0.021 C 
BRANCH  33  34
ATOM     34  C   UNL A   1      34.570  32.782  28.327  1.00  0.00     0.116 C 
BRANCH  34  35
ATOM     35  N   UNL A   1      33.873  31.522  28.129  1.00  0.00    -0.352 N 
ATOM     36  C   UNL A   1      34.376  30.252  28.008  1.00  0.00     0.251 C 
ATOM     37  H   UNL A   1      32.893  31.592  28.073  1.00  0.00     0.163 HD
ATOM     38  O   UNL A   1      33.642  29.332  27.661  1.00  0.00    -0.269 OA
BRANCH  36  39
ATOM     39  C   UNL A   1      35.805  29.980  28.283  1.00  0.00     0.039 A 
ATOM     40  C   UNL A   1      36.731  30.158  27.250  1.00  0.00     0.014 A 
ATOM     41  C   UNL A   1      36.227  29.503  29.527  1.00  0.00     0.014 A 
ATOM     42  C   UNL A   1      38.084  29.899  27.477  1.00  0.00     0.010 A 
ATOM     43  C   UNL A   1      37.584  29.294  29.768  1.00  0.00     0.010 A 
ATOM     44  C   UNL A   1      38.524  29.482  28.743  1.00  0.00    -0.014 A 
BRANCH  44  45
ATOM     45  C   UNL A   1      39.962  29.221  29.002  1.00  0.00     0.031 A 
ATOM     46  C   UNL A   1      40.804  30.254  29.697  1.00  0.00     0.074 A 
ATOM     47  C   UNL A   1      40.520  28.077  28.568  1.00  0.00     0.049 A 
ATOM     48  N   UNL A   1      42.084  30.231  29.970  1.00  0.00    -0.248 NA
ATOM     49  C   UNL A   1      40.121  31.487  30.118  1.00  0.00     0.031 C 
ATOM     50  C   UNL A   1      39.821  27.018  27.840  1.00  0.00     0.029 A 
ATOM     51  N   UNL A   1      41.811  27.617  28.666  1.00  0.00    -0.354 N 
ATOM     52  C   UNL A   1      42.363  31.449  30.577  1.00  0.00     0.074 A 
ATOM     53  C   UNL A   1      41.128  32.204  30.597  1.00  0.00     0.031 C 
ATOM     54  C   UNL A   1      40.685  26.026  27.570  1.00  0.00     0.029 A 
ATOM     55  C   UNL A   1      42.002  26.389  28.085  1.00  0.00     0.049 A 
ATOM     56  H   UNL A   1      42.529  28.121  29.111  1.00  0.00     0.167 HD
ATOM     57  C   UNL A   1      43.537  31.889  31.087  1.00  0.00     0.037 A 
ATOM     58  C   UNL A   1      43.116  25.640  27.980  1.00  0.00     0.037 A 
ATOM     59  C   UNL A   1      44.756  31.124  31.099  1.00  0.00     0.049 A 
ATOM     60  C   UNL A   1      44.399  26.138  28.584  1.00  0.00     0.074 A 
ATOM     61  C   UNL A   1      45.981  31.459  31.651  1.00  0.00     0.029 A 
ATOM     62  N   UNL A   1      44.902  29.867  30.534  1.00  0.00    -0.354 N 
ATOM     63  N   UNL A   1      44.635  27.263  29.212  1.00  0.00    -0.248 NA
ATOM     64  C   UNL A   1      45.569  25.255  28.475  1.00  0.00     0.031 C 
ATOM     65  C   UNL A   1      46.877  30.415  31.394  1.00  0.00     0.029 A 
ATOM     66  C   UNL A   1      46.200  29.416  30.712  1.00  0.00     0.049 A 
ATOM     67  H   UNL A   1      44.189  29.368  30.074  1.00  0.00     0.167 HD
ATOM     68  C   UNL A   1      45.969  27.216  29.591  1.00  0.00     0.074 A 
ATOM     69  C   UNL A   1      46.489  25.944  29.135  1.00  0.00     0.031 C 
ATOM     70  C   UNL A   1      46.698  28.144  30.257  1.00  0.00     0.037 A 
BRANCH  57  71
ATOM     71  C   UNL A   1      43.559  33.266  31.682  1.00  0.00     0.064 A 
ATOM     72  C   UNL A   1      43.667  34.410  30.876  1.00  0.00     0.173 A 
ATOM     73  C   UNL A   1      43.439  33.446  33.067  1.00  0.00     0.173 A 
ATOM     74  F   UNL A   1      43.796  34.290  29.547  1.00  0.00    -0.203 F 
ATOM     75  C   UNL A   1      43.680  35.684  31.440  1.00  0.00     0.198 A 
ATOM     76  C   UNL A   1      43.427  34.722  33.625  1.00  0.00     0.198 A 
ATOM     77  F   UNL A   1      43.329  32.385  33.880  1.00  0.00    -0.203 F 
ATOM     78  F   UNL A   1      43.827  36.760  30.656  1.00  0.00    -0.200 F 
ATOM     79  C   UNL A   1      43.554  35.839  32.812  1.00  0.00     0.200 A 
ATOM     80  F   UNL A   1      43.296  34.872  34.951  1.00  0.00    -0.200 F 
ATOM     81  F   UNL A   1      43.562  37.066  33.353  1.00  0.00    -0.200 F 
ENDBRANCH  57  71
BRANCH  58  82
ATOM     82  C   UNL A   1      43.055  24.319  27.304  1.00  0.00     0.064 A 
ATOM     83  C   UNL A   1      43.398  24.190  25.952  1.00  0.00     0.173 A 
ATOM     84  C   UNL A   1      42.660  23.166  27.995  1.00  0.00     0.173 A 
ATOM     85  F   UNL A   1      43.761  25.271  25.247  1.00  0.00    -0.203 F 
ATOM     86  C   UNL A   1      43.335  22.954  25.310  1.00  0.00     0.198 A 
ATOM     87  C   UNL A   1      42.618  21.928  27.358  1.00  0.00     0.198 A 
ATOM     88  F   UNL A   1      42.326  23.240  29.291  1.00  0.00    -0.203 F 
ATOM     89  F   UNL A   1      43.634  22.864  24.007  1.00  0.00    -0.200 F 
ATOM     90  C   UNL A   1      42.950  21.824  26.015  1.00  0.00     0.200 A 
ATOM     91  F   UNL A   1      42.258  20.834  28.044  1.00  0.00    -0.200 F 
ATOM     92  F   UNL A   1      42.894  20.635  25.399  1.00  0.00    -0.200 F 
ENDBRANCH  58  82
BRANCH  70  93
ATOM     93  C   UNL A   1      48.128  27.806  30.556  1.00  0.00     0.064 A 
ATOM     94  C   UNL A   1      49.163  28.170  29.685  1.00  0.00     0.173 A 
ATOM     95  C   UNL A   1      48.467  27.140  31.743  1.00  0.00     0.173 A 
ATOM     96  F   UNL A   1      48.886  28.794  28.530  1.00  0.00    -0.203 F 
ATOM     97  C   UNL A   1      50.488  27.860  29.981  1.00  0.00     0.198 A 
ATOM     98  C   UNL A   1      49.794  26.852  32.046  1.00  0.00     0.198 A 
ATOM     99  F   UNL A   1      47.511  26.774  32.610  1.00  0.00    -0.203 F 
ATOM    100  F   UNL A   1      51.459  28.180  29.114  1.00  0.00    -0.200 F 
ATOM    101  C   UNL A   1      50.803  27.207  31.163  1.00  0.00     0.200 A 
ATOM    102  F   UNL A   1      50.098  26.228  33.194  1.00  0.00    -0.200 F 
ATOM    103  F   UNL A   1      52.079  26.911  31.448  1.00  0.00    -0.200 F 
ENDBRANCH  70  93
ENDBRANCH  44  45
ENDBRANCH  36  39
ENDBRANCH  34  35
ENDBRANCH  33  34
ENDBRANCH  32  33
ENDBRANCH  31  32
ENDBRANCH   1  31
TORSDOF 19
ENDMDL
MODEL 3
REMARK VINA RESULT:     -10.6      5.613     12.259
REMARK SMILES CCCC1(CCC)SC[C@@H]2C(=O)N(Cc3ccc(C(=O)NCCCCCCNC(=O)c4ccc(-c5c6nc(c(-c7c(F)c(F)c(F)c(F)c7F)c7ccc([nH]7)c(-c7c(F)c(F)c(F)c(F)c7F)c7nc(c(-c8c(F)c(F)c(F)c(F)c8F)c8ccc5[nH]8)C=C7)C=C6)cc4)cc3)CC(=O)N21
REMARK SMILES IDX 23 1 22 2 21 3 19 4 20 5 18 7 15 8 16 9 95 10 17 11 94 12
REMARK SMILES IDX 14 13 13 14 4 15 8 16 99 17 9 18 10 19 97 20 11 21 96 22
REMARK SMILES IDX 98 23 12 24 3 25 2 26 1 27 5 28 6 29 7 30 24 31 25 32 26 33
REMARK SMILES IDX 27 34 28 35 29 36 30 38 31 39 32 40 93 41 33 42 92 43 34 44
REMARK SMILES IDX 35 45 36 46 86 47 37 48 91 49 85 50 87 51 38 52 90 53 84 54
REMARK SMILES IDX 83 55 39 57 71 58 51 59 70 60 52 61 55 62 69 63 88 64 53 65
REMARK SMILES IDX 54 66 68 68 89 69 56 70 40 71 41 72 49 73 42 74 43 75 47 76
REMARK SMILES IDX 50 77 44 78 45 79 48 80 46 81 72 82 73 83 81 84 74 85 75 86
REMARK SMILES IDX 79 87 82 88 76 89 77 90 80 91 78 92 57 93 58 94 66 95 59 96
REMARK SMILES IDX 60 97 64 98 67 99 61 100 62 101 65 102 63 103
REMARK H PARENT 21 6 28 37 87 56 55 67
REMARK Flexibility Score: inf
ROOT
ATOM      1  C   UNL A   1      37.207  33.165  31.483  1.00  0.00     0.021 C 
ENDROOT
BRANCH   1   2
ATOM      2  C   UNL A   1      38.183  33.566  32.591  1.00  0.00     0.116 C 
BRANCH   2   3
ATOM      3  N   UNL A   1      37.650  33.225  33.900  1.00  0.00    -0.352 N 
ATOM      4  C   UNL A   1      37.864  32.127  34.696  1.00  0.00     0.251 C 
ATOM      5  O   UNL A   1      37.387  32.106  35.828  1.00  0.00    -0.269 OA
ATOM      6  H   UNL A   1      37.034  33.892  34.278  1.00  0.00     0.163 HD
BRANCH   4   7
ATOM      7  C   UNL A   1      38.703  30.992  34.242  1.00  0.00     0.039 A 
ATOM      8  C   UNL A   1      40.400  28.913  33.398  1.00  0.00    -0.029 A 
ATOM      9  C   UNL A   1      40.865  29.884  34.294  1.00  0.00     0.006 A 
ATOM     10  C   UNL A   1      39.066  28.972  32.968  1.00  0.00     0.006 A 
ATOM     11  C   UNL A   1      40.019  30.916  34.715  1.00  0.00     0.014 A 
ATOM     12  C   UNL A   1      38.217  29.988  33.405  1.00  0.00     0.014 A 
BRANCH   8  13
ATOM     13  C   UNL A   1      41.298  27.807  32.902  1.00  0.00     0.155 C 
BRANCH  13  14
ATOM     14  N   UNL A   1      42.294  27.369  33.872  1.00  0.00    -0.327 N 
ATOM     15  C   UNL A   1      45.225  26.768  37.020  1.00  0.00     0.090 C 
ATOM     16  S   UNL A   1      44.166  25.566  38.126  1.00  0.00    -0.131 SA
ATOM     17  N   UNL A   1      44.351  26.876  35.820  1.00  0.00    -0.314 N 
ATOM     18  C   UNL A   1      42.834  25.371  36.932  1.00  0.00     0.107 C 
ATOM     19  C   UNL A   1      42.932  26.635  36.110  1.00  0.00     0.186 C 
ATOM     20  C   UNL A   1      44.665  27.601  34.683  1.00  0.00     0.244 C 
ATOM     21  C   UNL A   1      41.921  26.596  34.959  1.00  0.00     0.247 C 
ATOM     22  C   UNL A   1      43.699  27.420  33.507  1.00  0.00     0.220 C 
ATOM     23  O   UNL A   1      45.731  28.182  34.507  1.00  0.00    -0.273 OA
ATOM     24  O   UNL A   1      40.783  26.156  35.118  1.00  0.00    -0.272 OA
BRANCH  15  25
ATOM     25  C   UNL A   1      45.232  28.076  37.873  1.00  0.00     0.040 C 
BRANCH  25  26
ATOM     26  C   UNL A   1      46.213  29.211  37.599  1.00  0.00    -0.000 C 
ATOM     27  C   UNL A   1      46.693  29.974  38.818  1.00  0.00     0.004 C 
ENDBRANCH  25  26
ENDBRANCH  15  25
BRANCH  15  28
ATOM     28  C   UNL A   1      46.525  25.917  36.890  1.00  0.00     0.040 C 
BRANCH  28  29
ATOM     29  C   UNL A   1      46.696  24.756  35.897  1.00  0.00    -0.000 C 
ATOM     30  C   UNL A   1      46.846  23.375  36.523  1.00  0.00     0.004 C 
ENDBRANCH  28  29
ENDBRANCH  15  28
ENDBRANCH  13  14
ENDBRANCH   8  13
ENDBRANCH   4   7
ENDBRANCH   2   3
ENDBRANCH   1   2
BRANCH   1  31
ATOM     31  C   UNL A   1      35.758  33.004  31.957  1.00  0.00     0.002 C 
BRANCH  31  32
ATOM     32  C   UNL A   1      34.781  32.476  30.901  1.00  0.00     0.002 C 
BRANCH  32  33
ATOM     33  C   UNL A   1      34.509  33.420  29.726  1.00  0.00     0.021 C 
BRANCH  33  34
ATOM     34  C   UNL A   1      34.797  32.833  28.346  1.00  0.00     0.116 C 
BRANCH  34  35
ATOM     35  N   UNL A   1      34.036  31.622  28.094  1.00  0.00    -0.352 N 
ATOM     36  C   UNL A   1      34.468  30.328  27.955  1.00  0.00     0.251 C 
ATOM     37  H   UNL A   1      33.063  31.749  28.010  1.00  0.00     0.163 HD
ATOM     38  O   UNL A   1      33.695  29.461  27.562  1.00  0.00    -0.269 OA
BRANCH  36  39
ATOM     39  C   UNL A   1      35.870  29.966  28.265  1.00  0.00     0.039 A 
ATOM     40  C   UNL A   1      36.829  30.079  27.255  1.00  0.00     0.014 A 
ATOM     41  C   UNL A   1      36.231  29.471  29.522  1.00  0.00     0.014 A 
ATOM     42  C   UNL A   1      38.158  29.735  27.515  1.00  0.00     0.010 A 
ATOM     43  C   UNL A   1      37.566  29.177  29.796  1.00  0.00     0.010 A 
ATOM     44  C   UNL A   1      38.540  29.298  28.792  1.00  0.00    -0.014 A 
BRANCH  44  45
ATOM     45  C   UNL A   1      39.952  28.947  29.087  1.00  0.00     0.031 A 
ATOM     46  C   UNL A   1      40.829  29.912  29.834  1.00  0.00     0.074 A 
ATOM     47  C   UNL A   1      40.456  27.784  28.639  1.00  0.00     0.049 A 
ATOM     48  N   UNL A   1      42.097  29.808  30.145  1.00  0.00    -0.248 NA
ATOM     49  C   UNL A   1      40.207  31.172  30.268  1.00  0.00     0.031 C 
ATOM     50  C   UNL A   1      39.720  26.786  27.862  1.00  0.00     0.029 A 
ATOM     51  N   UNL A   1      41.715  27.248  28.764  1.00  0.00    -0.354 N 
ATOM     52  C   UNL A   1      42.427  30.992  30.792  1.00  0.00     0.074 A 
ATOM     53  C   UNL A   1      41.237  31.816  30.795  1.00  0.00     0.031 C 
ATOM     54  C   UNL A   1      40.534  25.753  27.592  1.00  0.00     0.029 A 
ATOM     55  C   UNL A   1      41.853  26.025  28.155  1.00  0.00     0.049 A 
ATOM     56  H   UNL A   1      42.447  27.698  29.243  1.00  0.00     0.167 HD
ATOM     57  C   UNL A   1      43.608  31.350  31.348  1.00  0.00     0.037 A 
ATOM     58  C   UNL A   1      42.925  25.216  28.063  1.00  0.00     0.037 A 
ATOM     59  C   UNL A   1      44.780  30.515  31.376  1.00  0.00     0.049 A 
ATOM     60  C   UNL A   1      44.215  25.622  28.719  1.00  0.00     0.074 A 
ATOM     61  C   UNL A   1      46.004  30.764  31.972  1.00  0.00     0.029 A 
ATOM     62  N   UNL A   1      44.871  29.265  30.782  1.00  0.00    -0.354 N 
ATOM     63  N   UNL A   1      44.496  26.716  29.383  1.00  0.00    -0.248 NA
ATOM     64  C   UNL A   1      45.335  24.675  28.620  1.00  0.00     0.031 C 
ATOM     65  C   UNL A   1      46.846  29.676  31.714  1.00  0.00     0.029 A 
ATOM     66  C   UNL A   1      46.135  28.736  30.986  1.00  0.00     0.049 A 
ATOM     67  H   UNL A   1      44.145  28.821  30.287  1.00  0.00     0.167 HD
ATOM     68  C   UNL A   1      45.813  26.581  29.801  1.00  0.00     0.074 A 
ATOM     69  C   UNL A   1      46.273  25.293  29.326  1.00  0.00     0.031 C 
ATOM     70  C   UNL A   1      46.572  27.449  30.512  1.00  0.00     0.037 A 
BRANCH  57  71
ATOM     71  C   UNL A   1      43.691  32.708  31.980  1.00  0.00     0.064 A 
ATOM     72  C   UNL A   1      43.514  32.885  33.361  1.00  0.00     0.173 A 
ATOM     73  C   UNL A   1      43.981  33.838  31.203  1.00  0.00     0.173 A 
ATOM     74  F   UNL A   1      43.223  31.837  34.144  1.00  0.00    -0.203 F 
ATOM     75  C   UNL A   1      43.599  34.151  33.936  1.00  0.00     0.198 A 
ATOM     76  C   UNL A   1      44.091  35.099  31.785  1.00  0.00     0.198 A 
ATOM     77  F   UNL A   1      44.163  33.721  29.879  1.00  0.00    -0.203 F 
ATOM     78  F   UNL A   1      43.384  34.304  35.249  1.00  0.00    -0.200 F 
ATOM     79  C   UNL A   1      43.894  35.255  33.149  1.00  0.00     0.200 A 
ATOM     80  F   UNL A   1      44.384  36.164  31.026  1.00  0.00    -0.200 F 
ATOM     81  F   UNL A   1      43.980  36.472  33.705  1.00  0.00    -0.200 F 
ENDBRANCH  57  71
BRANCH  58  82
ATOM     82  C   UNL A   1      42.809  23.918  27.351  1.00  0.00     0.064 A 
ATOM     83  C   UNL A   1      42.313  22.783  28.006  1.00  0.00     0.173 A 
ATOM     84  C   UNL A   1      43.184  23.789  26.007  1.00  0.00     0.173 A 
ATOM     85  F   UNL A   1      41.962  22.856  29.298  1.00  0.00    -0.203 F 
ATOM     86  C   UNL A   1      42.210  21.560  27.346  1.00  0.00     0.198 A 
ATOM     87  C   UNL A   1      43.060  22.571  25.342  1.00  0.00     0.198 A 
ATOM     88  F   UNL A   1      43.660  24.848  25.338  1.00  0.00    -0.203 F 
ATOM     89  F   UNL A   1      41.767  20.481  28.006  1.00  0.00    -0.200 F 
ATOM     90  C   UNL A   1      42.579  21.457  26.013  1.00  0.00     0.200 A 
ATOM     91  F   UNL A   1      43.405  22.477  24.050  1.00  0.00    -0.200 F 
ATOM     92  F   UNL A   1      42.475  20.282  25.377  1.00  0.00    -0.200 F 
ENDBRANCH  58  82
BRANCH  70  93
ATOM     93  C   UNL A   1      47.970  27.020  30.845  1.00  0.00     0.064 A 
ATOM     94  C   UNL A   1      48.236  26.167  31.925  1.00  0.00     0.173 A 
ATOM     95  C   UNL A   1      49.050  27.440  30.054  1.00  0.00     0.173 A 
ATOM     96  F   UNL A   1      47.238  25.752  32.720  1.00  0.00    -0.203 F 
ATOM     97  C   UNL A   1      49.538  25.767  32.215  1.00  0.00     0.198 A 
ATOM     98  C   UNL A   1      50.346  27.019  30.333  1.00  0.00     0.198 A 
ATOM     99  F   UNL A   1      48.844  28.253  29.007  1.00  0.00    -0.203 F 
ATOM    100  F   UNL A   1      49.775  24.985  33.277  1.00  0.00    -0.200 F 
ATOM    101  C   UNL A   1      50.590  26.188  31.417  1.00  0.00     0.200 A 
ATOM    102  F   UNL A   1      51.362  27.421  29.555  1.00  0.00    -0.200 F 
ATOM    103  F   UNL A   1      51.843  25.800  31.696  1.00  0.00    -0.200 F 
ENDBRANCH  70  93
ENDBRANCH  44  45
ENDBRANCH  36  39
ENDBRANCH  34  35
ENDBRANCH  33  34
ENDBRANCH  32  33
ENDBRANCH  31  32
ENDBRANCH   1  31
TORSDOF 19
ENDMDL
