MODEL 1
REMARK VINA RESULT:     -12.2      0.000      0.000
REMARK SMILES C[C@@H](C(=O)NCCCCCCNC(=O)c1ccc(-c2c3nc(c(-c4c(F)c(F)c(F)c(F)c4F)c4ccc([nH]4)c(-c4c(F)c(F)c(F)c(F)c4F)c4nc(c(-c5c(F)c(F)c(F)c(F)c5F)c5ccc2[nH]5)C=C4)C=C3)cc1)N1C(=O)/C(=C/c2ccc(-c3ccc([N+](=O)[O-])cc3Cl)o2)SC1=S
REMARK SMILES IDX 7 1 6 2 5 3 3 4 4 5 2 7 1 8 78 9 79 10 99 11 80 12 81 13
REMARK SMILES IDX 98 14 100 15 82 16 83 17 84 18 97 19 85 20 86 21 87 22 88 23
REMARK SMILES IDX 95 24 89 25 94 26 96 27 90 28 91 29 92 30 93 31 8 32 9 33
REMARK SMILES IDX 10 34 11 35 12 36 13 37 14 39 15 40 16 41 77 42 17 43 76 44
REMARK SMILES IDX 18 45 19 46 20 47 70 48 21 49 75 50 69 51 71 52 22 53 74 54
REMARK SMILES IDX 68 55 67 56 23 58 55 59 35 60 54 61 36 62 39 63 53 64 72 65
REMARK SMILES IDX 37 66 38 67 52 69 73 70 40 71 24 72 25 73 33 74 26 75 27 76
REMARK SMILES IDX 31 77 34 78 28 79 29 80 32 81 30 82 56 83 57 84 65 85 58 86
REMARK SMILES IDX 59 87 63 88 66 89 60 90 61 91 64 92 62 93 41 94 42 95 50 96
REMARK SMILES IDX 43 97 44 98 48 99 51 100 45 101 46 102 49 103 47 104
REMARK H PARENT 5 6 12 38 71 57 39 68
REMARK Flexibility Score: inf
ROOT
ATOM      1  C   UNL A   1      32.825  22.884  24.508  1.00  0.00     0.021 C 
ENDROOT
BRANCH   1   2
ATOM      2  C   UNL A   1      31.555  23.292  23.757  1.00  0.00     0.116 C 
BRANCH   2   3
ATOM      3  N   UNL A   1      31.851  24.398  22.867  1.00  0.00    -0.354 N 
ATOM      4  C   UNL A   1      31.376  25.679  22.894  1.00  0.00     0.242 C 
ATOM      5  O   UNL A   1      31.564  26.387  21.903  1.00  0.00    -0.273 OA
ATOM      6  H   UNL A   1      32.484  24.197  22.140  1.00  0.00     0.163 HD
BRANCH   4   7
ATOM      7  C   UNL A   1      30.666  26.200  24.163  1.00  0.00     0.178 C 
ATOM      8  C   UNL A   1      29.208  26.549  23.856  1.00  0.00     0.042 C 
BRANCH   7   9
ATOM      9  N   UNL A   1      31.493  27.305  24.707  1.00  0.00    -0.281 N 
ATOM     10  C   UNL A   1      32.482  27.083  25.652  1.00  0.00     0.267 C 
ATOM     11  C   UNL A   1      31.259  28.634  24.385  1.00  0.00     0.149 C 
ATOM     12  O   UNL A   1      32.854  26.013  26.102  1.00  0.00    -0.268 OA
ATOM     13  C   UNL A   1      33.100  28.364  26.074  1.00  0.00     0.084 C 
ATOM     14  S   UNL A   1      32.273  29.686  25.367  1.00  0.00    -0.054 SA
ATOM     15  S   UNL A   1      30.202  29.258  23.249  1.00  0.00    -0.052 S 
ATOM     16  C   UNL A   1      34.175  28.366  26.872  1.00  0.00     0.068 C 
BRANCH  16  17
ATOM     17  C   UNL A   1      34.752  29.549  27.397  1.00  0.00     0.128 A 
ATOM     18  C   UNL A   1      36.096  29.890  27.485  1.00  0.00     0.051 A 
ATOM     19  O   UNL A   1      34.014  30.610  27.867  1.00  0.00    -0.457 OA
ATOM     20  C   UNL A   1      36.176  31.184  28.041  1.00  0.00     0.051 A 
ATOM     21  C   UNL A   1      34.880  31.570  28.292  1.00  0.00     0.136 A 
BRANCH  21  22
ATOM     22  C   UNL A   1      34.305  32.774  28.869  1.00  0.00     0.036 A 
ATOM     23  C   UNL A   1      33.733  33.718  27.996  1.00  0.00     0.020 A 
ATOM     24  C   UNL A   1      34.377  33.078  30.241  1.00  0.00     0.058 A 
ATOM     25  C   UNL A   1      33.271  34.948  28.470  1.00  0.00     0.086 A 
ATOM     26  C   UNL A   1      33.919  34.310  30.724  1.00  0.00     0.106 A 
ATOM     27  Cl  UNL A   1      35.092  32.001  31.393  1.00  0.00    -0.083 Cl
ATOM     28  C   UNL A   1      33.381  35.246  29.832  1.00  0.00     0.270 A 
BRANCH  28  29
ATOM     29  N   UNL A   1      32.961  36.563  30.323  1.00  0.00     0.062 N 
ATOM     30  O   UNL A   1      33.367  37.562  29.712  1.00  0.00    -0.258 OA
ATOM     31  O   UNL A   1      32.235  36.598  31.326  1.00  0.00    -0.258 OA
ENDBRANCH  28  29
ENDBRANCH  21  22
ENDBRANCH  16  17
ENDBRANCH   7   9
ENDBRANCH   4   7
ENDBRANCH   2   3
ENDBRANCH   1   2
BRANCH   1  32
ATOM     32  C   UNL A   1      33.999  22.559  23.577  1.00  0.00     0.002 C 
BRANCH  32  33
ATOM     33  C   UNL A   1      35.337  22.343  24.291  1.00  0.00     0.002 C 
BRANCH  33  34
ATOM     34  C   UNL A   1      35.544  23.206  25.538  1.00  0.00     0.021 C 
BRANCH  34  35
ATOM     35  C   UNL A   1      36.993  23.615  25.786  1.00  0.00     0.116 C 
BRANCH  35  36
ATOM     36  N   UNL A   1      37.801  22.493  26.234  1.00  0.00    -0.352 N 
ATOM     37  C   UNL A   1      39.099  22.468  26.672  1.00  0.00     0.251 C 
ATOM     38  H   UNL A   1      37.347  21.620  26.222  1.00  0.00     0.163 HD
ATOM     39  O   UNL A   1      39.682  21.395  26.797  1.00  0.00    -0.269 OA
BRANCH  37  40
ATOM     40  C   UNL A   1      39.808  23.727  26.980  1.00  0.00     0.039 A 
ATOM     41  C   UNL A   1      40.602  23.784  28.129  1.00  0.00     0.014 A 
ATOM     42  C   UNL A   1      39.668  24.859  26.171  1.00  0.00     0.014 A 
ATOM     43  C   UNL A   1      41.289  24.958  28.438  1.00  0.00     0.010 A 
ATOM     44  C   UNL A   1      40.416  26.005  26.439  1.00  0.00     0.010 A 
ATOM     45  C   UNL A   1      41.227  26.069  27.580  1.00  0.00    -0.014 A 
BRANCH  45  46
ATOM     46  C   UNL A   1      42.015  27.293  27.875  1.00  0.00     0.031 A 
ATOM     47  C   UNL A   1      43.434  27.425  27.397  1.00  0.00     0.074 A 
ATOM     48  C   UNL A   1      41.451  28.281  28.598  1.00  0.00     0.049 A 
ATOM     49  N   UNL A   1      44.271  28.421  27.557  1.00  0.00    -0.248 NA
ATOM     50  C   UNL A   1      43.998  26.282  26.664  1.00  0.00     0.031 C 
ATOM     51  C   UNL A   1      40.102  28.246  29.167  1.00  0.00     0.029 A 
ATOM     52  N   UNL A   1      41.939  29.506  28.979  1.00  0.00    -0.354 N 
ATOM     53  C   UNL A   1      45.450  28.028  26.938  1.00  0.00     0.074 A 
ATOM     54  C   UNL A   1      45.247  26.677  26.462  1.00  0.00     0.031 C 
ATOM     55  C   UNL A   1      39.862  29.405  29.801  1.00  0.00     0.029 A 
ATOM     56  C   UNL A   1      41.048  30.251  29.711  1.00  0.00     0.049 A 
ATOM     57  H   UNL A   1      42.843  29.821  28.748  1.00  0.00     0.167 HD
ATOM     58  C   UNL A   1      46.587  28.741  26.753  1.00  0.00     0.037 A 
ATOM     59  C   UNL A   1      41.173  31.476  30.254  1.00  0.00     0.037 A 
ATOM     60  C   UNL A   1      46.786  30.087  27.224  1.00  0.00     0.049 A 
ATOM     61  C   UNL A   1      42.452  32.242  30.042  1.00  0.00     0.074 A 
ATOM     62  C   UNL A   1      47.893  30.904  27.065  1.00  0.00     0.029 A 
ATOM     63  N   UNL A   1      45.854  30.815  27.949  1.00  0.00    -0.354 N 
ATOM     64  N   UNL A   1      43.535  31.883  29.396  1.00  0.00    -0.248 NA
ATOM     65  C   UNL A   1      42.520  33.589  30.622  1.00  0.00     0.031 C 
ATOM     66  C   UNL A   1      47.647  32.108  27.731  1.00  0.00     0.029 A 
ATOM     67  C   UNL A   1      46.367  32.066  28.258  1.00  0.00     0.049 A 
ATOM     68  H   UNL A   1      44.961  30.492  28.206  1.00  0.00     0.167 HD
ATOM     69  C   UNL A   1      44.400  32.967  29.470  1.00  0.00     0.074 A 
ATOM     70  C   UNL A   1      43.705  34.005  30.199  1.00  0.00     0.031 C 
ATOM     71  C   UNL A   1      45.660  33.090  28.983  1.00  0.00     0.037 A 
BRANCH  58  72
ATOM     72  C   UNL A   1      47.703  28.083  25.990  1.00  0.00     0.064 A 
ATOM     73  C   UNL A   1      48.824  27.553  26.647  1.00  0.00     0.173 A 
ATOM     74  C   UNL A   1      47.632  27.936  24.596  1.00  0.00     0.173 A 
ATOM     75  F   UNL A   1      48.948  27.677  27.978  1.00  0.00    -0.203 F 
ATOM     76  C   UNL A   1      49.843  26.922  25.937  1.00  0.00     0.198 A 
ATOM     77  C   UNL A   1      48.637  27.277  23.892  1.00  0.00     0.198 A 
ATOM     78  F   UNL A   1      46.581  28.419  23.917  1.00  0.00    -0.203 F 
ATOM     79  F   UNL A   1      50.923  26.465  26.583  1.00  0.00    -0.200 F 
ATOM     80  C   UNL A   1      49.744  26.777  24.562  1.00  0.00     0.200 A 
ATOM     81  F   UNL A   1      48.533  27.123  22.565  1.00  0.00    -0.200 F 
ATOM     82  F   UNL A   1      50.718  26.158  23.881  1.00  0.00    -0.200 F 
ENDBRANCH  58  72
BRANCH  59  83
ATOM     83  C   UNL A   1      40.056  32.064  31.039  1.00  0.00     0.064 A 
ATOM     84  C   UNL A   1      39.147  32.957  30.455  1.00  0.00     0.173 A 
ATOM     85  C   UNL A   1      39.887  31.761  32.399  1.00  0.00     0.173 A 
ATOM     86  F   UNL A   1      39.274  33.292  29.163  1.00  0.00    -0.203 F 
ATOM     87  C   UNL A   1      38.136  33.551  31.207  1.00  0.00     0.198 A 
ATOM     88  C   UNL A   1      38.855  32.328  33.141  1.00  0.00     0.198 A 
ATOM     89  F   UNL A   1      40.724  30.905  33.006  1.00  0.00    -0.203 F 
ATOM     90  F   UNL A   1      37.319  34.449  30.638  1.00  0.00    -0.200 F 
ATOM     91  C   UNL A   1      37.988  33.233  32.549  1.00  0.00     0.200 A 
ATOM     92  F   UNL A   1      38.704  32.004  34.433  1.00  0.00    -0.200 F 
ATOM     93  F   UNL A   1      37.016  33.805  33.271  1.00  0.00    -0.200 F 
ENDBRANCH  59  83
BRANCH  71  94
ATOM     94  C   UNL A   1      46.351  34.406  29.201  1.00  0.00     0.064 A 
ATOM     95  C   UNL A   1      46.241  35.459  28.279  1.00  0.00     0.173 A 
ATOM     96  C   UNL A   1      47.123  34.621  30.353  1.00  0.00     0.173 A 
ATOM     97  F   UNL A   1      45.527  35.301  27.155  1.00  0.00    -0.203 F 
ATOM     98  C   UNL A   1      46.910  36.663  28.485  1.00  0.00     0.198 A 
ATOM     99  C   UNL A   1      47.761  35.839  30.572  1.00  0.00     0.198 A 
ATOM    100  F   UNL A   1      47.255  33.650  31.270  1.00  0.00    -0.203 F 
ATOM    101  F   UNL A   1      46.842  37.631  27.560  1.00  0.00    -0.200 F 
ATOM    102  C   UNL A   1      47.664  36.854  29.633  1.00  0.00     0.200 A 
ATOM    103  F   UNL A   1      48.477  36.026  31.689  1.00  0.00    -0.200 F 
ATOM    104  F   UNL A   1      48.307  38.013  29.829  1.00  0.00    -0.200 F 
ENDBRANCH  71  94
ENDBRANCH  45  46
ENDBRANCH  37  40
ENDBRANCH  35  36
ENDBRANCH  34  35
ENDBRANCH  33  34
ENDBRANCH  32  33
ENDBRANCH   1  32
TORSDOF 17
ENDMDL
MODEL 2
REMARK VINA RESULT:     -11.9      4.718      7.608
REMARK SMILES C[C@@H](C(=O)NCCCCCCNC(=O)c1ccc(-c2c3nc(c(-c4c(F)c(F)c(F)c(F)c4F)c4ccc([nH]4)c(-c4c(F)c(F)c(F)c(F)c4F)c4nc(c(-c5c(F)c(F)c(F)c(F)c5F)c5ccc2[nH]5)C=C4)C=C3)cc1)N1C(=O)/C(=C/c2ccc(-c3ccc([N+](=O)[O-])cc3Cl)o2)SC1=S
REMARK SMILES IDX 7 1 6 2 5 3 3 4 4 5 2 7 1 8 78 9 79 10 99 11 80 12 81 13
REMARK SMILES IDX 98 14 100 15 82 16 83 17 84 18 97 19 85 20 86 21 87 22 88 23
REMARK SMILES IDX 95 24 89 25 94 26 96 27 90 28 91 29 92 30 93 31 8 32 9 33
REMARK SMILES IDX 10 34 11 35 12 36 13 37 14 39 15 40 16 41 77 42 17 43 76 44
REMARK SMILES IDX 18 45 19 46 20 47 70 48 21 49 75 50 69 51 71 52 22 53 74 54
REMARK SMILES IDX 68 55 67 56 23 58 55 59 35 60 54 61 36 62 39 63 53 64 72 65
REMARK SMILES IDX 37 66 38 67 52 69 73 70 40 71 24 72 25 73 33 74 26 75 27 76
REMARK SMILES IDX 31 77 34 78 28 79 29 80 32 81 30 82 56 83 57 84 65 85 58 86
REMARK SMILES IDX 59 87 63 88 66 89 60 90 61 91 64 92 62 93 41 94 42 95 50 96
REMARK SMILES IDX 43 97 44 98 48 99 51 100 45 101 46 102 49 103 47 104
REMARK H PARENT 5 6 12 38 71 57 39 68
REMARK Flexibility Score: inf
ROOT
ATOM      1  C   UNL A   1      44.491  23.339  29.844  1.00  0.00     0.021 C 
ENDROOT
BRANCH   1   2
ATOM      2  C   UNL A   1      44.740  24.108  31.144  1.00  0.00     0.116 C 
BRANCH   2   3
ATOM      3  N   UNL A   1      44.231  23.343  32.266  1.00  0.00    -0.354 N 
ATOM      4  C   UNL A   1      44.363  23.583  33.605  1.00  0.00     0.242 C 
ATOM      5  O   UNL A   1      44.066  22.679  34.387  1.00  0.00    -0.273 OA
ATOM      6  H   UNL A   1      43.719  22.536  32.030  1.00  0.00     0.163 HD
BRANCH   4   7
ATOM      7  C   UNL A   1      44.833  24.974  34.085  1.00  0.00     0.178 C 
ATOM      8  C   UNL A   1      45.648  24.848  35.375  1.00  0.00     0.042 C 
BRANCH   7   9
ATOM      9  N   UNL A   1      43.633  25.842  34.162  1.00  0.00    -0.281 N 
ATOM     10  C   UNL A   1      43.287  26.707  33.136  1.00  0.00     0.267 C 
ATOM     11  C   UNL A   1      42.845  25.919  35.302  1.00  0.00     0.149 C 
ATOM     12  O   UNL A   1      43.832  26.832  32.053  1.00  0.00    -0.268 OA
ATOM     13  C   UNL A   1      42.091  27.504  33.504  1.00  0.00     0.084 C 
ATOM     14  S   UNL A   1      41.645  27.194  35.128  1.00  0.00    -0.054 SA
ATOM     15  S   UNL A   1      42.930  24.988  36.689  1.00  0.00    -0.052 S 
ATOM     16  C   UNL A   1      41.501  28.297  32.600  1.00  0.00     0.068 C 
BRANCH  16  17
ATOM     17  C   UNL A   1      40.423  29.162  32.909  1.00  0.00     0.128 A 
ATOM     18  C   UNL A   1      39.081  29.024  32.578  1.00  0.00     0.051 A 
ATOM     19  O   UNL A   1      40.555  30.297  33.675  1.00  0.00    -0.457 OA
ATOM     20  C   UNL A   1      38.385  30.113  33.140  1.00  0.00     0.051 A 
ATOM     21  C   UNL A   1      39.331  30.884  33.773  1.00  0.00     0.136 A 
BRANCH  21  22
ATOM     22  C   UNL A   1      39.252  32.132  34.514  1.00  0.00     0.036 A 
ATOM     23  C   UNL A   1      39.804  33.286  33.928  1.00  0.00     0.020 A 
ATOM     24  C   UNL A   1      38.736  32.218  35.820  1.00  0.00     0.058 A 
ATOM     25  C   UNL A   1      39.870  34.490  34.632  1.00  0.00     0.086 A 
ATOM     26  C   UNL A   1      38.800  33.421  36.535  1.00  0.00     0.106 A 
ATOM     27  Cl  UNL A   1      38.067  30.851  36.644  1.00  0.00    -0.083 Cl
ATOM     28  C   UNL A   1      39.381  34.547  35.942  1.00  0.00     0.270 A 
BRANCH  28  29
ATOM     29  N   UNL A   1      39.510  35.791  36.710  1.00  0.00     0.062 N 
ATOM     30  O   UNL A   1      39.866  36.810  36.101  1.00  0.00    -0.258 OA
ATOM     31  O   UNL A   1      39.266  35.745  37.923  1.00  0.00    -0.258 OA
ENDBRANCH  28  29
ENDBRANCH  21  22
ENDBRANCH  16  17
ENDBRANCH   7   9
ENDBRANCH   4   7
ENDBRANCH   2   3
ENDBRANCH   1   2
BRANCH   1  32
ATOM     32  C   UNL A   1      43.009  23.027  29.601  1.00  0.00     0.002 C 
BRANCH  32  33
ATOM     33  C   UNL A   1      42.572  23.119  28.136  1.00  0.00     0.002 C 
BRANCH  33  34
ATOM     34  C   UNL A   1      41.683  21.968  27.659  1.00  0.00     0.021 C 
BRANCH  34  35
ATOM     35  C   UNL A   1      41.348  22.005  26.171  1.00  0.00     0.116 C 
BRANCH  35  36
ATOM     36  N   UNL A   1      39.913  21.992  25.941  1.00  0.00    -0.352 N 
ATOM     37  C   UNL A   1      38.958  22.903  26.312  1.00  0.00     0.251 C 
ATOM     38  H   UNL A   1      39.576  21.213  25.444  1.00  0.00     0.163 HD
ATOM     39  O   UNL A   1      37.768  22.613  26.223  1.00  0.00    -0.269 OA
BRANCH  37  40
ATOM     40  C   UNL A   1      39.352  24.228  26.834  1.00  0.00     0.039 A 
ATOM     41  C   UNL A   1      39.067  24.533  28.167  1.00  0.00     0.014 A 
ATOM     42  C   UNL A   1      39.964  25.182  26.014  1.00  0.00     0.014 A 
ATOM     43  C   UNL A   1      39.437  25.774  28.688  1.00  0.00     0.010 A 
ATOM     44  C   UNL A   1      40.401  26.389  26.555  1.00  0.00     0.010 A 
ATOM     45  C   UNL A   1      40.135  26.701  27.896  1.00  0.00    -0.014 A 
BRANCH  45  46
ATOM     46  C   UNL A   1      40.588  27.993  28.472  1.00  0.00     0.031 A 
ATOM     47  C   UNL A   1      42.036  28.216  28.809  1.00  0.00     0.074 A 
ATOM     48  C   UNL A   1      39.682  28.961  28.714  1.00  0.00     0.049 A 
ATOM     49  N   UNL A   1      42.614  29.278  29.314  1.00  0.00    -0.248 NA
ATOM     50  C   UNL A   1      42.955  27.093  28.570  1.00  0.00     0.031 C 
ATOM     51  C   UNL A   1      38.241  28.844  28.485  1.00  0.00     0.029 A 
ATOM     52  N   UNL A   1      39.837  30.234  29.204  1.00  0.00    -0.354 N 
ATOM     53  C   UNL A   1      43.958  28.954  29.441  1.00  0.00     0.074 A 
ATOM     54  C   UNL A   1      44.100  27.574  29.031  1.00  0.00     0.031 C 
ATOM     55  C   UNL A   1      37.648  30.004  28.809  1.00  0.00     0.029 A 
ATOM     56  C   UNL A   1      38.660  30.935  29.299  1.00  0.00     0.049 A 
ATOM     57  H   UNL A   1      40.710  30.608  29.463  1.00  0.00     0.167 HD
ATOM     58  C   UNL A   1      44.986  29.745  29.834  1.00  0.00     0.037 A 
ATOM     59  C   UNL A   1      38.422  32.186  29.734  1.00  0.00     0.037 A 
ATOM     60  C   UNL A   1      44.843  31.120  30.239  1.00  0.00     0.049 A 
ATOM     61  C   UNL A   1      39.581  33.039  30.175  1.00  0.00     0.074 A 
ATOM     62  C   UNL A   1      45.826  32.013  30.630  1.00  0.00     0.029 A 
ATOM     63  N   UNL A   1      43.636  31.801  30.306  1.00  0.00    -0.354 N 
ATOM     64  N   UNL A   1      40.857  32.741  30.227  1.00  0.00    -0.248 NA
ATOM     65  C   UNL A   1      39.269  34.408  30.603  1.00  0.00     0.031 C 
ATOM     66  C   UNL A   1      45.209  33.219  30.976  1.00  0.00     0.029 A 
ATOM     67  C   UNL A   1      43.849  33.098  30.748  1.00  0.00     0.049 A 
ATOM     68  H   UNL A   1      42.758  31.419  30.076  1.00  0.00     0.167 HD
ATOM     69  C   UNL A   1      41.500  33.890  30.668  1.00  0.00     0.074 A 
ATOM     70  C   UNL A   1      40.477  34.899  30.841  1.00  0.00     0.031 C 
ATOM     71  C   UNL A   1      42.819  34.091  30.913  1.00  0.00     0.037 A 
BRANCH  58  72
ATOM     72  C   UNL A   1      46.365  29.147  29.826  1.00  0.00     0.064 A 
ATOM     73  C   UNL A   1      46.922  28.580  30.983  1.00  0.00     0.173 A 
ATOM     74  C   UNL A   1      47.119  29.094  28.644  1.00  0.00     0.173 A 
ATOM     75  F   UNL A   1      46.247  28.614  32.144  1.00  0.00    -0.203 F 
ATOM     76  C   UNL A   1      48.190  28.005  30.963  1.00  0.00     0.198 A 
ATOM     77  C   UNL A   1      48.373  28.490  28.620  1.00  0.00     0.198 A 
ATOM     78  F   UNL A   1      46.634  29.616  27.508  1.00  0.00    -0.203 F 
ATOM     79  F   UNL A   1      48.717  27.511  32.091  1.00  0.00    -0.200 F 
ATOM     80  C   UNL A   1      48.910  27.952  29.780  1.00  0.00     0.200 A 
ATOM     81  F   UNL A   1      49.063  28.426  27.472  1.00  0.00    -0.200 F 
ATOM     82  F   UNL A   1      50.125  27.386  29.759  1.00  0.00    -0.200 F 
ENDBRANCH  58  72
BRANCH  59  83
ATOM     83  C   UNL A   1      37.032  32.715  29.765  1.00  0.00     0.064 A 
ATOM     84  C   UNL A   1      36.429  33.240  28.614  1.00  0.00     0.173 A 
ATOM     85  C   UNL A   1      36.287  32.726  30.954  1.00  0.00     0.173 A 
ATOM     86  F   UNL A   1      37.105  33.268  27.457  1.00  0.00    -0.203 F 
ATOM     87  C   UNL A   1      35.149  33.789  28.658  1.00  0.00     0.198 A 
ATOM     88  C   UNL A   1      34.994  33.242  30.989  1.00  0.00     0.198 A 
ATOM     89  F   UNL A   1      36.814  32.227  32.083  1.00  0.00    -0.203 F 
ATOM     90  F   UNL A   1      34.620  34.341  27.558  1.00  0.00    -0.200 F 
ATOM     91  C   UNL A   1      34.430  33.786  29.845  1.00  0.00     0.200 A 
ATOM     92  F   UNL A   1      34.297  33.220  32.134  1.00  0.00    -0.200 F 
ATOM     93  F   UNL A   1      33.200  34.313  29.887  1.00  0.00    -0.200 F 
ENDBRANCH  59  83
BRANCH  71  94
ATOM     94  C   UNL A   1      43.228  35.464  31.366  1.00  0.00     0.064 A 
ATOM     95  C   UNL A   1      43.273  35.810  32.725  1.00  0.00     0.173 A 
ATOM     96  C   UNL A   1      43.593  36.443  30.428  1.00  0.00     0.173 A 
ATOM     97  F   UNL A   1      42.921  34.916  33.661  1.00  0.00    -0.203 F 
ATOM     98  C   UNL A   1      43.630  37.095  33.126  1.00  0.00     0.198 A 
ATOM     99  C   UNL A   1      43.983  37.715  30.834  1.00  0.00     0.198 A 
ATOM    100  F   UNL A   1      43.575  36.161  29.116  1.00  0.00    -0.203 F 
ATOM    101  F   UNL A   1      43.604  37.420  34.426  1.00  0.00    -0.200 F 
ATOM    102  C   UNL A   1      43.990  38.044  32.181  1.00  0.00     0.200 A 
ATOM    103  F   UNL A   1      44.345  38.626  29.921  1.00  0.00    -0.200 F 
ATOM    104  F   UNL A   1      44.333  39.280  32.568  1.00  0.00    -0.200 F 
ENDBRANCH  71  94
ENDBRANCH  45  46
ENDBRANCH  37  40
ENDBRANCH  35  36
ENDBRANCH  34  35
ENDBRANCH  33  34
ENDBRANCH  32  33
ENDBRANCH   1  32
TORSDOF 17
ENDMDL
MODEL 3
REMARK VINA RESULT:     -11.8      0.865      6.932
REMARK SMILES C[C@@H](C(=O)NCCCCCCNC(=O)c1ccc(-c2c3nc(c(-c4c(F)c(F)c(F)c(F)c4F)c4ccc([nH]4)c(-c4c(F)c(F)c(F)c(F)c4F)c4nc(c(-c5c(F)c(F)c(F)c(F)c5F)c5ccc2[nH]5)C=C4)C=C3)cc1)N1C(=O)/C(=C/c2ccc(-c3ccc([N+](=O)[O-])cc3Cl)o2)SC1=S
REMARK SMILES IDX 7 1 6 2 5 3 3 4 4 5 2 7 1 8 78 9 79 10 99 11 80 12 81 13
REMARK SMILES IDX 98 14 100 15 82 16 83 17 84 18 97 19 85 20 86 21 87 22 88 23
REMARK SMILES IDX 95 24 89 25 94 26 96 27 90 28 91 29 92 30 93 31 8 32 9 33
REMARK SMILES IDX 10 34 11 35 12 36 13 37 14 39 15 40 16 41 77 42 17 43 76 44
REMARK SMILES IDX 18 45 19 46 20 47 70 48 21 49 75 50 69 51 71 52 22 53 74 54
REMARK SMILES IDX 68 55 67 56 23 58 55 59 35 60 54 61 36 62 39 63 53 64 72 65
REMARK SMILES IDX 37 66 38 67 52 69 73 70 40 71 24 72 25 73 33 74 26 75 27 76
REMARK SMILES IDX 31 77 34 78 28 79 29 80 32 81 30 82 56 83 57 84 65 85 58 86
REMARK SMILES IDX 59 87 63 88 66 89 60 90 61 91 64 92 62 93 41 94 42 95 50 96
REMARK SMILES IDX 43 97 44 98 48 99 51 100 45 101 46 102 49 103 47 104
REMARK H PARENT 5 6 12 38 71 57 39 68
REMARK Flexibility Score: inf
ROOT
ATOM      1  C   UNL A   1      32.639  22.303  24.126  1.00  0.00     0.021 C 
ENDROOT
BRANCH   1   2
ATOM      2  C   UNL A   1      31.458  23.257  23.930  1.00  0.00     0.116 C 
BRANCH   2   3
ATOM      3  N   UNL A   1      31.856  24.351  23.065  1.00  0.00    -0.354 N 
ATOM      4  C   UNL A   1      31.469  25.661  23.096  1.00  0.00     0.242 C 
ATOM      5  O   UNL A   1      31.735  26.366  22.122  1.00  0.00    -0.273 OA
ATOM      6  H   UNL A   1      32.496  24.116  22.354  1.00  0.00     0.163 HD
BRANCH   4   7
ATOM      7  C   UNL A   1      30.757  26.213  24.351  1.00  0.00     0.178 C 
ATOM      8  C   UNL A   1      29.298  26.551  24.034  1.00  0.00     0.042 C 
BRANCH   7   9
ATOM      9  N   UNL A   1      31.582  27.333  24.867  1.00  0.00    -0.281 N 
ATOM     10  C   UNL A   1      32.579  27.135  25.809  1.00  0.00     0.267 C 
ATOM     11  C   UNL A   1      31.337  28.654  24.520  1.00  0.00     0.149 C 
ATOM     12  O   UNL A   1      32.961  26.077  26.277  1.00  0.00    -0.268 OA
ATOM     13  C   UNL A   1      33.193  28.428  26.201  1.00  0.00     0.084 C 
ATOM     14  S   UNL A   1      32.352  29.731  25.473  1.00  0.00    -0.054 SA
ATOM     15  S   UNL A   1      30.268  29.249  23.380  1.00  0.00    -0.052 S 
ATOM     16  C   UNL A   1      34.274  28.453  26.990  1.00  0.00     0.068 C 
BRANCH  16  17
ATOM     17  C   UNL A   1      34.848  29.649  27.487  1.00  0.00     0.128 A 
ATOM     18  C   UNL A   1      36.190  29.999  27.558  1.00  0.00     0.051 A 
ATOM     19  O   UNL A   1      34.107  30.715  27.942  1.00  0.00    -0.457 OA
ATOM     20  C   UNL A   1      36.267  31.304  28.088  1.00  0.00     0.051 A 
ATOM     21  C   UNL A   1      34.971  31.688  28.340  1.00  0.00     0.136 A 
BRANCH  21  22
ATOM     22  C   UNL A   1      34.393  32.900  28.898  1.00  0.00     0.036 A 
ATOM     23  C   UNL A   1      33.890  33.865  28.005  1.00  0.00     0.020 A 
ATOM     24  C   UNL A   1      34.398  33.191  30.275  1.00  0.00     0.058 A 
ATOM     25  C   UNL A   1      33.431  35.101  28.465  1.00  0.00     0.086 A 
ATOM     26  C   UNL A   1      33.943  34.429  30.744  1.00  0.00     0.106 A 
ATOM     27  Cl  UNL A   1      35.026  32.088  31.452  1.00  0.00    -0.083 Cl
ATOM     28  C   UNL A   1      33.475  35.384  29.834  1.00  0.00     0.270 A 
BRANCH  28  29
ATOM     29  N   UNL A   1      33.059  36.707  30.315  1.00  0.00     0.062 N 
ATOM     30  O   UNL A   1      33.278  37.681  29.581  1.00  0.00    -0.258 OA
ATOM     31  O   UNL A   1      32.524  36.771  31.429  1.00  0.00    -0.258 OA
ENDBRANCH  28  29
ENDBRANCH  21  22
ENDBRANCH  16  17
ENDBRANCH   7   9
ENDBRANCH   4   7
ENDBRANCH   2   3
ENDBRANCH   1   2
BRANCH   1  32
ATOM     32  C   UNL A   1      33.982  22.909  23.702  1.00  0.00     0.002 C 
BRANCH  32  33
ATOM     33  C   UNL A   1      35.212  22.170  24.238  1.00  0.00     0.002 C 
BRANCH  33  34
ATOM     34  C   UNL A   1      35.652  22.591  25.642  1.00  0.00     0.021 C 
BRANCH  34  35
ATOM     35  C   UNL A   1      37.122  22.983  25.750  1.00  0.00     0.116 C 
BRANCH  35  36
ATOM     36  N   UNL A   1      37.953  21.856  26.141  1.00  0.00    -0.352 N 
ATOM     37  C   UNL A   1      39.277  21.825  26.495  1.00  0.00     0.251 C 
ATOM     38  H   UNL A   1      37.497  20.985  26.155  1.00  0.00     0.163 HD
ATOM     39  O   UNL A   1      39.862  20.749  26.578  1.00  0.00    -0.269 OA
BRANCH  37  40
ATOM     40  C   UNL A   1      40.009  23.081  26.761  1.00  0.00     0.039 A 
ATOM     41  C   UNL A   1      41.008  23.078  27.738  1.00  0.00     0.014 A 
ATOM     42  C   UNL A   1      39.695  24.265  26.085  1.00  0.00     0.014 A 
ATOM     43  C   UNL A   1      41.721  24.248  28.003  1.00  0.00     0.010 A 
ATOM     44  C   UNL A   1      40.459  25.411  26.296  1.00  0.00     0.010 A 
ATOM     45  C   UNL A   1      41.474  25.417  27.263  1.00  0.00    -0.014 A 
BRANCH  45  46
ATOM     46  C   UNL A   1      42.281  26.642  27.499  1.00  0.00     0.031 A 
ATOM     47  C   UNL A   1      41.766  27.739  28.388  1.00  0.00     0.074 A 
ATOM     48  C   UNL A   1      43.475  26.772  26.888  1.00  0.00     0.049 A 
ATOM     49  N   UNL A   1      42.333  28.875  28.713  1.00  0.00    -0.248 NA
ATOM     50  C   UNL A   1      40.430  27.549  28.974  1.00  0.00     0.031 C 
ATOM     51  C   UNL A   1      44.056  25.804  25.956  1.00  0.00     0.029 A 
ATOM     52  N   UNL A   1      44.415  27.770  26.957  1.00  0.00    -0.354 N 
ATOM     53  C   UNL A   1      41.431  29.526  29.543  1.00  0.00     0.074 A 
ATOM     54  C   UNL A   1      40.249  28.694  29.617  1.00  0.00     0.031 C 
ATOM     55  C   UNL A   1      45.263  26.241  25.562  1.00  0.00     0.029 A 
ATOM     56  C   UNL A   1      45.526  27.535  26.186  1.00  0.00     0.049 A 
ATOM     57  H   UNL A   1      44.303  28.578  27.508  1.00  0.00     0.167 HD
ATOM     58  C   UNL A   1      41.585  30.694  30.211  1.00  0.00     0.037 A 
ATOM     59  C   UNL A   1      46.632  28.279  25.999  1.00  0.00     0.037 A 
ATOM     60  C   UNL A   1      42.764  31.520  30.140  1.00  0.00     0.049 A 
ATOM     61  C   UNL A   1      46.773  29.578  26.745  1.00  0.00     0.074 A 
ATOM     62  C   UNL A   1      43.028  32.709  30.798  1.00  0.00     0.029 A 
ATOM     63  N   UNL A   1      43.876  31.240  29.360  1.00  0.00    -0.354 N 
ATOM     64  N   UNL A   1      45.940  30.149  27.580  1.00  0.00    -0.248 NA
ATOM     65  C   UNL A   1      48.017  30.330  26.534  1.00  0.00     0.031 C 
ATOM     66  C   UNL A   1      44.280  33.171  30.382  1.00  0.00     0.029 A 
ATOM     67  C   UNL A   1      44.822  32.243  29.508  1.00  0.00     0.049 A 
ATOM     68  H   UNL A   1      43.979  30.448  28.785  1.00  0.00     0.167 HD
ATOM     69  C   UNL A   1      46.567  31.310  28.012  1.00  0.00     0.074 A 
ATOM     70  C   UNL A   1      47.862  31.348  27.369  1.00  0.00     0.031 C 
ATOM     71  C   UNL A   1      46.109  32.264  28.862  1.00  0.00     0.037 A 
BRANCH  58  72
ATOM     72  C   UNL A   1      40.456  31.144  31.096  1.00  0.00     0.064 A 
ATOM     73  C   UNL A   1      40.328  30.674  32.413  1.00  0.00     0.173 A 
ATOM     74  C   UNL A   1      39.523  32.090  30.645  1.00  0.00     0.173 A 
ATOM     75  F   UNL A   1      41.188  29.760  32.890  1.00  0.00    -0.203 F 
ATOM     76  C   UNL A   1      39.295  31.114  33.236  1.00  0.00     0.198 A 
ATOM     77  C   UNL A   1      38.509  32.552  31.482  1.00  0.00     0.198 A 
ATOM     78  F   UNL A   1      39.600  32.577  29.399  1.00  0.00    -0.203 F 
ATOM     79  F   UNL A   1      39.168  30.616  34.473  1.00  0.00    -0.200 F 
ATOM     80  C   UNL A   1      38.393  32.059  32.773  1.00  0.00     0.200 A 
ATOM     81  F   UNL A   1      37.646  33.476  31.039  1.00  0.00    -0.200 F 
ATOM     82  F   UNL A   1      37.406  32.492  33.571  1.00  0.00    -0.200 F 
ENDBRANCH  58  72
BRANCH  59  83
ATOM     83  C   UNL A   1      47.700  27.811  25.076  1.00  0.00     0.064 A 
ATOM     84  C   UNL A   1      48.910  27.298  25.565  1.00  0.00     0.173 A 
ATOM     85  C   UNL A   1      47.541  27.889  23.684  1.00  0.00     0.173 A 
ATOM     86  F   UNL A   1      49.118  27.219  26.887  1.00  0.00    -0.203 F 
ATOM     87  C   UNL A   1      49.932  26.915  24.699  1.00  0.00     0.198 A 
ATOM     88  C   UNL A   1      48.550  27.472  22.820  1.00  0.00     0.198 A 
ATOM     89  F   UNL A   1      46.400  28.363  23.163  1.00  0.00    -0.203 F 
ATOM     90  F   UNL A   1      51.102  26.487  25.194  1.00  0.00    -0.200 F 
ATOM     91  C   UNL A   1      49.750  26.998  23.327  1.00  0.00     0.200 A 
ATOM     92  F   UNL A   1      48.362  27.537  21.493  1.00  0.00    -0.200 F 
ATOM     93  F   UNL A   1      50.733  26.630  22.495  1.00  0.00    -0.200 F 
ENDBRANCH  59  83
BRANCH  71  94
ATOM     94  C   UNL A   1      47.032  33.410  29.163  1.00  0.00     0.064 A 
ATOM     95  C   UNL A   1      47.018  34.590  28.402  1.00  0.00     0.173 A 
ATOM     96  C   UNL A   1      47.934  33.334  30.236  1.00  0.00     0.173 A 
ATOM     97  F   UNL A   1      46.185  34.708  27.357  1.00  0.00    -0.203 F 
ATOM     98  C   UNL A   1      47.898  35.632  28.679  1.00  0.00     0.198 A 
ATOM     99  C   UNL A   1      48.788  34.392  30.532  1.00  0.00     0.198 A 
ATOM    100  F   UNL A   1      47.983  32.232  31.001  1.00  0.00    -0.203 F 
ATOM    101  F   UNL A   1      47.910  36.721  27.898  1.00  0.00    -0.200 F 
ATOM    102  C   UNL A   1      48.778  35.535  29.747  1.00  0.00     0.200 A 
ATOM    103  F   UNL A   1      49.626  34.303  31.573  1.00  0.00    -0.200 F 
ATOM    104  F   UNL A   1      49.624  36.539  30.012  1.00  0.00    -0.200 F 
ENDBRANCH  71  94
ENDBRANCH  45  46
ENDBRANCH  37  40
ENDBRANCH  35  36
ENDBRANCH  34  35
ENDBRANCH  33  34
ENDBRANCH  32  33
ENDBRANCH   1  32
TORSDOF 17
ENDMDL
