MODEL 1
REMARK VINA RESULT:     -11.7      0.000      0.000
REMARK SMILES C#CC[N@@H+](CC(=O)NCCCCCCNC(=O)c1ccc(-c2c3nc(c(-c4c(F)c(F)c(F)c(F)c4F)c4ccc([nH]4)c(-c4c(F)c(F)c(F)c(F)c4F)c4nc(c(-c5c(F)c(F)c(F)c(F)c5F)c5ccc2[nH]5)C=C4)C=C3)cc1)Cc1cccc2ccccc12
REMARK SMILES IDX 11 1 10 2 9 3 8 4 6 5 7 6 5 8 4 9 3 11 2 12 1 13 81 14 82 15
REMARK SMILES IDX 83 16 91 17 84 18 86 19 90 20 85 21 87 22 89 23 88 24 12 25
REMARK SMILES IDX 13 26 14 27 15 28 16 29 17 31 18 32 19 33 80 34 20 35 79 36
REMARK SMILES IDX 21 37 22 38 23 39 73 40 24 41 78 42 72 43 74 44 25 45 77 46
REMARK SMILES IDX 71 47 70 48 26 50 58 51 38 52 57 53 39 54 42 55 56 56 75 57
REMARK SMILES IDX 40 58 41 59 55 61 76 62 43 63 27 64 28 65 36 66 29 67 30 68
REMARK SMILES IDX 34 69 37 70 31 71 32 72 35 73 33 74 59 75 60 76 68 77 61 78
REMARK SMILES IDX 62 79 66 80 69 81 63 82 64 83 67 84 65 85 44 86 45 87 53 88
REMARK SMILES IDX 46 89 47 90 51 91 54 92 48 93 49 94 52 95 50 96
REMARK H PARENT 8 7 4 10 15 30 74 49 42 60
REMARK Flexibility Score: inf
ROOT
ATOM      1  C   UNL A   1      32.915  29.882  25.411  1.00  0.00     0.002 C 
ENDROOT
BRANCH   1   2
ATOM      2  C   UNL A   1      32.350  28.570  24.858  1.00  0.00     0.021 C 
BRANCH   2   3
ATOM      3  C   UNL A   1      33.248  27.310  24.922  1.00  0.00     0.116 C 
BRANCH   3   4
ATOM      4  N   UNL A   1      33.764  26.774  23.664  1.00  0.00    -0.351 N 
ATOM      5  C   UNL A   1      33.177  26.328  22.507  1.00  0.00     0.275 C 
ATOM      6  O   UNL A   1      33.868  26.413  21.484  1.00  0.00    -0.269 OA
ATOM      7  H   UNL A   1      34.746  26.722  23.643  1.00  0.00     0.163 HD
BRANCH   5   8
ATOM      8  C   UNL A   1      31.748  25.768  22.415  1.00  0.00     0.364 C 
BRANCH   8   9
ATOM      9  N   UNL A   1      31.589  24.365  22.819  1.00  0.00    -0.313 N 
ATOM     10  H   UNL A   1      31.092  23.962  22.024  1.00  0.00     0.349 HD
BRANCH   9  11
ATOM     11  C   UNL A   1      30.756  24.220  23.970  1.00  0.00     0.354 C 
BRANCH  11  12
ATOM     12  C   UNL A   1      31.293  24.240  25.391  1.00  0.00    -0.047 C 
ATOM     13  C   UNL A   1      31.755  24.258  26.611  1.00  0.00     0.010 C 
ENDBRANCH  11  12
ENDBRANCH   9  11
BRANCH   9  14
ATOM     14  C   UNL A   1      32.511  23.314  22.422  1.00  0.00     0.300 C 
BRANCH  14  15
ATOM     15  C   UNL A   1      33.211  22.290  23.324  1.00  0.00     0.014 A 
ATOM     16  C   UNL A   1      32.468  21.089  23.472  1.00  0.00     0.010 A 
ATOM     17  C   UNL A   1      34.405  22.395  24.096  1.00  0.00    -0.010 A 
ATOM     18  C   UNL A   1      32.913  20.017  24.241  1.00  0.00     0.001 A 
ATOM     19  C   UNL A   1      34.903  21.259  24.799  1.00  0.00    -0.018 A 
ATOM     20  C   UNL A   1      35.153  23.567  24.259  1.00  0.00     0.009 A 
ATOM     21  C   UNL A   1      34.146  20.090  24.865  1.00  0.00     0.009 A 
ATOM     22  C   UNL A   1      36.145  21.296  25.461  1.00  0.00     0.009 A 
ATOM     23  C   UNL A   1      36.388  23.606  24.921  1.00  0.00     0.001 A 
ATOM     24  C   UNL A   1      36.901  22.460  25.498  1.00  0.00     0.001 A 
ENDBRANCH  14  15
ENDBRANCH   9  14
ENDBRANCH   8   9
ENDBRANCH   5   8
ENDBRANCH   3   4
ENDBRANCH   2   3
ENDBRANCH   1   2
BRANCH   1  25
ATOM     25  C   UNL A   1      32.502  30.209  26.843  1.00  0.00     0.002 C 
BRANCH  25  26
ATOM     26  C   UNL A   1      32.002  31.640  27.022  1.00  0.00     0.021 C 
BRANCH  26  27
ATOM     27  C   UNL A   1      33.053  32.613  27.541  1.00  0.00     0.116 C 
BRANCH  27  28
ATOM     28  N   UNL A   1      32.569  33.980  27.668  1.00  0.00    -0.352 N 
ATOM     29  C   UNL A   1      33.036  34.928  28.554  1.00  0.00     0.251 C 
ATOM     30  H   UNL A   1      31.840  34.254  27.065  1.00  0.00     0.163 HD
ATOM     31  O   UNL A   1      32.540  36.034  28.659  1.00  0.00    -0.269 OA
BRANCH  29  32
ATOM     32  C   UNL A   1      34.171  34.521  29.402  1.00  0.00     0.039 A 
ATOM     33  C   UNL A   1      33.914  33.886  30.618  1.00  0.00     0.014 A 
ATOM     34  C   UNL A   1      35.462  34.598  28.875  1.00  0.00     0.014 A 
ATOM     35  C   UNL A   1      34.969  33.277  31.297  1.00  0.00     0.010 A 
ATOM     36  C   UNL A   1      36.498  33.940  29.524  1.00  0.00     0.010 A 
ATOM     37  C   UNL A   1      36.260  33.278  30.741  1.00  0.00    -0.014 A 
BRANCH  37  38
ATOM     38  C   UNL A   1      37.387  32.617  31.439  1.00  0.00     0.031 A 
ATOM     39  C   UNL A   1      38.090  31.471  30.773  1.00  0.00     0.074 A 
ATOM     40  C   UNL A   1      37.735  33.009  32.679  1.00  0.00     0.049 A 
ATOM     41  N   UNL A   1      39.070  30.729  31.218  1.00  0.00    -0.248 NA
ATOM     42  C   UNL A   1      37.603  31.088  29.437  1.00  0.00     0.031 C 
ATOM     43  C   UNL A   1      37.083  34.071  33.448  1.00  0.00     0.029 A 
ATOM     44  N   UNL A   1      38.722  32.552  33.516  1.00  0.00    -0.354 N 
ATOM     45  C   UNL A   1      39.304  29.786  30.226  1.00  0.00     0.074 A 
ATOM     46  C   UNL A   1      38.325  30.009  29.186  1.00  0.00     0.031 C 
ATOM     47  C   UNL A   1      37.704  34.199  34.633  1.00  0.00     0.029 A 
ATOM     48  C   UNL A   1      38.780  33.217  34.716  1.00  0.00     0.049 A 
ATOM     49  H   UNL A   1      39.332  31.816  33.278  1.00  0.00     0.167 HD
ATOM     50  C   UNL A   1      40.270  28.839  30.174  1.00  0.00     0.037 A 
ATOM     51  C   UNL A   1      39.616  33.051  35.759  1.00  0.00     0.037 A 
ATOM     52  C   UNL A   1      41.261  28.649  31.198  1.00  0.00     0.049 A 
ATOM     53  C   UNL A   1      40.698  32.007  35.667  1.00  0.00     0.074 A 
ATOM     54  C   UNL A   1      42.323  27.763  31.219  1.00  0.00     0.029 A 
ATOM     55  N   UNL A   1      41.311  29.365  32.386  1.00  0.00    -0.354 N 
ATOM     56  N   UNL A   1      40.961  31.172  34.692  1.00  0.00    -0.248 NA
ATOM     57  C   UNL A   1      41.606  31.891  36.817  1.00  0.00     0.031 C 
ATOM     58  C   UNL A   1      42.995  27.918  32.435  1.00  0.00     0.029 A 
ATOM     59  C   UNL A   1      42.378  28.931  33.153  1.00  0.00     0.049 A 
ATOM     60  H   UNL A   1      40.681  30.076  32.643  1.00  0.00     0.167 HD
ATOM     61  C   UNL A   1      42.078  30.453  35.093  1.00  0.00     0.074 A 
ATOM     62  C   UNL A   1      42.453  30.960  36.398  1.00  0.00     0.031 C 
ATOM     63  C   UNL A   1      42.736  29.462  34.444  1.00  0.00     0.037 A 
BRANCH  50  64
ATOM     64  C   UNL A   1      40.300  27.952  28.966  1.00  0.00     0.064 A 
ATOM     65  C   UNL A   1      41.041  28.293  27.824  1.00  0.00     0.173 A 
ATOM     66  C   UNL A   1      39.589  26.744  28.949  1.00  0.00     0.173 A 
ATOM     67  F   UNL A   1      41.725  29.447  27.783  1.00  0.00    -0.203 F 
ATOM     68  C   UNL A   1      41.041  27.474  26.698  1.00  0.00     0.198 A 
ATOM     69  C   UNL A   1      39.616  25.911  27.833  1.00  0.00     0.198 A 
ATOM     70  F   UNL A   1      38.866  26.369  30.016  1.00  0.00    -0.203 F 
ATOM     71  F   UNL A   1      41.710  27.849  25.599  1.00  0.00    -0.200 F 
ATOM     72  C   UNL A   1      40.335  26.281  26.706  1.00  0.00     0.200 A 
ATOM     73  F   UNL A   1      38.941  24.754  27.846  1.00  0.00    -0.200 F 
ATOM     74  F   UNL A   1      40.338  25.492  25.623  1.00  0.00    -0.200 F 
ENDBRANCH  50  64
BRANCH  51  75
ATOM     75  C   UNL A   1      39.495  33.921  36.959  1.00  0.00     0.064 A 
ATOM     76  C   UNL A   1      38.753  33.508  38.074  1.00  0.00     0.173 A 
ATOM     77  C   UNL A   1      40.109  35.181  37.014  1.00  0.00     0.173 A 
ATOM     78  F   UNL A   1      38.131  32.319  38.060  1.00  0.00    -0.203 F 
ATOM     79  C   UNL A   1      38.611  34.329  39.190  1.00  0.00     0.198 A 
ATOM     80  C   UNL A   1      39.988  35.990  38.142  1.00  0.00     0.198 A 
ATOM     81  F   UNL A   1      40.835  35.620  35.977  1.00  0.00    -0.203 F 
ATOM     82  F   UNL A   1      37.861  33.927  40.225  1.00  0.00    -0.200 F 
ATOM     83  C   UNL A   1      39.233  35.568  39.226  1.00  0.00     0.200 A 
ATOM     84  F   UNL A   1      40.602  37.182  38.178  1.00  0.00    -0.200 F 
ATOM     85  F   UNL A   1      39.099  36.357  40.301  1.00  0.00    -0.200 F 
ENDBRANCH  51  75
BRANCH  63  86
ATOM     86  C   UNL A   1      43.946  28.885  35.115  1.00  0.00     0.064 A 
ATOM     87  C   UNL A   1      43.852  27.781  35.975  1.00  0.00     0.173 A 
ATOM     88  C   UNL A   1      45.221  29.410  34.853  1.00  0.00     0.173 A 
ATOM     89  F   UNL A   1      42.654  27.254  36.267  1.00  0.00    -0.203 F 
ATOM     90  C   UNL A   1      44.989  27.237  36.563  1.00  0.00     0.198 A 
ATOM     91  C   UNL A   1      46.358  28.845  35.421  1.00  0.00     0.198 A 
ATOM     92  F   UNL A   1      45.363  30.462  34.032  1.00  0.00    -0.203 F 
ATOM     93  F   UNL A   1      44.873  26.207  37.414  1.00  0.00    -0.200 F 
ATOM     94  C   UNL A   1      46.241  27.764  36.280  1.00  0.00     0.200 A 
ATOM     95  F   UNL A   1      47.567  29.348  35.136  1.00  0.00    -0.200 F 
ATOM     96  F   UNL A   1      47.335  27.230  36.841  1.00  0.00    -0.200 F 
ENDBRANCH  63  86
ENDBRANCH  37  38
ENDBRANCH  29  32
ENDBRANCH  27  28
ENDBRANCH  26  27
ENDBRANCH  25  26
ENDBRANCH   1  25
TORSDOF 18
ENDMDL
MODEL 2
REMARK VINA RESULT:     -11.5      0.774      7.363
REMARK SMILES C#CC[N@@H+](CC(=O)NCCCCCCNC(=O)c1ccc(-c2c3nc(c(-c4c(F)c(F)c(F)c(F)c4F)c4ccc([nH]4)c(-c4c(F)c(F)c(F)c(F)c4F)c4nc(c(-c5c(F)c(F)c(F)c(F)c5F)c5ccc2[nH]5)C=C4)C=C3)cc1)Cc1cccc2ccccc12
REMARK SMILES IDX 11 1 10 2 9 3 8 4 6 5 7 6 5 8 4 9 3 11 2 12 1 13 81 14 82 15
REMARK SMILES IDX 83 16 91 17 84 18 86 19 90 20 85 21 87 22 89 23 88 24 12 25
REMARK SMILES IDX 13 26 14 27 15 28 16 29 17 31 18 32 19 33 80 34 20 35 79 36
REMARK SMILES IDX 21 37 22 38 23 39 73 40 24 41 78 42 72 43 74 44 25 45 77 46
REMARK SMILES IDX 71 47 70 48 26 50 58 51 38 52 57 53 39 54 42 55 56 56 75 57
REMARK SMILES IDX 40 58 41 59 55 61 76 62 43 63 27 64 28 65 36 66 29 67 30 68
REMARK SMILES IDX 34 69 37 70 31 71 32 72 35 73 33 74 59 75 60 76 68 77 61 78
REMARK SMILES IDX 62 79 66 80 69 81 63 82 64 83 67 84 65 85 44 86 45 87 53 88
REMARK SMILES IDX 46 89 47 90 51 91 54 92 48 93 49 94 52 95 50 96
REMARK H PARENT 8 7 4 10 15 30 74 49 42 60
REMARK Flexibility Score: inf
ROOT
ATOM      1  C   UNL A   1      32.040  29.184  26.944  1.00  0.00     0.002 C 
ENDROOT
BRANCH   1   2
ATOM      2  C   UNL A   1      31.840  27.947  26.065  1.00  0.00     0.021 C 
BRANCH   2   3
ATOM      3  C   UNL A   1      33.086  27.095  25.717  1.00  0.00     0.116 C 
BRANCH   3   4
ATOM      4  N   UNL A   1      33.628  27.199  24.364  1.00  0.00    -0.351 N 
ATOM      5  C   UNL A   1      33.068  27.221  23.112  1.00  0.00     0.275 C 
ATOM      6  O   UNL A   1      33.722  27.805  22.239  1.00  0.00    -0.269 OA
ATOM      7  H   UNL A   1      34.610  27.268  24.348  1.00  0.00     0.163 HD
BRANCH   5   8
ATOM      8  C   UNL A   1      31.708  26.600  22.756  1.00  0.00     0.364 C 
BRANCH   8   9
ATOM      9  N   UNL A   1      31.653  25.132  22.782  1.00  0.00    -0.313 N 
ATOM     10  H   UNL A   1      31.359  24.907  21.831  1.00  0.00     0.349 HD
BRANCH   9  11
ATOM     11  C   UNL A   1      30.654  24.639  23.674  1.00  0.00     0.354 C 
BRANCH  11  12
ATOM     12  C   UNL A   1      30.966  24.145  25.077  1.00  0.00    -0.047 C 
ATOM     13  C   UNL A   1      31.234  23.720  26.281  1.00  0.00     0.010 C 
ENDBRANCH  11  12
ENDBRANCH   9  11
BRANCH   9  14
ATOM     14  C   UNL A   1      32.754  24.288  22.346  1.00  0.00     0.300 C 
BRANCH  14  15
ATOM     15  C   UNL A   1      33.671  23.419  23.215  1.00  0.00     0.014 A 
ATOM     16  C   UNL A   1      34.901  24.056  23.524  1.00  0.00     0.010 A 
ATOM     17  C   UNL A   1      33.525  22.072  23.659  1.00  0.00    -0.010 A 
ATOM     18  C   UNL A   1      35.884  23.457  24.306  1.00  0.00     0.001 A 
ATOM     19  C   UNL A   1      34.491  21.503  24.541  1.00  0.00    -0.018 A 
ATOM     20  C   UNL A   1      32.495  21.207  23.272  1.00  0.00     0.009 A 
ATOM     21  C   UNL A   1      35.657  22.202  24.846  1.00  0.00     0.009 A 
ATOM     22  C   UNL A   1      34.306  20.224  25.099  1.00  0.00     0.009 A 
ATOM     23  C   UNL A   1      32.312  19.932  23.825  1.00  0.00     0.001 A 
ATOM     24  C   UNL A   1      33.204  19.450  24.764  1.00  0.00     0.001 A 
ENDBRANCH  14  15
ENDBRANCH   9  14
ENDBRANCH   8   9
ENDBRANCH   5   8
ENDBRANCH   3   4
ENDBRANCH   2   3
ENDBRANCH   1   2
BRANCH   1  25
ATOM     25  C   UNL A   1      32.295  30.482  26.184  1.00  0.00     0.002 C 
BRANCH  25  26
ATOM     26  C   UNL A   1      31.795  31.725  26.916  1.00  0.00     0.021 C 
BRANCH  26  27
ATOM     27  C   UNL A   1      32.901  32.645  27.419  1.00  0.00     0.116 C 
BRANCH  27  28
ATOM     28  N   UNL A   1      32.458  34.010  27.663  1.00  0.00    -0.352 N 
ATOM     29  C   UNL A   1      32.991  34.884  28.586  1.00  0.00     0.251 C 
ATOM     30  H   UNL A   1      31.706  34.340  27.119  1.00  0.00     0.163 HD
ATOM     31  O   UNL A   1      32.529  35.991  28.792  1.00  0.00    -0.269 OA
BRANCH  29  32
ATOM     32  C   UNL A   1      34.157  34.396  29.345  1.00  0.00     0.039 A 
ATOM     33  C   UNL A   1      33.947  33.612  30.479  1.00  0.00     0.014 A 
ATOM     34  C   UNL A   1      35.431  34.561  28.794  1.00  0.00     0.014 A 
ATOM     35  C   UNL A   1      35.031  32.943  31.047  1.00  0.00     0.010 A 
ATOM     36  C   UNL A   1      36.495  33.847  29.328  1.00  0.00     0.010 A 
ATOM     37  C   UNL A   1      36.304  33.035  30.459  1.00  0.00    -0.014 A 
BRANCH  37  38
ATOM     38  C   UNL A   1      37.461  32.314  31.038  1.00  0.00     0.031 A 
ATOM     39  C   UNL A   1      37.943  32.684  32.410  1.00  0.00     0.074 A 
ATOM     40  C   UNL A   1      38.103  31.377  30.314  1.00  0.00     0.049 A 
ATOM     41  N   UNL A   1      38.956  32.211  33.088  1.00  0.00    -0.248 NA
ATOM     42  C   UNL A   1      37.203  33.753  33.100  1.00  0.00     0.031 C 
ATOM     43  C   UNL A   1      37.760  30.979  28.948  1.00  0.00     0.029 A 
ATOM     44  N   UNL A   1      39.185  30.594  30.626  1.00  0.00    -0.354 N 
ATOM     45  C   UNL A   1      38.983  32.935  34.272  1.00  0.00     0.074 A 
ATOM     46  C   UNL A   1      37.927  33.919  34.195  1.00  0.00     0.031 C 
ATOM     47  C   UNL A   1      38.600  30.009  28.549  1.00  0.00     0.029 A 
ATOM     48  C   UNL A   1      39.552  29.733  29.621  1.00  0.00     0.049 A 
ATOM     49  H   UNL A   1      39.655  30.644  31.490  1.00  0.00     0.167 HD
ATOM     50  C   UNL A   1      39.796  32.771  35.341  1.00  0.00     0.037 A 
ATOM     51  C   UNL A   1      40.543  28.822  29.579  1.00  0.00     0.037 A 
ATOM     52  C   UNL A   1      40.821  31.766  35.423  1.00  0.00     0.049 A 
ATOM     53  C   UNL A   1      41.419  28.642  30.790  1.00  0.00     0.074 A 
ATOM     54  C   UNL A   1      41.660  31.470  36.482  1.00  0.00     0.029 A 
ATOM     55  N   UNL A   1      41.142  30.887  34.397  1.00  0.00    -0.354 N 
ATOM     56  N   UNL A   1      41.387  29.278  31.937  1.00  0.00    -0.248 NA
ATOM     57  C   UNL A   1      42.462  27.610  30.707  1.00  0.00     0.031 C 
ATOM     58  C   UNL A   1      42.512  30.435  36.086  1.00  0.00     0.029 A 
ATOM     59  C   UNL A   1      42.176  30.057  34.794  1.00  0.00     0.049 A 
ATOM     60  H   UNL A   1      40.698  30.858  33.518  1.00  0.00     0.167 HD
ATOM     61  C   UNL A   1      42.380  28.706  32.720  1.00  0.00     0.074 A 
ATOM     62  C   UNL A   1      42.990  27.662  31.922  1.00  0.00     0.031 C 
ATOM     63  C   UNL A   1      42.756  29.016  33.984  1.00  0.00     0.037 A 
BRANCH  50  64
ATOM     64  C   UNL A   1      39.597  33.694  36.506  1.00  0.00     0.064 A 
ATOM     65  C   UNL A   1      40.205  34.959  36.552  1.00  0.00     0.173 A 
ATOM     66  C   UNL A   1      38.783  33.319  37.584  1.00  0.00     0.173 A 
ATOM     67  F   UNL A   1      41.006  35.359  35.552  1.00  0.00    -0.203 F 
ATOM     68  C   UNL A   1      40.033  35.797  37.649  1.00  0.00     0.198 A 
ATOM     69  C   UNL A   1      38.588  34.173  38.666  1.00  0.00     0.198 A 
ATOM     70  F   UNL A   1      38.176  32.122  37.589  1.00  0.00    -0.203 F 
ATOM     71  F   UNL A   1      40.670  36.976  37.696  1.00  0.00    -0.200 F 
ATOM     72  C   UNL A   1      39.220  35.407  38.702  1.00  0.00     0.200 A 
ATOM     73  F   UNL A   1      37.794  33.799  39.679  1.00  0.00    -0.200 F 
ATOM     74  F   UNL A   1      39.053  36.217  39.757  1.00  0.00    -0.200 F 
ENDBRANCH  50  64
BRANCH  51  75
ATOM     75  C   UNL A   1      40.732  27.979  28.369  1.00  0.00     0.064 A 
ATOM     76  C   UNL A   1      41.529  28.420  27.304  1.00  0.00     0.173 A 
ATOM     77  C   UNL A   1      40.116  26.725  28.247  1.00  0.00     0.173 A 
ATOM     78  F   UNL A   1      42.123  29.621  27.365  1.00  0.00    -0.203 F 
ATOM     79  C   UNL A   1      41.688  27.648  26.154  1.00  0.00     0.198 A 
ATOM     80  C   UNL A   1      40.297  25.942  27.108  1.00  0.00     0.198 A 
ATOM     81  F   UNL A   1      39.348  26.255  29.240  1.00  0.00    -0.203 F 
ATOM     82  F   UNL A   1      42.422  28.112  25.134  1.00  0.00    -0.200 F 
ATOM     83  C   UNL A   1      41.076  26.408  26.059  1.00  0.00     0.200 A 
ATOM     84  F   UNL A   1      39.713  24.739  27.026  1.00  0.00    -0.200 F 
ATOM     85  F   UNL A   1      41.230  25.664  24.955  1.00  0.00    -0.200 F 
ENDBRANCH  51  75
BRANCH  63  86
ATOM     86  C   UNL A   1      43.852  28.196  34.596  1.00  0.00     0.064 A 
ATOM     87  C   UNL A   1      43.582  26.998  35.273  1.00  0.00     0.173 A 
ATOM     88  C   UNL A   1      45.192  28.587  34.457  1.00  0.00     0.173 A 
ATOM     89  F   UNL A   1      42.315  26.591  35.444  1.00  0.00    -0.203 F 
ATOM     90  C   UNL A   1      44.613  26.232  35.806  1.00  0.00     0.198 A 
ATOM     91  C   UNL A   1      46.223  27.803  34.967  1.00  0.00     0.198 A 
ATOM     92  F   UNL A   1      45.503  29.722  33.812  1.00  0.00    -0.203 F 
ATOM     93  F   UNL A   1      44.331  25.111  36.485  1.00  0.00    -0.200 F 
ATOM     94  C   UNL A   1      45.932  26.631  35.646  1.00  0.00     0.200 A 
ATOM     95  F   UNL A   1      47.497  28.184  34.800  1.00  0.00    -0.200 F 
ATOM     96  F   UNL A   1      46.924  25.884  36.152  1.00  0.00    -0.200 F 
ENDBRANCH  63  86
ENDBRANCH  37  38
ENDBRANCH  29  32
ENDBRANCH  27  28
ENDBRANCH  26  27
ENDBRANCH  25  26
ENDBRANCH   1  25
TORSDOF 18
ENDMDL
MODEL 3
REMARK VINA RESULT:     -11.4      0.521      2.002
REMARK SMILES C#CC[N@@H+](CC(=O)NCCCCCCNC(=O)c1ccc(-c2c3nc(c(-c4c(F)c(F)c(F)c(F)c4F)c4ccc([nH]4)c(-c4c(F)c(F)c(F)c(F)c4F)c4nc(c(-c5c(F)c(F)c(F)c(F)c5F)c5ccc2[nH]5)C=C4)C=C3)cc1)Cc1cccc2ccccc12
REMARK SMILES IDX 11 1 10 2 9 3 8 4 6 5 7 6 5 8 4 9 3 11 2 12 1 13 81 14 82 15
REMARK SMILES IDX 83 16 91 17 84 18 86 19 90 20 85 21 87 22 89 23 88 24 12 25
REMARK SMILES IDX 13 26 14 27 15 28 16 29 17 31 18 32 19 33 80 34 20 35 79 36
REMARK SMILES IDX 21 37 22 38 23 39 73 40 24 41 78 42 72 43 74 44 25 45 77 46
REMARK SMILES IDX 71 47 70 48 26 50 58 51 38 52 57 53 39 54 42 55 56 56 75 57
REMARK SMILES IDX 40 58 41 59 55 61 76 62 43 63 27 64 28 65 36 66 29 67 30 68
REMARK SMILES IDX 34 69 37 70 31 71 32 72 35 73 33 74 59 75 60 76 68 77 61 78
REMARK SMILES IDX 62 79 66 80 69 81 63 82 64 83 67 84 65 85 44 86 45 87 53 88
REMARK SMILES IDX 46 89 47 90 51 91 54 92 48 93 49 94 52 95 50 96
REMARK H PARENT 8 7 4 10 15 30 74 49 42 60
REMARK Flexibility Score: inf
ROOT
ATOM      1  C   UNL A   1      31.820  29.082  27.272  1.00  0.00     0.002 C 
ENDROOT
BRANCH   1   2
ATOM      2  C   UNL A   1      31.703  27.799  26.445  1.00  0.00     0.021 C 
BRANCH   2   3
ATOM      3  C   UNL A   1      33.003  27.017  26.132  1.00  0.00     0.116 C 
BRANCH   3   4
ATOM      4  N   UNL A   1      33.581  27.160  24.797  1.00  0.00    -0.351 N 
ATOM      5  C   UNL A   1      33.055  27.211  23.532  1.00  0.00     0.275 C 
ATOM      6  O   UNL A   1      33.728  27.822  22.692  1.00  0.00    -0.269 OA
ATOM      7  H   UNL A   1      34.562  27.237  24.810  1.00  0.00     0.163 HD
BRANCH   5   8
ATOM      8  C   UNL A   1      31.710  26.590  23.122  1.00  0.00     0.364 C 
BRANCH   8   9
ATOM      9  N   UNL A   1      31.706  25.129  22.965  1.00  0.00    -0.313 N 
ATOM     10  H   UNL A   1      31.456  25.015  21.982  1.00  0.00     0.349 HD
BRANCH   9  11
ATOM     11  C   UNL A   1      30.692  24.499  23.747  1.00  0.00     0.354 C 
BRANCH  11  12
ATOM     12  C   UNL A   1      30.900  24.081  25.194  1.00  0.00    -0.047 C 
ATOM     13  C   UNL A   1      31.078  23.722  26.435  1.00  0.00     0.010 C 
ENDBRANCH  11  12
ENDBRANCH   9  11
BRANCH   9  14
ATOM     14  C   UNL A   1      32.851  24.380  22.475  1.00  0.00     0.300 C 
BRANCH  14  15
ATOM     15  C   UNL A   1      33.777  23.453  23.273  1.00  0.00     0.014 A 
ATOM     16  C   UNL A   1      35.039  24.042  23.548  1.00  0.00     0.010 A 
ATOM     17  C   UNL A   1      33.609  22.097  23.678  1.00  0.00    -0.010 A 
ATOM     18  C   UNL A   1      36.037  23.387  24.264  1.00  0.00     0.001 A 
ATOM     19  C   UNL A   1      34.594  21.469  24.496  1.00  0.00    -0.018 A 
ATOM     20  C   UNL A   1      32.536  21.278  23.309  1.00  0.00     0.009 A 
ATOM     21  C   UNL A   1      35.794  22.122  24.771  1.00  0.00     0.009 A 
ATOM     22  C   UNL A   1      34.393  20.177  25.019  1.00  0.00     0.009 A 
ATOM     23  C   UNL A   1      32.337  19.990  23.826  1.00  0.00     0.001 A 
ATOM     24  C   UNL A   1      33.253  19.449  24.707  1.00  0.00     0.001 A 
ENDBRANCH  14  15
ENDBRANCH   9  14
ENDBRANCH   8   9
ENDBRANCH   5   8
ENDBRANCH   3   4
ENDBRANCH   2   3
ENDBRANCH   1   2
BRANCH   1  25
ATOM     25  C   UNL A   1      32.585  30.216  26.599  1.00  0.00     0.002 C 
BRANCH  25  26
ATOM     26  C   UNL A   1      32.025  31.602  26.915  1.00  0.00     0.021 C 
BRANCH  26  27
ATOM     27  C   UNL A   1      33.032  32.557  27.545  1.00  0.00     0.116 C 
BRANCH  27  28
ATOM     28  N   UNL A   1      32.541  33.922  27.666  1.00  0.00    -0.352 N 
ATOM     29  C   UNL A   1      33.005  34.877  28.547  1.00  0.00     0.251 C 
ATOM     30  H   UNL A   1      31.810  34.190  27.063  1.00  0.00     0.163 HD
ATOM     31  O   UNL A   1      32.504  35.981  28.648  1.00  0.00    -0.269 OA
BRANCH  29  32
ATOM     32  C   UNL A   1      34.142  34.479  29.396  1.00  0.00     0.039 A 
ATOM     33  C   UNL A   1      33.892  33.829  30.604  1.00  0.00     0.014 A 
ATOM     34  C   UNL A   1      35.434  34.581  28.874  1.00  0.00     0.014 A 
ATOM     35  C   UNL A   1      34.953  33.230  31.282  1.00  0.00     0.010 A 
ATOM     36  C   UNL A   1      36.478  33.933  29.521  1.00  0.00     0.010 A 
ATOM     37  C   UNL A   1      36.246  33.255  30.731  1.00  0.00    -0.014 A 
BRANCH  37  38
ATOM     38  C   UNL A   1      37.380  32.606  31.427  1.00  0.00     0.031 A 
ATOM     39  C   UNL A   1      38.096  31.469  30.758  1.00  0.00     0.074 A 
ATOM     40  C   UNL A   1      37.725  32.999  32.668  1.00  0.00     0.049 A 
ATOM     41  N   UNL A   1      39.084  30.736  31.200  1.00  0.00    -0.248 NA
ATOM     42  C   UNL A   1      37.613  31.084  29.421  1.00  0.00     0.031 C 
ATOM     43  C   UNL A   1      37.062  34.051  33.439  1.00  0.00     0.029 A 
ATOM     44  N   UNL A   1      38.717  32.551  33.503  1.00  0.00    -0.354 N 
ATOM     45  C   UNL A   1      39.328  29.798  30.207  1.00  0.00     0.074 A 
ATOM     46  C   UNL A   1      38.346  30.013  29.167  1.00  0.00     0.031 C 
ATOM     47  C   UNL A   1      37.681  34.184  34.624  1.00  0.00     0.029 A 
ATOM     48  C   UNL A   1      38.769  33.214  34.704  1.00  0.00     0.049 A 
ATOM     49  H   UNL A   1      39.335  31.822  33.263  1.00  0.00     0.167 HD
ATOM     50  C   UNL A   1      40.304  28.863  30.152  1.00  0.00     0.037 A 
ATOM     51  C   UNL A   1      39.607  33.054  35.747  1.00  0.00     0.037 A 
ATOM     52  C   UNL A   1      41.297  28.681  31.175  1.00  0.00     0.049 A 
ATOM     53  C   UNL A   1      40.700  32.023  35.652  1.00  0.00     0.074 A 
ATOM     54  C   UNL A   1      42.369  27.806  31.193  1.00  0.00     0.029 A 
ATOM     55  N   UNL A   1      41.340  29.395  32.364  1.00  0.00    -0.354 N 
ATOM     56  N   UNL A   1      40.972  31.192  34.674  1.00  0.00    -0.248 NA
ATOM     57  C   UNL A   1      41.610  31.914  36.801  1.00  0.00     0.031 C 
ATOM     58  C   UNL A   1      43.041  27.967  32.409  1.00  0.00     0.029 A 
ATOM     59  C   UNL A   1      42.412  28.971  33.130  1.00  0.00     0.049 A 
ATOM     60  H   UNL A   1      40.702  30.099  32.623  1.00  0.00     0.167 HD
ATOM     61  C   UNL A   1      42.097  30.486  35.074  1.00  0.00     0.074 A 
ATOM     62  C   UNL A   1      42.466  30.993  36.379  1.00  0.00     0.031 C 
ATOM     63  C   UNL A   1      42.765  29.503  34.422  1.00  0.00     0.037 A 
BRANCH  50  64
ATOM     64  C   UNL A   1      40.343  27.978  28.942  1.00  0.00     0.064 A 
ATOM     65  C   UNL A   1      39.652  26.757  28.903  1.00  0.00     0.173 A 
ATOM     66  C   UNL A   1      41.070  28.357  27.804  1.00  0.00     0.173 A 
ATOM     67  F   UNL A   1      38.955  26.342  29.972  1.00  0.00    -0.203 F 
ATOM     68  C   UNL A   1      39.716  25.932  27.784  1.00  0.00     0.198 A 
ATOM     69  C   UNL A   1      41.106  27.544  26.674  1.00  0.00     0.198 A 
ATOM     70  F   UNL A   1      41.746  29.516  27.788  1.00  0.00    -0.203 F 
ATOM     71  F   UNL A   1      39.094  24.745  27.792  1.00  0.00    -0.200 F 
ATOM     72  C   UNL A   1      40.437  26.329  26.668  1.00  0.00     0.200 A 
ATOM     73  F   UNL A   1      41.796  27.932  25.593  1.00  0.00    -0.200 F 
ATOM     74  F   UNL A   1      40.495  25.535  25.590  1.00  0.00    -0.200 F 
ENDBRANCH  50  64
BRANCH  51  75
ATOM     75  C   UNL A   1      39.477  33.920  36.948  1.00  0.00     0.064 A 
ATOM     76  C   UNL A   1      40.108  35.170  37.005  1.00  0.00     0.173 A 
ATOM     77  C   UNL A   1      38.729  33.517  38.064  1.00  0.00     0.173 A 
ATOM     78  F   UNL A   1      40.850  35.592  35.970  1.00  0.00    -0.203 F 
ATOM     79  C   UNL A   1      40.014  35.976  38.138  1.00  0.00     0.198 A 
ATOM     80  C   UNL A   1      38.614  34.334  39.187  1.00  0.00     0.198 A 
ATOM     81  F   UNL A   1      38.101  32.332  38.058  1.00  0.00    -0.203 F 
ATOM     82  F   UNL A   1      40.662  37.148  38.181  1.00  0.00    -0.200 F 
ATOM     83  C   UNL A   1      39.263  35.559  39.227  1.00  0.00     0.200 A 
ATOM     84  F   UNL A   1      37.877  33.933  40.232  1.00  0.00    -0.200 F 
ATOM     85  F   UNL A   1      39.170  36.334  40.316  1.00  0.00    -0.200 F 
ENDBRANCH  51  75
BRANCH  63  86
ATOM     86  C   UNL A   1      43.982  28.938  35.091  1.00  0.00     0.064 A 
ATOM     87  C   UNL A   1      43.902  27.823  35.938  1.00  0.00     0.173 A 
ATOM     88  C   UNL A   1      45.249  29.486  34.840  1.00  0.00     0.173 A 
ATOM     89  F   UNL A   1      42.711  27.274  36.220  1.00  0.00    -0.203 F 
ATOM     90  C   UNL A   1      45.046  27.290  36.525  1.00  0.00     0.198 A 
ATOM     91  C   UNL A   1      46.393  28.933  35.406  1.00  0.00     0.198 A 
ATOM     92  F   UNL A   1      45.377  30.549  34.031  1.00  0.00    -0.203 F 
ATOM     93  F   UNL A   1      44.943  26.249  37.364  1.00  0.00    -0.200 F 
ATOM     94  C   UNL A   1      46.290  27.840  36.253  1.00  0.00     0.200 A 
ATOM     95  F   UNL A   1      47.595  29.458  35.132  1.00  0.00    -0.200 F 
ATOM     96  F   UNL A   1      47.391  27.318  36.811  1.00  0.00    -0.200 F 
ENDBRANCH  63  86
ENDBRANCH  37  38
ENDBRANCH  29  32
ENDBRANCH  27  28
ENDBRANCH  26  27
ENDBRANCH  25  26
ENDBRANCH   1  25
TORSDOF 18
ENDMDL
