MODEL 1
REMARK VINA RESULT:     -13.0      0.000      0.000
REMARK SMILES Cc1coc2c(C)c3oc(=O)c(CCC(=O)N[C@H](CC(C)C)C(=O)NCCCCCCNC(=O)c4ccc(-c5c6nc(c(-c7c(F)c(F)c(F)c(F)c7F)c7ccc([nH]7)c(-c7c(F)c(F)c(F)c(F)c7F)c7nc(c(-c8c(F)c(F)c(F)c(F)c8F)c8ccc5[nH]8)C=C7)C=C6)cc4)c(C)c3cc12
REMARK SMILES IDX 27 1 26 2 25 3 23 4 24 5 18 7 17 8 15 9 16 10 14 12 13 13
REMARK SMILES IDX 12 14 1 15 2 16 3 17 102 18 4 19 5 20 101 21 6 22 100 23
REMARK SMILES IDX 7 24 8 25 98 26 9 27 99 28 10 29 11 30 19 31 20 32 21 33
REMARK SMILES IDX 22 34 28 35 29 36 30 37 31 38 32 39 33 40 34 42 35 43 36 44
REMARK SMILES IDX 97 45 37 46 96 47 38 48 39 49 40 50 90 51 41 52 95 53 89 54
REMARK SMILES IDX 91 55 42 56 94 57 88 58 87 59 43 61 75 62 55 63 74 64 56 65
REMARK SMILES IDX 59 66 73 67 92 68 57 69 58 70 72 72 93 73 60 74 44 75 45 76
REMARK SMILES IDX 53 77 46 78 47 79 51 80 54 81 48 82 49 83 52 84 50 85 76 86
REMARK SMILES IDX 77 87 85 88 78 89 79 90 83 91 86 92 80 93 81 94 84 95 82 96
REMARK SMILES IDX 61 97 62 98 70 99 63 100 64 101 68 102 71 103 65 104 66 105
REMARK SMILES IDX 69 106 67 107
REMARK H PARENT 25 6 17 11 32 41 91 60 59 71
REMARK Flexibility Score: inf
ROOT
ATOM      1  C   UNL A   1      42.151  27.865  33.326  1.00  0.00     0.021 C 
ENDROOT
BRANCH   1   2
ATOM      2  C   UNL A   1      43.045  29.094  33.613  1.00  0.00     0.116 C 
BRANCH   2   3
ATOM      3  N   UNL A   1      43.206  30.281  32.431  1.00  0.00    -0.354 N 
ATOM      4  C   UNL A   1      42.839  32.113  31.931  1.00  0.00     0.242 C 
ATOM      5  O   UNL A   1      43.568  32.836  31.177  1.00  0.00    -0.273 OA
ATOM      6  H   UNL A   1      43.690  29.871  31.677  1.00  0.00     0.163 HD
BRANCH   4   7
ATOM      7  C   UNL A   1      41.523  33.115  32.322  1.00  0.00     0.171 C 
BRANCH   7   8
ATOM      8  N   UNL A   1      41.059  33.304  33.717  1.00  0.00    -0.344 N 
ATOM      9  C   UNL A   1      40.468  32.446  34.605  1.00  0.00     0.220 C 
ATOM     10  O   UNL A   1      40.199  32.898  35.721  1.00  0.00    -0.275 OA
ATOM     11  H   UNL A   1      41.201  34.211  34.069  1.00  0.00     0.164 HD
BRANCH   9  12
ATOM     12  C   UNL A   1      40.052  31.026  34.224  1.00  0.00     0.105 C 
BRANCH  12  13
ATOM     13  C   UNL A   1      38.762  30.467  34.872  1.00  0.00     0.053 C 
BRANCH  13  14
ATOM     14  C   UNL A   1      37.606  30.605  33.926  1.00  0.00     0.042 A 
ATOM     15  C   UNL A   1      32.801  35.997  30.602  1.00  0.00     0.048 C 
ATOM     16  C   UNL A   1      33.429  34.991  29.708  1.00  0.00    -0.005 A 
ATOM     17  C   UNL A   1      32.946  34.467  28.505  1.00  0.00     0.199 A 
ATOM     18  C   UNL A   1      34.556  34.218  30.075  1.00  0.00     0.024 A 
ATOM     19  O   UNL A   1      33.586  33.382  27.954  1.00  0.00    -0.464 OA
ATOM     20  C   UNL A   1      34.594  32.995  28.799  1.00  0.00     0.140 A 
ATOM     21  C   UNL A   1      35.451  34.002  31.621  1.00  0.00     0.024 A 
ATOM     22  C   UNL A   1      35.425  31.403  28.980  1.00  0.00     0.036 A 
ATOM     23  C   UNL A   1      36.243  32.449  31.945  1.00  0.00     0.022 A 
ATOM     24  C   UNL A   1      35.381  30.344  27.932  1.00  0.00     0.052 C 
ATOM     25  C   UNL A   1      36.284  31.141  30.531  1.00  0.00     0.145 A 
ATOM     26  C   UNL A   1      37.003  32.023  33.642  1.00  0.00    -0.030 A 
ATOM     27  O   UNL A   1      36.789  29.475  31.090  1.00  0.00    -0.422 OA
ATOM     28  C   UNL A   1      36.933  33.144  34.658  1.00  0.00     0.046 C 
ATOM     29  C   UNL A   1      37.463  29.062  32.738  1.00  0.00     0.339 A 
ATOM     30  O   UNL A   1      37.704  27.901  33.044  1.00  0.00    -0.246 OA
ENDBRANCH  13  14
ENDBRANCH  12  13
ENDBRANCH   9  12
ENDBRANCH   7   8
BRANCH   7  31
ATOM     31  C   UNL A   1      40.342  33.122  31.291  1.00  0.00     0.038 C 
BRANCH  31  32
ATOM     32  C   UNL A   1      40.159  34.434  30.098  1.00  0.00    -0.015 C 
ATOM     33  C   UNL A   1      41.702  35.353  28.881  1.00  0.00     0.007 C 
ATOM     34  C   UNL A   1      38.539  33.969  29.660  1.00  0.00     0.007 C 
ENDBRANCH  31  32
ENDBRANCH   7  31
ENDBRANCH   4   7
ENDBRANCH   2   3
ENDBRANCH   1   2
BRANCH   1  35
ATOM     35  C   UNL A   1      41.967  26.875  34.457  1.00  0.00     0.002 C 
BRANCH  35  36
ATOM     36  C   UNL A   1      41.668  27.488  35.820  1.00  0.00     0.002 C 
BRANCH  36  37
ATOM     37  C   UNL A   1      42.224  26.750  37.047  1.00  0.00     0.021 C 
BRANCH  37  38
ATOM     38  C   UNL A   1      42.423  25.254  36.856  1.00  0.00     0.116 C 
BRANCH  38  39
ATOM     39  N   UNL A   1      43.707  24.797  37.370  1.00  0.00    -0.352 N 
ATOM     40  C   UNL A   1      44.732  24.198  36.681  1.00  0.00     0.251 C 
ATOM     41  H   UNL A   1      43.858  24.935  38.333  1.00  0.00     0.163 HD
ATOM     42  O   UNL A   1      45.588  23.541  37.264  1.00  0.00    -0.269 OA
BRANCH  40  43
ATOM     43  C   UNL A   1      44.818  24.400  35.228  1.00  0.00     0.039 A 
ATOM     44  C   UNL A   1      44.470  23.382  34.337  1.00  0.00     0.014 A 
ATOM     45  C   UNL A   1      45.314  25.620  34.765  1.00  0.00     0.014 A 
ATOM     46  C   UNL A   1      44.624  23.609  32.976  1.00  0.00     0.010 A 
ATOM     47  C   UNL A   1      45.319  25.900  33.426  1.00  0.00     0.010 A 
ATOM     48  C   UNL A   1      45.061  24.870  32.535  1.00  0.00    -0.014 A 
BRANCH  48  49
ATOM     49  C   UNL A   1      45.120  25.194  31.120  1.00  0.00     0.031 A 
ATOM     50  C   UNL A   1      46.143  26.226  30.817  1.00  0.00     0.074 A 
ATOM     51  C   UNL A   1      44.454  24.480  30.184  1.00  0.00     0.049 A 
ATOM     52  N   UNL A   1      45.934  27.419  30.378  1.00  0.00    -0.248 NA
ATOM     53  C   UNL A   1      47.540  25.980  31.225  1.00  0.00     0.031 C 
ATOM     54  C   UNL A   1      43.625  23.283  30.362  1.00  0.00     0.029 A 
ATOM     55  N   UNL A   1      44.450  24.640  28.829  1.00  0.00    -0.354 N 
ATOM     56  C   UNL A   1      47.188  28.005  30.249  1.00  0.00     0.074 A 
ATOM     57  C   UNL A   1      48.109  27.158  30.957  1.00  0.00     0.031 C 
ATOM     58  C   UNL A   1      43.393  22.701  29.163  1.00  0.00     0.029 A 
ATOM     59  C   UNL A   1      43.917  23.560  28.119  1.00  0.00     0.049 A 
ATOM     60  H   UNL A   1      44.794  25.449  28.387  1.00  0.00     0.167 HD
ATOM     61  C   UNL A   1      47.388  28.999  29.342  1.00  0.00     0.037 A 
ATOM     62  C   UNL A   1      43.952  23.395  26.768  1.00  0.00     0.037 A 
ATOM     63  C   UNL A   1      46.132  29.575  28.931  1.00  0.00     0.049 A 
ATOM     64  C   UNL A   1      44.187  24.740  26.179  1.00  0.00     0.074 A 
ATOM     65  C   UNL A   1      45.119  30.239  29.596  1.00  0.00     0.029 A 
ATOM     66  N   UNL A   1      45.581  29.125  27.756  1.00  0.00    -0.354 N 
ATOM     67  N   UNL A   1      43.310  25.705  26.248  1.00  0.00    -0.248 NA
ATOM     68  C   UNL A   1      45.573  25.155  26.013  1.00  0.00     0.031 C 
ATOM     69  C   UNL A   1      43.914  29.730  29.031  1.00  0.00     0.029 A 
ATOM     70  C   UNL A   1      44.252  28.867  27.987  1.00  0.00     0.049 A 
ATOM     71  H   UNL A   1      46.053  29.009  26.900  1.00  0.00     0.167 HD
ATOM     72  C   UNL A   1      44.054  26.827  26.577  1.00  0.00     0.074 A 
ATOM     73  C   UNL A   1      45.450  26.433  26.382  1.00  0.00     0.031 C 
ATOM     74  C   UNL A   1      43.500  27.862  27.274  1.00  0.00     0.037 A 
BRANCH  61  75
ATOM     75  C   UNL A   1      48.651  29.172  28.541  1.00  0.00     0.064 A 
ATOM     76  C   UNL A   1      49.268  30.437  28.503  1.00  0.00     0.173 A 
ATOM     77  C   UNL A   1      49.103  28.245  27.576  1.00  0.00     0.173 A 
ATOM     78  F   UNL A   1      48.898  31.403  29.357  1.00  0.00    -0.203 F 
ATOM     79  C   UNL A   1      50.209  30.770  27.526  1.00  0.00     0.198 A 
ATOM     80  C   UNL A   1      50.080  28.563  26.637  1.00  0.00     0.198 A 
ATOM     81  F   UNL A   1      48.542  27.039  27.424  1.00  0.00    -0.203 F 
ATOM     82  F   UNL A   1      50.675  32.023  27.451  1.00  0.00    -0.200 F 
ATOM     83  C   UNL A   1      50.611  29.833  26.591  1.00  0.00     0.200 A 
ATOM     84  F   UNL A   1      50.435  27.648  25.723  1.00  0.00    -0.200 F 
ATOM     85  F   UNL A   1      51.468  30.166  25.617  1.00  0.00    -0.200 F 
ENDBRANCH  61  75
BRANCH  62  86
ATOM     86  C   UNL A   1      44.162  22.144  25.991  1.00  0.00     0.064 A 
ATOM     87  C   UNL A   1      45.437  21.725  25.572  1.00  0.00     0.173 A 
ATOM     88  C   UNL A   1      43.140  21.181  25.903  1.00  0.00     0.173 A 
ATOM     89  F   UNL A   1      46.485  22.553  25.679  1.00  0.00    -0.203 F 
ATOM     90  C   UNL A   1      45.670  20.423  25.103  1.00  0.00     0.198 A 
ATOM     91  C   UNL A   1      43.370  19.885  25.437  1.00  0.00     0.198 A 
ATOM     92  F   UNL A   1      41.917  21.458  26.369  1.00  0.00    -0.203 F 
ATOM     93  F   UNL A   1      46.911  20.044  24.765  1.00  0.00    -0.200 F 
ATOM     94  C   UNL A   1      44.638  19.501  25.045  1.00  0.00     0.200 A 
ATOM     95  F   UNL A   1      42.370  18.991  25.441  1.00  0.00    -0.200 F 
ATOM     96  F   UNL A   1      44.871  18.238  24.660  1.00  0.00    -0.200 F 
ENDBRANCH  62  86
BRANCH  74  97
ATOM     97  C   UNL A   1      42.013  27.856  27.505  1.00  0.00     0.064 A 
ATOM     98  C   UNL A   1      41.386  27.272  28.621  1.00  0.00     0.173 A 
ATOM     99  C   UNL A   1      41.219  28.650  26.667  1.00  0.00     0.173 A 
ATOM    100  F   UNL A   1      42.090  26.572  29.520  1.00  0.00    -0.203 F 
ATOM    101  C   UNL A   1      40.027  27.464  28.873  1.00  0.00     0.198 A 
ATOM    102  C   UNL A   1      39.871  28.869  26.939  1.00  0.00     0.198 A 
ATOM    103  F   UNL A   1      41.773  29.274  25.616  1.00  0.00    -0.203 F 
ATOM    104  F   UNL A   1      39.456  26.905  29.950  1.00  0.00    -0.200 F 
ATOM    105  C   UNL A   1      39.274  28.274  28.038  1.00  0.00     0.200 A 
ATOM    106  F   UNL A   1      39.163  29.694  26.158  1.00  0.00    -0.200 F 
ATOM    107  F   UNL A   1      37.982  28.505  28.309  1.00  0.00    -0.200 F 
ENDBRANCH  74  97
ENDBRANCH  48  49
ENDBRANCH  40  43
ENDBRANCH  38  39
ENDBRANCH  37  38
ENDBRANCH  36  37
ENDBRANCH  35  36
ENDBRANCH   1  35
TORSDOF 19
ENDMDL
MODEL 2
REMARK VINA RESULT:     -11.5      4.155     11.896
REMARK SMILES Cc1coc2c(C)c3oc(=O)c(CCC(=O)N[C@H](CC(C)C)C(=O)NCCCCCCNC(=O)c4ccc(-c5c6nc(c(-c7c(F)c(F)c(F)c(F)c7F)c7ccc([nH]7)c(-c7c(F)c(F)c(F)c(F)c7F)c7nc(c(-c8c(F)c(F)c(F)c(F)c8F)c8ccc5[nH]8)C=C7)C=C6)cc4)c(C)c3cc12
REMARK SMILES IDX 27 1 26 2 25 3 23 4 24 5 18 7 17 8 15 9 16 10 14 12 13 13
REMARK SMILES IDX 12 14 1 15 2 16 3 17 102 18 4 19 5 20 101 21 6 22 100 23
REMARK SMILES IDX 7 24 8 25 98 26 9 27 99 28 10 29 11 30 19 31 20 32 21 33
REMARK SMILES IDX 22 34 28 35 29 36 30 37 31 38 32 39 33 40 34 42 35 43 36 44
REMARK SMILES IDX 97 45 37 46 96 47 38 48 39 49 40 50 90 51 41 52 95 53 89 54
REMARK SMILES IDX 91 55 42 56 94 57 88 58 87 59 43 61 75 62 55 63 74 64 56 65
REMARK SMILES IDX 59 66 73 67 92 68 57 69 58 70 72 72 93 73 60 74 44 75 45 76
REMARK SMILES IDX 53 77 46 78 47 79 51 80 54 81 48 82 49 83 52 84 50 85 76 86
REMARK SMILES IDX 77 87 85 88 78 89 79 90 83 91 86 92 80 93 81 94 84 95 82 96
REMARK SMILES IDX 61 97 62 98 70 99 63 100 64 101 68 102 71 103 65 104 66 105
REMARK SMILES IDX 69 106 67 107
REMARK H PARENT 25 6 17 11 32 41 91 60 59 71
REMARK Flexibility Score: inf
ROOT
ATOM      1  C   UNL A   1      44.530  35.872  26.512  1.00  0.00     0.021 C 
ENDROOT
BRANCH   1   2
ATOM      2  C   UNL A   1      44.655  34.503  27.221  1.00  0.00     0.116 C 
BRANCH   2   3
ATOM      3  N   UNL A   1      45.605  33.303  26.520  1.00  0.00    -0.354 N 
ATOM      4  C   UNL A   1      46.250  31.484  26.645  1.00  0.00     0.242 C 
ATOM      5  O   UNL A   1      46.534  30.729  25.660  1.00  0.00    -0.273 OA
ATOM      6  H   UNL A   1      45.997  33.689  25.703  1.00  0.00     0.163 HD
BRANCH   4   7
ATOM      7  C   UNL A   1      46.604  30.538  28.012  1.00  0.00     0.171 C 
BRANCH   7   8
ATOM      8  N   UNL A   1      47.418  29.302  27.929  1.00  0.00    -0.344 N 
ATOM      9  C   UNL A   1      47.121  28.043  27.480  1.00  0.00     0.220 C 
ATOM     10  O   UNL A   1      48.026  27.206  27.527  1.00  0.00    -0.275 OA
ATOM     11  H   UNL A   1      48.340  29.404  28.257  1.00  0.00     0.164 HD
BRANCH   9  12
ATOM     12  C   UNL A   1      45.715  27.639  27.038  1.00  0.00     0.105 C 
BRANCH  12  13
ATOM     13  C   UNL A   1      45.437  27.595  25.515  1.00  0.00     0.053 C 
BRANCH  13  14
ATOM     14  C   UNL A   1      44.411  26.546  25.206  1.00  0.00     0.042 A 
ATOM     15  C   UNL A   1      43.112  18.711  25.581  1.00  0.00     0.048 C 
ATOM     16  C   UNL A   1      42.052  19.610  26.106  1.00  0.00    -0.005 A 
ATOM     17  C   UNL A   1      40.672  19.396  26.162  1.00  0.00     0.199 A 
ATOM     18  C   UNL A   1      42.275  20.968  26.437  1.00  0.00     0.024 A 
ATOM     19  O   UNL A   1      39.852  20.453  26.483  1.00  0.00    -0.464 OA
ATOM     20  C   UNL A   1      40.626  21.574  26.632  1.00  0.00     0.140 A 
ATOM     21  C   UNL A   1      43.671  22.079  26.203  1.00  0.00     0.024 A 
ATOM     22  C   UNL A   1      40.194  23.321  26.503  1.00  0.00     0.036 A 
ATOM     23  C   UNL A   1      43.364  23.812  25.986  1.00  0.00     0.022 A 
ATOM     24  C   UNL A   1      38.790  23.816  26.585  1.00  0.00     0.052 C 
ATOM     25  C   UNL A   1      41.560  24.447  26.221  1.00  0.00     0.145 A 
ATOM     26  C   UNL A   1      44.736  25.039  25.488  1.00  0.00    -0.030 A 
ATOM     27  O   UNL A   1      41.303  26.155  25.620  1.00  0.00    -0.422 OA
ATOM     28  C   UNL A   1      46.113  24.422  25.363  1.00  0.00     0.046 C 
ATOM     29  C   UNL A   1      42.617  27.308  25.089  1.00  0.00     0.339 A 
ATOM     30  O   UNL A   1      42.338  28.409  24.632  1.00  0.00    -0.246 OA
ENDBRANCH  13  14
ENDBRANCH  12  13
ENDBRANCH   9  12
ENDBRANCH   7   8
BRANCH   7  31
ATOM     31  C   UNL A   1      45.465  30.435  29.084  1.00  0.00     0.038 C 
BRANCH  31  32
ATOM     32  C   UNL A   1      44.940  31.859  30.020  1.00  0.00    -0.015 C 
ATOM     33  C   UNL A   1      46.150  33.526  30.700  1.00  0.00     0.007 C 
ATOM     34  C   UNL A   1      43.339  31.865  29.336  1.00  0.00     0.007 C 
ENDBRANCH  31  32
ENDBRANCH   7  31
ENDBRANCH   4   7
ENDBRANCH   2   3
ENDBRANCH   1   2
BRANCH   1  35
ATOM     35  C   UNL A   1      43.235  36.630  26.713  1.00  0.00     0.002 C 
BRANCH  35  36
ATOM     36  C   UNL A   1      43.386  38.053  27.238  1.00  0.00     0.002 C 
BRANCH  36  37
ATOM     37  C   UNL A   1      42.335  38.529  28.252  1.00  0.00     0.021 C 
BRANCH  37  38
ATOM     38  C   UNL A   1      42.884  39.370  29.394  1.00  0.00     0.116 C 
BRANCH  38  39
ATOM     39  N   UNL A   1      44.289  39.091  29.660  1.00  0.00    -0.352 N 
ATOM     40  C   UNL A   1      44.822  38.219  30.577  1.00  0.00     0.251 C 
ATOM     41  H   UNL A   1      44.938  39.591  29.114  1.00  0.00     0.163 HD
ATOM     42  O   UNL A   1      45.981  38.333  30.959  1.00  0.00    -0.269 OA
BRANCH  40  43
ATOM     43  C   UNL A   1      43.991  37.107  31.059  1.00  0.00     0.039 A 
ATOM     44  C   UNL A   1      43.559  37.053  32.387  1.00  0.00     0.014 A 
ATOM     45  C   UNL A   1      43.694  36.076  30.166  1.00  0.00     0.014 A 
ATOM     46  C   UNL A   1      42.823  35.951  32.802  1.00  0.00     0.010 A 
ATOM     47  C   UNL A   1      42.842  35.070  30.531  1.00  0.00     0.010 A 
ATOM     48  C   UNL A   1      42.482  34.961  31.865  1.00  0.00    -0.014 A 
BRANCH  48  49
ATOM     49  C   UNL A   1      41.611  33.853  32.222  1.00  0.00     0.031 A 
ATOM     50  C   UNL A   1      40.281  33.946  31.570  1.00  0.00     0.074 A 
ATOM     51  C   UNL A   1      42.054  32.773  32.905  1.00  0.00     0.049 A 
ATOM     52  N   UNL A   1      39.145  34.127  32.151  1.00  0.00    -0.248 NA
ATOM     53  C   UNL A   1      40.217  34.041  30.099  1.00  0.00     0.031 C 
ATOM     54  C   UNL A   1      43.415  32.475  33.364  1.00  0.00     0.029 A 
ATOM     55  N   UNL A   1      41.370  31.651  33.268  1.00  0.00    -0.354 N 
ATOM     56  C   UNL A   1      38.195  34.144  31.137  1.00  0.00     0.074 A 
ATOM     57  C   UNL A   1      38.919  34.281  29.902  1.00  0.00     0.031 C 
ATOM     58  C   UNL A   1      43.503  31.175  33.732  1.00  0.00     0.029 A 
ATOM     59  C   UNL A   1      42.177  30.588  33.686  1.00  0.00     0.049 A 
ATOM     60  H   UNL A   1      40.388  31.593  33.238  1.00  0.00     0.167 HD
ATOM     61  C   UNL A   1      36.911  33.775  31.395  1.00  0.00     0.037 A 
ATOM     62  C   UNL A   1      41.760  29.317  33.936  1.00  0.00     0.037 A 
ATOM     63  C   UNL A   1      36.646  33.812  32.812  1.00  0.00     0.049 A 
ATOM     64  C   UNL A   1      40.293  29.385  34.169  1.00  0.00     0.074 A 
ATOM     65  C   UNL A   1      36.665  34.812  33.765  1.00  0.00     0.029 A 
ATOM     66  N   UNL A   1      36.729  32.629  33.506  1.00  0.00    -0.354 N 
ATOM     67  N   UNL A   1      39.770  29.983  35.205  1.00  0.00    -0.248 NA
ATOM     68  C   UNL A   1      39.433  29.277  32.998  1.00  0.00     0.031 C 
ATOM     69  C   UNL A   1      37.253  34.213  34.916  1.00  0.00     0.029 A 
ATOM     70  C   UNL A   1      37.463  32.861  34.643  1.00  0.00     0.049 A 
ATOM     71  H   UNL A   1      36.334  31.769  33.237  1.00  0.00     0.167 HD
ATOM     72  C   UNL A   1      38.705  30.705  34.688  1.00  0.00     0.074 A 
ATOM     73  C   UNL A   1      38.524  30.201  33.326  1.00  0.00     0.031 C 
ATOM     74  C   UNL A   1      38.274  31.854  35.286  1.00  0.00     0.037 A 
BRANCH  61  75
ATOM     75  C   UNL A   1      36.040  33.008  30.435  1.00  0.00     0.064 A 
ATOM     76  C   UNL A   1      36.492  31.768  29.945  1.00  0.00     0.173 A 
ATOM     77  C   UNL A   1      34.943  33.572  29.748  1.00  0.00     0.173 A 
ATOM     78  F   UNL A   1      37.545  31.154  30.507  1.00  0.00    -0.203 F 
ATOM     79  C   UNL A   1      35.934  31.177  28.809  1.00  0.00     0.198 A 
ATOM     80  C   UNL A   1      34.356  32.954  28.648  1.00  0.00     0.198 A 
ATOM     81  F   UNL A   1      34.469  34.791  30.034  1.00  0.00    -0.203 F 
ATOM     82  F   UNL A   1      36.478  30.062  28.306  1.00  0.00    -0.200 F 
ATOM     83  C   UNL A   1      34.869  31.773  28.159  1.00  0.00     0.200 A 
ATOM     84  F   UNL A   1      33.341  33.562  28.017  1.00  0.00    -0.200 F 
ATOM     85  F   UNL A   1      34.371  31.240  27.036  1.00  0.00    -0.200 F 
ENDBRANCH  61  75
BRANCH  62  86
ATOM     86  C   UNL A   1      42.453  28.037  33.629  1.00  0.00     0.064 A 
ATOM     87  C   UNL A   1      43.100  27.808  32.402  1.00  0.00     0.173 A 
ATOM     88  C   UNL A   1      42.746  27.122  34.657  1.00  0.00     0.173 A 
ATOM     89  F   UNL A   1      42.932  28.663  31.384  1.00  0.00    -0.203 F 
ATOM     90  C   UNL A   1      43.988  26.737  32.224  1.00  0.00     0.198 A 
ATOM     91  C   UNL A   1      43.630  26.055  34.482  1.00  0.00     0.198 A 
ATOM     92  F   UNL A   1      42.253  27.315  35.886  1.00  0.00    -0.203 F 
ATOM     93  F   UNL A   1      44.629  26.583  31.056  1.00  0.00    -0.200 F 
ATOM     94  C   UNL A   1      44.260  25.866  33.267  1.00  0.00     0.200 A 
ATOM     95  F   UNL A   1      43.921  25.257  35.520  1.00  0.00    -0.200 F 
ATOM     96  F   UNL A   1      45.157  24.881  33.119  1.00  0.00    -0.200 F 
ENDBRANCH  62  86
BRANCH  74  97
ATOM     97  C   UNL A   1      38.841  32.217  36.632  1.00  0.00     0.064 A 
ATOM     98  C   UNL A   1      39.975  33.029  36.822  1.00  0.00     0.173 A 
ATOM     99  C   UNL A   1      38.085  31.898  37.767  1.00  0.00     0.173 A 
ATOM    100  F   UNL A   1      40.702  33.452  35.781  1.00  0.00    -0.203 F 
ATOM    101  C   UNL A   1      40.338  33.483  38.091  1.00  0.00     0.198 A 
ATOM    102  C   UNL A   1      38.428  32.381  39.027  1.00  0.00     0.198 A 
ATOM    103  F   UNL A   1      36.964  31.170  37.640  1.00  0.00    -0.203 F 
ATOM    104  F   UNL A   1      41.417  34.264  38.243  1.00  0.00    -0.200 F 
ATOM    105  C   UNL A   1      39.555  33.169  39.190  1.00  0.00     0.200 A 
ATOM    106  F   UNL A   1      37.638  32.117  40.076  1.00  0.00    -0.200 F 
ATOM    107  F   UNL A   1      39.870  33.651  40.401  1.00  0.00    -0.200 F 
ENDBRANCH  74  97
ENDBRANCH  48  49
ENDBRANCH  40  43
ENDBRANCH  38  39
ENDBRANCH  37  38
ENDBRANCH  36  37
ENDBRANCH  35  36
ENDBRANCH   1  35
TORSDOF 19
ENDMDL
MODEL 3
REMARK VINA RESULT:     -11.5      3.136      8.192
REMARK SMILES Cc1coc2c(C)c3oc(=O)c(CCC(=O)N[C@H](CC(C)C)C(=O)NCCCCCCNC(=O)c4ccc(-c5c6nc(c(-c7c(F)c(F)c(F)c(F)c7F)c7ccc([nH]7)c(-c7c(F)c(F)c(F)c(F)c7F)c7nc(c(-c8c(F)c(F)c(F)c(F)c8F)c8ccc5[nH]8)C=C7)C=C6)cc4)c(C)c3cc12
REMARK SMILES IDX 27 1 26 2 25 3 23 4 24 5 18 7 17 8 15 9 16 10 14 12 13 13
REMARK SMILES IDX 12 14 1 15 2 16 3 17 102 18 4 19 5 20 101 21 6 22 100 23
REMARK SMILES IDX 7 24 8 25 98 26 9 27 99 28 10 29 11 30 19 31 20 32 21 33
REMARK SMILES IDX 22 34 28 35 29 36 30 37 31 38 32 39 33 40 34 42 35 43 36 44
REMARK SMILES IDX 97 45 37 46 96 47 38 48 39 49 40 50 90 51 41 52 95 53 89 54
REMARK SMILES IDX 91 55 42 56 94 57 88 58 87 59 43 61 75 62 55 63 74 64 56 65
REMARK SMILES IDX 59 66 73 67 92 68 57 69 58 70 72 72 93 73 60 74 44 75 45 76
REMARK SMILES IDX 53 77 46 78 47 79 51 80 54 81 48 82 49 83 52 84 50 85 76 86
REMARK SMILES IDX 77 87 85 88 78 89 79 90 83 91 86 92 80 93 81 94 84 95 82 96
REMARK SMILES IDX 61 97 62 98 70 99 63 100 64 101 68 102 71 103 65 104 66 105
REMARK SMILES IDX 69 106 67 107
REMARK H PARENT 25 6 17 11 32 41 91 60 59 71
REMARK Flexibility Score: inf
ROOT
ATOM      1  C   UNL A   1      40.299  33.647  30.053  1.00  0.00     0.021 C 
ENDROOT
BRANCH   1   2
ATOM      2  C   UNL A   1      39.275  34.793  29.879  1.00  0.00     0.116 C 
BRANCH   2   3
ATOM      3  N   UNL A   1      37.896  34.523  28.952  1.00  0.00    -0.354 N 
ATOM      4  C   UNL A   1      36.114  33.773  28.901  1.00  0.00     0.242 C 
ATOM      5  O   UNL A   1      35.145  34.212  28.201  1.00  0.00    -0.273 OA
ATOM      6  H   UNL A   1      38.069  34.909  28.063  1.00  0.00     0.163 HD
BRANCH   4   7
ATOM      7  C   UNL A   1      35.472  32.415  29.696  1.00  0.00     0.171 C 
BRANCH   7   8
ATOM      8  N   UNL A   1      34.495  32.534  30.804  1.00  0.00    -0.344 N 
ATOM      9  C   UNL A   1      34.656  32.816  32.134  1.00  0.00     0.220 C 
ATOM     10  O   UNL A   1      33.633  32.858  32.823  1.00  0.00    -0.275 OA
ATOM     11  H   UNL A   1      33.561  32.383  30.536  1.00  0.00     0.164 HD
BRANCH   9  12
ATOM     12  C   UNL A   1      36.031  32.971  32.782  1.00  0.00     0.105 C 
BRANCH  12  13
ATOM     13  C   UNL A   1      36.615  31.735  33.509  1.00  0.00     0.053 C 
BRANCH  13  14
ATOM     14  C   UNL A   1      37.913  32.089  34.171  1.00  0.00     0.042 A 
ATOM     15  C   UNL A   1      45.747  32.466  32.865  1.00  0.00     0.048 C 
ATOM     16  C   UNL A   1      45.094  33.648  33.484  1.00  0.00    -0.005 A 
ATOM     17  C   UNL A   1      45.640  34.590  34.361  1.00  0.00     0.199 A 
ATOM     18  C   UNL A   1      43.698  33.877  33.448  1.00  0.00     0.024 A 
ATOM     19  O   UNL A   1      44.797  35.478  34.986  1.00  0.00    -0.464 OA
ATOM     20  C   UNL A   1      43.508  35.181  34.626  1.00  0.00     0.140 A 
ATOM     21  C   UNL A   1      42.302  32.881  32.903  1.00  0.00     0.024 A 
ATOM     22  C   UNL A   1      41.947  35.545  35.453  1.00  0.00     0.036 A 
ATOM     23  C   UNL A   1      40.731  33.096  33.698  1.00  0.00     0.022 A 
ATOM     24  C   UNL A   1      41.814  36.591  36.507  1.00  0.00     0.052 C 
ATOM     25  C   UNL A   1      40.548  34.536  34.965  1.00  0.00     0.145 A 
ATOM     26  C   UNL A   1      39.255  31.932  33.377  1.00  0.00    -0.030 A 
ATOM     27  O   UNL A   1      39.027  34.432  35.976  1.00  0.00    -0.422 OA
ATOM     28  C   UNL A   1      39.516  30.860  32.339  1.00  0.00     0.046 C 
ATOM     29  C   UNL A   1      37.640  33.275  35.698  1.00  0.00     0.339 A 
ATOM     30  O   UNL A   1      36.695  33.231  36.475  1.00  0.00    -0.246 OA
ENDBRANCH  13  14
ENDBRANCH  12  13
ENDBRANCH   9  12
ENDBRANCH   7   8
BRANCH   7  31
ATOM     31  C   UNL A   1      36.458  31.211  29.892  1.00  0.00     0.038 C 
BRANCH  31  32
ATOM     32  C   UNL A   1      36.168  29.637  29.106  1.00  0.00    -0.015 C 
ATOM     33  C   UNL A   1      35.066  29.243  27.279  1.00  0.00     0.007 C 
ATOM     34  C   UNL A   1      37.673  28.953  29.656  1.00  0.00     0.007 C 
ENDBRANCH  31  32
ENDBRANCH   7  31
ENDBRANCH   4   7
ENDBRANCH   2   3
ENDBRANCH   1   2
BRANCH   1  35
ATOM     35  C   UNL A   1      41.689  33.883  29.501  1.00  0.00     0.002 C 
BRANCH  35  36
ATOM     36  C   UNL A   1      42.278  35.260  29.781  1.00  0.00     0.002 C 
BRANCH  36  37
ATOM     37  C   UNL A   1      42.179  36.297  28.652  1.00  0.00     0.021 C 
BRANCH  37  38
ATOM     38  C   UNL A   1      42.204  35.716  27.247  1.00  0.00     0.116 C 
BRANCH  38  39
ATOM     39  N   UNL A   1      43.407  36.091  26.516  1.00  0.00    -0.352 N 
ATOM     40  C   UNL A   1      44.646  35.501  26.560  1.00  0.00     0.251 C 
ATOM     41  H   UNL A   1      43.321  36.866  25.914  1.00  0.00     0.163 HD
ATOM     42  O   UNL A   1      45.649  36.105  26.197  1.00  0.00    -0.269 OA
BRANCH  40  43
ATOM     43  C   UNL A   1      44.746  34.103  27.005  1.00  0.00     0.039 A 
ATOM     44  C   UNL A   1      44.271  33.058  26.210  1.00  0.00     0.014 A 
ATOM     45  C   UNL A   1      45.277  33.856  28.272  1.00  0.00     0.014 A 
ATOM     46  C   UNL A   1      44.340  31.763  26.704  1.00  0.00     0.010 A 
ATOM     47  C   UNL A   1      45.487  32.573  28.695  1.00  0.00     0.010 A 
ATOM     48  C   UNL A   1      44.941  31.536  27.954  1.00  0.00    -0.014 A 
BRANCH  48  49
ATOM     49  C   UNL A   1      45.147  30.188  28.458  1.00  0.00     0.031 A 
ATOM     50  C   UNL A   1      46.256  29.488  27.764  1.00  0.00     0.074 A 
ATOM     51  C   UNL A   1      44.525  29.726  29.566  1.00  0.00     0.049 A 
ATOM     52  N   UNL A   1      46.162  28.450  27.005  1.00  0.00    -0.248 NA
ATOM     53  C   UNL A   1      47.592  30.114  27.750  1.00  0.00     0.031 C 
ATOM     54  C   UNL A   1      43.610  30.435  30.467  1.00  0.00     0.029 A 
ATOM     55  N   UNL A   1      44.653  28.512  30.175  1.00  0.00    -0.354 N 
ATOM     56  C   UNL A   1      47.457  28.161  26.590  1.00  0.00     0.074 A 
ATOM     57  C   UNL A   1      48.255  29.313  26.914  1.00  0.00     0.031 C 
ATOM     58  C   UNL A   1      43.451  29.729  31.611  1.00  0.00     0.029 A 
ATOM     59  C   UNL A   1      44.120  28.451  31.466  1.00  0.00     0.049 A 
ATOM     60  H   UNL A   1      45.086  27.741  29.741  1.00  0.00     0.167 HD
ATOM     61  C   UNL A   1      47.800  26.888  26.256  1.00  0.00     0.037 A 
ATOM     62  C   UNL A   1      44.267  27.420  32.345  1.00  0.00     0.037 A 
ATOM     63  C   UNL A   1      46.624  26.095  25.996  1.00  0.00     0.049 A 
ATOM     64  C   UNL A   1      44.637  26.224  31.543  1.00  0.00     0.074 A 
ATOM     65  C   UNL A   1      45.599  26.175  25.074  1.00  0.00     0.029 A 
ATOM     66  N   UNL A   1      46.155  25.302  27.014  1.00  0.00    -0.354 N 
ATOM     67  N   UNL A   1      43.820  25.661  30.695  1.00  0.00    -0.248 NA
ATOM     68  C   UNL A   1      46.056  26.012  31.291  1.00  0.00     0.031 C 
ATOM     69  C   UNL A   1      44.420  25.850  25.806  1.00  0.00     0.029 A 
ATOM     70  C   UNL A   1      44.797  25.489  27.100  1.00  0.00     0.049 A 
ATOM     71  H   UNL A   1      46.694  24.705  27.582  1.00  0.00     0.167 HD
ATOM     72  C   UNL A   1      44.599  25.405  29.578  1.00  0.00     0.074 A 
ATOM     73  C   UNL A   1      45.980  25.611  30.019  1.00  0.00     0.031 C 
ATOM     74  C   UNL A   1      44.051  25.360  28.329  1.00  0.00     0.037 A 
BRANCH  61  75
ATOM     75  C   UNL A   1      49.139  26.266  26.554  1.00  0.00     0.064 A 
ATOM     76  C   UNL A   1      49.591  26.225  27.888  1.00  0.00     0.173 A 
ATOM     77  C   UNL A   1      50.115  25.995  25.572  1.00  0.00     0.173 A 
ATOM     78  F   UNL A   1      48.753  26.493  28.901  1.00  0.00    -0.203 F 
ATOM     79  C   UNL A   1      50.932  26.003  28.205  1.00  0.00     0.198 A 
ATOM     80  C   UNL A   1      51.441  25.721  25.894  1.00  0.00     0.198 A 
ATOM     81  F   UNL A   1      49.861  26.096  24.262  1.00  0.00    -0.203 F 
ATOM     82  F   UNL A   1      51.338  26.098  29.477  1.00  0.00    -0.200 F 
ATOM     83  C   UNL A   1      51.858  25.755  27.207  1.00  0.00     0.200 A 
ATOM     84  F   UNL A   1      52.327  25.509  24.910  1.00  0.00    -0.200 F 
ATOM     85  F   UNL A   1      53.155  25.601  27.503  1.00  0.00    -0.200 F 
ENDBRANCH  61  75
BRANCH  62  86
ATOM     86  C   UNL A   1      44.467  27.479  33.817  1.00  0.00     0.064 A 
ATOM     87  C   UNL A   1      43.734  26.675  34.707  1.00  0.00     0.173 A 
ATOM     88  C   UNL A   1      45.597  28.119  34.357  1.00  0.00     0.173 A 
ATOM     89  F   UNL A   1      42.678  25.976  34.269  1.00  0.00    -0.203 F 
ATOM     90  C   UNL A   1      44.118  26.518  36.048  1.00  0.00     0.198 A 
ATOM     91  C   UNL A   1      45.982  27.964  35.691  1.00  0.00     0.198 A 
ATOM     92  F   UNL A   1      46.410  28.826  33.564  1.00  0.00    -0.203 F 
ATOM     93  F   UNL A   1      43.426  25.698  36.853  1.00  0.00    -0.200 F 
ATOM     94  C   UNL A   1      45.246  27.155  36.536  1.00  0.00     0.200 A 
ATOM     95  F   UNL A   1      47.108  28.545  36.129  1.00  0.00    -0.200 F 
ATOM     96  F   UNL A   1      45.652  26.955  37.798  1.00  0.00    -0.200 F 
ENDBRANCH  62  86
BRANCH  74  97
ATOM     97  C   UNL A   1      42.552  25.392  28.203  1.00  0.00     0.064 A 
ATOM     98  C   UNL A   1      41.802  26.555  27.943  1.00  0.00     0.173 A 
ATOM     99  C   UNL A   1      41.876  24.167  28.141  1.00  0.00     0.173 A 
ATOM    100  F   UNL A   1      42.389  27.757  27.896  1.00  0.00    -0.203 F 
ATOM    101  C   UNL A   1      40.440  26.489  27.651  1.00  0.00     0.198 A 
ATOM    102  C   UNL A   1      40.524  24.100  27.814  1.00  0.00     0.198 A 
ATOM    103  F   UNL A   1      42.549  23.022  28.330  1.00  0.00    -0.203 F 
ATOM    104  F   UNL A   1      39.750  27.611  27.396  1.00  0.00    -0.200 F 
ATOM    105  C   UNL A   1      39.805  25.260  27.573  1.00  0.00     0.200 A 
ATOM    106  F   UNL A   1      39.930  22.907  27.691  1.00  0.00    -0.200 F 
ATOM    107  F   UNL A   1      38.509  25.190  27.237  1.00  0.00    -0.200 F 
ENDBRANCH  74  97
ENDBRANCH  48  49
ENDBRANCH  40  43
ENDBRANCH  38  39
ENDBRANCH  37  38
ENDBRANCH  36  37
ENDBRANCH  35  36
ENDBRANCH   1  35
TORSDOF 19
ENDMDL
