MODEL 1
REMARK VINA RESULT:     -12.7      0.000      0.000
REMARK SMILES O=C(NCCCCCCNC(=O)c1ccc(-c2ccc(Cl)c3ccccc23)o1)c1ccc(-c2c3nc(c(-c4c(F)c(F)c(F)c(F)c4F)c4ccc([nH]4)c(-c4c(F)c(F)c(F)c(F)c4F)c4nc(c(-c5c(F)c(F)c(F)c(F)c5F)c5ccc2[nH]5)C=C4)C=C3)cc1
REMARK SMILES IDX 6 1 5 2 4 3 3 4 1 5 2 6 29 8 30 9 91 10 31 11 90 12 32 13
REMARK SMILES IDX 33 14 34 15 84 16 35 17 89 18 83 19 85 20 36 21 88 22 82 23
REMARK SMILES IDX 81 24 37 26 69 27 49 28 68 29 50 30 53 31 67 32 86 33 51 34
REMARK SMILES IDX 52 35 66 37 87 38 54 39 38 40 39 41 47 42 40 43 41 44 45 45
REMARK SMILES IDX 48 46 42 47 43 48 46 49 44 50 70 51 71 52 79 53 72 54 73 55
REMARK SMILES IDX 77 56 80 57 74 58 75 59 78 60 76 61 55 62 56 63 64 64 57 65
REMARK SMILES IDX 58 66 62 67 65 68 59 69 60 70 63 71 61 72 7 73 8 74 9 75
REMARK SMILES IDX 10 76 11 77 12 79 13 80 14 81 28 82 15 83 16 84 17 85 18 86
REMARK SMILES IDX 27 87 19 88 22 89 26 90 20 91 23 92 25 93 21 94 24 95
REMARK H PARENT 3 7 85 25 53 36 10 78
REMARK Flexibility Score: inf
ROOT
ATOM      1  C   UNL A   1      36.758  19.416  24.998  1.00  0.00     0.002 C 
ENDROOT
BRANCH   1   2
ATOM      2  C   UNL A   1      38.154  19.943  24.663  1.00  0.00     0.021 C 
BRANCH   2   3
ATOM      3  C   UNL A   1      39.055  20.173  25.868  1.00  0.00     0.116 C 
BRANCH   3   4
ATOM      4  N   UNL A   1      40.117  19.186  25.964  1.00  0.00    -0.352 N 
ATOM      5  O   UNL A   1      42.251  18.451  26.020  1.00  0.00    -0.269 OA
ATOM      6  C   UNL A   1      41.466  19.388  26.122  1.00  0.00     0.251 C 
ATOM      7  H   UNL A   1      39.830  18.246  25.909  1.00  0.00     0.163 HD
BRANCH   6   8
ATOM      8  C   UNL A   1      41.973  20.748  26.403  1.00  0.00     0.039 A 
ATOM      9  C   UNL A   1      42.161  21.663  25.363  1.00  0.00     0.014 A 
ATOM     10  C   UNL A   1      42.238  21.119  27.724  1.00  0.00     0.014 A 
ATOM     11  C   UNL A   1      42.716  22.908  25.630  1.00  0.00     0.010 A 
ATOM     12  C   UNL A   1      42.718  22.402  28.000  1.00  0.00     0.010 A 
ATOM     13  C   UNL A   1      42.970  23.303  26.954  1.00  0.00    -0.014 A 
BRANCH  13  14
ATOM     14  C   UNL A   1      43.377  24.704  27.224  1.00  0.00     0.031 A 
ATOM     15  C   UNL A   1      42.410  25.714  27.768  1.00  0.00     0.074 A 
ATOM     16  C   UNL A   1      44.655  25.049  26.969  1.00  0.00     0.049 A 
ATOM     17  N   UNL A   1      42.616  26.975  28.055  1.00  0.00    -0.248 NA
ATOM     18  C   UNL A   1      41.034  25.258  28.020  1.00  0.00     0.031 C 
ATOM     19  C   UNL A   1      45.673  24.151  26.415  1.00  0.00     0.029 A 
ATOM     20  N   UNL A   1      45.321  26.234  27.144  1.00  0.00    -0.354 N 
ATOM     21  C   UNL A   1      41.398  27.469  28.503  1.00  0.00     0.074 A 
ATOM     22  C   UNL A   1      40.450  26.375  28.435  1.00  0.00     0.031 C 
ATOM     23  C   UNL A   1      46.838  24.806  26.327  1.00  0.00     0.029 A 
ATOM     24  C   UNL A   1      46.637  26.184  26.754  1.00  0.00     0.049 A 
ATOM     25  H   UNL A   1      44.897  27.042  27.513  1.00  0.00     0.167 HD
ATOM     26  C   UNL A   1      41.107  28.720  28.932  1.00  0.00     0.037 A 
ATOM     27  C   UNL A   1      47.573  27.150  26.716  1.00  0.00     0.037 A 
ATOM     28  C   UNL A   1      42.065  29.794  29.013  1.00  0.00     0.049 A 
ATOM     29  C   UNL A   1      47.208  28.530  27.178  1.00  0.00     0.074 A 
ATOM     30  C   UNL A   1      41.882  31.078  29.499  1.00  0.00     0.029 A 
ATOM     31  N   UNL A   1      43.383  29.714  28.587  1.00  0.00    -0.354 N 
ATOM     32  N   UNL A   1      46.069  28.967  27.659  1.00  0.00    -0.248 NA
ATOM     33  C   UNL A   1      48.255  29.556  27.086  1.00  0.00     0.031 C 
ATOM     34  C   UNL A   1      43.070  31.790  29.317  1.00  0.00     0.029 A 
ATOM     35  C   UNL A   1      44.013  30.936  28.766  1.00  0.00     0.049 A 
ATOM     36  H   UNL A   1      43.808  28.909  28.213  1.00  0.00     0.167 HD
ATOM     37  C   UNL A   1      46.265  30.310  27.937  1.00  0.00     0.074 A 
ATOM     38  C   UNL A   1      47.641  30.611  27.601  1.00  0.00     0.031 C 
ATOM     39  C   UNL A   1      45.382  31.217  28.420  1.00  0.00     0.037 A 
BRANCH  26  40
ATOM     40  C   UNL A   1      39.695  29.021  29.342  1.00  0.00     0.064 A 
ATOM     41  C   UNL A   1      38.732  29.442  28.414  1.00  0.00     0.173 A 
ATOM     42  C   UNL A   1      39.277  28.783  30.661  1.00  0.00     0.173 A 
ATOM     43  F   UNL A   1      39.081  29.691  27.143  1.00  0.00    -0.203 F 
ATOM     44  C   UNL A   1      37.402  29.620  28.793  1.00  0.00     0.198 A 
ATOM     45  C   UNL A   1      37.944  28.939  31.030  1.00  0.00     0.198 A 
ATOM     46  F   UNL A   1      40.158  28.372  31.585  1.00  0.00    -0.203 F 
ATOM     47  F   UNL A   1      36.502  30.040  27.895  1.00  0.00    -0.200 F 
ATOM     48  C   UNL A   1      37.007  29.357  30.097  1.00  0.00     0.200 A 
ATOM     49  F   UNL A   1      37.562  28.671  32.287  1.00  0.00    -0.200 F 
ATOM     50  F   UNL A   1      35.725  29.507  30.454  1.00  0.00    -0.200 F 
ENDBRANCH  26  40
BRANCH  27  51
ATOM     51  C   UNL A   1      48.930  26.848  26.193  1.00  0.00     0.064 A 
ATOM     52  C   UNL A   1      49.242  27.024  24.838  1.00  0.00     0.173 A 
ATOM     53  C   UNL A   1      49.941  26.363  27.038  1.00  0.00     0.173 A 
ATOM     54  F   UNL A   1      48.304  27.467  23.988  1.00  0.00    -0.203 F 
ATOM     55  C   UNL A   1      50.505  26.702  24.344  1.00  0.00     0.198 A 
ATOM     56  C   UNL A   1      51.212  26.075  26.549  1.00  0.00     0.198 A 
ATOM     57  F   UNL A   1      49.696  26.183  28.344  1.00  0.00    -0.203 F 
ATOM     58  F   UNL A   1      50.759  26.827  23.035  1.00  0.00    -0.200 F 
ATOM     59  C   UNL A   1      51.489  26.233  25.201  1.00  0.00     0.200 A 
ATOM     60  F   UNL A   1      52.165  25.640  27.384  1.00  0.00    -0.200 F 
ATOM     61  F   UNL A   1      52.704  25.925  24.724  1.00  0.00    -0.200 F 
ENDBRANCH  27  51
BRANCH  39  62
ATOM     62  C   UNL A   1      45.887  32.615  28.621  1.00  0.00     0.064 A 
ATOM     63  C   UNL A   1      45.764  33.589  27.618  1.00  0.00     0.173 A 
ATOM     64  C   UNL A   1      46.483  32.991  29.834  1.00  0.00     0.173 A 
ATOM     65  F   UNL A   1      45.220  33.273  26.434  1.00  0.00    -0.203 F 
ATOM     66  C   UNL A   1      46.247  34.881  27.814  1.00  0.00     0.198 A 
ATOM     67  C   UNL A   1      46.935  34.290  30.037  1.00  0.00     0.198 A 
ATOM     68  F   UNL A   1      46.620  32.098  30.826  1.00  0.00    -0.203 F 
ATOM     69  F   UNL A   1      46.168  35.779  26.822  1.00  0.00    -0.200 F 
ATOM     70  C   UNL A   1      46.825  35.232  29.024  1.00  0.00     0.200 A 
ATOM     71  F   UNL A   1      47.483  34.633  31.212  1.00  0.00    -0.200 F 
ATOM     72  F   UNL A   1      47.285  36.477  29.211  1.00  0.00    -0.200 F 
ENDBRANCH  39  62
ENDBRANCH  13  14
ENDBRANCH   6   8
ENDBRANCH   3   4
ENDBRANCH   2   3
ENDBRANCH   1   2
BRANCH   1  73
ATOM     73  C   UNL A   1      35.643  20.466  24.997  1.00  0.00     0.002 C 
BRANCH  73  74
ATOM     74  C   UNL A   1      34.215  19.912  25.044  1.00  0.00     0.021 C 
BRANCH  74  75
ATOM     75  C   UNL A   1      33.117  20.972  25.115  1.00  0.00     0.116 C 
BRANCH  75  76
ATOM     76  N   UNL A   1      32.793  21.314  26.486  1.00  0.00    -0.349 N 
ATOM     77  C   UNL A   1      33.029  22.497  27.151  1.00  0.00     0.287 C 
ATOM     78  H   UNL A   1      32.347  20.611  27.010  1.00  0.00     0.163 HD
ATOM     79  O   UNL A   1      32.903  22.500  28.376  1.00  0.00    -0.266 OA
BRANCH  77  80
ATOM     80  C   UNL A   1      33.398  23.656  26.375  1.00  0.00     0.192 A 
ATOM     81  C   UNL A   1      34.595  24.031  25.790  1.00  0.00     0.057 A 
ATOM     82  O   UNL A   1      32.449  24.607  26.118  1.00  0.00    -0.451 OA
ATOM     83  C   UNL A   1      34.375  25.288  25.183  1.00  0.00     0.052 A 
ATOM     84  C   UNL A   1      33.055  25.610  25.423  1.00  0.00     0.135 A 
BRANCH  84  85
ATOM     85  C   UNL A   1      32.223  26.745  25.036  1.00  0.00     0.025 A 
ATOM     86  C   UNL A   1      31.352  26.543  23.953  1.00  0.00     0.014 A 
ATOM     87  C   UNL A   1      32.307  28.027  25.658  1.00  0.00    -0.006 A 
ATOM     88  C   UNL A   1      30.568  27.580  23.469  1.00  0.00     0.022 A 
ATOM     89  C   UNL A   1      31.509  29.094  25.153  1.00  0.00     0.001 A 
ATOM     90  C   UNL A   1      33.165  28.306  26.752  1.00  0.00     0.009 A 
ATOM     91  C   UNL A   1      30.648  28.842  24.055  1.00  0.00     0.048 A 
ATOM     92  C   UNL A   1      31.615  30.368  25.764  1.00  0.00     0.010 A 
ATOM     93  C   UNL A   1      33.243  29.571  27.337  1.00  0.00     0.001 A 
ATOM     94  Cl  UNL A   1      29.646  30.076  23.359  1.00  0.00    -0.084 Cl
ATOM     95  C   UNL A   1      32.469  30.604  26.840  1.00  0.00     0.001 A 
ENDBRANCH  84  85
ENDBRANCH  77  80
ENDBRANCH  75  76
ENDBRANCH  74  75
ENDBRANCH  73  74
ENDBRANCH   1  73
TORSDOF 14
ENDMDL
MODEL 2
REMARK VINA RESULT:     -12.5      5.667     11.174
REMARK SMILES O=C(NCCCCCCNC(=O)c1ccc(-c2ccc(Cl)c3ccccc23)o1)c1ccc(-c2c3nc(c(-c4c(F)c(F)c(F)c(F)c4F)c4ccc([nH]4)c(-c4c(F)c(F)c(F)c(F)c4F)c4nc(c(-c5c(F)c(F)c(F)c(F)c5F)c5ccc2[nH]5)C=C4)C=C3)cc1
REMARK SMILES IDX 6 1 5 2 4 3 3 4 1 5 2 6 29 8 30 9 91 10 31 11 90 12 32 13
REMARK SMILES IDX 33 14 34 15 84 16 35 17 89 18 83 19 85 20 36 21 88 22 82 23
REMARK SMILES IDX 81 24 37 26 69 27 49 28 68 29 50 30 53 31 67 32 86 33 51 34
REMARK SMILES IDX 52 35 66 37 87 38 54 39 38 40 39 41 47 42 40 43 41 44 45 45
REMARK SMILES IDX 48 46 42 47 43 48 46 49 44 50 70 51 71 52 79 53 72 54 73 55
REMARK SMILES IDX 77 56 80 57 74 58 75 59 78 60 76 61 55 62 56 63 64 64 57 65
REMARK SMILES IDX 58 66 62 67 65 68 59 69 60 70 63 71 61 72 7 73 8 74 9 75
REMARK SMILES IDX 10 76 11 77 12 79 13 80 14 81 28 82 15 83 16 84 17 85 18 86
REMARK SMILES IDX 27 87 19 88 22 89 26 90 20 91 23 92 25 93 21 94 24 95
REMARK H PARENT 3 7 85 25 53 36 10 78
REMARK Flexibility Score: inf
ROOT
ATOM      1  C   UNL A   1      31.526  30.810  26.201  1.00  0.00     0.002 C 
ENDROOT
BRANCH   1   2
ATOM      2  C   UNL A   1      31.404  32.293  26.553  1.00  0.00     0.021 C 
BRANCH   2   3
ATOM      3  C   UNL A   1      32.643  32.900  27.195  1.00  0.00     0.116 C 
BRANCH   3   4
ATOM      4  N   UNL A   1      32.430  34.270  27.626  1.00  0.00    -0.352 N 
ATOM      5  O   UNL A   1      32.623  36.056  28.996  1.00  0.00    -0.269 OA
ATOM      6  C   UNL A   1      33.034  34.951  28.655  1.00  0.00     0.251 C 
ATOM      7  H   UNL A   1      31.765  34.781  27.111  1.00  0.00     0.163 HD
BRANCH   6   8
ATOM      8  C   UNL A   1      34.176  34.337  29.366  1.00  0.00     0.039 A 
ATOM      9  C   UNL A   1      33.964  33.533  30.489  1.00  0.00     0.014 A 
ATOM     10  C   UNL A   1      35.472  34.549  28.886  1.00  0.00     0.014 A 
ATOM     11  C   UNL A   1      35.050  33.031  31.195  1.00  0.00     0.010 A 
ATOM     12  C   UNL A   1      36.559  33.975  29.550  1.00  0.00     0.010 A 
ATOM     13  C   UNL A   1      36.357  33.219  30.715  1.00  0.00    -0.014 A 
BRANCH  13  14
ATOM     14  C   UNL A   1      37.479  32.511  31.379  1.00  0.00     0.031 A 
ATOM     15  C   UNL A   1      38.183  31.361  30.720  1.00  0.00     0.074 A 
ATOM     16  C   UNL A   1      37.856  32.933  32.601  1.00  0.00     0.049 A 
ATOM     17  N   UNL A   1      39.179  30.641  31.172  1.00  0.00    -0.248 NA
ATOM     18  C   UNL A   1      37.712  30.961  29.385  1.00  0.00     0.031 C 
ATOM     19  C   UNL A   1      37.222  34.027  33.344  1.00  0.00     0.029 A 
ATOM     20  N   UNL A   1      38.859  32.507  33.433  1.00  0.00    -0.354 N 
ATOM     21  C   UNL A   1      39.443  29.694  30.192  1.00  0.00     0.074 A 
ATOM     22  C   UNL A   1      38.492  29.919  29.124  1.00  0.00     0.031 C 
ATOM     23  C   UNL A   1      37.870  34.207  34.503  1.00  0.00     0.029 A 
ATOM     24  C   UNL A   1      38.920  33.202  34.616  1.00  0.00     0.049 A 
ATOM     25  H   UNL A   1      39.475  31.775  33.204  1.00  0.00     0.167 HD
ATOM     26  C   UNL A   1      40.396  28.732  30.191  1.00  0.00     0.037 A 
ATOM     27  C   UNL A   1      39.714  33.032  35.688  1.00  0.00     0.037 A 
ATOM     28  C   UNL A   1      41.350  28.532  31.253  1.00  0.00     0.049 A 
ATOM     29  C   UNL A   1      40.744  31.940  35.660  1.00  0.00     0.074 A 
ATOM     30  C   UNL A   1      42.396  27.627  31.312  1.00  0.00     0.029 A 
ATOM     31  N   UNL A   1      41.367  29.239  32.446  1.00  0.00    -0.354 N 
ATOM     32  N   UNL A   1      41.024  31.093  34.700  1.00  0.00    -0.248 NA
ATOM     33  C   UNL A   1      41.564  31.775  36.867  1.00  0.00     0.031 C 
ATOM     34  C   UNL A   1      43.012  27.749  32.561  1.00  0.00     0.029 A 
ATOM     35  C   UNL A   1      42.383  28.765  33.262  1.00  0.00     0.049 A 
ATOM     36  H   UNL A   1      40.749  29.969  32.679  1.00  0.00     0.167 HD
ATOM     37  C   UNL A   1      42.057  30.304  35.180  1.00  0.00     0.074 A 
ATOM     38  C   UNL A   1      42.376  30.792  36.505  1.00  0.00     0.031 C 
ATOM     39  C   UNL A   1      42.681  29.261  34.581  1.00  0.00     0.037 A 
BRANCH  26  40
ATOM     40  C   UNL A   1      40.464  27.800  29.016  1.00  0.00     0.064 A 
ATOM     41  C   UNL A   1      39.671  26.647  28.943  1.00  0.00     0.173 A 
ATOM     42  C   UNL A   1      41.257  28.124  27.904  1.00  0.00     0.173 A 
ATOM     43  F   UNL A   1      38.902  26.288  29.981  1.00  0.00    -0.203 F 
ATOM     44  C   UNL A   1      39.673  25.848  27.801  1.00  0.00     0.198 A 
ATOM     45  C   UNL A   1      41.239  27.337  26.756  1.00  0.00     0.198 A 
ATOM     46  F   UNL A   1      42.028  29.221  27.920  1.00  0.00    -0.203 F 
ATOM     47  F   UNL A   1      38.921  24.739  27.759  1.00  0.00    -0.200 F 
ATOM     48  C   UNL A   1      40.447  26.199  26.704  1.00  0.00     0.200 A 
ATOM     49  F   UNL A   1      41.977  27.686  25.692  1.00  0.00    -0.200 F 
ATOM     50  F   UNL A   1      40.431  25.441  25.600  1.00  0.00    -0.200 F 
ENDBRANCH  26  40
BRANCH  27  51
ATOM     51  C   UNL A   1      39.543  33.896  36.885  1.00  0.00     0.064 A 
ATOM     52  C   UNL A   1      40.190  35.135  36.983  1.00  0.00     0.173 A 
ATOM     53  C   UNL A   1      38.738  33.492  37.961  1.00  0.00     0.173 A 
ATOM     54  F   UNL A   1      40.985  35.556  35.989  1.00  0.00    -0.203 F 
ATOM     55  C   UNL A   1      40.059  35.925  38.124  1.00  0.00     0.198 A 
ATOM     56  C   UNL A   1      38.581  34.299  39.085  1.00  0.00     0.198 A 
ATOM     57  F   UNL A   1      38.092  32.318  37.914  1.00  0.00    -0.203 F 
ATOM     58  F   UNL A   1      40.733  37.079  38.216  1.00  0.00    -0.200 F 
ATOM     59  C   UNL A   1      39.251  35.508  39.171  1.00  0.00     0.200 A 
ATOM     60  F   UNL A   1      37.784  33.900  40.086  1.00  0.00    -0.200 F 
ATOM     61  F   UNL A   1      39.125  36.270  40.267  1.00  0.00    -0.200 F 
ENDBRANCH  27  51
BRANCH  39  62
ATOM     62  C   UNL A   1      43.777  28.591  35.355  1.00  0.00     0.064 A 
ATOM     63  C   UNL A   1      45.113  29.004  35.239  1.00  0.00     0.173 A 
ATOM     64  C   UNL A   1      43.488  27.537  36.235  1.00  0.00     0.173 A 
ATOM     65  F   UNL A   1      45.442  29.994  34.396  1.00  0.00    -0.203 F 
ATOM     66  C   UNL A   1      46.123  28.367  35.955  1.00  0.00     0.198 A 
ATOM     67  C   UNL A   1      44.495  26.923  36.972  1.00  0.00     0.198 A 
ATOM     68  F   UNL A   1      42.226  27.108  36.384  1.00  0.00    -0.203 F 
ATOM     69  F   UNL A   1      47.398  28.742  35.788  1.00  0.00    -0.200 F 
ATOM     70  C   UNL A   1      45.812  27.333  36.826  1.00  0.00     0.200 A 
ATOM     71  F   UNL A   1      44.193  25.932  37.822  1.00  0.00    -0.200 F 
ATOM     72  F   UNL A   1      46.785  26.723  37.517  1.00  0.00    -0.200 F 
ENDBRANCH  39  62
ENDBRANCH  13  14
ENDBRANCH   6   8
ENDBRANCH   3   4
ENDBRANCH   2   3
ENDBRANCH   1   2
BRANCH   1  73
ATOM     73  C   UNL A   1      32.483  30.003  27.085  1.00  0.00     0.002 C 
BRANCH  73  74
ATOM     74  C   UNL A   1      32.594  28.512  26.747  1.00  0.00     0.021 C 
BRANCH  74  75
ATOM     75  C   UNL A   1      33.911  28.099  26.090  1.00  0.00     0.116 C 
BRANCH  75  76
ATOM     76  N   UNL A   1      34.029  28.637  24.748  1.00  0.00    -0.349 N 
ATOM     77  C   UNL A   1      33.580  28.091  23.567  1.00  0.00     0.287 C 
ATOM     78  H   UNL A   1      34.489  29.504  24.672  1.00  0.00     0.163 HD
ATOM     79  O   UNL A   1      33.995  28.581  22.516  1.00  0.00    -0.266 OA
BRANCH  77  80
ATOM     80  C   UNL A   1      32.648  26.991  23.631  1.00  0.00     0.192 A 
ATOM     81  C   UNL A   1      31.265  26.954  23.648  1.00  0.00     0.057 A 
ATOM     82  O   UNL A   1      33.139  25.715  23.684  1.00  0.00    -0.451 OA
ATOM     83  C   UNL A   1      30.896  25.595  23.755  1.00  0.00     0.052 A 
ATOM     84  C   UNL A   1      32.072  24.873  23.791  1.00  0.00     0.135 A 
BRANCH  84  85
ATOM     85  C   UNL A   1      32.359  23.444  23.863  1.00  0.00     0.025 A 
ATOM     86  C   UNL A   1      31.983  22.674  22.750  1.00  0.00     0.014 A 
ATOM     87  C   UNL A   1      32.931  22.816  25.009  1.00  0.00    -0.006 A 
ATOM     88  C   UNL A   1      32.155  21.297  22.749  1.00  0.00     0.022 A 
ATOM     89  C   UNL A   1      33.097  21.400  25.011  1.00  0.00     0.001 A 
ATOM     90  C   UNL A   1      33.330  23.528  26.169  1.00  0.00     0.009 A 
ATOM     91  C   UNL A   1      32.698  20.665  23.866  1.00  0.00     0.048 A 
ATOM     92  C   UNL A   1      33.645  20.783  26.162  1.00  0.00     0.010 A 
ATOM     93  C   UNL A   1      33.873  22.892  27.286  1.00  0.00     0.001 A 
ATOM     94  Cl  UNL A   1      32.846  18.939  23.774  1.00  0.00    -0.084 Cl
ATOM     95  C   UNL A   1      34.029  21.517  27.284  1.00  0.00     0.001 A 
ENDBRANCH  84  85
ENDBRANCH  77  80
ENDBRANCH  75  76
ENDBRANCH  74  75
ENDBRANCH  73  74
ENDBRANCH   1  73
TORSDOF 14
ENDMDL
MODEL 3
REMARK VINA RESULT:     -12.5      5.348     10.967
REMARK SMILES O=C(NCCCCCCNC(=O)c1ccc(-c2ccc(Cl)c3ccccc23)o1)c1ccc(-c2c3nc(c(-c4c(F)c(F)c(F)c(F)c4F)c4ccc([nH]4)c(-c4c(F)c(F)c(F)c(F)c4F)c4nc(c(-c5c(F)c(F)c(F)c(F)c5F)c5ccc2[nH]5)C=C4)C=C3)cc1
REMARK SMILES IDX 6 1 5 2 4 3 3 4 1 5 2 6 29 8 30 9 91 10 31 11 90 12 32 13
REMARK SMILES IDX 33 14 34 15 84 16 35 17 89 18 83 19 85 20 36 21 88 22 82 23
REMARK SMILES IDX 81 24 37 26 69 27 49 28 68 29 50 30 53 31 67 32 86 33 51 34
REMARK SMILES IDX 52 35 66 37 87 38 54 39 38 40 39 41 47 42 40 43 41 44 45 45
REMARK SMILES IDX 48 46 42 47 43 48 46 49 44 50 70 51 71 52 79 53 72 54 73 55
REMARK SMILES IDX 77 56 80 57 74 58 75 59 78 60 76 61 55 62 56 63 64 64 57 65
REMARK SMILES IDX 58 66 62 67 65 68 59 69 60 70 63 71 61 72 7 73 8 74 9 75
REMARK SMILES IDX 10 76 11 77 12 79 13 80 14 81 28 82 15 83 16 84 17 85 18 86
REMARK SMILES IDX 27 87 19 88 22 89 26 90 20 91 23 92 25 93 21 94 24 95
REMARK H PARENT 3 7 85 25 53 36 10 78
REMARK Flexibility Score: inf
ROOT
ATOM      1  C   UNL A   1      30.935  31.284  25.433  1.00  0.00     0.002 C 
ENDROOT
BRANCH   1   2
ATOM      2  C   UNL A   1      31.398  31.628  26.849  1.00  0.00     0.021 C 
BRANCH   2   3
ATOM      3  C   UNL A   1      32.677  32.450  26.920  1.00  0.00     0.116 C 
BRANCH   3   4
ATOM      4  N   UNL A   1      32.443  33.804  27.389  1.00  0.00    -0.352 N 
ATOM      5  O   UNL A   1      32.624  35.561  28.797  1.00  0.00    -0.269 OA
ATOM      6  C   UNL A   1      33.052  34.474  28.422  1.00  0.00     0.251 C 
ATOM      7  H   UNL A   1      31.756  34.312  26.899  1.00  0.00     0.163 HD
BRANCH   6   8
ATOM      8  C   UNL A   1      34.222  33.870  29.094  1.00  0.00     0.039 A 
ATOM      9  C   UNL A   1      34.058  32.802  29.981  1.00  0.00     0.014 A 
ATOM     10  C   UNL A   1      35.500  34.361  28.813  1.00  0.00     0.014 A 
ATOM     11  C   UNL A   1      35.155  32.299  30.669  1.00  0.00     0.010 A 
ATOM     12  C   UNL A   1      36.613  33.798  29.444  1.00  0.00     0.010 A 
ATOM     13  C   UNL A   1      36.447  32.769  30.384  1.00  0.00    -0.014 A 
BRANCH  13  14
ATOM     14  C   UNL A   1      37.615  32.082  30.987  1.00  0.00     0.031 A 
ATOM     15  C   UNL A   1      38.388  31.037  30.238  1.00  0.00     0.074 A 
ATOM     16  C   UNL A   1      37.971  32.427  32.241  1.00  0.00     0.049 A 
ATOM     17  N   UNL A   1      39.429  30.347  30.630  1.00  0.00    -0.248 NA
ATOM     18  C   UNL A   1      37.936  30.717  28.875  1.00  0.00     0.031 C 
ATOM     19  C   UNL A   1      37.273  33.414  33.070  1.00  0.00     0.029 A 
ATOM     20  N   UNL A   1      39.003  31.999  33.035  1.00  0.00    -0.354 N 
ATOM     21  C   UNL A   1      39.748  29.501  29.577  1.00  0.00     0.074 A 
ATOM     22  C   UNL A   1      38.779  29.751  28.530  1.00  0.00     0.031 C 
ATOM     23  C   UNL A   1      37.914  33.540  34.240  1.00  0.00     0.029 A 
ATOM     24  C   UNL A   1      39.026  32.599  34.271  1.00  0.00     0.049 A 
ATOM     25  H   UNL A   1      39.663  31.329  32.748  1.00  0.00     0.167 HD
ATOM     26  C   UNL A   1      40.760  28.605  29.497  1.00  0.00     0.037 A 
ATOM     27  C   UNL A   1      39.834  32.393  35.326  1.00  0.00     0.037 A 
ATOM     28  C   UNL A   1      41.729  28.380  30.539  1.00  0.00     0.049 A 
ATOM     29  C   UNL A   1      40.931  31.374  35.209  1.00  0.00     0.074 A 
ATOM     30  C   UNL A   1      42.832  27.542  30.525  1.00  0.00     0.029 A 
ATOM     31  N   UNL A   1      41.708  28.988  31.786  1.00  0.00    -0.354 N 
ATOM     32  N   UNL A   1      41.259  30.628  34.183  1.00  0.00    -0.248 NA
ATOM     33  C   UNL A   1      41.766  31.164  36.399  1.00  0.00     0.031 C 
ATOM     34  C   UNL A   1      43.445  27.601  31.780  1.00  0.00     0.029 A 
ATOM     35  C   UNL A   1      42.756  28.515  32.561  1.00  0.00     0.049 A 
ATOM     36  H   UNL A   1      41.046  29.656  32.078  1.00  0.00     0.167 HD
ATOM     37  C   UNL A   1      42.343  29.869  34.598  1.00  0.00     0.074 A 
ATOM     38  C   UNL A   1      42.637  30.268  35.958  1.00  0.00     0.031 C 
ATOM     39  C   UNL A   1      43.028  28.920  33.916  1.00  0.00     0.037 A 
BRANCH  26  40
ATOM     40  C   UNL A   1      40.881  27.778  28.250  1.00  0.00     0.064 A 
ATOM     41  C   UNL A   1      41.671  28.188  27.168  1.00  0.00     0.173 A 
ATOM     42  C   UNL A   1      40.282  26.510  28.183  1.00  0.00     0.173 A 
ATOM     43  F   UNL A   1      42.259  29.394  27.179  1.00  0.00    -0.203 F 
ATOM     44  C   UNL A   1      41.853  27.362  26.060  1.00  0.00     0.198 A 
ATOM     45  C   UNL A   1      40.484  25.678  27.086  1.00  0.00     0.198 A 
ATOM     46  F   UNL A   1      39.522  26.067  29.196  1.00  0.00    -0.203 F 
ATOM     47  F   UNL A   1      42.597  27.782  25.028  1.00  0.00    -0.200 F 
ATOM     48  C   UNL A   1      41.269  26.104  26.025  1.00  0.00     0.200 A 
ATOM     49  F   UNL A   1      39.931  24.457  27.060  1.00  0.00    -0.200 F 
ATOM     50  F   UNL A   1      41.463  25.302  24.969  1.00  0.00    -0.200 F 
ENDBRANCH  26  40
BRANCH  27  51
ATOM     51  C   UNL A   1      39.615  33.144  36.589  1.00  0.00     0.064 A 
ATOM     52  C   UNL A   1      40.308  34.333  36.855  1.00  0.00     0.173 A 
ATOM     53  C   UNL A   1      38.716  32.680  37.561  1.00  0.00     0.173 A 
ATOM     54  F   UNL A   1      41.193  34.806  35.965  1.00  0.00    -0.203 F 
ATOM     55  C   UNL A   1      40.130  35.013  38.058  1.00  0.00     0.198 A 
ATOM     56  C   UNL A   1      38.513  33.381  38.747  1.00  0.00     0.198 A 
ATOM     57  F   UNL A   1      38.022  31.551  37.352  1.00  0.00    -0.203 F 
ATOM     58  F   UNL A   1      40.847  36.117  38.311  1.00  0.00    -0.200 F 
ATOM     59  C   UNL A   1      39.228  34.540  39.000  1.00  0.00     0.200 A 
ATOM     60  F   UNL A   1      37.627  32.929  39.646  1.00  0.00    -0.200 F 
ATOM     61  F   UNL A   1      39.057  35.197  40.155  1.00  0.00    -0.200 F 
ENDBRANCH  27  51
BRANCH  39  62
ATOM     62  C   UNL A   1      44.168  28.260  34.633  1.00  0.00     0.064 A 
ATOM     63  C   UNL A   1      43.992  27.062  35.341  1.00  0.00     0.173 A 
ATOM     64  C   UNL A   1      45.454  28.820  34.597  1.00  0.00     0.173 A 
ATOM     65  F   UNL A   1      42.778  26.498  35.421  1.00  0.00    -0.203 F 
ATOM     66  C   UNL A   1      45.056  26.464  36.012  1.00  0.00     0.198 A 
ATOM     67  C   UNL A   1      46.522  28.204  35.242  1.00  0.00     0.198 A 
ATOM     68  F   UNL A   1      45.676  29.963  33.930  1.00  0.00    -0.203 F 
ATOM     69  F   UNL A   1      44.853  25.350  36.727  1.00  0.00    -0.200 F 
ATOM     70  C   UNL A   1      46.321  27.032  35.955  1.00  0.00     0.200 A 
ATOM     71  F   UNL A   1      47.746  28.746  35.177  1.00  0.00    -0.200 F 
ATOM     72  F   UNL A   1      47.344  26.453  36.598  1.00  0.00    -0.200 F 
ENDBRANCH  39  62
ENDBRANCH  13  14
ENDBRANCH   6   8
ENDBRANCH   3   4
ENDBRANCH   2   3
ENDBRANCH   1   2
BRANCH   1  73
ATOM     73  C   UNL A   1      31.184  29.837  24.996  1.00  0.00     0.002 C 
BRANCH  73  74
ATOM     74  C   UNL A   1      30.477  29.407  23.706  1.00  0.00     0.021 C 
BRANCH  74  75
ATOM     75  C   UNL A   1      30.892  28.036  23.173  1.00  0.00     0.116 C 
BRANCH  75  76
ATOM     76  N   UNL A   1      32.033  28.133  22.283  1.00  0.00    -0.349 N 
ATOM     77  C   UNL A   1      33.321  27.692  22.494  1.00  0.00     0.287 C 
ATOM     78  H   UNL A   1      31.866  28.569  21.417  1.00  0.00     0.163 HD
ATOM     79  O   UNL A   1      34.195  28.088  21.721  1.00  0.00    -0.266 OA
BRANCH  77  80
ATOM     80  C   UNL A   1      33.564  26.791  23.593  1.00  0.00     0.192 A 
ATOM     81  C   UNL A   1      33.723  27.013  24.950  1.00  0.00     0.057 A 
ATOM     82  O   UNL A   1      33.667  25.451  23.337  1.00  0.00    -0.451 OA
ATOM     83  C   UNL A   1      33.973  25.755  25.542  1.00  0.00     0.052 A 
ATOM     84  C   UNL A   1      33.946  24.830  24.518  1.00  0.00     0.135 A 
BRANCH  84  85
ATOM     85  C   UNL A   1      34.100  23.379  24.484  1.00  0.00     0.025 A 
ATOM     86  C   UNL A   1      32.933  22.632  24.254  1.00  0.00     0.014 A 
ATOM     87  C   UNL A   1      35.339  22.716  24.731  1.00  0.00    -0.006 A 
ATOM     88  C   UNL A   1      32.965  21.244  24.268  1.00  0.00     0.022 A 
ATOM     89  C   UNL A   1      35.367  21.291  24.757  1.00  0.00     0.001 A 
ATOM     90  C   UNL A   1      36.555  23.404  24.976  1.00  0.00     0.009 A 
ATOM     91  C   UNL A   1      34.163  20.581  24.522  1.00  0.00     0.048 A 
ATOM     92  C   UNL A   1      36.598  20.642  25.025  1.00  0.00     0.010 A 
ATOM     93  C   UNL A   1      37.753  22.736  25.231  1.00  0.00     0.001 A 
ATOM     94  Cl  UNL A   1      34.089  18.847  24.545  1.00  0.00    -0.084 Cl
ATOM     95  C   UNL A   1      37.774  21.352  25.258  1.00  0.00     0.001 A 
ENDBRANCH  84  85
ENDBRANCH  77  80
ENDBRANCH  75  76
ENDBRANCH  74  75
ENDBRANCH  73  74
ENDBRANCH   1  73
TORSDOF 14
ENDMDL
