MODEL 1
REMARK VINA RESULT:     -13.6      0.000      0.000
REMARK SMILES Cc1coc2cc3oc(=O)c(CC(=O)N[C@H](Cc4c[nH]c5ccc(O)cc45)C(=O)NCCCCCCNC(=O)c4ccc(-c5c6nc(c(-c7c(F)c(F)c(F)c(F)c7F)c7ccc([nH]7)c(-c7c(F)c(F)c(F)c(F)c7F)c7nc(c(-c8c(F)c(F)c(F)c(F)c8F)c8ccc5[nH]8)C=C7)C=C6)cc4)c(C)c3cc12
REMARK SMILES IDX 33 1 32 2 31 3 30 4 28 5 29 6 16 8 15 9 13 10 14 11 12 13
REMARK SMILES IDX 11 14 1 15 2 16 3 17 107 18 4 19 5 20 106 21 6 22 105 23
REMARK SMILES IDX 7 24 103 25 8 26 104 27 9 28 10 29 17 30 18 31 19 32 27 33
REMARK SMILES IDX 20 34 21 35 26 36 22 38 24 39 23 40 25 41 34 43 35 44 36 45
REMARK SMILES IDX 37 46 38 47 39 49 40 50 41 51 102 52 42 53 101 54 43 55
REMARK SMILES IDX 44 56 45 57 95 58 46 59 100 60 94 61 96 62 47 63 99 64 93 65
REMARK SMILES IDX 92 66 48 68 80 69 60 70 79 71 61 72 64 73 78 74 97 75 62 76
REMARK SMILES IDX 63 77 77 79 98 80 65 81 49 82 50 83 58 84 51 85 52 86 56 87
REMARK SMILES IDX 59 88 53 89 54 90 57 91 55 92 81 93 82 94 90 95 83 96 84 97
REMARK SMILES IDX 88 98 91 99 85 100 86 101 89 102 87 103 66 104 67 105 75 106
REMARK SMILES IDX 68 107 69 108 73 109 76 110 70 111 71 112 74 113 72 114
REMARK H PARENT 30 7 15 12 20 37 25 42 37 48 96 67 64 78
REMARK Flexibility Score: inf
ROOT
ATOM      1  C   UNL A   1      33.705  32.262  28.026  1.00  0.00     0.002 C 
ENDROOT
BRANCH   1   2
ATOM      2  C   UNL A   1      34.788  31.237  27.722  1.00  0.00     0.021 C 
BRANCH   2   3
ATOM      3  C   UNL A   1      34.340  29.911  27.119  1.00  0.00     0.116 C 
BRANCH   3   4
ATOM      4  N   UNL A   1      32.956  30.001  26.693  1.00  0.00    -0.354 N 
ATOM      5  C   UNL A   1      32.369  29.720  25.495  1.00  0.00     0.242 C 
ATOM      6  O   UNL A   1      31.326  30.336  25.240  1.00  0.00    -0.273 OA
ATOM      7  H   UNL A   1      32.335  30.318  27.388  1.00  0.00     0.163 HD
BRANCH   5   8
ATOM      8  C   UNL A   1      32.930  28.711  24.465  1.00  0.00     0.175 C 
BRANCH   8   9
ATOM      9  N   UNL A   1      32.078  28.473  23.296  1.00  0.00    -0.344 N 
ATOM     10  C   UNL A   1      30.819  27.954  23.236  1.00  0.00     0.225 C 
ATOM     11  O   UNL A   1      30.314  27.813  22.120  1.00  0.00    -0.275 OA
ATOM     12  H   UNL A   1      32.471  28.726  22.429  1.00  0.00     0.164 HD
BRANCH  10  13
ATOM     13  C   UNL A   1      30.050  27.572  24.503  1.00  0.00     0.143 C 
BRANCH  13  14
ATOM     14  C   UNL A   1      30.494  26.248  25.094  1.00  0.00     0.051 A 
ATOM     15  C   UNL A   1      32.352  19.640  23.349  1.00  0.00     0.048 C 
ATOM     16  C   UNL A   1      32.583  20.350  24.628  1.00  0.00    -0.005 A 
ATOM     17  C   UNL A   1      33.299  19.879  25.711  1.00  0.00     0.199 A 
ATOM     18  C   UNL A   1      32.141  21.658  25.001  1.00  0.00     0.024 A 
ATOM     19  O   UNL A   1      33.320  20.788  26.717  1.00  0.00    -0.464 OA
ATOM     20  C   UNL A   1      32.620  21.871  26.287  1.00  0.00     0.137 A 
ATOM     21  C   UNL A   1      31.402  22.690  24.382  1.00  0.00     0.024 A 
ATOM     22  C   UNL A   1      32.414  23.035  27.012  1.00  0.00     0.095 A 
ATOM     23  C   UNL A   1      31.182  23.907  25.062  1.00  0.00     0.022 A 
ATOM     24  C   UNL A   1      31.692  24.037  26.354  1.00  0.00     0.142 A 
ATOM     25  C   UNL A   1      30.509  25.067  24.439  1.00  0.00    -0.029 A 
ATOM     26  O   UNL A   1      31.517  25.226  27.083  1.00  0.00    -0.422 OA
ATOM     27  C   UNL A   1      29.920  24.873  23.063  1.00  0.00     0.046 C 
ATOM     28  C   UNL A   1      30.959  26.352  26.510  1.00  0.00     0.340 A 
ATOM     29  O   UNL A   1      30.873  27.396  27.137  1.00  0.00    -0.246 OA
ENDBRANCH  13  14
ENDBRANCH  10  13
ENDBRANCH   8   9
BRANCH   8  30
ATOM     30  C   UNL A   1      33.641  27.453  24.998  1.00  0.00     0.072 C 
BRANCH  30  31
ATOM     31  C   UNL A   1      33.866  26.317  24.054  1.00  0.00    -0.020 A 
ATOM     32  C   UNL A   1      33.468  26.225  22.734  1.00  0.00     0.087 A 
ATOM     33  C   UNL A   1      34.605  25.120  24.344  1.00  0.00     0.006 A 
ATOM     34  N   UNL A   1      33.880  25.010  22.244  1.00  0.00    -0.361 N 
ATOM     35  C   UNL A   1      34.506  24.284  23.231  1.00  0.00     0.046 A 
ATOM     36  C   UNL A   1      35.306  24.653  25.475  1.00  0.00     0.056 A 
ATOM     37  H   UNL A   1      33.748  24.704  21.318  1.00  0.00     0.166 HD
ATOM     38  C   UNL A   1      34.966  22.961  23.236  1.00  0.00     0.030 A 
ATOM     39  C   UNL A   1      35.819  23.357  25.466  1.00  0.00     0.116 A 
ATOM     40  C   UNL A   1      35.621  22.505  24.386  1.00  0.00     0.048 A 
BRANCH  39  41
ATOM     41  O   UNL A   1      36.519  22.952  26.566  1.00  0.00    -0.508 OA
ATOM     42  H   UNL A   1      36.562  22.043  26.785  1.00  0.00     0.293 HD
ENDBRANCH  39  41
ENDBRANCH  30  31
ENDBRANCH   8  30
ENDBRANCH   5   8
ENDBRANCH   3   4
ENDBRANCH   2   3
ENDBRANCH   1   2
BRANCH   1  43
ATOM     43  C   UNL A   1      34.228  33.633  28.450  1.00  0.00     0.002 C 
BRANCH  43  44
ATOM     44  C   UNL A   1      33.191  34.762  28.508  1.00  0.00     0.021 C 
BRANCH  44  45
ATOM     45  C   UNL A   1      33.387  35.795  29.619  1.00  0.00     0.116 C 
BRANCH  45  46
ATOM     46  N   UNL A   1      32.853  35.422  30.912  1.00  0.00    -0.352 N 
ATOM     47  C   UNL A   1      33.357  34.795  32.017  1.00  0.00     0.251 C 
ATOM     48  H   UNL A   1      31.909  35.681  31.020  1.00  0.00     0.163 HD
ATOM     49  O   UNL A   1      32.637  34.779  33.018  1.00  0.00    -0.269 OA
BRANCH  47  50
ATOM     50  C   UNL A   1      34.650  34.062  32.059  1.00  0.00     0.039 A 
ATOM     51  C   UNL A   1      35.908  34.641  32.205  1.00  0.00     0.014 A 
ATOM     52  C   UNL A   1      34.567  32.668  31.876  1.00  0.00     0.014 A 
ATOM     53  C   UNL A   1      37.055  33.881  32.009  1.00  0.00     0.010 A 
ATOM     54  C   UNL A   1      35.710  31.894  31.722  1.00  0.00     0.010 A 
ATOM     55  C   UNL A   1      36.952  32.515  31.724  1.00  0.00    -0.014 A 
BRANCH  55  56
ATOM     56  C   UNL A   1      38.186  31.753  31.563  1.00  0.00     0.031 A 
ATOM     57  C   UNL A   1      38.941  31.539  32.829  1.00  0.00     0.074 A 
ATOM     58  C   UNL A   1      38.583  31.207  30.396  1.00  0.00     0.049 A 
ATOM     59  N   UNL A   1      40.132  31.949  33.119  1.00  0.00    -0.248 NA
ATOM     60  C   UNL A   1      38.237  30.906  33.955  1.00  0.00     0.031 C 
ATOM     61  C   UNL A   1      37.850  31.120  29.132  1.00  0.00     0.029 A 
ATOM     62  N   UNL A   1      39.737  30.533  30.120  1.00  0.00    -0.354 N 
ATOM     63  C   UNL A   1      40.399  31.494  34.410  1.00  0.00     0.074 A 
ATOM     64  C   UNL A   1      39.155  30.980  34.919  1.00  0.00     0.031 C 
ATOM     65  C   UNL A   1      38.477  30.249  28.307  1.00  0.00     0.029 A 
ATOM     66  C   UNL A   1      39.719  29.823  28.927  1.00  0.00     0.049 A 
ATOM     67  H   UNL A   1      40.517  30.549  30.720  1.00  0.00     0.167 HD
ATOM     68  C   UNL A   1      41.677  31.405  34.873  1.00  0.00     0.037 A 
ATOM     69  C   UNL A   1      40.640  28.917  28.508  1.00  0.00     0.037 A 
ATOM     70  C   UNL A   1      42.557  32.252  34.109  1.00  0.00     0.049 A 
ATOM     71  C   UNL A   1      41.894  29.182  29.260  1.00  0.00     0.074 A 
ATOM     72  C   UNL A   1      42.625  33.613  33.879  1.00  0.00     0.029 A 
ATOM     73  N   UNL A   1      43.348  31.676  33.146  1.00  0.00    -0.354 N 
ATOM     74  N   UNL A   1      42.623  30.249  29.088  1.00  0.00    -0.248 NA
ATOM     75  C   UNL A   1      42.074  28.494  30.530  1.00  0.00     0.031 C 
ATOM     76  C   UNL A   1      43.019  33.735  32.515  1.00  0.00     0.029 A 
ATOM     77  C   UNL A   1      43.238  32.449  32.020  1.00  0.00     0.049 A 
ATOM     78  H   UNL A   1      43.892  30.861  33.246  1.00  0.00     0.167 HD
ATOM     79  C   UNL A   1      43.014  30.612  30.367  1.00  0.00     0.074 A 
ATOM     80  C   UNL A   1      42.710  29.455  31.207  1.00  0.00     0.031 C 
ATOM     81  C   UNL A   1      43.274  31.914  30.682  1.00  0.00     0.037 A 
BRANCH  68  82
ATOM     82  C   UNL A   1      42.199  30.288  35.754  1.00  0.00     0.064 A 
ATOM     83  C   UNL A   1      43.122  30.604  36.774  1.00  0.00     0.173 A 
ATOM     84  C   UNL A   1      42.094  28.915  35.444  1.00  0.00     0.173 A 
ATOM     85  F   UNL A   1      43.301  31.873  37.171  1.00  0.00    -0.203 F 
ATOM     86  C   UNL A   1      43.961  29.641  37.341  1.00  0.00     0.198 A 
ATOM     87  C   UNL A   1      42.901  27.950  36.046  1.00  0.00     0.198 A 
ATOM     88  F   UNL A   1      41.289  28.455  34.482  1.00  0.00    -0.203 F 
ATOM     89  F   UNL A   1      44.922  30.017  38.196  1.00  0.00    -0.200 F 
ATOM     90  C   UNL A   1      43.862  28.316  36.962  1.00  0.00     0.200 A 
ATOM     91  F   UNL A   1      42.791  26.671  35.660  1.00  0.00    -0.200 F 
ATOM     92  F   UNL A   1      44.715  27.403  37.443  1.00  0.00    -0.200 F 
ENDBRANCH  68  82
BRANCH  69  93
ATOM     93  C   UNL A   1      40.427  27.666  27.733  1.00  0.00     0.064 A 
ATOM     94  C   UNL A   1      41.183  27.378  26.583  1.00  0.00     0.173 A 
ATOM     95  C   UNL A   1      39.671  26.600  28.260  1.00  0.00     0.173 A 
ATOM     96  F   UNL A   1      41.972  28.316  26.039  1.00  0.00    -0.203 F 
ATOM     97  C   UNL A   1      41.201  26.097  26.014  1.00  0.00     0.198 A 
ATOM     98  C   UNL A   1      39.684  25.326  27.688  1.00  0.00     0.198 A 
ATOM     99  F   UNL A   1      38.980  26.744  29.399  1.00  0.00    -0.203 F 
ATOM    100  F   UNL A   1      41.984  25.846  24.955  1.00  0.00    -0.200 F 
ATOM    101  C   UNL A   1      40.459  25.071  26.574  1.00  0.00     0.200 A 
ATOM    102  F   UNL A   1      38.990  24.334  28.263  1.00  0.00    -0.200 F 
ATOM    103  F   UNL A   1      40.522  23.831  26.067  1.00  0.00    -0.200 F 
ENDBRANCH  69  93
BRANCH  81 104
ATOM    104  C   UNL A   1      43.345  32.920  29.568  1.00  0.00     0.064 A 
ATOM    105  C   UNL A   1      42.288  33.782  29.228  1.00  0.00     0.173 A 
ATOM    106  C   UNL A   1      44.590  33.158  28.971  1.00  0.00     0.173 A 
ATOM    107  F   UNL A   1      41.096  33.684  29.826  1.00  0.00    -0.203 F 
ATOM    108  C   UNL A   1      42.470  34.822  28.318  1.00  0.00     0.198 A 
ATOM    109  C   UNL A   1      44.777  34.220  28.091  1.00  0.00     0.198 A 
ATOM    110  F   UNL A   1      45.649  32.400  29.299  1.00  0.00    -0.203 F 
ATOM    111  F   UNL A   1      41.449  35.641  28.020  1.00  0.00    -0.200 F 
ATOM    112  C   UNL A   1      43.717  35.049  27.761  1.00  0.00     0.200 A 
ATOM    113  F   UNL A   1      45.998  34.467  27.597  1.00  0.00    -0.200 F 
ATOM    114  F   UNL A   1      43.907  36.088  26.936  1.00  0.00    -0.200 F 
ENDBRANCH  81 104
ENDBRANCH  55  56
ENDBRANCH  47  50
ENDBRANCH  45  46
ENDBRANCH  44  45
ENDBRANCH  43  44
ENDBRANCH   1  43
TORSDOF 19
ENDMDL
MODEL 2
REMARK VINA RESULT:     -12.9      2.962      5.037
REMARK SMILES Cc1coc2cc3oc(=O)c(CC(=O)N[C@H](Cc4c[nH]c5ccc(O)cc45)C(=O)NCCCCCCNC(=O)c4ccc(-c5c6nc(c(-c7c(F)c(F)c(F)c(F)c7F)c7ccc([nH]7)c(-c7c(F)c(F)c(F)c(F)c7F)c7nc(c(-c8c(F)c(F)c(F)c(F)c8F)c8ccc5[nH]8)C=C7)C=C6)cc4)c(C)c3cc12
REMARK SMILES IDX 33 1 32 2 31 3 30 4 28 5 29 6 16 8 15 9 13 10 14 11 12 13
REMARK SMILES IDX 11 14 1 15 2 16 3 17 107 18 4 19 5 20 106 21 6 22 105 23
REMARK SMILES IDX 7 24 103 25 8 26 104 27 9 28 10 29 17 30 18 31 19 32 27 33
REMARK SMILES IDX 20 34 21 35 26 36 22 38 24 39 23 40 25 41 34 43 35 44 36 45
REMARK SMILES IDX 37 46 38 47 39 49 40 50 41 51 102 52 42 53 101 54 43 55
REMARK SMILES IDX 44 56 45 57 95 58 46 59 100 60 94 61 96 62 47 63 99 64 93 65
REMARK SMILES IDX 92 66 48 68 80 69 60 70 79 71 61 72 64 73 78 74 97 75 62 76
REMARK SMILES IDX 63 77 77 79 98 80 65 81 49 82 50 83 58 84 51 85 52 86 56 87
REMARK SMILES IDX 59 88 53 89 54 90 57 91 55 92 81 93 82 94 90 95 83 96 84 97
REMARK SMILES IDX 88 98 91 99 85 100 86 101 89 102 87 103 66 104 67 105 75 106
REMARK SMILES IDX 68 107 69 108 73 109 76 110 70 111 71 112 74 113 72 114
REMARK H PARENT 30 7 15 12 20 37 25 42 37 48 96 67 64 78
REMARK Flexibility Score: inf
ROOT
ATOM      1  C   UNL A   1      35.489  30.321  27.673  1.00  0.00     0.002 C 
ENDROOT
BRANCH   1   2
ATOM      2  C   UNL A   1      34.645  29.130  27.243  1.00  0.00     0.021 C 
BRANCH   2   3
ATOM      3  C   UNL A   1      33.291  29.430  26.611  1.00  0.00     0.116 C 
BRANCH   3   4
ATOM      4  N   UNL A   1      33.461  29.774  25.212  1.00  0.00    -0.354 N 
ATOM      5  C   UNL A   1      33.051  29.138  24.078  1.00  0.00     0.242 C 
ATOM      6  O   UNL A   1      33.726  29.343  23.061  1.00  0.00    -0.273 OA
ATOM      7  H   UNL A   1      33.956  30.611  25.055  1.00  0.00     0.163 HD
BRANCH   5   8
ATOM      8  C   UNL A   1      31.828  28.193  24.004  1.00  0.00     0.175 C 
BRANCH   8   9
ATOM      9  N   UNL A   1      31.712  27.418  22.763  1.00  0.00    -0.344 N 
ATOM     10  C   UNL A   1      31.718  26.067  22.585  1.00  0.00     0.225 C 
ATOM     11  O   UNL A   1      31.644  25.646  21.428  1.00  0.00    -0.275 OA
ATOM     12  H   UNL A   1      31.615  27.953  21.941  1.00  0.00     0.164 HD
BRANCH  10  13
ATOM     13  C   UNL A   1      31.796  25.104  23.771  1.00  0.00     0.143 C 
BRANCH  13  14
ATOM     14  C   UNL A   1      33.116  24.361  23.849  1.00  0.00     0.051 A 
ATOM     15  C   UNL A   1      39.276  24.171  27.340  1.00  0.00     0.048 C 
ATOM     16  C   UNL A   1      38.675  23.124  26.482  1.00  0.00    -0.005 A 
ATOM     17  C   UNL A   1      39.170  21.852  26.271  1.00  0.00     0.199 A 
ATOM     18  C   UNL A   1      37.467  23.195  25.721  1.00  0.00     0.024 A 
ATOM     19  O   UNL A   1      38.369  21.147  25.435  1.00  0.00    -0.464 OA
ATOM     20  C   UNL A   1      37.332  21.959  25.102  1.00  0.00     0.137 A 
ATOM     21  C   UNL A   1      36.465  24.167  25.503  1.00  0.00     0.024 A 
ATOM     22  C   UNL A   1      36.274  21.616  24.272  1.00  0.00     0.095 A 
ATOM     23  C   UNL A   1      35.353  23.866  24.689  1.00  0.00     0.022 A 
ATOM     24  C   UNL A   1      35.297  22.603  24.098  1.00  0.00     0.142 A 
ATOM     25  C   UNL A   1      34.218  24.794  24.500  1.00  0.00    -0.029 A 
ATOM     26  O   UNL A   1      34.213  22.233  23.284  1.00  0.00    -0.422 OA
ATOM     27  C   UNL A   1      34.338  26.171  25.104  1.00  0.00     0.046 C 
ATOM     28  C   UNL A   1      33.103  23.044  23.143  1.00  0.00     0.340 A 
ATOM     29  O   UNL A   1      32.142  22.681  22.484  1.00  0.00    -0.246 OA
ENDBRANCH  13  14
ENDBRANCH  10  13
ENDBRANCH   8   9
BRANCH   8  30
ATOM     30  C   UNL A   1      30.486  28.700  24.562  1.00  0.00     0.072 C 
BRANCH  30  31
ATOM     31  C   UNL A   1      29.418  29.085  23.590  1.00  0.00    -0.020 A 
ATOM     32  C   UNL A   1      28.532  28.251  22.935  1.00  0.00     0.087 A 
ATOM     33  C   UNL A   1      29.080  30.426  23.205  1.00  0.00     0.006 A 
ATOM     34  N   UNL A   1      27.726  29.023  22.136  1.00  0.00    -0.361 N 
ATOM     35  C   UNL A   1      28.093  30.346  22.222  1.00  0.00     0.046 A 
ATOM     36  C   UNL A   1      29.562  31.700  23.570  1.00  0.00     0.056 A 
ATOM     37  H   UNL A   1      26.989  28.678  21.582  1.00  0.00     0.166 HD
ATOM     38  C   UNL A   1      27.653  31.463  21.499  1.00  0.00     0.030 A 
ATOM     39  C   UNL A   1      29.085  32.823  22.896  1.00  0.00     0.116 A 
ATOM     40  C   UNL A   1      28.178  32.712  21.850  1.00  0.00     0.048 A 
BRANCH  39  41
ATOM     41  O   UNL A   1      29.553  34.042  23.299  1.00  0.00    -0.508 OA
ATOM     42  H   UNL A   1      30.475  34.199  23.343  1.00  0.00     0.293 HD
ENDBRANCH  39  41
ENDBRANCH  30  31
ENDBRANCH   8  30
ENDBRANCH   5   8
ENDBRANCH   3   4
ENDBRANCH   2   3
ENDBRANCH   1   2
BRANCH   1  43
ATOM     43  C   UNL A   1      34.707  31.620  27.862  1.00  0.00     0.002 C 
BRANCH  43  44
ATOM     44  C   UNL A   1      35.537  32.910  27.886  1.00  0.00     0.021 C 
BRANCH  44  45
ATOM     45  C   UNL A   1      36.345  33.162  29.160  1.00  0.00     0.116 C 
BRANCH  45  46
ATOM     46  N   UNL A   1      35.751  32.657  30.379  1.00  0.00    -0.352 N 
ATOM     47  C   UNL A   1      36.201  31.908  31.430  1.00  0.00     0.251 C 
ATOM     48  H   UNL A   1      34.804  32.913  30.474  1.00  0.00     0.163 HD
ATOM     49  O   UNL A   1      35.437  31.791  32.391  1.00  0.00    -0.269 OA
BRANCH  47  50
ATOM     50  C   UNL A   1      37.486  31.160  31.449  1.00  0.00     0.039 A 
ATOM     51  C   UNL A   1      38.754  31.722  31.324  1.00  0.00     0.014 A 
ATOM     52  C   UNL A   1      37.376  29.760  31.547  1.00  0.00     0.014 A 
ATOM     53  C   UNL A   1      39.865  30.907  31.134  1.00  0.00     0.010 A 
ATOM     54  C   UNL A   1      38.487  28.939  31.401  1.00  0.00     0.010 A 
ATOM     55  C   UNL A   1      39.721  29.515  31.129  1.00  0.00    -0.014 A 
BRANCH  55  56
ATOM     56  C   UNL A   1      40.921  28.703  30.963  1.00  0.00     0.031 A 
ATOM     57  C   UNL A   1      41.696  28.493  32.218  1.00  0.00     0.074 A 
ATOM     58  C   UNL A   1      41.272  28.112  29.803  1.00  0.00     0.049 A 
ATOM     59  N   UNL A   1      42.908  28.865  32.472  1.00  0.00    -0.248 NA
ATOM     60  C   UNL A   1      40.994  27.918  33.375  1.00  0.00     0.031 C 
ATOM     61  C   UNL A   1      40.508  28.020  28.557  1.00  0.00     0.029 A 
ATOM     62  N   UNL A   1      42.394  27.388  29.522  1.00  0.00    -0.354 N 
ATOM     63  C   UNL A   1      43.186  28.434  33.769  1.00  0.00     0.074 A 
ATOM     64  C   UNL A   1      41.935  27.982  34.318  1.00  0.00     0.031 C 
ATOM     65  C   UNL A   1      41.084  27.105  27.743  1.00  0.00     0.029 A 
ATOM     66  C   UNL A   1      42.324  26.647  28.348  1.00  0.00     0.049 A 
ATOM     67  H   UNL A   1      43.187  27.390  30.104  1.00  0.00     0.167 HD
ATOM     68  C   UNL A   1      44.470  28.309  34.208  1.00  0.00     0.037 A 
ATOM     69  C   UNL A   1      43.200  25.696  27.934  1.00  0.00     0.037 A 
ATOM     70  C   UNL A   1      45.364  29.101  33.403  1.00  0.00     0.049 A 
ATOM     71  C   UNL A   1      44.479  25.933  28.653  1.00  0.00     0.074 A 
ATOM     72  C   UNL A   1      45.478  30.453  33.134  1.00  0.00     0.029 A 
ATOM     73  N   UNL A   1      46.111  28.471  32.438  1.00  0.00    -0.354 N 
ATOM     74  N   UNL A   1      45.244  26.967  28.436  1.00  0.00    -0.248 NA
ATOM     75  C   UNL A   1      44.662  25.272  29.937  1.00  0.00     0.031 C 
ATOM     76  C   UNL A   1      45.845  30.524  31.759  1.00  0.00     0.029 A 
ATOM     77  C   UNL A   1      46.005  29.218  31.295  1.00  0.00     0.049 A 
ATOM     78  H   UNL A   1      46.626  27.639  32.549  1.00  0.00     0.167 HD
ATOM     79  C   UNL A   1      45.677  27.349  29.697  1.00  0.00     0.074 A 
ATOM     80  C   UNL A   1      45.348  26.226  30.574  1.00  0.00     0.031 C 
ATOM     81  C   UNL A   1      45.992  28.648  29.971  1.00  0.00     0.037 A 
BRANCH  68  82
ATOM     82  C   UNL A   1      44.969  27.197  35.107  1.00  0.00     0.064 A 
ATOM     83  C   UNL A   1      45.817  27.526  36.186  1.00  0.00     0.173 A 
ATOM     84  C   UNL A   1      44.923  25.825  34.776  1.00  0.00     0.173 A 
ATOM     85  F   UNL A   1      45.934  28.794  36.607  1.00  0.00    -0.203 F 
ATOM     86  C   UNL A   1      46.648  26.580  36.793  1.00  0.00     0.198 A 
ATOM     87  C   UNL A   1      45.719  24.876  35.416  1.00  0.00     0.198 A 
ATOM     88  F   UNL A   1      44.193  25.354  33.761  1.00  0.00    -0.203 F 
ATOM     89  F   UNL A   1      47.542  26.972  37.710  1.00  0.00    -0.200 F 
ATOM     90  C   UNL A   1      46.611  25.258  36.394  1.00  0.00     0.200 A 
ATOM     91  F   UNL A   1      45.671  23.599  35.011  1.00  0.00    -0.200 F 
ATOM     92  F   UNL A   1      47.459  24.364  36.917  1.00  0.00    -0.200 F 
ENDBRANCH  68  82
BRANCH  69  93
ATOM     93  C   UNL A   1      42.923  24.436  27.198  1.00  0.00     0.064 A 
ATOM     94  C   UNL A   1      43.272  24.285  25.844  1.00  0.00     0.173 A 
ATOM     95  C   UNL A   1      42.565  23.255  27.879  1.00  0.00     0.173 A 
ATOM     96  F   UNL A   1      43.675  25.344  25.128  1.00  0.00    -0.203 F 
ATOM     97  C   UNL A   1      43.285  23.030  25.221  1.00  0.00     0.198 A 
ATOM     98  C   UNL A   1      42.571  22.006  27.256  1.00  0.00     0.198 A 
ATOM     99  F   UNL A   1      42.294  23.274  29.192  1.00  0.00    -0.203 F 
ATOM    100  F   UNL A   1      43.683  22.920  23.945  1.00  0.00    -0.200 F 
ATOM    101  C   UNL A   1      42.943  21.891  25.931  1.00  0.00     0.200 A 
ATOM    102  F   UNL A   1      42.274  20.908  27.966  1.00  0.00    -0.200 F 
ATOM    103  F   UNL A   1      43.014  20.683  25.353  1.00  0.00    -0.200 F 
ENDBRANCH  69  93
BRANCH  81 104
ATOM    104  C   UNL A   1      46.076  29.620  28.829  1.00  0.00     0.064 A 
ATOM    105  C   UNL A   1      44.967  30.311  28.311  1.00  0.00     0.173 A 
ATOM    106  C   UNL A   1      47.346  30.019  28.392  1.00  0.00     0.173 A 
ATOM    107  F   UNL A   1      43.729  30.058  28.748  1.00  0.00    -0.203 F 
ATOM    108  C   UNL A   1      45.126  31.340  27.384  1.00  0.00     0.198 A 
ATOM    109  C   UNL A   1      47.504  31.071  27.495  1.00  0.00     0.198 A 
ATOM    110  F   UNL A   1      48.444  29.432  28.895  1.00  0.00    -0.203 F 
ATOM    111  F   UNL A   1      44.053  31.993  26.913  1.00  0.00    -0.200 F 
ATOM    112  C   UNL A   1      46.395  31.728  26.987  1.00  0.00     0.200 A 
ATOM    113  F   UNL A   1      48.735  31.478  27.157  1.00  0.00    -0.200 F 
ATOM    114  F   UNL A   1      46.551  32.760  26.146  1.00  0.00    -0.200 F 
ENDBRANCH  81 104
ENDBRANCH  55  56
ENDBRANCH  47  50
ENDBRANCH  45  46
ENDBRANCH  44  45
ENDBRANCH  43  44
ENDBRANCH   1  43
TORSDOF 19
ENDMDL
MODEL 3
REMARK VINA RESULT:     -12.6      2.694      4.797
REMARK SMILES Cc1coc2cc3oc(=O)c(CC(=O)N[C@H](Cc4c[nH]c5ccc(O)cc45)C(=O)NCCCCCCNC(=O)c4ccc(-c5c6nc(c(-c7c(F)c(F)c(F)c(F)c7F)c7ccc([nH]7)c(-c7c(F)c(F)c(F)c(F)c7F)c7nc(c(-c8c(F)c(F)c(F)c(F)c8F)c8ccc5[nH]8)C=C7)C=C6)cc4)c(C)c3cc12
REMARK SMILES IDX 33 1 32 2 31 3 30 4 28 5 29 6 16 8 15 9 13 10 14 11 12 13
REMARK SMILES IDX 11 14 1 15 2 16 3 17 107 18 4 19 5 20 106 21 6 22 105 23
REMARK SMILES IDX 7 24 103 25 8 26 104 27 9 28 10 29 17 30 18 31 19 32 27 33
REMARK SMILES IDX 20 34 21 35 26 36 22 38 24 39 23 40 25 41 34 43 35 44 36 45
REMARK SMILES IDX 37 46 38 47 39 49 40 50 41 51 102 52 42 53 101 54 43 55
REMARK SMILES IDX 44 56 45 57 95 58 46 59 100 60 94 61 96 62 47 63 99 64 93 65
REMARK SMILES IDX 92 66 48 68 80 69 60 70 79 71 61 72 64 73 78 74 97 75 62 76
REMARK SMILES IDX 63 77 77 79 98 80 65 81 49 82 50 83 58 84 51 85 52 86 56 87
REMARK SMILES IDX 59 88 53 89 54 90 57 91 55 92 81 93 82 94 90 95 83 96 84 97
REMARK SMILES IDX 88 98 91 99 85 100 86 101 89 102 87 103 66 104 67 105 75 106
REMARK SMILES IDX 68 107 69 108 73 109 76 110 70 111 71 112 74 113 72 114
REMARK H PARENT 30 7 15 12 20 37 25 42 37 48 96 67 64 78
REMARK Flexibility Score: inf
ROOT
ATOM      1  C   UNL A   1      32.807  28.736  26.057  1.00  0.00     0.002 C 
ENDROOT
BRANCH   1   2
ATOM      2  C   UNL A   1      32.421  27.266  26.136  1.00  0.00     0.021 C 
BRANCH   2   3
ATOM      3  C   UNL A   1      33.492  26.247  25.764  1.00  0.00     0.116 C 
BRANCH   3   4
ATOM      4  N   UNL A   1      34.083  26.591  24.485  1.00  0.00    -0.354 N 
ATOM      5  C   UNL A   1      33.758  26.212  23.217  1.00  0.00     0.242 C 
ATOM      6  O   UNL A   1      34.677  26.224  22.388  1.00  0.00    -0.273 OA
ATOM      7  H   UNL A   1      34.851  27.206  24.543  1.00  0.00     0.163 HD
BRANCH   5   8
ATOM      8  C   UNL A   1      32.341  25.768  22.778  1.00  0.00     0.175 C 
BRANCH   8   9
ATOM      9  N   UNL A   1      32.256  24.412  22.224  1.00  0.00    -0.344 N 
ATOM     10  C   UNL A   1      32.695  23.235  22.751  1.00  0.00     0.225 C 
ATOM     11  O   UNL A   1      32.543  22.216  22.073  1.00  0.00    -0.275 OA
ATOM     12  H   UNL A   1      31.818  24.343  21.344  1.00  0.00     0.164 HD
BRANCH  10  13
ATOM     13  C   UNL A   1      33.338  23.170  24.138  1.00  0.00     0.143 C 
BRANCH  13  14
ATOM     14  C   UNL A   1      33.832  21.782  24.502  1.00  0.00     0.051 A 
ATOM     15  C   UNL A   1      31.622  15.184  25.824  1.00  0.00     0.048 C 
ATOM     16  C   UNL A   1      32.991  15.645  25.499  1.00  0.00    -0.005 A 
ATOM     17  C   UNL A   1      34.100  14.846  25.299  1.00  0.00     0.199 A 
ATOM     18  C   UNL A   1      33.447  16.987  25.305  1.00  0.00     0.024 A 
ATOM     19  O   UNL A   1      35.195  15.592  25.011  1.00  0.00    -0.464 OA
ATOM     20  C   UNL A   1      34.801  16.893  25.011  1.00  0.00     0.137 A 
ATOM     21  C   UNL A   1      32.854  18.269  25.332  1.00  0.00     0.024 A 
ATOM     22  C   UNL A   1      35.617  17.982  24.745  1.00  0.00     0.095 A 
ATOM     23  C   UNL A   1      33.630  19.412  25.045  1.00  0.00     0.022 A 
ATOM     24  C   UNL A   1      34.985  19.231  24.765  1.00  0.00     0.142 A 
ATOM     25  C   UNL A   1      33.057  20.772  24.952  1.00  0.00    -0.029 A 
ATOM     26  O   UNL A   1      35.812  20.325  24.461  1.00  0.00    -0.422 OA
ATOM     27  C   UNL A   1      31.602  20.940  25.316  1.00  0.00     0.046 C 
ATOM     28  C   UNL A   1      35.300  21.597  24.295  1.00  0.00     0.340 A 
ATOM     29  O   UNL A   1      36.022  22.525  23.968  1.00  0.00    -0.246 OA
ENDBRANCH  13  14
ENDBRANCH  10  13
ENDBRANCH   8   9
BRANCH   8  30
ATOM     30  C   UNL A   1      31.447  26.800  22.067  1.00  0.00     0.072 C 
BRANCH  30  31
ATOM     31  C   UNL A   1      30.126  27.131  22.683  1.00  0.00    -0.020 A 
ATOM     32  C   UNL A   1      29.291  26.290  23.393  1.00  0.00     0.087 A 
ATOM     33  C   UNL A   1      29.510  28.428  22.697  1.00  0.00     0.006 A 
ATOM     34  N   UNL A   1      28.183  27.005  23.774  1.00  0.00    -0.361 N 
ATOM     35  C   UNL A   1      28.255  28.292  23.293  1.00  0.00     0.046 A 
ATOM     36  C   UNL A   1      29.887  29.696  22.209  1.00  0.00     0.056 A 
ATOM     37  H   UNL A   1      27.443  26.648  24.316  1.00  0.00     0.166 HD
ATOM     38  C   UNL A   1      27.312  29.327  23.315  1.00  0.00     0.030 A 
ATOM     39  C   UNL A   1      28.976  30.748  22.282  1.00  0.00     0.116 A 
ATOM     40  C   UNL A   1      27.694  30.566  22.786  1.00  0.00     0.048 A 
BRANCH  39  41
ATOM     41  O   UNL A   1      29.390  31.968  21.828  1.00  0.00    -0.508 OA
ATOM     42  H   UNL A   1      29.700  32.061  20.950  1.00  0.00     0.293 HD
ENDBRANCH  39  41
ENDBRANCH  30  31
ENDBRANCH   8  30
ENDBRANCH   5   8
ENDBRANCH   3   4
ENDBRANCH   2   3
ENDBRANCH   1   2
BRANCH   1  43
ATOM     43  C   UNL A   1      31.767  29.698  26.629  1.00  0.00     0.002 C 
BRANCH  43  44
ATOM     44  C   UNL A   1      32.258  31.119  26.934  1.00  0.00     0.021 C 
BRANCH  44  45
ATOM     45  C   UNL A   1      33.728  31.246  27.341  1.00  0.00     0.116 C 
BRANCH  45  46
ATOM     46  N   UNL A   1      33.964  31.881  28.619  1.00  0.00    -0.352 N 
ATOM     47  C   UNL A   1      35.036  31.979  29.462  1.00  0.00     0.251 C 
ATOM     48  H   UNL A   1      33.169  32.351  28.961  1.00  0.00     0.163 HD
ATOM     49  O   UNL A   1      34.914  32.745  30.421  1.00  0.00    -0.269 OA
BRANCH  47  50
ATOM     50  C   UNL A   1      36.276  31.167  29.353  1.00  0.00     0.039 A 
ATOM     51  C   UNL A   1      36.331  29.782  29.214  1.00  0.00     0.014 A 
ATOM     52  C   UNL A   1      37.485  31.883  29.457  1.00  0.00     0.014 A 
ATOM     53  C   UNL A   1      37.544  29.114  29.344  1.00  0.00     0.010 A 
ATOM     54  C   UNL A   1      38.705  31.224  29.545  1.00  0.00     0.010 A 
ATOM     55  C   UNL A   1      38.724  29.836  29.554  1.00  0.00    -0.014 A 
BRANCH  55  56
ATOM     56  C   UNL A   1      39.975  29.091  29.647  1.00  0.00     0.031 A 
ATOM     57  C   UNL A   1      40.503  28.953  31.032  1.00  0.00     0.074 A 
ATOM     58  C   UNL A   1      40.573  28.496  28.594  1.00  0.00     0.049 A 
ATOM     59  N   UNL A   1      41.623  29.399  31.501  1.00  0.00    -0.248 NA
ATOM     60  C   UNL A   1      39.623  28.363  32.052  1.00  0.00     0.031 C 
ATOM     61  C   UNL A   1      40.069  28.334  27.229  1.00  0.00     0.029 A 
ATOM     62  N   UNL A   1      41.764  27.832  28.555  1.00  0.00    -0.354 N 
ATOM     63  C   UNL A   1      41.668  29.013  32.840  1.00  0.00     0.074 A 
ATOM     64  C   UNL A   1      40.361  28.502  33.155  1.00  0.00     0.031 C 
ATOM     65  C   UNL A   1      40.838  27.436  26.570  1.00  0.00     0.029 A 
ATOM     66  C   UNL A   1      41.959  27.063  27.415  1.00  0.00     0.049 A 
ATOM     67  H   UNL A   1      42.429  27.892  29.278  1.00  0.00     0.167 HD
ATOM     68  C   UNL A   1      42.848  28.971  33.519  1.00  0.00     0.037 A 
ATOM     69  C   UNL A   1      42.948  26.156  27.207  1.00  0.00     0.037 A 
ATOM     70  C   UNL A   1      43.838  29.796  32.875  1.00  0.00     0.049 A 
ATOM     71  C   UNL A   1      44.050  26.481  28.148  1.00  0.00     0.074 A 
ATOM     72  C   UNL A   1      43.931  31.146  32.589  1.00  0.00     0.029 A 
ATOM     73  N   UNL A   1      44.789  29.189  32.092  1.00  0.00    -0.354 N 
ATOM     74  N   UNL A   1      44.788  27.552  28.048  1.00  0.00    -0.248 NA
ATOM     75  C   UNL A   1      44.017  25.860  29.464  1.00  0.00     0.031 C 
ATOM     76  C   UNL A   1      44.552  31.208  31.309  1.00  0.00     0.029 A 
ATOM     77  C   UNL A   1      44.866  29.904  30.926  1.00  0.00     0.049 A 
ATOM     78  H   UNL A   1      45.316  28.391  32.325  1.00  0.00     0.167 HD
ATOM     79  C   UNL A   1      44.949  27.985  29.355  1.00  0.00     0.074 A 
ATOM     80  C   UNL A   1      44.517  26.864  30.189  1.00  0.00     0.031 C 
ATOM     81  C   UNL A   1      45.137  29.306  29.643  1.00  0.00     0.037 A 
BRANCH  68  82
ATOM     82  C   UNL A   1      43.223  27.909  34.532  1.00  0.00     0.064 A 
ATOM     83  C   UNL A   1      43.502  28.305  35.858  1.00  0.00     0.173 A 
ATOM     84  C   UNL A   1      43.629  26.599  34.199  1.00  0.00     0.173 A 
ATOM     85  F   UNL A   1      43.150  29.521  36.302  1.00  0.00    -0.203 F 
ATOM     86  C   UNL A   1      44.244  27.504  36.731  1.00  0.00     0.198 A 
ATOM     87  C   UNL A   1      44.328  25.785  35.089  1.00  0.00     0.198 A 
ATOM     88  F   UNL A   1      43.465  26.085  32.977  1.00  0.00    -0.203 F 
ATOM     89  F   UNL A   1      44.611  27.987  37.926  1.00  0.00    -0.200 F 
ATOM     90  C   UNL A   1      44.672  26.251  36.339  1.00  0.00     0.200 A 
ATOM     91  F   UNL A   1      44.738  24.573  34.686  1.00  0.00    -0.200 F 
ATOM     92  F   UNL A   1      45.449  25.513  37.142  1.00  0.00    -0.200 F 
ENDBRANCH  68  82
BRANCH  69  93
ATOM     93  C   UNL A   1      42.884  24.865  26.472  1.00  0.00     0.064 A 
ATOM     94  C   UNL A   1      43.712  24.610  25.364  1.00  0.00     0.173 A 
ATOM     95  C   UNL A   1      42.209  23.751  27.009  1.00  0.00     0.173 A 
ATOM     96  F   UNL A   1      44.432  25.599  24.816  1.00  0.00    -0.203 F 
ATOM     97  C   UNL A   1      43.872  23.318  24.846  1.00  0.00     0.198 A 
ATOM     98  C   UNL A   1      42.363  22.465  26.487  1.00  0.00     0.198 A 
ATOM     99  F   UNL A   1      41.459  23.868  28.114  1.00  0.00    -0.203 F 
ATOM    100  F   UNL A   1      44.719  23.106  23.828  1.00  0.00    -0.200 F 
ATOM    101  C   UNL A   1      43.205  22.246  25.414  1.00  0.00     0.200 A 
ATOM    102  F   UNL A   1      41.740  21.432  27.071  1.00  0.00    -0.200 F 
ATOM    103  F   UNL A   1      43.404  21.001  24.958  1.00  0.00    -0.200 F 
ENDBRANCH  69  93
BRANCH  81 104
ATOM    104  C   UNL A   1      45.389  30.257  28.507  1.00  0.00     0.064 A 
ATOM    105  C   UNL A   1      44.365  30.896  27.786  1.00  0.00     0.173 A 
ATOM    106  C   UNL A   1      46.702  30.691  28.287  1.00  0.00     0.173 A 
ATOM    107  F   UNL A   1      43.079  30.608  28.008  1.00  0.00    -0.203 F 
ATOM    108  C   UNL A   1      44.652  31.910  26.873  1.00  0.00     0.198 A 
ATOM    109  C   UNL A   1      46.980  31.729  27.403  1.00  0.00     0.198 A 
ATOM    110  F   UNL A   1      47.714  30.154  28.988  1.00  0.00    -0.203 F 
ATOM    111  F   UNL A   1      43.656  32.515  26.206  1.00  0.00    -0.200 F 
ATOM    112  C   UNL A   1      45.957  32.335  26.693  1.00  0.00     0.200 A 
ATOM    113  F   UNL A   1      48.239  32.172  27.273  1.00  0.00    -0.200 F 
ATOM    114  F   UNL A   1      46.225  33.354  25.864  1.00  0.00    -0.200 F 
ENDBRANCH  81 104
ENDBRANCH  55  56
ENDBRANCH  47  50
ENDBRANCH  45  46
ENDBRANCH  44  45
ENDBRANCH  43  44
ENDBRANCH   1  43
TORSDOF 19
ENDMDL
